MODEL 1
REMARK VINA RESULT:      -9.6      0.000      0.000
REMARK SMILES CCOC(=O)[C@@H](C)Oc1ccc(Br)cc1/C=C/C(=O)OCCOCCOCCOCCOC(=O)c1ccc(-c2c3nc(c(-c4c(F)cc(S(=O)(=O)[O-])cc4F)c4ccc([nH]4)c(-c4c(F)cc(S(=O)(=O)[O-])cc4F)c4nc(c(-c5c(F)cc(S(=O)(=O)[O-])cc5F)c5ccc2[nH]5)C=C4)C=C3)cc1
REMARK SMILES IDX 24 1 23 2 22 3 21 4 20 5 18 6 19 7 17 8 16 9 15 10 9 11
REMARK SMILES IDX 10 12 11 13 14 14 12 15 13 16 8 17 6 18 7 19 4 20 5 21 3 22
REMARK SMILES IDX 2 23 1 24 25 25 26 26 27 27 28 28 29 29 30 30 31 31 32 32
REMARK SMILES IDX 33 33 34 34 35 35 36 36 100 37 37 38 99 39 38 40 39 41 40 42
REMARK SMILES IDX 93 43 41 44 98 45 92 46 94 47 42 48 97 49 91 50 90 51 43 53
REMARK SMILES IDX 77 54 56 55 76 56 57 57 60 58 75 59 95 60 58 61 59 62 74 64
REMARK SMILES IDX 96 65 61 66 44 67 45 68 54 69 46 70 47 71 53 72 55 73 48 74
REMARK SMILES IDX 49 75 50 76 51 77 52 78 78 79 79 80 88 81 80 82 81 83 87 84
REMARK SMILES IDX 89 85 82 86 83 87 84 88 85 89 86 90 62 91 63 92 72 93 64 94
REMARK SMILES IDX 65 95 71 96 73 97 66 98 67 99 68 100 69 101 70 102
REMARK H PARENT 94 52 60 63
REMARK Flexibility Score: inf
ROOT
ATOM      1  C   UNL A   1      31.791  29.118  25.453  1.00  0.00     0.188 C 
ENDROOT
BRANCH   1   2
ATOM      2  O   UNL A   1      32.871  28.232  25.234  1.00  0.00    -0.376 OA
BRANCH   2   3
ATOM      3  C   UNL A   1      33.775  28.459  24.168  1.00  0.00     0.202 C 
BRANCH   3   4
ATOM      4  C   UNL A   1      33.321  28.367  22.702  1.00  0.00     0.261 C 
BRANCH   4   5
ATOM      5  O   UNL A   1      33.719  27.197  21.985  1.00  0.00    -0.460 OA
BRANCH   5   6
ATOM      6  C   UNL A   1      33.055  26.059  22.262  1.00  0.00     0.330 C 
ATOM      7  O   UNL A   1      31.946  25.748  21.854  1.00  0.00    -0.247 OA
BRANCH   6   8
ATOM      8  C   UNL A   1      33.916  25.114  23.005  1.00  0.00     0.094 C 
ATOM      9  C   UNL A   1      33.660  24.609  24.226  1.00  0.00     0.019 C 
BRANCH   9  10
ATOM     10  C   UNL A   1      34.598  23.677  24.878  1.00  0.00     0.018 A 
ATOM     11  C   UNL A   1      34.321  22.303  24.967  1.00  0.00     0.127 A 
ATOM     12  C   UNL A   1      35.355  21.427  25.301  1.00  0.00     0.048 A 
ATOM     13  C   UNL A   1      36.587  21.902  25.751  1.00  0.00     0.019 A 
ATOM     14  C   UNL A   1      35.821  24.156  25.386  1.00  0.00     0.027 A 
ATOM     15  C   UNL A   1      36.799  23.270  25.832  1.00  0.00     0.018 A 
ATOM     16  Br  UNL A   1      38.449  23.928  26.475  1.00  0.00    -0.051 Br
BRANCH  11  17
ATOM     17  O   UNL A   1      33.076  21.846  24.620  1.00  0.00    -0.478 OA
BRANCH  17  18
ATOM     18  C   UNL A   1      33.014  20.694  23.755  1.00  0.00     0.279 C 
ATOM     19  C   UNL A   1      32.126  20.896  22.523  1.00  0.00     0.066 C 
BRANCH  18  20
ATOM     20  C   UNL A   1      32.797  19.344  24.464  1.00  0.00     0.347 C 
ATOM     21  O   UNL A   1      32.461  19.236  25.637  1.00  0.00    -0.248 OA
BRANCH  20  22
ATOM     22  O   UNL A   1      32.874  18.293  23.593  1.00  0.00    -0.463 OA
BRANCH  22  23
ATOM     23  C   UNL A   1      33.855  17.292  23.913  1.00  0.00     0.229 C 
ATOM     24  C   UNL A   1      33.196  16.058  24.484  1.00  0.00     0.049 C 
ENDBRANCH  22  23
ENDBRANCH  20  22
ENDBRANCH  18  20
ENDBRANCH  17  18
ENDBRANCH  11  17
ENDBRANCH   9  10
ENDBRANCH   6   8
ENDBRANCH   5   6
ENDBRANCH   4   5
ENDBRANCH   3   4
ENDBRANCH   2   3
ENDBRANCH   1   2
BRANCH   1  25
ATOM     25  C   UNL A   1      32.189  30.414  26.185  1.00  0.00     0.188 C 
BRANCH  25  26
ATOM     26  O   UNL A   1      32.934  30.297  27.386  1.00  0.00    -0.377 OA
BRANCH  26  27
ATOM     27  C   UNL A   1      34.333  30.585  27.389  1.00  0.00     0.188 C 
BRANCH  27  28
ATOM     28  C   UNL A   1      34.923  31.871  28.021  1.00  0.00     0.188 C 
BRANCH  28  29
ATOM     29  O   UNL A   1      34.152  32.433  29.069  1.00  0.00    -0.376 OA
BRANCH  29  30
ATOM     30  C   UNL A   1      34.844  33.131  30.090  1.00  0.00     0.202 C 
BRANCH  30  31
ATOM     31  C   UNL A   1      35.264  32.310  31.316  1.00  0.00     0.261 C 
BRANCH  31  32
ATOM     32  O   UNL A   1      36.582  31.744  31.274  1.00  0.00    -0.460 OA
BRANCH  32  33
ATOM     33  C   UNL A   1      36.689  30.454  30.890  1.00  0.00     0.338 C 
ATOM     34  O   UNL A   1      35.787  29.634  30.813  1.00  0.00    -0.246 OA
BRANCH  33  35
ATOM     35  C   UNL A   1      38.064  30.247  30.395  1.00  0.00     0.060 A 
ATOM     36  C   UNL A   1      38.281  30.064  29.023  1.00  0.00     0.016 A 
ATOM     37  C   UNL A   1      39.138  30.250  31.288  1.00  0.00     0.016 A 
ATOM     38  C   UNL A   1      39.574  29.850  28.544  1.00  0.00     0.010 A 
ATOM     39  C   UNL A   1      40.430  30.016  30.810  1.00  0.00     0.010 A 
ATOM     40  C   UNL A   1      40.650  29.782  29.440  1.00  0.00    -0.014 A 
BRANCH  40  41
ATOM     41  C   UNL A   1      41.967  29.276  28.983  1.00  0.00     0.031 A 
ATOM     42  C   UNL A   1      43.116  30.246  28.911  1.00  0.00     0.074 A 
ATOM     43  C   UNL A   1      42.147  27.987  28.643  1.00  0.00     0.049 A 
ATOM     44  N   UNL A   1      44.339  30.058  28.492  1.00  0.00    -0.248 NA
ATOM     45  C   UNL A   1      42.841  31.618  29.372  1.00  0.00     0.031 C 
ATOM     46  C   UNL A   1      41.124  26.944  28.709  1.00  0.00     0.029 A 
ATOM     47  N   UNL A   1      43.258  27.341  28.162  1.00  0.00    -0.354 N 
ATOM     48  C   UNL A   1      44.975  31.287  28.622  1.00  0.00     0.074 A 
ATOM     49  C   UNL A   1      43.994  32.220  29.132  1.00  0.00     0.031 C 
ATOM     50  C   UNL A   1      41.656  25.787  28.278  1.00  0.00     0.029 A 
ATOM     51  C   UNL A   1      43.042  26.015  27.870  1.00  0.00     0.049 A 
ATOM     52  H   UNL A   1      44.127  27.784  28.037  1.00  0.00     0.167 HD
ATOM     53  C   UNL A   1      46.262  31.608  28.345  1.00  0.00     0.037 A 
ATOM     54  C   UNL A   1      43.864  25.098  27.317  1.00  0.00     0.037 A 
ATOM     55  C   UNL A   1      47.231  30.673  27.836  1.00  0.00     0.049 A 
ATOM     56  C   UNL A   1      45.272  25.496  26.948  1.00  0.00     0.074 A 
ATOM     57  C   UNL A   1      48.567  30.890  27.551  1.00  0.00     0.029 A 
ATOM     58  N   UNL A   1      46.965  29.348  27.520  1.00  0.00    -0.354 N 
ATOM     59  N   UNL A   1      45.873  26.653  27.105  1.00  0.00    -0.248 NA
ATOM     60  C   UNL A   1      46.114  24.464  26.327  1.00  0.00     0.031 C 
ATOM     61  C   UNL A   1      49.092  29.716  27.001  1.00  0.00     0.029 A 
ATOM     62  C   UNL A   1      48.103  28.745  27.009  1.00  0.00     0.049 A 
ATOM     63  H   UNL A   1      46.095  28.902  27.641  1.00  0.00     0.167 HD
ATOM     64  C   UNL A   1      47.171  26.476  26.634  1.00  0.00     0.074 A 
ATOM     65  C   UNL A   1      47.270  25.100  26.195  1.00  0.00     0.031 C 
ATOM     66  C   UNL A   1      48.190  27.370  26.579  1.00  0.00     0.037 A 
BRANCH  53  67
ATOM     67  C   UNL A   1      46.681  33.040  28.544  1.00  0.00     0.058 A 
ATOM     68  C   UNL A   1      46.496  34.018  27.554  1.00  0.00     0.135 A 
ATOM     69  C   UNL A   1      47.265  33.442  29.757  1.00  0.00     0.135 A 
ATOM     70  F   UNL A   1      45.960  33.688  26.368  1.00  0.00    -0.206 F 
ATOM     71  C   UNL A   1      46.906  35.334  27.745  1.00  0.00     0.059 A 
ATOM     72  C   UNL A   1      47.652  34.759  29.983  1.00  0.00     0.059 A 
ATOM     73  F   UNL A   1      47.469  32.549  30.739  1.00  0.00    -0.206 F 
ATOM     74  C   UNL A   1      47.485  35.694  28.964  1.00  0.00     0.060 A 
BRANCH  74  75
ATOM     75  S   UNL A   1      48.019  37.403  29.193  1.00  0.00     0.124 S 
ATOM     76  O   UNL A   1      49.355  37.371  28.606  1.00  0.00    -0.237 OA
ATOM     77  O   UNL A   1      47.014  38.147  28.441  1.00  0.00    -0.237 OA
ATOM     78  O   UNL A   1      47.975  37.583  30.642  1.00  0.00    -0.744 OA
ENDBRANCH  74  75
ENDBRANCH  53  67
BRANCH  54  79
ATOM     79  C   UNL A   1      43.381  23.710  27.082  1.00  0.00     0.058 A 
ATOM     80  C   UNL A   1      43.018  23.280  25.797  1.00  0.00     0.135 A 
ATOM     81  C   UNL A   1      43.277  22.785  28.133  1.00  0.00     0.135 A 
ATOM     82  F   UNL A   1      43.083  24.131  24.762  1.00  0.00    -0.206 F 
ATOM     83  C   UNL A   1      42.563  21.987  25.562  1.00  0.00     0.059 A 
ATOM     84  C   UNL A   1      42.851  21.477  27.917  1.00  0.00     0.059 A 
ATOM     85  F   UNL A   1      43.615  23.144  29.381  1.00  0.00    -0.206 F 
ATOM     86  C   UNL A   1      42.491  21.089  26.628  1.00  0.00     0.060 A 
BRANCH  86  87
ATOM     87  S   UNL A   1      41.962  19.394  26.295  1.00  0.00     0.124 S 
ATOM     88  O   UNL A   1      42.688  19.095  25.067  1.00  0.00    -0.237 OA
ATOM     89  O   UNL A   1      42.416  18.695  27.494  1.00  0.00    -0.237 OA
ATOM     90  O   UNL A   1      40.513  19.515  26.159  1.00  0.00    -0.744 OA
ENDBRANCH  86  87
ENDBRANCH  54  79
BRANCH  66  91
ATOM     91  C   UNL A   1      49.521  26.886  26.063  1.00  0.00     0.058 A 
ATOM     92  C   UNL A   1      49.903  27.047  24.721  1.00  0.00     0.135 A 
ATOM     93  C   UNL A   1      50.451  26.303  26.941  1.00  0.00     0.135 A 
ATOM     94  F   UNL A   1      49.054  27.592  23.837  1.00  0.00    -0.206 F 
ATOM     95  C   UNL A   1      51.149  26.626  24.265  1.00  0.00     0.059 A 
ATOM     96  C   UNL A   1      51.714  25.907  26.514  1.00  0.00     0.059 A 
ATOM     97  F   UNL A   1      50.143  26.136  28.238  1.00  0.00    -0.206 F 
ATOM     98  C   UNL A   1      52.049  26.061  25.169  1.00  0.00     0.060 A 
BRANCH  98  99
ATOM     99  S   UNL A   1      53.674  25.552  24.571  1.00  0.00     0.124 S 
ATOM    100  O   UNL A   1      54.558  26.192  25.540  1.00  0.00    -0.237 OA
ATOM    101  O   UNL A   1      53.594  24.096  24.651  1.00  0.00    -0.237 OA
ATOM    102  O   UNL A   1      53.727  26.097  23.218  1.00  0.00    -0.744 OA
ENDBRANCH  98  99
ENDBRANCH  66  91
ENDBRANCH  40  41
ENDBRANCH  33  35
ENDBRANCH  32  33
ENDBRANCH  31  32
ENDBRANCH  30  31
ENDBRANCH  29  30
ENDBRANCH  28  29
ENDBRANCH  27  28
ENDBRANCH  26  27
ENDBRANCH  25  26
ENDBRANCH   1  25
TORSDOF 29
ENDMDL
MODEL 2
REMARK VINA RESULT:      -9.6      0.721      7.912
REMARK SMILES CCOC(=O)[C@@H](C)Oc1ccc(Br)cc1/C=C/C(=O)OCCOCCOCCOCCOC(=O)c1ccc(-c2c3nc(c(-c4c(F)cc(S(=O)(=O)[O-])cc4F)c4ccc([nH]4)c(-c4c(F)cc(S(=O)(=O)[O-])cc4F)c4nc(c(-c5c(F)cc(S(=O)(=O)[O-])cc5F)c5ccc2[nH]5)C=C4)C=C3)cc1
REMARK SMILES IDX 24 1 23 2 22 3 21 4 20 5 18 6 19 7 17 8 16 9 15 10 9 11
REMARK SMILES IDX 10 12 11 13 14 14 12 15 13 16 8 17 6 18 7 19 4 20 5 21 3 22
REMARK SMILES IDX 2 23 1 24 25 25 26 26 27 27 28 28 29 29 30 30 31 31 32 32
REMARK SMILES IDX 33 33 34 34 35 35 36 36 100 37 37 38 99 39 38 40 39 41 40 42
REMARK SMILES IDX 93 43 41 44 98 45 92 46 94 47 42 48 97 49 91 50 90 51 43 53
REMARK SMILES IDX 77 54 56 55 76 56 57 57 60 58 75 59 95 60 58 61 59 62 74 64
REMARK SMILES IDX 96 65 61 66 44 67 45 68 54 69 46 70 47 71 53 72 55 73 48 74
REMARK SMILES IDX 49 75 50 76 51 77 52 78 78 79 79 80 88 81 80 82 81 83 87 84
REMARK SMILES IDX 89 85 82 86 83 87 84 88 85 89 86 90 62 91 63 92 72 93 64 94
REMARK SMILES IDX 65 95 71 96 73 97 66 98 67 99 68 100 69 101 70 102
REMARK H PARENT 94 52 60 63
REMARK Flexibility Score: inf
ROOT
ATOM      1  C   UNL A   1      32.003  28.572  25.223  1.00  0.00     0.188 C 
ENDROOT
BRANCH   1   2
ATOM      2  O   UNL A   1      33.211  27.892  24.941  1.00  0.00    -0.376 OA
BRANCH   2   3
ATOM      3  C   UNL A   1      33.886  28.116  23.717  1.00  0.00     0.202 C 
BRANCH   3   4
ATOM      4  C   UNL A   1      33.305  27.621  22.381  1.00  0.00     0.261 C 
BRANCH   4   5
ATOM      5  O   UNL A   1      33.737  26.334  21.938  1.00  0.00    -0.460 OA
BRANCH   5   6
ATOM      6  C   UNL A   1      33.142  25.266  22.503  1.00  0.00     0.330 C 
ATOM      7  O   UNL A   1      31.963  24.961  22.415  1.00  0.00    -0.247 OA
BRANCH   6   8
ATOM      8  C   UNL A   1      34.144  24.375  23.128  1.00  0.00     0.094 C 
ATOM      9  C   UNL A   1      34.511  24.389  24.422  1.00  0.00     0.019 C 
BRANCH   9  10
ATOM     10  C   UNL A   1      35.531  23.456  24.936  1.00  0.00     0.018 A 
ATOM     11  C   UNL A   1      35.419  22.070  24.740  1.00  0.00     0.127 A 
ATOM     12  C   UNL A   1      36.539  21.265  24.959  1.00  0.00     0.048 A 
ATOM     13  C   UNL A   1      37.687  21.776  25.564  1.00  0.00     0.019 A 
ATOM     14  C   UNL A   1      36.668  23.958  25.599  1.00  0.00     0.027 A 
ATOM     15  C   UNL A   1      37.729  23.115  25.922  1.00  0.00     0.018 A 
ATOM     16  Br  UNL A   1      39.263  23.811  26.777  1.00  0.00    -0.051 Br
BRANCH  11  17
ATOM     17  O   UNL A   1      34.252  21.555  24.238  1.00  0.00    -0.478 OA
BRANCH  17  18
ATOM     18  C   UNL A   1      33.355  20.922  25.173  1.00  0.00     0.279 C 
ATOM     19  C   UNL A   1      33.625  21.295  26.634  1.00  0.00     0.066 C 
BRANCH  18  20
ATOM     20  C   UNL A   1      33.118  19.417  24.948  1.00  0.00     0.347 C 
ATOM     21  O   UNL A   1      32.114  18.822  25.321  1.00  0.00    -0.248 OA
BRANCH  20  22
ATOM     22  O   UNL A   1      34.084  18.861  24.156  1.00  0.00    -0.463 OA
BRANCH  22  23
ATOM     23  C   UNL A   1      34.446  17.508  24.475  1.00  0.00     0.229 C 
ATOM     24  C   UNL A   1      34.117  16.580  23.330  1.00  0.00     0.049 C 
ENDBRANCH  22  23
ENDBRANCH  20  22
ENDBRANCH  18  20
ENDBRANCH  17  18
ENDBRANCH  11  17
ENDBRANCH   9  10
ENDBRANCH   6   8
ENDBRANCH   5   6
ENDBRANCH   4   5
ENDBRANCH   3   4
ENDBRANCH   2   3
ENDBRANCH   1   2
BRANCH   1  25
ATOM     25  C   UNL A   1      32.202  30.037  25.659  1.00  0.00     0.188 C 
BRANCH  25  26
ATOM     26  O   UNL A   1      32.592  30.284  27.000  1.00  0.00    -0.377 OA
BRANCH  26  27
ATOM     27  C   UNL A   1      33.960  30.143  27.383  1.00  0.00     0.188 C 
BRANCH  27  28
ATOM     28  C   UNL A   1      34.868  31.356  27.711  1.00  0.00     0.188 C 
BRANCH  28  29
ATOM     29  O   UNL A   1      34.393  32.199  28.748  1.00  0.00    -0.376 OA
BRANCH  29  30
ATOM     30  C   UNL A   1      35.336  32.671  29.693  1.00  0.00     0.202 C 
BRANCH  30  31
ATOM     31  C   UNL A   1      35.420  31.902  31.017  1.00  0.00     0.261 C 
BRANCH  31  32
ATOM     32  O   UNL A   1      36.724  31.436  31.395  1.00  0.00    -0.460 OA
BRANCH  32  33
ATOM     33  C   UNL A   1      37.023  30.147  31.127  1.00  0.00     0.338 C 
ATOM     34  O   UNL A   1      36.265  29.191  31.184  1.00  0.00    -0.246 OA
BRANCH  33  35
ATOM     35  C   UNL A   1      38.388  30.111  30.566  1.00  0.00     0.060 A 
ATOM     36  C   UNL A   1      38.563  30.158  29.177  1.00  0.00     0.016 A 
ATOM     37  C   UNL A   1      39.494  30.048  31.417  1.00  0.00     0.016 A 
ATOM     38  C   UNL A   1      39.847  30.107  28.634  1.00  0.00     0.010 A 
ATOM     39  C   UNL A   1      40.778  29.978  30.871  1.00  0.00     0.010 A 
ATOM     40  C   UNL A   1      40.959  29.973  29.476  1.00  0.00    -0.014 A 
BRANCH  40  41
ATOM     41  C   UNL A   1      42.286  29.633  28.908  1.00  0.00     0.031 A 
ATOM     42  C   UNL A   1      42.523  28.218  28.450  1.00  0.00     0.074 A 
ATOM     43  C   UNL A   1      43.260  30.553  28.796  1.00  0.00     0.049 A 
ATOM     44  N   UNL A   1      43.609  27.668  27.976  1.00  0.00    -0.248 NA
ATOM     45  C   UNL A   1      41.375  27.301  28.547  1.00  0.00     0.031 C 
ATOM     46  C   UNL A   1      43.140  31.962  29.166  1.00  0.00     0.029 A 
ATOM     47  N   UNL A   1      44.551  30.432  28.345  1.00  0.00    -0.354 N 
ATOM     48  C   UNL A   1      43.282  26.339  27.733  1.00  0.00     0.074 A 
ATOM     49  C   UNL A   1      41.906  26.159  28.139  1.00  0.00     0.031 C 
ATOM     50  C   UNL A   1      44.314  32.575  28.931  1.00  0.00     0.029 A 
ATOM     51  C   UNL A   1      45.278  31.595  28.432  1.00  0.00     0.049 A 
ATOM     52  H   UNL A   1      44.922  29.591  27.993  1.00  0.00     0.167 HD
ATOM     53  C   UNL A   1      44.059  25.358  27.214  1.00  0.00     0.037 A 
ATOM     54  C   UNL A   1      46.578  31.834  28.159  1.00  0.00     0.037 A 
ATOM     55  C   UNL A   1      45.429  25.545  26.814  1.00  0.00     0.049 A 
ATOM     56  C   UNL A   1      47.445  30.708  27.652  1.00  0.00     0.074 A 
ATOM     57  C   UNL A   1      46.293  24.624  26.250  1.00  0.00     0.029 A 
ATOM     58  N   UNL A   1      46.141  26.729  26.951  1.00  0.00    -0.354 N 
ATOM     59  N   UNL A   1      47.118  29.463  27.396  1.00  0.00    -0.248 NA
ATOM     60  C   UNL A   1      48.858  31.020  27.395  1.00  0.00     0.031 C 
ATOM     61  C   UNL A   1      47.545  25.230  26.107  1.00  0.00     0.029 A 
ATOM     62  C   UNL A   1      47.444  26.551  26.516  1.00  0.00     0.049 A 
ATOM     63  H   UNL A   1      45.773  27.571  27.306  1.00  0.00     0.167 HD
ATOM     64  C   UNL A   1      48.275  28.854  26.916  1.00  0.00     0.074 A 
ATOM     65  C   UNL A   1      49.306  29.871  26.911  1.00  0.00     0.031 C 
ATOM     66  C   UNL A   1      48.463  27.573  26.511  1.00  0.00     0.037 A 
BRANCH  53  67
ATOM     67  C   UNL A   1      43.457  23.983  27.094  1.00  0.00     0.058 A 
ATOM     68  C   UNL A   1      43.045  23.453  25.860  1.00  0.00     0.135 A 
ATOM     69  C   UNL A   1      43.303  23.177  28.233  1.00  0.00     0.135 A 
ATOM     70  F   UNL A   1      43.149  24.186  24.740  1.00  0.00    -0.206 F 
ATOM     71  C   UNL A   1      42.471  22.189  25.766  1.00  0.00     0.059 A 
ATOM     72  C   UNL A   1      42.764  21.897  28.159  1.00  0.00     0.059 A 
ATOM     73  F   UNL A   1      43.677  23.632  29.440  1.00  0.00    -0.206 F 
ATOM     74  C   UNL A   1      42.334  21.418  26.923  1.00  0.00     0.060 A 
BRANCH  74  75
ATOM     75  S   UNL A   1      41.580  19.784  26.786  1.00  0.00     0.124 S 
ATOM     76  O   UNL A   1      42.383  19.013  27.730  1.00  0.00    -0.237 OA
ATOM     77  O   UNL A   1      40.201  20.042  27.190  1.00  0.00    -0.237 OA
ATOM     78  O   UNL A   1      41.765  19.441  25.379  1.00  0.00    -0.744 OA
ENDBRANCH  74  75
ENDBRANCH  53  67
BRANCH  54  79
ATOM     79  C   UNL A   1      47.142  33.198  28.356  1.00  0.00     0.058 A 
ATOM     80  C   UNL A   1      47.241  34.099  27.286  1.00  0.00     0.135 A 
ATOM     81  C   UNL A   1      47.586  33.629  29.616  1.00  0.00     0.135 A 
ATOM     82  F   UNL A   1      46.845  33.729  26.059  1.00  0.00    -0.206 F 
ATOM     83  C   UNL A   1      47.767  35.376  27.455  1.00  0.00     0.059 A 
ATOM     84  C   UNL A   1      48.090  34.911  29.815  1.00  0.00     0.059 A 
ATOM     85  F   UNL A   1      47.510  32.807  30.674  1.00  0.00    -0.206 F 
ATOM     86  C   UNL A   1      48.181  35.776  28.726  1.00  0.00     0.060 A 
BRANCH  86  87
ATOM     87  S   UNL A   1      48.800  37.459  28.942  1.00  0.00     0.124 S 
ATOM     88  O   UNL A   1      48.603  37.665  30.372  1.00  0.00    -0.237 OA
ATOM     89  O   UNL A   1      50.185  37.332  28.499  1.00  0.00    -0.237 OA
ATOM     90  O   UNL A   1      47.939  38.249  28.065  1.00  0.00    -0.744 OA
ENDBRANCH  86  87
ENDBRANCH  54  79
BRANCH  66  91
ATOM     91  C   UNL A   1      49.824  27.197  25.984  1.00  0.00     0.058 A 
ATOM     92  C   UNL A   1      50.827  26.676  26.816  1.00  0.00     0.135 A 
ATOM     93  C   UNL A   1      50.106  27.307  24.611  1.00  0.00     0.135 A 
ATOM     94  F   UNL A   1      50.614  26.554  28.136  1.00  0.00    -0.206 F 
ATOM     95  C   UNL A   1      52.068  26.300  26.311  1.00  0.00     0.059 A 
ATOM     96  C   UNL A   1      51.327  26.905  24.080  1.00  0.00     0.059 A 
ATOM     97  F   UNL A   1      49.179  27.787  23.766  1.00  0.00    -0.206 F 
ATOM     98  C   UNL A   1      52.308  26.415  24.941  1.00  0.00     0.060 A 
BRANCH  98  99
ATOM     99  S   UNL A   1      53.910  25.890  24.294  1.00  0.00     0.124 S 
ATOM    100  O   UNL A   1      54.802  26.890  24.871  1.00  0.00    -0.237 OA
ATOM    101  O   UNL A   1      54.037  24.540  24.836  1.00  0.00    -0.237 OA
ATOM    102  O   UNL A   1      53.736  25.965  22.847  1.00  0.00    -0.744 OA
ENDBRANCH  98  99
ENDBRANCH  66  91
ENDBRANCH  40  41
ENDBRANCH  33  35
ENDBRANCH  32  33
ENDBRANCH  31  32
ENDBRANCH  30  31
ENDBRANCH  29  30
ENDBRANCH  28  29
ENDBRANCH  27  28
ENDBRANCH  26  27
ENDBRANCH  25  26
ENDBRANCH   1  25
TORSDOF 29
ENDMDL
MODEL 3
REMARK VINA RESULT:      -9.2      3.276      5.895
REMARK SMILES CCOC(=O)[C@@H](C)Oc1ccc(Br)cc1/C=C/C(=O)OCCOCCOCCOCCOC(=O)c1ccc(-c2c3nc(c(-c4c(F)cc(S(=O)(=O)[O-])cc4F)c4ccc([nH]4)c(-c4c(F)cc(S(=O)(=O)[O-])cc4F)c4nc(c(-c5c(F)cc(S(=O)(=O)[O-])cc5F)c5ccc2[nH]5)C=C4)C=C3)cc1
REMARK SMILES IDX 24 1 23 2 22 3 21 4 20 5 18 6 19 7 17 8 16 9 15 10 9 11
REMARK SMILES IDX 10 12 11 13 14 14 12 15 13 16 8 17 6 18 7 19 4 20 5 21 3 22
REMARK SMILES IDX 2 23 1 24 25 25 26 26 27 27 28 28 29 29 30 30 31 31 32 32
REMARK SMILES IDX 33 33 34 34 35 35 36 36 100 37 37 38 99 39 38 40 39 41 40 42
REMARK SMILES IDX 93 43 41 44 98 45 92 46 94 47 42 48 97 49 91 50 90 51 43 53
REMARK SMILES IDX 77 54 56 55 76 56 57 57 60 58 75 59 95 60 58 61 59 62 74 64
REMARK SMILES IDX 96 65 61 66 44 67 45 68 54 69 46 70 47 71 53 72 55 73 48 74
REMARK SMILES IDX 49 75 50 76 51 77 52 78 78 79 79 80 88 81 80 82 81 83 87 84
REMARK SMILES IDX 89 85 82 86 83 87 84 88 85 89 86 90 62 91 63 92 72 93 64 94
REMARK SMILES IDX 65 95 71 96 73 97 66 98 67 99 68 100 69 101 70 102
REMARK H PARENT 94 52 60 63
REMARK Flexibility Score: inf
ROOT
ATOM      1  C   UNL A   1      34.854  21.434  25.964  1.00  0.00     0.188 C 
ENDROOT
BRANCH   1   2
ATOM      2  O   UNL A   1      34.707  21.550  27.366  1.00  0.00    -0.376 OA
BRANCH   2   3
ATOM      3  C   UNL A   1      33.604  22.250  27.912  1.00  0.00     0.202 C 
BRANCH   3   4
ATOM      4  C   UNL A   1      32.473  22.783  27.017  1.00  0.00     0.261 C 
BRANCH   4   5
ATOM      5  O   UNL A   1      31.174  22.853  27.607  1.00  0.00    -0.460 OA
BRANCH   5   6
ATOM      6  C   UNL A   1      30.241  23.556  26.938  1.00  0.00     0.330 C 
ATOM      7  O   UNL A   1      29.130  23.860  27.348  1.00  0.00    -0.247 OA
BRANCH   6   8
ATOM      8  C   UNL A   1      30.787  24.086  25.671  1.00  0.00     0.094 C 
ATOM      9  C   UNL A   1      30.393  25.217  25.056  1.00  0.00     0.019 C 
BRANCH   9  10
ATOM     10  C   UNL A   1      31.004  25.647  23.785  1.00  0.00     0.018 A 
ATOM     11  C   UNL A   1      31.018  26.997  23.400  1.00  0.00     0.127 A 
ATOM     12  C   UNL A   1      31.866  27.396  22.366  1.00  0.00     0.048 A 
ATOM     13  C   UNL A   1      32.533  26.458  21.578  1.00  0.00     0.019 A 
ATOM     14  C   UNL A   1      31.632  24.699  22.954  1.00  0.00     0.027 A 
ATOM     15  C   UNL A   1      32.376  25.107  21.850  1.00  0.00     0.018 A 
ATOM     16  Br  UNL A   1      33.243  23.824  20.767  1.00  0.00    -0.051 Br
BRANCH  11  17
ATOM     17  O   UNL A   1      30.281  27.907  24.115  1.00  0.00    -0.478 OA
BRANCH  17  18
ATOM     18  C   UNL A   1      30.660  29.294  24.005  1.00  0.00     0.279 C 
ATOM     19  C   UNL A   1      31.356  29.843  25.254  1.00  0.00     0.066 C 
BRANCH  18  20
ATOM     20  C   UNL A   1      29.580  30.231  23.432  1.00  0.00     0.347 C 
ATOM     21  O   UNL A   1      29.275  31.307  23.932  1.00  0.00    -0.248 OA
BRANCH  20  22
ATOM     22  O   UNL A   1      29.115  29.793  22.223  1.00  0.00    -0.463 OA
BRANCH  22  23
ATOM     23  C   UNL A   1      27.685  29.728  22.094  1.00  0.00     0.229 C 
ATOM     24  C   UNL A   1      27.095  28.800  23.129  1.00  0.00     0.049 C 
ENDBRANCH  22  23
ENDBRANCH  20  22
ENDBRANCH  18  20
ENDBRANCH  17  18
ENDBRANCH  11  17
ENDBRANCH   9  10
ENDBRANCH   6   8
ENDBRANCH   5   6
ENDBRANCH   4   5
ENDBRANCH   3   4
ENDBRANCH   2   3
ENDBRANCH   1   2
BRANCH   1  25
ATOM     25  C   UNL A   1      36.168  22.032  25.425  1.00  0.00     0.188 C 
BRANCH  25  26
ATOM     26  O   UNL A   1      36.105  22.822  24.250  1.00  0.00    -0.377 OA
BRANCH  26  27
ATOM     27  C   UNL A   1      35.162  23.890  24.157  1.00  0.00     0.188 C 
BRANCH  27  28
ATOM     28  C   UNL A   1      34.895  24.877  25.321  1.00  0.00     0.188 C 
BRANCH  28  29
ATOM     29  O   UNL A   1      34.227  26.073  24.954  1.00  0.00    -0.376 OA
BRANCH  29  30
ATOM     30  C   UNL A   1      33.569  26.796  25.978  1.00  0.00     0.202 C 
BRANCH  30  31
ATOM     31  C   UNL A   1      34.047  28.235  26.214  1.00  0.00     0.261 C 
BRANCH  31  32
ATOM     32  O   UNL A   1      34.029  28.690  27.575  1.00  0.00    -0.460 OA
BRANCH  32  33
ATOM     33  C   UNL A   1      34.492  29.935  27.817  1.00  0.00     0.338 C 
ATOM     34  O   UNL A   1      33.838  30.966  27.856  1.00  0.00    -0.246 OA
BRANCH  33  35
ATOM     35  C   UNL A   1      35.908  29.816  28.216  1.00  0.00     0.060 A 
ATOM     36  C   UNL A   1      36.912  30.078  27.275  1.00  0.00     0.016 A 
ATOM     37  C   UNL A   1      36.240  29.460  29.525  1.00  0.00     0.016 A 
ATOM     38  C   UNL A   1      38.255  29.952  27.634  1.00  0.00     0.010 A 
ATOM     39  C   UNL A   1      37.584  29.316  29.878  1.00  0.00     0.010 A 
ATOM     40  C   UNL A   1      38.597  29.528  28.925  1.00  0.00    -0.014 A 
BRANCH  40  41
ATOM     41  C   UNL A   1      39.989  29.119  29.229  1.00  0.00     0.031 A 
ATOM     42  C   UNL A   1      40.893  30.114  29.907  1.00  0.00     0.074 A 
ATOM     43  C   UNL A   1      40.447  27.893  28.916  1.00  0.00     0.049 A 
ATOM     44  N   UNL A   1      42.157  30.012  30.222  1.00  0.00    -0.248 NA
ATOM     45  C   UNL A   1      40.282  31.403  30.274  1.00  0.00     0.031 C 
ATOM     46  C   UNL A   1      39.659  26.829  28.296  1.00  0.00     0.029 A 
ATOM     47  N   UNL A   1      41.695  27.343  29.070  1.00  0.00    -0.354 N 
ATOM     48  C   UNL A   1      42.498  31.225  30.808  1.00  0.00     0.074 A 
ATOM     49  C   UNL A   1      41.316  32.058  30.779  1.00  0.00     0.031 C 
ATOM     50  C   UNL A   1      40.446  25.753  28.117  1.00  0.00     0.029 A 
ATOM     51  C   UNL A   1      41.800  26.065  28.575  1.00  0.00     0.049 A 
ATOM     52  H   UNL A   1      42.444  27.818  29.496  1.00  0.00     0.167 HD
ATOM     53  C   UNL A   1      43.689  31.608  31.328  1.00  0.00     0.037 A 
ATOM     54  C   UNL A   1      42.873  25.251  28.482  1.00  0.00     0.037 A 
ATOM     55  C   UNL A   1      44.861  30.773  31.351  1.00  0.00     0.049 A 
ATOM     56  C   UNL A   1      44.208  25.726  29.000  1.00  0.00     0.074 A 
ATOM     57  C   UNL A   1      46.108  31.056  31.881  1.00  0.00     0.029 A 
ATOM     58  N   UNL A   1      44.938  29.499  30.807  1.00  0.00    -0.354 N 
ATOM     59  N   UNL A   1      44.512  26.864  29.582  1.00  0.00    -0.248 NA
ATOM     60  C   UNL A   1      45.345  24.807  28.851  1.00  0.00     0.031 C 
ATOM     61  C   UNL A   1      46.956  29.981  31.599  1.00  0.00     0.029 A 
ATOM     62  C   UNL A   1      46.221  28.997  30.956  1.00  0.00     0.049 A 
ATOM     63  H   UNL A   1      44.191  29.022  30.378  1.00  0.00     0.167 HD
ATOM     64  C   UNL A   1      45.866  26.781  29.897  1.00  0.00     0.074 A 
ATOM     65  C   UNL A   1      46.318  25.480  29.449  1.00  0.00     0.031 C 
ATOM     66  C   UNL A   1      46.659  27.696  30.509  1.00  0.00     0.037 A 
BRANCH  53  67
ATOM     67  C   UNL A   1      43.793  33.008  31.872  1.00  0.00     0.058 A 
ATOM     68  C   UNL A   1      43.529  33.309  33.218  1.00  0.00     0.135 A 
ATOM     69  C   UNL A   1      44.178  34.066  31.031  1.00  0.00     0.135 A 
ATOM     70  F   UNL A   1      43.138  32.341  34.063  1.00  0.00    -0.206 F 
ATOM     71  C   UNL A   1      43.610  34.611  33.702  1.00  0.00     0.059 A 
ATOM     72  C   UNL A   1      44.299  35.369  31.501  1.00  0.00     0.059 A 
ATOM     73  F   UNL A   1      44.440  33.838  29.734  1.00  0.00    -0.206 F 
ATOM     74  C   UNL A   1      43.995  35.635  32.834  1.00  0.00     0.060 A 
BRANCH  74  75
ATOM     75  S   UNL A   1      44.087  37.320  33.476  1.00  0.00     0.124 S 
ATOM     76  O   UNL A   1      45.362  37.292  34.185  1.00  0.00    -0.237 OA
ATOM     77  O   UNL A   1      44.058  38.120  32.256  1.00  0.00    -0.237 OA
ATOM     78  O   UNL A   1      42.902  37.427  34.322  1.00  0.00    -0.744 OA
ENDBRANCH  74  75
ENDBRANCH  53  67
BRANCH  54  79
ATOM     79  C   UNL A   1      42.730  23.898  27.877  1.00  0.00     0.058 A 
ATOM     80  C   UNL A   1      42.533  22.766  28.680  1.00  0.00     0.135 A 
ATOM     81  C   UNL A   1      42.783  23.711  26.486  1.00  0.00     0.135 A 
ATOM     82  F   UNL A   1      42.493  22.889  30.015  1.00  0.00    -0.206 F 
ATOM     83  C   UNL A   1      42.400  21.495  28.129  1.00  0.00     0.059 A 
ATOM     84  C   UNL A   1      42.624  22.454  25.911  1.00  0.00     0.059 A 
ATOM     85  F   UNL A   1      42.965  24.762  25.672  1.00  0.00    -0.206 F 
ATOM     86  C   UNL A   1      42.439  21.350  26.742  1.00  0.00     0.060 A 
BRANCH  86  87
ATOM     87  S   UNL A   1      42.198  19.704  26.039  1.00  0.00     0.124 S 
ATOM     88  O   UNL A   1      43.133  19.721  24.920  1.00  0.00    -0.237 OA
ATOM     89  O   UNL A   1      42.558  18.841  27.160  1.00  0.00    -0.237 OA
ATOM     90  O   UNL A   1      40.783  19.696  25.679  1.00  0.00    -0.744 OA
ENDBRANCH  86  87
ENDBRANCH  54  79
BRANCH  66  91
ATOM     91  C   UNL A   1      48.093  27.316  30.774  1.00  0.00     0.058 A 
ATOM     92  C   UNL A   1      48.474  26.595  31.917  1.00  0.00     0.135 A 
ATOM     93  C   UNL A   1      49.092  27.629  29.836  1.00  0.00     0.135 A 
ATOM     94  F   UNL A   1      47.563  26.274  32.848  1.00  0.00    -0.206 F 
ATOM     95  C   UNL A   1      49.797  26.220  32.132  1.00  0.00     0.059 A 
ATOM     96  C   UNL A   1      50.414  27.235  30.015  1.00  0.00     0.059 A 
ATOM     97  F   UNL A   1      48.783  28.306  28.718  1.00  0.00    -0.206 F 
ATOM     98  C   UNL A   1      50.759  26.541  31.174  1.00  0.00     0.060 A 
BRANCH  98  99
ATOM     99  S   UNL A   1      52.465  26.017  31.449  1.00  0.00     0.124 S 
ATOM    100  O   UNL A   1      52.275  24.709  32.067  1.00  0.00    -0.237 OA
ATOM    101  O   UNL A   1      53.010  26.006  30.095  1.00  0.00    -0.237 OA
ATOM    102  O   UNL A   1      53.003  27.053  32.327  1.00  0.00    -0.744 OA
ENDBRANCH  98  99
ENDBRANCH  66  91
ENDBRANCH  40  41
ENDBRANCH  33  35
ENDBRANCH  32  33
ENDBRANCH  31  32
ENDBRANCH  30  31
ENDBRANCH  29  30
ENDBRANCH  28  29
ENDBRANCH  27  28
ENDBRANCH  26  27
ENDBRANCH  25  26
ENDBRANCH   1  25
TORSDOF 29
ENDMDL
