MODEL 1
REMARK VINA RESULT:      -7.5      0.000      0.000
REMARK SMILES COc1cc(/C=C2/SC(=O)N(c3ccc(O)cc3C)C2=O)ccc1OCC(=O)OCCOCCOCCOCCOC(=O)c1ccc(-c2c3nc(c(-c4c(F)cc(S(=O)(=O)[O-])cc4F)c4ccc([nH]4)c(-c4c(F)cc(S(=O)(=O)[O-])cc4F)c4nc(c(-c5c(F)cc(S(=O)(=O)[O-])cc5F)c5ccc2[nH]5)C=C4)C=C3)cc1
REMARK SMILES IDX 34 1 33 2 32 3 31 4 30 5 29 6 27 7 28 8 26 9 25 10 24 11
REMARK SMILES IDX 3 12 4 13 5 14 23 15 22 16 2 17 1 18 6 19 7 20 8 21 20 22
REMARK SMILES IDX 9 23 11 24 21 25 10 26 12 27 13 28 18 29 14 30 17 31 19 32
REMARK SMILES IDX 15 33 16 34 35 36 36 37 37 38 38 39 39 40 40 41 41 42 42 43
REMARK SMILES IDX 43 44 44 45 45 46 109 47 46 48 108 49 47 50 48 51 49 52
REMARK SMILES IDX 102 53 50 54 107 55 101 56 103 57 51 58 106 59 100 60 99 61
REMARK SMILES IDX 52 63 86 64 65 65 85 66 66 67 69 68 84 69 104 70 67 71 68 72
REMARK SMILES IDX 83 74 105 75 70 76 53 77 54 78 63 79 55 80 56 81 62 82 64 83
REMARK SMILES IDX 57 84 58 85 59 86 60 87 61 88 87 89 88 90 97 91 89 92 90 93
REMARK SMILES IDX 96 94 98 95 91 96 92 97 93 98 94 99 95 100 71 101 72 102
REMARK SMILES IDX 81 103 73 104 74 105 80 106 82 107 75 108 76 109 77 110
REMARK SMILES IDX 78 111 79 112
REMARK H PARENT 16 35 103 62 69 73
REMARK Flexibility Score: inf
ROOT
ATOM      1  C   UNL A   1      34.549  24.030  24.773  1.00  0.00     0.188 C 
ENDROOT
BRANCH   1   2
ATOM      2  C   UNL A   1      33.473  25.030  24.295  1.00  0.00     0.188 C 
BRANCH   2   3
ATOM      3  O   UNL A   1      33.948  26.334  24.026  1.00  0.00    -0.376 OA
BRANCH   3   4
ATOM      4  C   UNL A   1      33.040  27.415  24.143  1.00  0.00     0.202 C 
BRANCH   4   5
ATOM      5  C   UNL A   1      33.573  28.788  24.584  1.00  0.00     0.261 C 
BRANCH   5   6
ATOM      6  O   UNL A   1      33.795  28.970  26.001  1.00  0.00    -0.461 OA
BRANCH   6   7
ATOM      7  C   UNL A   1      32.924  29.742  26.698  1.00  0.00     0.344 C 
ATOM      8  O   UNL A   1      31.721  29.521  26.768  1.00  0.00    -0.248 OA
BRANCH   7   9
ATOM      9  C   UNL A   1      33.614  30.964  27.349  1.00  0.00     0.352 C 
BRANCH   9  10
ATOM     10  O   UNL A   1      34.321  30.901  28.572  1.00  0.00    -0.478 OA
BRANCH  10  11
ATOM     11  C   UNL A   1      35.294  31.782  28.945  1.00  0.00     0.162 A 
ATOM     12  C   UNL A   1      35.231  32.886  29.803  1.00  0.00     0.161 A 
ATOM     13  C   UNL A   1      36.417  33.559  30.191  1.00  0.00     0.058 A 
ATOM     14  C   UNL A   1      37.669  33.165  29.688  1.00  0.00    -0.020 A 
ATOM     15  C   UNL A   1      36.537  31.459  28.381  1.00  0.00     0.051 A 
ATOM     16  C   UNL A   1      37.710  32.119  28.761  1.00  0.00     0.012 A 
BRANCH  12  17
ATOM     17  O   UNL A   1      34.023  33.461  30.093  1.00  0.00    -0.493 OA
ATOM     18  C   UNL A   1      33.434  34.197  29.029  1.00  0.00     0.278 C 
ENDBRANCH  12  17
BRANCH  14  19
ATOM     19  C   UNL A   1      38.920  33.845  30.084  1.00  0.00     0.029 C 
ATOM     20  C   UNL A   1      39.801  33.375  30.980  1.00  0.00     0.083 C 
ATOM     21  S   UNL A   1      41.282  34.140  31.427  1.00  0.00    -0.022 SA
ATOM     22  C   UNL A   1      39.706  32.060  31.652  1.00  0.00     0.272 C 
ATOM     23  C   UNL A   1      41.890  32.684  32.233  1.00  0.00     0.298 C 
ATOM     24  N   UNL A   1      40.936  31.706  32.161  1.00  0.00    -0.236 N 
ATOM     25  O   UNL A   1      38.681  31.406  31.763  1.00  0.00    -0.268 OA
ATOM     26  O   UNL A   1      43.014  32.630  32.715  1.00  0.00    -0.260 OA
BRANCH  24  27
ATOM     27  C   UNL A   1      41.107  30.367  32.567  1.00  0.00     0.056 A 
ATOM     28  C   UNL A   1      41.166  30.146  33.959  1.00  0.00     0.031 A 
ATOM     29  C   UNL A   1      41.446  29.337  31.676  1.00  0.00    -0.023 A 
ATOM     30  C   UNL A   1      41.579  28.927  34.475  1.00  0.00     0.048 A 
ATOM     31  C   UNL A   1      41.851  28.101  32.217  1.00  0.00     0.051 A 
ATOM     32  C   UNL A   1      41.488  29.503  30.183  1.00  0.00     0.047 C 
ATOM     33  C   UNL A   1      41.934  27.918  33.599  1.00  0.00     0.115 A 
BRANCH  33  34
ATOM     34  O   UNL A   1      42.398  26.756  34.137  1.00  0.00    -0.508 OA
ATOM     35  H   UNL A   1      42.378  25.965  33.635  1.00  0.00     0.293 HD
ENDBRANCH  33  34
ENDBRANCH  24  27
ENDBRANCH  14  19
ENDBRANCH  10  11
ENDBRANCH   9  10
ENDBRANCH   7   9
ENDBRANCH   6   7
ENDBRANCH   5   6
ENDBRANCH   4   5
ENDBRANCH   3   4
ENDBRANCH   2   3
ENDBRANCH   1   2
BRANCH   1  36
ATOM     36  O   UNL A   1      34.424  23.206  25.923  1.00  0.00    -0.377 OA
BRANCH  36  37
ATOM     37  C   UNL A   1      35.466  22.296  26.194  1.00  0.00     0.188 C 
BRANCH  37  38
ATOM     38  C   UNL A   1      36.331  21.975  24.963  1.00  0.00     0.188 C 
BRANCH  38  39
ATOM     39  O   UNL A   1      36.980  20.718  25.058  1.00  0.00    -0.376 OA
BRANCH  39  40
ATOM     40  C   UNL A   1      38.392  20.634  25.002  1.00  0.00     0.202 C 
BRANCH  40  41
ATOM     41  C   UNL A   1      39.299  20.907  26.217  1.00  0.00     0.261 C 
BRANCH  41  42
ATOM     42  O   UNL A   1      40.319  21.881  26.073  1.00  0.00    -0.460 OA
BRANCH  42  43
ATOM     43  C   UNL A   1      41.588  21.480  26.239  1.00  0.00     0.338 C 
ATOM     44  O   UNL A   1      42.163  20.567  25.658  1.00  0.00    -0.246 OA
BRANCH  43  45
ATOM     45  C   UNL A   1      42.217  22.503  27.084  1.00  0.00     0.060 A 
ATOM     46  C   UNL A   1      43.614  22.584  27.096  1.00  0.00     0.016 A 
ATOM     47  C   UNL A   1      41.430  23.439  27.766  1.00  0.00     0.016 A 
ATOM     48  C   UNL A   1      44.233  23.619  27.782  1.00  0.00     0.010 A 
ATOM     49  C   UNL A   1      42.052  24.446  28.496  1.00  0.00     0.010 A 
ATOM     50  C   UNL A   1      43.454  24.518  28.521  1.00  0.00    -0.014 A 
BRANCH  50  51
ATOM     51  C   UNL A   1      44.127  25.336  29.544  1.00  0.00     0.031 A 
ATOM     52  C   UNL A   1      44.349  26.780  29.207  1.00  0.00     0.074 A 
ATOM     53  C   UNL A   1      44.469  24.819  30.735  1.00  0.00     0.049 A 
ATOM     54  N   UNL A   1      44.901  27.722  29.920  1.00  0.00    -0.248 NA
ATOM     55  C   UNL A   1      43.878  27.224  27.881  1.00  0.00     0.031 C 
ATOM     56  C   UNL A   1      44.243  23.436  31.154  1.00  0.00     0.029 A 
ATOM     57  N   UNL A   1      45.082  25.404  31.809  1.00  0.00    -0.354 N 
ATOM     58  C   UNL A   1      44.839  28.865  29.133  1.00  0.00     0.074 A 
ATOM     59  C   UNL A   1      44.228  28.499  27.879  1.00  0.00     0.031 C 
ATOM     60  C   UNL A   1      44.727  23.277  32.400  1.00  0.00     0.029 A 
ATOM     61  C   UNL A   1      45.318  24.537  32.847  1.00  0.00     0.049 A 
ATOM     62  H   UNL A   1      45.329  26.357  31.836  1.00  0.00     0.167 HD
ATOM     63  C   UNL A   1      45.252  30.115  29.442  1.00  0.00     0.037 A 
ATOM     64  C   UNL A   1      45.960  24.747  34.012  1.00  0.00     0.037 A 
ATOM     65  C   UNL A   1      45.879  30.447  30.690  1.00  0.00     0.049 A 
ATOM     66  C   UNL A   1      46.489  26.131  34.300  1.00  0.00     0.074 A 
ATOM     67  C   UNL A   1      46.346  31.673  31.119  1.00  0.00     0.029 A 
ATOM     68  N   UNL A   1      46.139  29.535  31.706  1.00  0.00    -0.354 N 
ATOM     69  N   UNL A   1      46.404  27.216  33.564  1.00  0.00    -0.248 NA
ATOM     70  C   UNL A   1      47.194  26.323  35.573  1.00  0.00     0.031 C 
ATOM     71  C   UNL A   1      46.942  31.492  32.371  1.00  0.00     0.029 A 
ATOM     72  C   UNL A   1      46.787  30.166  32.751  1.00  0.00     0.049 A 
ATOM     73  H   UNL A   1      45.898  28.581  31.684  1.00  0.00     0.167 HD
ATOM     74  C   UNL A   1      47.021  28.225  34.296  1.00  0.00     0.074 A 
ATOM     75  C   UNL A   1      47.463  27.621  35.538  1.00  0.00     0.031 C 
ATOM     76  C   UNL A   1      47.206  29.532  33.978  1.00  0.00     0.037 A 
BRANCH  63  77
ATOM     77  C   UNL A   1      45.074  31.181  28.400  1.00  0.00     0.058 A 
ATOM     78  C   UNL A   1      44.055  32.144  28.487  1.00  0.00     0.135 A 
ATOM     79  C   UNL A   1      45.939  31.242  27.295  1.00  0.00     0.135 A 
ATOM     80  F   UNL A   1      43.179  32.111  29.504  1.00  0.00    -0.206 F 
ATOM     81  C   UNL A   1      43.888  33.117  27.508  1.00  0.00     0.059 A 
ATOM     82  C   UNL A   1      45.809  32.225  26.319  1.00  0.00     0.059 A 
ATOM     83  F   UNL A   1      46.919  30.336  27.152  1.00  0.00    -0.206 F 
ATOM     84  C   UNL A   1      44.773  33.151  26.429  1.00  0.00     0.060 A 
BRANCH  84  85
ATOM     85  S   UNL A   1      44.553  34.432  25.176  1.00  0.00     0.124 S 
ATOM     86  O   UNL A   1      44.452  33.634  23.957  1.00  0.00    -0.237 OA
ATOM     87  O   UNL A   1      43.322  35.083  25.611  1.00  0.00    -0.237 OA
ATOM     88  O   UNL A   1      45.763  35.239  25.297  1.00  0.00    -0.744 OA
ENDBRANCH  84  85
ENDBRANCH  63  77
BRANCH  64  89
ATOM     89  C   UNL A   1      46.149  23.630  34.976  1.00  0.00     0.058 A 
ATOM     90  C   UNL A   1      47.356  22.919  35.042  1.00  0.00     0.135 A 
ATOM     91  C   UNL A   1      45.123  23.251  35.857  1.00  0.00     0.135 A 
ATOM     92  F   UNL A   1      48.366  23.233  34.216  1.00  0.00    -0.206 F 
ATOM     93  C   UNL A   1      47.537  21.867  35.936  1.00  0.00     0.059 A 
ATOM     94  C   UNL A   1      45.287  22.221  36.778  1.00  0.00     0.059 A 
ATOM     95  F   UNL A   1      43.949  23.903  35.843  1.00  0.00    -0.206 F 
ATOM     96  C   UNL A   1      46.496  21.529  36.803  1.00  0.00     0.060 A 
BRANCH  96  97
ATOM     97  S   UNL A   1      46.760  20.194  37.992  1.00  0.00     0.124 S 
ATOM     98  O   UNL A   1      45.589  19.358  37.761  1.00  0.00    -0.237 OA
ATOM     99  O   UNL A   1      48.038  19.642  37.551  1.00  0.00    -0.237 OA
ATOM    100  O   UNL A   1      46.796  20.889  39.275  1.00  0.00    -0.744 OA
ENDBRANCH  96  97
ENDBRANCH  64  89
BRANCH  76 101
ATOM    101  C   UNL A   1      47.882  30.403  34.998  1.00  0.00     0.058 A 
ATOM    102  C   UNL A   1      49.254  30.687  34.935  1.00  0.00     0.135 A 
ATOM    103  C   UNL A   1      47.126  31.025  36.006  1.00  0.00     0.135 A 
ATOM    104  F   UNL A   1      50.021  30.115  33.993  1.00  0.00    -0.206 F 
ATOM    105  C   UNL A   1      49.859  31.541  35.849  1.00  0.00     0.059 A 
ATOM    106  C   UNL A   1      47.704  31.908  36.910  1.00  0.00     0.059 A 
ATOM    107  F   UNL A   1      45.806  30.797  36.100  1.00  0.00    -0.206 F 
ATOM    108  C   UNL A   1      49.074  32.152  36.829  1.00  0.00     0.060 A 
BRANCH 108 109
ATOM    109  S   UNL A   1      49.865  33.294  37.981  1.00  0.00     0.124 S 
ATOM    110  O   UNL A   1      51.090  32.575  38.313  1.00  0.00    -0.237 OA
ATOM    111  O   UNL A   1      50.034  34.492  37.163  1.00  0.00    -0.237 OA
ATOM    112  O   UNL A   1      48.894  33.414  39.064  1.00  0.00    -0.744 OA
ENDBRANCH 108 109
ENDBRANCH  76 101
ENDBRANCH  50  51
ENDBRANCH  43  45
ENDBRANCH  42  43
ENDBRANCH  41  42
ENDBRANCH  40  41
ENDBRANCH  39  40
ENDBRANCH  38  39
ENDBRANCH  37  38
ENDBRANCH  36  37
ENDBRANCH   1  36
TORSDOF 29
ENDMDL
MODEL 2
REMARK VINA RESULT:      -7.4      4.810      7.168
REMARK SMILES COc1cc(/C=C2/SC(=O)N(c3ccc(O)cc3C)C2=O)ccc1OCC(=O)OCCOCCOCCOCCOC(=O)c1ccc(-c2c3nc(c(-c4c(F)cc(S(=O)(=O)[O-])cc4F)c4ccc([nH]4)c(-c4c(F)cc(S(=O)(=O)[O-])cc4F)c4nc(c(-c5c(F)cc(S(=O)(=O)[O-])cc5F)c5ccc2[nH]5)C=C4)C=C3)cc1
REMARK SMILES IDX 34 1 33 2 32 3 31 4 30 5 29 6 27 7 28 8 26 9 25 10 24 11
REMARK SMILES IDX 3 12 4 13 5 14 23 15 22 16 2 17 1 18 6 19 7 20 8 21 20 22
REMARK SMILES IDX 9 23 11 24 21 25 10 26 12 27 13 28 18 29 14 30 17 31 19 32
REMARK SMILES IDX 15 33 16 34 35 36 36 37 37 38 38 39 39 40 40 41 41 42 42 43
REMARK SMILES IDX 43 44 44 45 45 46 109 47 46 48 108 49 47 50 48 51 49 52
REMARK SMILES IDX 102 53 50 54 107 55 101 56 103 57 51 58 106 59 100 60 99 61
REMARK SMILES IDX 52 63 86 64 65 65 85 66 66 67 69 68 84 69 104 70 67 71 68 72
REMARK SMILES IDX 83 74 105 75 70 76 53 77 54 78 63 79 55 80 56 81 62 82 64 83
REMARK SMILES IDX 57 84 58 85 59 86 60 87 61 88 87 89 88 90 97 91 89 92 90 93
REMARK SMILES IDX 96 94 98 95 91 96 92 97 93 98 94 99 95 100 71 101 72 102
REMARK SMILES IDX 81 103 73 104 74 105 80 106 82 107 75 108 76 109 77 110
REMARK SMILES IDX 78 111 79 112
REMARK H PARENT 16 35 103 62 69 73
REMARK Flexibility Score: inf
ROOT
ATOM      1  C   UNL A   1      30.874  25.694  24.651  1.00  0.00     0.188 C 
ENDROOT
BRANCH   1   2
ATOM      2  C   UNL A   1      29.356  25.807  24.384  1.00  0.00     0.188 C 
BRANCH   2   3
ATOM      3  O   UNL A   1      28.981  26.843  23.498  1.00  0.00    -0.376 OA
BRANCH   3   4
ATOM      4  C   UNL A   1      27.763  27.523  23.741  1.00  0.00     0.202 C 
BRANCH   4   5
ATOM      5  C   UNL A   1      27.273  28.558  22.714  1.00  0.00     0.261 C 
BRANCH   5   6
ATOM      6  O   UNL A   1      28.234  29.552  22.291  1.00  0.00    -0.461 OA
BRANCH   6   7
ATOM      7  C   UNL A   1      28.914  30.240  23.242  1.00  0.00     0.344 C 
ATOM      8  O   UNL A   1      28.521  31.292  23.735  1.00  0.00    -0.248 OA
BRANCH   7   9
ATOM      9  C   UNL A   1      30.266  29.576  23.594  1.00  0.00     0.352 C 
BRANCH   9  10
ATOM     10  O   UNL A   1      30.629  29.194  24.906  1.00  0.00    -0.478 OA
BRANCH  10  11
ATOM     11  C   UNL A   1      31.902  29.239  25.397  1.00  0.00     0.162 A 
ATOM     12  C   UNL A   1      33.126  29.322  24.724  1.00  0.00     0.161 A 
ATOM     13  C   UNL A   1      34.326  29.539  25.445  1.00  0.00     0.058 A 
ATOM     14  C   UNL A   1      34.320  29.629  26.848  1.00  0.00    -0.020 A 
ATOM     15  C   UNL A   1      31.923  29.240  26.799  1.00  0.00     0.051 A 
ATOM     16  C   UNL A   1      33.104  29.455  27.516  1.00  0.00     0.012 A 
BRANCH  12  17
ATOM     17  O   UNL A   1      33.207  28.971  23.402  1.00  0.00    -0.493 OA
ATOM     18  C   UNL A   1      34.424  28.344  23.017  1.00  0.00     0.278 C 
ENDBRANCH  12  17
BRANCH  14  19
ATOM     19  C   UNL A   1      35.556  29.865  27.622  1.00  0.00     0.029 C 
ATOM     20  C   UNL A   1      35.916  31.040  28.158  1.00  0.00     0.083 C 
ATOM     21  S   UNL A   1      37.339  31.323  29.094  1.00  0.00    -0.022 SA
ATOM     22  C   UNL A   1      35.092  32.270  28.136  1.00  0.00     0.272 C 
ATOM     23  C   UNL A   1      36.750  32.890  29.673  1.00  0.00     0.298 C 
ATOM     24  N   UNL A   1      35.532  33.144  29.106  1.00  0.00    -0.236 N 
ATOM     25  O   UNL A   1      34.181  32.485  27.351  1.00  0.00    -0.268 OA
ATOM     26  O   UNL A   1      37.377  33.559  30.485  1.00  0.00    -0.260 OA
BRANCH  24  27
ATOM     27  C   UNL A   1      34.689  34.226  29.430  1.00  0.00     0.056 A 
ATOM     28  C   UNL A   1      34.627  35.267  28.479  1.00  0.00     0.031 A 
ATOM     29  C   UNL A   1      34.132  34.405  30.706  1.00  0.00    -0.023 A 
ATOM     30  C   UNL A   1      34.042  36.486  28.787  1.00  0.00     0.048 A 
ATOM     31  C   UNL A   1      33.530  35.645  30.997  1.00  0.00     0.051 A 
ATOM     32  C   UNL A   1      34.220  33.385  31.806  1.00  0.00     0.047 C 
ATOM     33  C   UNL A   1      33.512  36.671  30.051  1.00  0.00     0.115 A 
BRANCH  33  34
ATOM     34  O   UNL A   1      33.005  37.901  30.342  1.00  0.00    -0.508 OA
ATOM     35  H   UNL A   1      32.162  37.978  30.744  1.00  0.00     0.293 HD
ENDBRANCH  33  34
ENDBRANCH  24  27
ENDBRANCH  14  19
ENDBRANCH  10  11
ENDBRANCH   9  10
ENDBRANCH   7   9
ENDBRANCH   6   7
ENDBRANCH   5   6
ENDBRANCH   4   5
ENDBRANCH   3   4
ENDBRANCH   2   3
ENDBRANCH   1   2
BRANCH   1  36
ATOM     36  O   UNL A   1      31.481  25.887  25.920  1.00  0.00    -0.377 OA
BRANCH  36  37
ATOM     37  C   UNL A   1      32.890  25.861  25.984  1.00  0.00     0.188 C 
BRANCH  37  38
ATOM     38  C   UNL A   1      33.536  25.064  24.838  1.00  0.00     0.188 C 
BRANCH  38  39
ATOM     39  O   UNL A   1      34.331  23.983  25.297  1.00  0.00    -0.376 OA
BRANCH  39  40
ATOM     40  C   UNL A   1      35.740  24.026  25.174  1.00  0.00     0.202 C 
BRANCH  40  41
ATOM     41  C   UNL A   1      36.695  23.750  26.351  1.00  0.00     0.261 C 
BRANCH  41  42
ATOM     42  O   UNL A   1      38.000  24.300  26.285  1.00  0.00    -0.460 OA
BRANCH  42  43
ATOM     43  C   UNL A   1      39.036  23.453  26.367  1.00  0.00     0.338 C 
ATOM     44  O   UNL A   1      39.086  22.296  25.966  1.00  0.00    -0.246 OA
BRANCH  43  45
ATOM     45  C   UNL A   1      40.174  24.263  26.818  1.00  0.00     0.060 A 
ATOM     46  C   UNL A   1      40.977  23.761  27.849  1.00  0.00     0.016 A 
ATOM     47  C   UNL A   1      40.505  25.450  26.153  1.00  0.00     0.016 A 
ATOM     48  C   UNL A   1      42.131  24.442  28.209  1.00  0.00     0.010 A 
ATOM     49  C   UNL A   1      41.634  26.159  26.550  1.00  0.00     0.010 A 
ATOM     50  C   UNL A   1      42.431  25.663  27.594  1.00  0.00    -0.014 A 
BRANCH  50  51
ATOM     51  C   UNL A   1      43.405  26.548  28.254  1.00  0.00     0.031 A 
ATOM     52  C   UNL A   1      42.856  27.515  29.261  1.00  0.00     0.074 A 
ATOM     53  C   UNL A   1      44.720  26.449  28.001  1.00  0.00     0.049 A 
ATOM     54  N   UNL A   1      43.483  28.393  29.993  1.00  0.00    -0.248 NA
ATOM     55  C   UNL A   1      41.397  27.481  29.475  1.00  0.00     0.031 C 
ATOM     56  C   UNL A   1      45.334  25.503  27.070  1.00  0.00     0.029 A 
ATOM     57  N   UNL A   1      45.773  27.159  28.509  1.00  0.00    -0.354 N 
ATOM     58  C   UNL A   1      42.498  29.010  30.754  1.00  0.00     0.074 A 
ATOM     59  C   UNL A   1      41.230  28.434  30.376  1.00  0.00     0.031 C 
ATOM     60  C   UNL A   1      46.665  25.703  27.065  1.00  0.00     0.029 A 
ATOM     61  C   UNL A   1      46.986  26.805  27.970  1.00  0.00     0.049 A 
ATOM     62  H   UNL A   1      45.673  27.856  29.198  1.00  0.00     0.167 HD
ATOM     63  C   UNL A   1      42.647  29.971  31.694  1.00  0.00     0.037 A 
ATOM     64  C   UNL A   1      48.206  27.338  28.177  1.00  0.00     0.037 A 
ATOM     65  C   UNL A   1      43.919  30.543  32.034  1.00  0.00     0.049 A 
ATOM     66  C   UNL A   1      48.336  28.468  29.168  1.00  0.00     0.074 A 
ATOM     67  C   UNL A   1      44.200  31.526  32.962  1.00  0.00     0.029 A 
ATOM     68  N   UNL A   1      45.124  30.190  31.439  1.00  0.00    -0.354 N 
ATOM     69  N   UNL A   1      47.405  29.030  29.905  1.00  0.00    -0.248 NA
ATOM     70  C   UNL A   1      49.677  29.033  29.361  1.00  0.00     0.031 C 
ATOM     71  C   UNL A   1      45.567  31.808  32.888  1.00  0.00     0.029 A 
ATOM     72  C   UNL A   1      46.149  30.956  31.960  1.00  0.00     0.049 A 
ATOM     73  H   UNL A   1      45.231  29.498  30.748  1.00  0.00     0.167 HD
ATOM     74  C   UNL A   1      48.052  29.996  30.669  1.00  0.00     0.074 A 
ATOM     75  C   UNL A   1      49.455  29.932  30.311  1.00  0.00     0.031 C 
ATOM     76  C   UNL A   1      47.539  30.858  31.584  1.00  0.00     0.037 A 
BRANCH  63  77
ATOM     77  C   UNL A   1      41.406  30.476  32.371  1.00  0.00     0.058 A 
ATOM     78  C   UNL A   1      40.867  29.844  33.504  1.00  0.00     0.135 A 
ATOM     79  C   UNL A   1      40.744  31.613  31.880  1.00  0.00     0.135 A 
ATOM     80  F   UNL A   1      41.440  28.733  33.995  1.00  0.00    -0.206 F 
ATOM     81  C   UNL A   1      39.708  30.309  34.114  1.00  0.00     0.059 A 
ATOM     82  C   UNL A   1      39.600  32.115  32.492  1.00  0.00     0.059 A 
ATOM     83  F   UNL A   1      41.206  32.246  30.789  1.00  0.00    -0.206 F 
ATOM     84  C   UNL A   1      39.083  31.449  33.603  1.00  0.00     0.060 A 
BRANCH  84  85
ATOM     85  S   UNL A   1      37.589  32.051  34.417  1.00  0.00     0.124 S 
ATOM     86  O   UNL A   1      37.713  31.446  35.740  1.00  0.00    -0.237 OA
ATOM     87  O   UNL A   1      37.769  33.498  34.363  1.00  0.00    -0.237 OA
ATOM     88  O   UNL A   1      36.512  31.523  33.586  1.00  0.00    -0.744 OA
ENDBRANCH  84  85
ENDBRANCH  63  77
BRANCH  64  89
ATOM     89  C   UNL A   1      49.384  26.823  27.429  1.00  0.00     0.058 A 
ATOM     90  C   UNL A   1      49.758  27.368  26.191  1.00  0.00     0.135 A 
ATOM     91  C   UNL A   1      50.167  25.776  27.941  1.00  0.00     0.135 A 
ATOM     92  F   UNL A   1      49.038  28.364  25.652  1.00  0.00    -0.206 F 
ATOM     93  C   UNL A   1      50.854  26.886  25.482  1.00  0.00     0.059 A 
ATOM     94  C   UNL A   1      51.284  25.294  27.265  1.00  0.00     0.059 A 
ATOM     95  F   UNL A   1      49.860  25.223  29.125  1.00  0.00    -0.206 F 
ATOM     96  C   UNL A   1      51.614  25.850  26.030  1.00  0.00     0.060 A 
BRANCH  96  97
ATOM     97  S   UNL A   1      53.064  25.267  25.124  1.00  0.00     0.124 S 
ATOM     98  O   UNL A   1      52.758  25.701  23.767  1.00  0.00    -0.237 OA
ATOM     99  O   UNL A   1      54.149  25.979  25.794  1.00  0.00    -0.237 OA
ATOM    100  O   UNL A   1      53.041  23.824  25.346  1.00  0.00    -0.744 OA
ENDBRANCH  96  97
ENDBRANCH  64  89
BRANCH  76 101
ATOM    101  C   UNL A   1      48.501  31.774  32.287  1.00  0.00     0.058 A 
ATOM    102  C   UNL A   1      49.170  31.385  33.456  1.00  0.00     0.135 A 
ATOM    103  C   UNL A   1      48.814  33.026  31.734  1.00  0.00     0.135 A 
ATOM    104  F   UNL A   1      48.904  30.199  34.026  1.00  0.00    -0.206 F 
ATOM    105  C   UNL A   1      50.103  32.215  34.067  1.00  0.00     0.059 A 
ATOM    106  C   UNL A   1      49.766  33.859  32.309  1.00  0.00     0.059 A 
ATOM    107  F   UNL A   1      48.211  33.438  30.607  1.00  0.00    -0.206 F 
ATOM    108  C   UNL A   1      50.398  33.448  33.482  1.00  0.00     0.060 A 
BRANCH 108 109
ATOM    109  S   UNL A   1      51.644  34.497  34.260  1.00  0.00     0.124 S 
ATOM    110  O   UNL A   1      51.768  35.577  33.287  1.00  0.00    -0.237 OA
ATOM    111  O   UNL A   1      51.005  34.851  35.524  1.00  0.00    -0.237 OA
ATOM    112  O   UNL A   1      52.805  33.619  34.376  1.00  0.00    -0.744 OA
ENDBRANCH 108 109
ENDBRANCH  76 101
ENDBRANCH  50  51
ENDBRANCH  43  45
ENDBRANCH  42  43
ENDBRANCH  41  42
ENDBRANCH  40  41
ENDBRANCH  39  40
ENDBRANCH  38  39
ENDBRANCH  37  38
ENDBRANCH  36  37
ENDBRANCH   1  36
TORSDOF 29
ENDMDL
MODEL 3
REMARK VINA RESULT:      -6.5      3.998      8.499
REMARK SMILES COc1cc(/C=C2/SC(=O)N(c3ccc(O)cc3C)C2=O)ccc1OCC(=O)OCCOCCOCCOCCOC(=O)c1ccc(-c2c3nc(c(-c4c(F)cc(S(=O)(=O)[O-])cc4F)c4ccc([nH]4)c(-c4c(F)cc(S(=O)(=O)[O-])cc4F)c4nc(c(-c5c(F)cc(S(=O)(=O)[O-])cc5F)c5ccc2[nH]5)C=C4)C=C3)cc1
REMARK SMILES IDX 34 1 33 2 32 3 31 4 30 5 29 6 27 7 28 8 26 9 25 10 24 11
REMARK SMILES IDX 3 12 4 13 5 14 23 15 22 16 2 17 1 18 6 19 7 20 8 21 20 22
REMARK SMILES IDX 9 23 11 24 21 25 10 26 12 27 13 28 18 29 14 30 17 31 19 32
REMARK SMILES IDX 15 33 16 34 35 36 36 37 37 38 38 39 39 40 40 41 41 42 42 43
REMARK SMILES IDX 43 44 44 45 45 46 109 47 46 48 108 49 47 50 48 51 49 52
REMARK SMILES IDX 102 53 50 54 107 55 101 56 103 57 51 58 106 59 100 60 99 61
REMARK SMILES IDX 52 63 86 64 65 65 85 66 66 67 69 68 84 69 104 70 67 71 68 72
REMARK SMILES IDX 83 74 105 75 70 76 53 77 54 78 63 79 55 80 56 81 62 82 64 83
REMARK SMILES IDX 57 84 58 85 59 86 60 87 61 88 87 89 88 90 97 91 89 92 90 93
REMARK SMILES IDX 96 94 98 95 91 96 92 97 93 98 94 99 95 100 71 101 72 102
REMARK SMILES IDX 81 103 73 104 74 105 80 106 82 107 75 108 76 109 77 110
REMARK SMILES IDX 78 111 79 112
REMARK H PARENT 16 35 103 62 69 73
REMARK Flexibility Score: inf
ROOT
ATOM      1  C   UNL A   1      38.127  20.614  25.398  1.00  0.00     0.188 C 
ENDROOT
BRANCH   1   2
ATOM      2  C   UNL A   1      39.229  19.531  25.421  1.00  0.00     0.188 C 
BRANCH   2   3
ATOM      3  O   UNL A   1      40.426  19.911  26.070  1.00  0.00    -0.376 OA
BRANCH   3   4
ATOM      4  C   UNL A   1      40.862  21.251  25.937  1.00  0.00     0.202 C 
BRANCH   4   5
ATOM      5  C   UNL A   1      42.064  21.727  26.771  1.00  0.00     0.261 C 
BRANCH   5   6
ATOM      6  O   UNL A   1      43.369  21.288  26.329  1.00  0.00    -0.461 OA
BRANCH   6   7
ATOM      7  C   UNL A   1      44.422  22.128  26.489  1.00  0.00     0.344 C 
ATOM      8  O   UNL A   1      45.578  21.835  26.207  1.00  0.00    -0.248 OA
BRANCH   7   9
ATOM      9  C   UNL A   1      44.006  23.479  27.117  1.00  0.00     0.352 C 
BRANCH   9  10
ATOM     10  O   UNL A   1      44.253  23.821  28.467  1.00  0.00    -0.478 OA
BRANCH  10  11
ATOM     11  C   UNL A   1      45.317  24.563  28.890  1.00  0.00     0.162 A 
ATOM     12  C   UNL A   1      46.447  25.000  28.192  1.00  0.00     0.161 A 
ATOM     13  C   UNL A   1      47.346  25.920  28.788  1.00  0.00     0.058 A 
ATOM     14  C   UNL A   1      47.149  26.374  30.103  1.00  0.00    -0.020 A 
ATOM     15  C   UNL A   1      45.182  24.953  30.231  1.00  0.00     0.051 A 
ATOM     16  C   UNL A   1      46.066  25.861  30.824  1.00  0.00     0.012 A 
BRANCH  12  17
ATOM     17  O   UNL A   1      46.816  24.380  27.028  1.00  0.00    -0.493 OA
ATOM     18  C   UNL A   1      47.804  25.064  26.266  1.00  0.00     0.278 C 
ENDBRANCH  12  17
BRANCH  14  19
ATOM     19  C   UNL A   1      48.066  27.339  30.744  1.00  0.00     0.029 C 
ATOM     20  C   UNL A   1      47.899  28.669  30.754  1.00  0.00     0.083 C 
ATOM     21  S   UNL A   1      48.943  29.807  31.527  1.00  0.00    -0.022 SA
ATOM     22  C   UNL A   1      46.724  29.380  30.201  1.00  0.00     0.272 C 
ATOM     23  C   UNL A   1      47.759  31.117  31.387  1.00  0.00     0.298 C 
ATOM     24  N   UNL A   1      46.654  30.649  30.732  1.00  0.00    -0.236 N 
ATOM     25  O   UNL A   1      45.955  28.917  29.373  1.00  0.00    -0.268 OA
ATOM     26  O   UNL A   1      47.960  32.227  31.865  1.00  0.00    -0.260 OA
BRANCH  24  27
ATOM     27  C   UNL A   1      45.448  31.358  30.554  1.00  0.00     0.056 A 
ATOM     28  C   UNL A   1      44.448  31.128  31.523  1.00  0.00     0.031 A 
ATOM     29  C   UNL A   1      45.140  32.056  29.376  1.00  0.00    -0.023 A 
ATOM     30  C   UNL A   1      43.146  31.562  31.326  1.00  0.00     0.048 A 
ATOM     31  C   UNL A   1      43.815  32.500  29.198  1.00  0.00     0.051 A 
ATOM     32  C   UNL A   1      46.116  32.278  28.257  1.00  0.00     0.047 C 
ATOM     33  C   UNL A   1      42.835  32.231  30.156  1.00  0.00     0.115 A 
BRANCH  33  34
ATOM     34  O   UNL A   1      41.534  32.584  29.964  1.00  0.00    -0.508 OA
ATOM     35  H   UNL A   1      40.875  31.922  29.886  1.00  0.00     0.293 HD
ENDBRANCH  33  34
ENDBRANCH  24  27
ENDBRANCH  14  19
ENDBRANCH  10  11
ENDBRANCH   9  10
ENDBRANCH   7   9
ENDBRANCH   6   7
ENDBRANCH   5   6
ENDBRANCH   4   5
ENDBRANCH   3   4
ENDBRANCH   2   3
ENDBRANCH   1   2
BRANCH   1  36
ATOM     36  O   UNL A   1      36.744  20.349  25.213  1.00  0.00    -0.377 OA
BRANCH  36  37
ATOM     37  C   UNL A   1      35.937  21.390  24.710  1.00  0.00     0.188 C 
BRANCH  37  38
ATOM     38  C   UNL A   1      36.747  22.585  24.178  1.00  0.00     0.188 C 
BRANCH  38  39
ATOM     39  O   UNL A   1      37.109  23.503  25.196  1.00  0.00    -0.376 OA
BRANCH  39  40
ATOM     40  C   UNL A   1      38.391  23.444  25.792  1.00  0.00     0.202 C 
BRANCH  40  41
ATOM     41  C   UNL A   1      38.936  24.543  26.722  1.00  0.00     0.261 C 
BRANCH  41  42
ATOM     42  O   UNL A   1      39.711  25.578  26.138  1.00  0.00    -0.460 OA
BRANCH  42  43
ATOM     43  C   UNL A   1      41.013  25.633  26.454  1.00  0.00     0.338 C 
ATOM     44  O   UNL A   1      41.964  25.302  25.755  1.00  0.00    -0.246 OA
BRANCH  43  45
ATOM     45  C   UNL A   1      41.082  26.387  27.711  1.00  0.00     0.060 A 
ATOM     46  C   UNL A   1      40.024  26.262  28.618  1.00  0.00     0.016 A 
ATOM     47  C   UNL A   1      42.232  27.119  28.034  1.00  0.00     0.016 A 
ATOM     48  C   UNL A   1      40.119  26.859  29.867  1.00  0.00     0.010 A 
ATOM     49  C   UNL A   1      42.305  27.761  29.266  1.00  0.00     0.010 A 
ATOM     50  C   UNL A   1      41.236  27.648  30.169  1.00  0.00    -0.014 A 
BRANCH  50  51
ATOM     51  C   UNL A   1      41.135  28.581  31.304  1.00  0.00     0.031 A 
ATOM     52  C   UNL A   1      40.077  29.640  31.208  1.00  0.00     0.074 A 
ATOM     53  C   UNL A   1      41.918  28.448  32.387  1.00  0.00     0.049 A 
ATOM     54  N   UNL A   1      39.762  30.576  32.060  1.00  0.00    -0.248 NA
ATOM     55  C   UNL A   1      39.257  29.638  29.982  1.00  0.00     0.031 C 
ATOM     56  C   UNL A   1      42.937  27.417  32.574  1.00  0.00     0.029 A 
ATOM     57  N   UNL A   1      41.972  29.192  33.534  1.00  0.00    -0.354 N 
ATOM     58  C   UNL A   1      38.709  31.268  31.475  1.00  0.00     0.074 A 
ATOM     59  C   UNL A   1      38.456  30.670  30.186  1.00  0.00     0.031 C 
ATOM     60  C   UNL A   1      43.529  27.604  33.768  1.00  0.00     0.029 A 
ATOM     61  C   UNL A   1      42.946  28.781  34.410  1.00  0.00     0.049 A 
ATOM     62  H   UNL A   1      41.370  29.950  33.715  1.00  0.00     0.167 HD
ATOM     63  C   UNL A   1      38.010  32.308  31.981  1.00  0.00     0.037 A 
ATOM     64  C   UNL A   1      43.329  29.320  35.584  1.00  0.00     0.037 A 
ATOM     65  C   UNL A   1      38.298  32.899  33.258  1.00  0.00     0.049 A 
ATOM     66  C   UNL A   1      42.590  30.534  36.090  1.00  0.00     0.074 A 
ATOM     67  C   UNL A   1      37.667  33.959  33.877  1.00  0.00     0.029 A 
ATOM     68  N   UNL A   1      39.319  32.483  34.103  1.00  0.00    -0.354 N 
ATOM     69  N   UNL A   1      41.576  31.169  35.546  1.00  0.00    -0.248 NA
ATOM     70  C   UNL A   1      43.039  31.104  37.367  1.00  0.00     0.031 C 
ATOM     71  C   UNL A   1      38.344  34.222  35.073  1.00  0.00     0.029 A 
ATOM     72  C   UNL A   1      39.355  33.284  35.229  1.00  0.00     0.049 A 
ATOM     73  H   UNL A   1      39.926  31.729  33.927  1.00  0.00     0.167 HD
ATOM     74  C   UNL A   1      41.249  32.195  36.426  1.00  0.00     0.074 A 
ATOM     75  C   UNL A   1      42.167  32.087  37.543  1.00  0.00     0.031 C 
ATOM     76  C   UNL A   1      40.280  33.141  36.326  1.00  0.00     0.037 A 
BRANCH  63  77
ATOM     77  C   UNL A   1      36.912  32.884  31.133  1.00  0.00     0.058 A 
ATOM     78  C   UNL A   1      35.579  32.457  31.253  1.00  0.00     0.135 A 
ATOM     79  C   UNL A   1      37.198  33.880  30.185  1.00  0.00     0.135 A 
ATOM     80  F   UNL A   1      35.256  31.484  32.119  1.00  0.00    -0.206 F 
ATOM     81  C   UNL A   1      34.572  32.984  30.451  1.00  0.00     0.059 A 
ATOM     82  C   UNL A   1      36.202  34.442  29.394  1.00  0.00     0.059 A 
ATOM     83  F   UNL A   1      38.458  34.311  30.017  1.00  0.00    -0.206 F 
ATOM     84  C   UNL A   1      34.893  33.979  29.527  1.00  0.00     0.060 A 
BRANCH  84  85
ATOM     85  S   UNL A   1      33.572  34.666  28.506  1.00  0.00     0.124 S 
ATOM     86  O   UNL A   1      33.001  33.458  27.916  1.00  0.00    -0.237 OA
ATOM     87  O   UNL A   1      32.739  35.344  29.494  1.00  0.00    -0.237 OA
ATOM     88  O   UNL A   1      34.279  35.542  27.578  1.00  0.00    -0.744 OA
ENDBRANCH  84  85
ENDBRANCH  63  77
BRANCH  64  89
ATOM     89  C   UNL A   1      44.462  28.730  36.345  1.00  0.00     0.058 A 
ATOM     90  C   UNL A   1      45.760  29.253  36.245  1.00  0.00     0.135 A 
ATOM     91  C   UNL A   1      44.269  27.630  37.197  1.00  0.00     0.135 A 
ATOM     92  F   UNL A   1      46.002  30.298  35.438  1.00  0.00    -0.206 F 
ATOM     93  C   UNL A   1      46.827  28.700  36.948  1.00  0.00     0.059 A 
ATOM     94  C   UNL A   1      45.313  27.076  37.932  1.00  0.00     0.059 A 
ATOM     95  F   UNL A   1      43.046  27.095  37.338  1.00  0.00    -0.206 F 
ATOM     96  C   UNL A   1      46.591  27.614  37.793  1.00  0.00     0.060 A 
BRANCH  96  97
ATOM     97  S   UNL A   1      47.975  26.937  38.738  1.00  0.00     0.124 S 
ATOM     98  O   UNL A   1      49.096  27.705  38.211  1.00  0.00    -0.237 OA
ATOM     99  O   UNL A   1      47.581  27.239  40.112  1.00  0.00    -0.237 OA
ATOM    100  O   UNL A   1      47.959  25.520  38.388  1.00  0.00    -0.744 OA
ENDBRANCH  96  97
ENDBRANCH  64  89
BRANCH  76 101
ATOM    101  C   UNL A   1      40.138  34.108  37.467  1.00  0.00     0.058 A 
ATOM    102  C   UNL A   1      39.415  33.785  38.624  1.00  0.00     0.135 A 
ATOM    103  C   UNL A   1      40.804  35.345  37.430  1.00  0.00     0.135 A 
ATOM    104  F   UNL A   1      38.757  32.618  38.708  1.00  0.00    -0.206 F 
ATOM    105  C   UNL A   1      39.338  34.663  39.699  1.00  0.00     0.059 A 
ATOM    106  C   UNL A   1      40.769  36.224  38.506  1.00  0.00     0.059 A 
ATOM    107  F   UNL A   1      41.522  35.694  36.351  1.00  0.00    -0.206 F 
ATOM    108  C   UNL A   1      40.024  35.878  39.633  1.00  0.00     0.060 A 
BRANCH 108 109
ATOM    109  S   UNL A   1      39.953  36.989  41.053  1.00  0.00     0.124 S 
ATOM    110  O   UNL A   1      38.720  36.557  41.702  1.00  0.00    -0.237 OA
ATOM    111  O   UNL A   1      41.190  36.667  41.760  1.00  0.00    -0.237 OA
ATOM    112  O   UNL A   1      39.912  38.316  40.447  1.00  0.00    -0.744 OA
ENDBRANCH 108 109
ENDBRANCH  76 101
ENDBRANCH  50  51
ENDBRANCH  43  45
ENDBRANCH  42  43
ENDBRANCH  41  42
ENDBRANCH  40  41
ENDBRANCH  39  40
ENDBRANCH  38  39
ENDBRANCH  37  38
ENDBRANCH  36  37
ENDBRANCH   1  36
TORSDOF 29
ENDMDL
