MODEL 1
REMARK VINA RESULT:      -6.1      0.000      0.000
REMARK SMILES NS(=O)(=O)c1ccc(-n2nc(C(=O)NCCCCCCCCCCC(=O)OCCOCCOCCOCCOC(=O)c3ccc(-c4c5nc(c(-c6c(F)cc(S(=O)(=O)[O-])cc6F)c6ccc([nH]6)c(-c6c(F)cc(S(=O)(=O)[O-])cc6F)c6nc(c(-c7c(F)cc(S(=O)(=O)[O-])cc7F)c7ccc4[nH]7)C=C6)C=C5)cc3)cc2-c2ccccc2)cc1
REMARK SMILES IDX 28 1 27 2 25 3 26 4 24 5 23 6 22 7 21 8 20 9 19 10 18 11
REMARK SMILES IDX 17 12 16 13 15 14 14 15 12 16 13 17 11 19 9 20 10 21 109 22
REMARK SMILES IDX 108 23 8 24 5 25 6 26 117 27 7 28 116 29 2 30 3 31 4 32 1 33
REMARK SMILES IDX 110 36 111 37 115 38 112 39 114 40 113 41 29 42 30 43 31 44
REMARK SMILES IDX 32 45 33 46 34 47 35 48 36 49 37 50 38 51 39 52 40 53 41 54
REMARK SMILES IDX 42 55 43 56 107 57 44 58 106 59 45 60 46 61 47 62 100 63
REMARK SMILES IDX 48 64 105 65 99 66 101 67 49 68 104 69 98 70 97 71 50 73
REMARK SMILES IDX 84 74 63 75 83 76 64 77 67 78 82 79 102 80 65 81 66 82 81 84
REMARK SMILES IDX 103 85 68 86 51 87 52 88 61 89 53 90 54 91 60 92 62 93 55 94
REMARK SMILES IDX 56 95 57 96 58 97 59 98 85 99 86 100 95 101 87 102 88 103
REMARK SMILES IDX 94 104 96 105 89 106 90 107 91 108 92 109 93 110 69 111
REMARK SMILES IDX 70 112 79 113 71 114 72 115 78 116 80 117 73 118 74 119
REMARK SMILES IDX 75 120 76 121 77 122
REMARK H PARENT 14 18 1 34 1 35 101 72 67 83
REMARK Flexibility Score: inf
ROOT
ATOM      1  C   UNL A   1      44.002  25.279  35.683  1.00  0.00     0.261 C 
ENDROOT
BRANCH   1   2
ATOM      2  O   UNL A   1      44.462  26.547  36.174  1.00  0.00    -0.463 OA
BRANCH   2   3
ATOM      3  C   UNL A   1      44.850  27.481  35.284  1.00  0.00     0.305 C 
ATOM      4  O   UNL A   1      45.665  28.367  35.521  1.00  0.00    -0.252 OA
BRANCH   3   5
ATOM      5  C   UNL A   1      44.246  27.311  33.895  1.00  0.00     0.123 C 
BRANCH   5   6
ATOM      6  C   UNL A   1      43.836  28.497  33.015  1.00  0.00     0.012 C 
BRANCH   6   7
ATOM      7  C   UNL A   1      42.504  29.163  33.355  1.00  0.00     0.001 C 
BRANCH   7   8
ATOM      8  C   UNL A   1      41.333  28.235  33.049  1.00  0.00     0.000 C 
BRANCH   8   9
ATOM      9  C   UNL A   1      41.074  28.136  31.544  1.00  0.00     0.000 C 
BRANCH   9  10
ATOM     10  C   UNL A   1      39.871  28.978  31.104  1.00  0.00     0.000 C 
BRANCH  10  11
ATOM     11  C   UNL A   1      40.225  29.923  29.951  1.00  0.00     0.000 C 
BRANCH  11  12
ATOM     12  C   UNL A   1      39.964  31.394  30.301  1.00  0.00     0.002 C 
BRANCH  12  13
ATOM     13  C   UNL A   1      38.470  31.713  30.404  1.00  0.00     0.021 C 
BRANCH  13  14
ATOM     14  C   UNL A   1      38.040  31.763  31.868  1.00  0.00     0.116 C 
BRANCH  14  15
ATOM     15  N   UNL A   1      37.544  33.083  32.154  1.00  0.00    -0.351 N 
ATOM     16  C   UNL A   1      37.976  34.042  33.032  1.00  0.00     0.271 C 
ATOM     17  O   UNL A   1      37.196  34.976  33.235  1.00  0.00    -0.267 OA
ATOM     18  H   UNL A   1      36.756  33.344  31.625  1.00  0.00     0.163 HD
BRANCH  16  19
ATOM     19  C   UNL A   1      39.322  33.986  33.636  1.00  0.00     0.151 A 
ATOM     20  N   UNL A   1      41.087  34.853  34.489  1.00  0.00    -0.232 N 
ATOM     21  N   UNL A   1      39.760  35.035  34.356  1.00  0.00    -0.162 NA
ATOM     22  C   UNL A   1      41.483  33.590  34.088  1.00  0.00     0.075 A 
ATOM     23  C   UNL A   1      40.330  32.991  33.627  1.00  0.00     0.065 A 
BRANCH  20  24
ATOM     24  C   UNL A   1      41.879  35.883  35.036  1.00  0.00     0.065 A 
ATOM     25  C   UNL A   1      43.586  37.744  36.164  1.00  0.00     0.082 A 
ATOM     26  C   UNL A   1      43.539  37.609  34.774  1.00  0.00     0.024 A 
ATOM     27  C   UNL A   1      42.741  36.997  36.992  1.00  0.00     0.024 A 
ATOM     28  C   UNL A   1      42.691  36.662  34.207  1.00  0.00     0.030 A 
ATOM     29  C   UNL A   1      41.860  36.082  36.422  1.00  0.00     0.030 A 
BRANCH  25  30
ATOM     30  S   UNL A   1      44.757  38.818  36.932  1.00  0.00     0.238 S 
ATOM     31  O   UNL A   1      44.607  40.132  36.352  1.00  0.00    -0.207 OA
ATOM     32  O   UNL A   1      46.027  38.139  37.014  1.00  0.00    -0.207 OA
BRANCH  30  33
ATOM     33  N   UNL A   1      44.216  38.966  38.515  1.00  0.00    -0.225 NA
ATOM     34  H   UNL A   1      44.662  38.253  39.094  1.00  0.00     0.137 HD
ATOM     35  H   UNL A   1      43.205  38.841  38.542  1.00  0.00     0.137 HD
ENDBRANCH  30  33
ENDBRANCH  25  30
ENDBRANCH  20  24
BRANCH  22  36
ATOM     36  C   UNL A   1      42.802  32.989  34.241  1.00  0.00     0.000 A 
ATOM     37  C   UNL A   1      43.093  32.180  35.345  1.00  0.00     0.010 A 
ATOM     38  C   UNL A   1      43.778  33.181  33.254  1.00  0.00     0.010 A 
ATOM     39  C   UNL A   1      44.346  31.578  35.465  1.00  0.00     0.001 A 
ATOM     40  C   UNL A   1      45.032  32.581  33.378  1.00  0.00     0.001 A 
ATOM     41  C   UNL A   1      45.314  31.779  34.482  1.00  0.00     0.000 A 
ENDBRANCH  22  36
ENDBRANCH  16  19
ENDBRANCH  14  15
ENDBRANCH  13  14
ENDBRANCH  12  13
ENDBRANCH  11  12
ENDBRANCH  10  11
ENDBRANCH   9  10
ENDBRANCH   8   9
ENDBRANCH   7   8
ENDBRANCH   6   7
ENDBRANCH   5   6
ENDBRANCH   3   5
ENDBRANCH   2   3
ENDBRANCH   1   2
BRANCH   1  42
ATOM     42  C   UNL A   1      45.114  24.249  35.433  1.00  0.00     0.202 C 
BRANCH  42  43
ATOM     43  O   UNL A   1      46.471  24.668  35.411  1.00  0.00    -0.376 OA
BRANCH  43  44
ATOM     44  C   UNL A   1      47.407  23.986  34.581  1.00  0.00     0.188 C 
BRANCH  44  45
ATOM     45  C   UNL A   1      47.703  22.488  34.795  1.00  0.00     0.188 C 
BRANCH  45  46
ATOM     46  O   UNL A   1      48.826  22.177  35.592  1.00  0.00    -0.377 OA
BRANCH  46  47
ATOM     47  C   UNL A   1      49.965  21.686  34.900  1.00  0.00     0.188 C 
BRANCH  47  48
ATOM     48  C   UNL A   1      51.323  21.694  35.640  1.00  0.00     0.188 C 
BRANCH  48  49
ATOM     49  O   UNL A   1      51.602  22.865  36.407  1.00  0.00    -0.376 OA
BRANCH  49  50
ATOM     50  C   UNL A   1      52.767  23.642  36.165  1.00  0.00     0.202 C 
BRANCH  50  51
ATOM     51  C   UNL A   1      52.747  24.591  34.964  1.00  0.00     0.261 C 
BRANCH  51  52
ATOM     52  O   UNL A   1      51.460  25.092  34.653  1.00  0.00    -0.460 OA
BRANCH  52  53
ATOM     53  C   UNL A   1      51.456  26.126  33.800  1.00  0.00     0.338 C 
ATOM     54  O   UNL A   1      51.565  27.319  34.079  1.00  0.00    -0.246 OA
BRANCH  53  55
ATOM     55  C   UNL A   1      51.179  25.635  32.458  1.00  0.00     0.060 A 
ATOM     56  C   UNL A   1      51.877  26.278  31.436  1.00  0.00     0.016 A 
ATOM     57  C   UNL A   1      49.986  24.929  32.245  1.00  0.00     0.016 A 
ATOM     58  C   UNL A   1      51.200  26.504  30.270  1.00  0.00     0.010 A 
ATOM     59  C   UNL A   1      49.305  25.169  31.085  1.00  0.00     0.010 A 
ATOM     60  C   UNL A   1      49.880  26.049  30.174  1.00  0.00    -0.014 A 
BRANCH  60  61
ATOM     61  C   UNL A   1      49.118  26.488  29.035  1.00  0.00     0.031 A 
ATOM     62  C   UNL A   1      48.067  27.444  29.427  1.00  0.00     0.074 A 
ATOM     63  C   UNL A   1      49.421  26.104  27.783  1.00  0.00     0.049 A 
ATOM     64  N   UNL A   1      46.795  27.240  29.473  1.00  0.00    -0.248 NA
ATOM     65  C   UNL A   1      48.506  28.691  30.076  1.00  0.00     0.031 C 
ATOM     66  C   UNL A   1      50.611  25.392  27.307  1.00  0.00     0.029 A 
ATOM     67  N   UNL A   1      48.756  26.378  26.636  1.00  0.00    -0.354 N 
ATOM     68  C   UNL A   1      46.259  28.447  29.904  1.00  0.00     0.074 A 
ATOM     69  C   UNL A   1      47.342  29.187  30.493  1.00  0.00     0.031 C 
ATOM     70  C   UNL A   1      50.690  25.517  25.962  1.00  0.00     0.029 A 
ATOM     71  C   UNL A   1      49.503  26.202  25.479  1.00  0.00     0.049 A 
ATOM     72  H   UNL A   1      47.817  26.676  26.623  1.00  0.00     0.167 HD
ATOM     73  C   UNL A   1      45.052  28.871  29.447  1.00  0.00     0.037 A 
ATOM     74  C   UNL A   1      49.183  26.708  24.259  1.00  0.00     0.037 A 
ATOM     75  C   UNL A   1      44.274  27.772  28.927  1.00  0.00     0.049 A 
ATOM     76  C   UNL A   1      47.726  27.037  24.296  1.00  0.00     0.074 A 
ATOM     77  C   UNL A   1      43.844  26.566  29.450  1.00  0.00     0.029 A 
ATOM     78  N   UNL A   1      44.170  27.642  27.562  1.00  0.00    -0.354 N 
ATOM     79  N   UNL A   1      46.782  26.139  24.387  1.00  0.00    -0.248 NA
ATOM     80  C   UNL A   1      47.350  28.376  24.732  1.00  0.00     0.031 C 
ATOM     81  C   UNL A   1      43.981  25.629  28.386  1.00  0.00     0.029 A 
ATOM     82  C   UNL A   1      44.413  26.325  27.257  1.00  0.00     0.049 A 
ATOM     83  H   UNL A   1      43.959  28.360  26.922  1.00  0.00     0.167 HD
ATOM     84  C   UNL A   1      45.850  26.682  25.264  1.00  0.00     0.074 A 
ATOM     85  C   UNL A   1      46.226  28.089  25.393  1.00  0.00     0.031 C 
ATOM     86  C   UNL A   1      45.044  25.888  26.030  1.00  0.00     0.037 A 
BRANCH  73  87
ATOM     87  C   UNL A   1      44.776  30.315  29.111  1.00  0.00     0.058 A 
ATOM     88  C   UNL A   1      45.585  30.961  28.158  1.00  0.00     0.135 A 
ATOM     89  C   UNL A   1      43.932  31.162  29.870  1.00  0.00     0.135 A 
ATOM     90  F   UNL A   1      46.437  30.257  27.397  1.00  0.00    -0.206 F 
ATOM     91  C   UNL A   1      45.601  32.348  28.017  1.00  0.00     0.059 A 
ATOM     92  C   UNL A   1      43.886  32.537  29.700  1.00  0.00     0.059 A 
ATOM     93  F   UNL A   1      43.182  30.720  30.886  1.00  0.00    -0.206 F 
ATOM     94  C   UNL A   1      44.755  33.127  28.802  1.00  0.00     0.060 A 
BRANCH  94  95
ATOM     95  S   UNL A   1      44.843  34.919  28.699  1.00  0.00     0.124 S 
ATOM     96  O   UNL A   1      45.749  35.097  27.569  1.00  0.00    -0.237 OA
ATOM     97  O   UNL A   1      43.448  35.275  28.466  1.00  0.00    -0.237 OA
ATOM     98  O   UNL A   1      45.374  35.304  30.002  1.00  0.00    -0.744 OA
ENDBRANCH  94  95
ENDBRANCH  73  87
BRANCH  74  99
ATOM     99  C   UNL A   1      50.106  27.307  23.254  1.00  0.00     0.058 A 
ATOM    100  C   UNL A   1      49.913  27.086  21.877  1.00  0.00     0.135 A 
ATOM    101  C   UNL A   1      51.011  28.334  23.593  1.00  0.00     0.135 A 
ATOM    102  F   UNL A   1      49.059  26.139  21.460  1.00  0.00    -0.206 F 
ATOM    103  C   UNL A   1      50.531  27.875  20.898  1.00  0.00     0.059 A 
ATOM    104  C   UNL A   1      51.647  29.124  22.635  1.00  0.00     0.059 A 
ATOM    105  F   UNL A   1      51.237  28.672  24.870  1.00  0.00    -0.206 F 
ATOM    106  C   UNL A   1      51.379  28.909  21.291  1.00  0.00     0.060 A 
BRANCH 106 107
ATOM    107  S   UNL A   1      52.028  30.054  20.049  1.00  0.00     0.124 S 
ATOM    108  O   UNL A   1      51.639  29.400  18.804  1.00  0.00    -0.237 OA
ATOM    109  O   UNL A   1      51.322  31.290  20.370  1.00  0.00    -0.237 OA
ATOM    110  O   UNL A   1      53.463  30.071  20.322  1.00  0.00    -0.744 OA
ENDBRANCH 106 107
ENDBRANCH  74  99
BRANCH  86 111
ATOM    111  C   UNL A   1      44.969  24.416  25.709  1.00  0.00     0.058 A 
ATOM    112  C   UNL A   1      45.913  23.454  26.114  1.00  0.00     0.135 A 
ATOM    113  C   UNL A   1      43.812  23.942  25.071  1.00  0.00     0.135 A 
ATOM    114  F   UNL A   1      46.989  23.805  26.834  1.00  0.00    -0.206 F 
ATOM    115  C   UNL A   1      45.742  22.094  25.842  1.00  0.00     0.059 A 
ATOM    116  C   UNL A   1      43.605  22.589  24.821  1.00  0.00     0.059 A 
ATOM    117  F   UNL A   1      42.839  24.798  24.718  1.00  0.00    -0.206 F 
ATOM    118  C   UNL A   1      44.584  21.671  25.190  1.00  0.00     0.060 A 
BRANCH 118 119
ATOM    119  S   UNL A   1      44.343  19.910  24.870  1.00  0.00     0.124 S 
ATOM    120  O   UNL A   1      45.427  19.308  25.638  1.00  0.00    -0.237 OA
ATOM    121  O   UNL A   1      42.996  19.676  25.380  1.00  0.00    -0.237 OA
ATOM    122  O   UNL A   1      44.475  19.806  23.418  1.00  0.00    -0.744 OA
ENDBRANCH 118 119
ENDBRANCH  86 111
ENDBRANCH  60  61
ENDBRANCH  53  55
ENDBRANCH  52  53
ENDBRANCH  51  52
ENDBRANCH  50  51
ENDBRANCH  49  50
ENDBRANCH  48  49
ENDBRANCH  47  48
ENDBRANCH  46  47
ENDBRANCH  45  46
ENDBRANCH  44  45
ENDBRANCH  43  44
ENDBRANCH  42  43
ENDBRANCH   1  42
TORSDOF 38
ENDMDL
MODEL 2
REMARK VINA RESULT:      -5.3      3.899      8.919
REMARK SMILES NS(=O)(=O)c1ccc(-n2nc(C(=O)NCCCCCCCCCCC(=O)OCCOCCOCCOCCOC(=O)c3ccc(-c4c5nc(c(-c6c(F)cc(S(=O)(=O)[O-])cc6F)c6ccc([nH]6)c(-c6c(F)cc(S(=O)(=O)[O-])cc6F)c6nc(c(-c7c(F)cc(S(=O)(=O)[O-])cc7F)c7ccc4[nH]7)C=C6)C=C5)cc3)cc2-c2ccccc2)cc1
REMARK SMILES IDX 28 1 27 2 25 3 26 4 24 5 23 6 22 7 21 8 20 9 19 10 18 11
REMARK SMILES IDX 17 12 16 13 15 14 14 15 12 16 13 17 11 19 9 20 10 21 109 22
REMARK SMILES IDX 108 23 8 24 5 25 6 26 117 27 7 28 116 29 2 30 3 31 4 32 1 33
REMARK SMILES IDX 110 36 111 37 115 38 112 39 114 40 113 41 29 42 30 43 31 44
REMARK SMILES IDX 32 45 33 46 34 47 35 48 36 49 37 50 38 51 39 52 40 53 41 54
REMARK SMILES IDX 42 55 43 56 107 57 44 58 106 59 45 60 46 61 47 62 100 63
REMARK SMILES IDX 48 64 105 65 99 66 101 67 49 68 104 69 98 70 97 71 50 73
REMARK SMILES IDX 84 74 63 75 83 76 64 77 67 78 82 79 102 80 65 81 66 82 81 84
REMARK SMILES IDX 103 85 68 86 51 87 52 88 61 89 53 90 54 91 60 92 62 93 55 94
REMARK SMILES IDX 56 95 57 96 58 97 59 98 85 99 86 100 95 101 87 102 88 103
REMARK SMILES IDX 94 104 96 105 89 106 90 107 91 108 92 109 93 110 69 111
REMARK SMILES IDX 70 112 79 113 71 114 72 115 78 116 80 117 73 118 74 119
REMARK SMILES IDX 75 120 76 121 77 122
REMARK H PARENT 14 18 1 34 1 35 101 72 67 83
REMARK Flexibility Score: inf
ROOT
ATOM      1  C   UNL A   1      42.586  28.638  35.983  1.00  0.00     0.261 C 
ENDROOT
BRANCH   1   2
ATOM      2  O   UNL A   1      43.624  28.886  36.942  1.00  0.00    -0.463 OA
BRANCH   2   3
ATOM      3  C   UNL A   1      43.920  30.163  37.256  1.00  0.00     0.305 C 
ATOM      4  O   UNL A   1      43.218  30.884  37.957  1.00  0.00    -0.252 OA
BRANCH   3   5
ATOM      5  C   UNL A   1      45.267  30.643  36.726  1.00  0.00     0.123 C 
BRANCH   5   6
ATOM      6  C   UNL A   1      46.197  29.754  35.894  1.00  0.00     0.012 C 
BRANCH   6   7
ATOM      7  C   UNL A   1      47.483  30.406  35.389  1.00  0.00     0.001 C 
BRANCH   7   8
ATOM      8  C   UNL A   1      47.181  31.479  34.348  1.00  0.00     0.000 C 
BRANCH   8   9
ATOM      9  C   UNL A   1      47.932  32.779  34.647  1.00  0.00     0.000 C 
BRANCH   9  10
ATOM     10  C   UNL A   1      47.242  34.003  34.037  1.00  0.00     0.000 C 
BRANCH  10  11
ATOM     11  C   UNL A   1      46.367  33.627  32.836  1.00  0.00     0.000 C 
BRANCH  11  12
ATOM     12  C   UNL A   1      47.062  33.906  31.497  1.00  0.00     0.002 C 
BRANCH  12  13
ATOM     13  C   UNL A   1      46.514  35.158  30.805  1.00  0.00     0.021 C 
BRANCH  13  14
ATOM     14  C   UNL A   1      45.039  34.969  30.460  1.00  0.00     0.116 C 
BRANCH  14  15
ATOM     15  N   UNL A   1      44.914  33.827  29.595  1.00  0.00    -0.351 N 
ATOM     16  C   UNL A   1      44.104  32.724  29.662  1.00  0.00     0.271 C 
ATOM     17  O   UNL A   1      44.403  31.790  28.913  1.00  0.00    -0.267 OA
ATOM     18  H   UNL A   1      45.517  33.840  28.817  1.00  0.00     0.163 HD
BRANCH  16  19
ATOM     19  C   UNL A   1      42.910  32.695  30.530  1.00  0.00     0.151 A 
ATOM     20  N   UNL A   1      40.799  32.733  30.902  1.00  0.00    -0.232 N 
ATOM     21  N   UNL A   1      41.722  32.357  29.996  1.00  0.00    -0.162 NA
ATOM     22  C   UNL A   1      41.368  33.077  32.114  1.00  0.00     0.075 A 
ATOM     23  C   UNL A   1      42.727  32.961  31.909  1.00  0.00     0.065 A 
BRANCH  20  24
ATOM     24  C   UNL A   1      39.432  32.688  30.561  1.00  0.00     0.065 A 
ATOM     25  C   UNL A   1      36.813  32.615  29.673  1.00  0.00     0.082 A 
ATOM     26  C   UNL A   1      37.441  31.428  30.059  1.00  0.00     0.024 A 
ATOM     27  C   UNL A   1      37.467  33.848  29.786  1.00  0.00     0.024 A 
ATOM     28  C   UNL A   1      38.763  31.463  30.492  1.00  0.00     0.030 A 
ATOM     29  C   UNL A   1      38.775  33.888  30.262  1.00  0.00     0.030 A 
BRANCH  25  30
ATOM     30  S   UNL A   1      35.195  32.600  28.972  1.00  0.00     0.238 S 
ATOM     31  O   UNL A   1      35.280  33.141  27.635  1.00  0.00    -0.207 OA
ATOM     32  O   UNL A   1      34.257  33.086  29.954  1.00  0.00    -0.207 OA
BRANCH  30  33
ATOM     33  N   UNL A   1      34.839  30.970  28.770  1.00  0.00    -0.225 NA
ATOM     34  H   UNL A   1      34.814  30.514  29.683  1.00  0.00     0.137 HD
ATOM     35  H   UNL A   1      35.557  30.535  28.192  1.00  0.00     0.137 HD
ENDBRANCH  30  33
ENDBRANCH  25  30
ENDBRANCH  20  24
BRANCH  22  36
ATOM     36  C   UNL A   1      40.675  33.373  33.362  1.00  0.00     0.000 A 
ATOM     37  C   UNL A   1      40.265  34.678  33.656  1.00  0.00     0.010 A 
ATOM     38  C   UNL A   1      40.374  32.340  34.258  1.00  0.00     0.010 A 
ATOM     39  C   UNL A   1      39.570  34.947  34.835  1.00  0.00     0.001 A 
ATOM     40  C   UNL A   1      39.682  32.611  35.439  1.00  0.00     0.001 A 
ATOM     41  C   UNL A   1      39.279  33.914  35.726  1.00  0.00     0.000 A 
ENDBRANCH  22  36
ENDBRANCH  16  19
ENDBRANCH  14  15
ENDBRANCH  13  14
ENDBRANCH  12  13
ENDBRANCH  11  12
ENDBRANCH  10  11
ENDBRANCH   9  10
ENDBRANCH   8   9
ENDBRANCH   7   8
ENDBRANCH   6   7
ENDBRANCH   5   6
ENDBRANCH   3   5
ENDBRANCH   2   3
ENDBRANCH   1   2
BRANCH   1  42
ATOM     42  C   UNL A   1      43.041  28.699  34.517  1.00  0.00     0.202 C 
BRANCH  42  43
ATOM     43  O   UNL A   1      43.007  27.525  33.719  1.00  0.00    -0.376 OA
BRANCH  43  44
ATOM     44  C   UNL A   1      43.147  27.629  32.305  1.00  0.00     0.188 C 
BRANCH  44  45
ATOM     45  C   UNL A   1      42.670  28.891  31.558  1.00  0.00     0.188 C 
BRANCH  45  46
ATOM     46  O   UNL A   1      41.979  28.679  30.344  1.00  0.00    -0.377 OA
BRANCH  46  47
ATOM     47  C   UNL A   1      40.736  27.999  30.444  1.00  0.00     0.188 C 
BRANCH  47  48
ATOM     48  C   UNL A   1      40.146  27.373  29.159  1.00  0.00     0.188 C 
BRANCH  48  49
ATOM     49  O   UNL A   1      40.926  26.339  28.560  1.00  0.00    -0.376 OA
BRANCH  49  50
ATOM     50  C   UNL A   1      40.396  25.035  28.369  1.00  0.00     0.202 C 
BRANCH  50  51
ATOM     51  C   UNL A   1      40.680  24.346  27.032  1.00  0.00     0.261 C 
BRANCH  51  52
ATOM     52  O   UNL A   1      41.985  24.575  26.535  1.00  0.00    -0.460 OA
BRANCH  52  53
ATOM     53  C   UNL A   1      42.069  25.546  25.615  1.00  0.00     0.338 C 
ATOM     54  O   UNL A   1      41.139  26.083  25.015  1.00  0.00    -0.246 OA
BRANCH  53  55
ATOM     55  C   UNL A   1      43.471  25.809  25.328  1.00  0.00     0.060 A 
ATOM     56  C   UNL A   1      44.347  24.774  25.653  1.00  0.00     0.016 A 
ATOM     57  C   UNL A   1      43.879  27.145  25.194  1.00  0.00     0.016 A 
ATOM     58  C   UNL A   1      45.559  25.128  26.178  1.00  0.00     0.010 A 
ATOM     59  C   UNL A   1      45.085  27.497  25.733  1.00  0.00     0.010 A 
ATOM     60  C   UNL A   1      45.844  26.491  26.321  1.00  0.00    -0.014 A 
BRANCH  60  61
ATOM     61  C   UNL A   1      47.019  26.838  27.075  1.00  0.00     0.031 A 
ATOM     62  C   UNL A   1      46.802  26.661  28.521  1.00  0.00     0.074 A 
ATOM     63  C   UNL A   1      48.169  27.197  26.477  1.00  0.00     0.049 A 
ATOM     64  N   UNL A   1      46.662  27.580  29.414  1.00  0.00    -0.248 NA
ATOM     65  C   UNL A   1      46.457  25.307  28.985  1.00  0.00     0.031 C 
ATOM     66  C   UNL A   1      48.526  27.117  25.058  1.00  0.00     0.029 A 
ATOM     67  N   UNL A   1      49.321  27.614  27.055  1.00  0.00    -0.354 N 
ATOM     68  C   UNL A   1      46.483  26.890  30.606  1.00  0.00     0.074 A 
ATOM     69  C   UNL A   1      46.112  25.548  30.249  1.00  0.00     0.031 C 
ATOM     70  C   UNL A   1      49.869  27.238  24.934  1.00  0.00     0.029 A 
ATOM     71  C   UNL A   1      50.441  27.524  26.239  1.00  0.00     0.049 A 
ATOM     72  H   UNL A   1      49.360  27.956  27.977  1.00  0.00     0.167 HD
ATOM     73  C   UNL A   1      46.972  27.385  31.773  1.00  0.00     0.037 A 
ATOM     74  C   UNL A   1      51.728  27.567  26.673  1.00  0.00     0.037 A 
ATOM     75  C   UNL A   1      47.209  28.806  31.681  1.00  0.00     0.049 A 
ATOM     76  C   UNL A   1      51.704  28.190  28.032  1.00  0.00     0.074 A 
ATOM     77  C   UNL A   1      46.419  29.893  31.352  1.00  0.00     0.029 A 
ATOM     78  N   UNL A   1      48.508  29.238  31.548  1.00  0.00    -0.354 N 
ATOM     79  N   UNL A   1      51.383  29.436  28.253  1.00  0.00    -0.248 NA
ATOM     80  C   UNL A   1      51.555  27.300  29.176  1.00  0.00     0.031 C 
ATOM     81  C   UNL A   1      47.260  30.742  30.575  1.00  0.00     0.029 A 
ATOM     82  C   UNL A   1      48.529  30.165  30.535  1.00  0.00     0.049 A 
ATOM     83  H   UNL A   1      49.279  28.938  32.081  1.00  0.00     0.167 HD
ATOM     84  C   UNL A   1      50.608  29.410  29.406  1.00  0.00     0.074 A 
ATOM     85  C   UNL A   1      50.802  28.073  29.964  1.00  0.00     0.031 C 
ATOM     86  C   UNL A   1      49.656  30.361  29.648  1.00  0.00     0.037 A 
BRANCH  73  87
ATOM     87  C   UNL A   1      47.602  26.506  32.824  1.00  0.00     0.058 A 
ATOM     88  C   UNL A   1      48.681  25.678  32.464  1.00  0.00     0.135 A 
ATOM     89  C   UNL A   1      47.027  26.242  34.091  1.00  0.00     0.135 A 
ATOM     90  F   UNL A   1      49.288  25.827  31.276  1.00  0.00    -0.206 F 
ATOM     91  C   UNL A   1      49.113  24.628  33.273  1.00  0.00     0.059 A 
ATOM     92  C   UNL A   1      47.484  25.245  34.939  1.00  0.00     0.059 A 
ATOM     93  F   UNL A   1      45.931  26.866  34.536  1.00  0.00    -0.206 F 
ATOM     94  C   UNL A   1      48.499  24.414  34.504  1.00  0.00     0.060 A 
BRANCH  94  95
ATOM     95  S   UNL A   1      48.981  23.002  35.506  1.00  0.00     0.124 S 
ATOM     96  O   UNL A   1      50.432  23.151  35.533  1.00  0.00    -0.237 OA
ATOM     97  O   UNL A   1      48.285  23.272  36.759  1.00  0.00    -0.237 OA
ATOM     98  O   UNL A   1      48.475  21.864  34.745  1.00  0.00    -0.744 OA
ENDBRANCH  94  95
ENDBRANCH  73  87
BRANCH  74  99
ATOM     99  C   UNL A   1      52.875  26.744  26.198  1.00  0.00     0.058 A 
ATOM    100  C   UNL A   1      54.165  27.299  26.093  1.00  0.00     0.135 A 
ATOM    101  C   UNL A   1      52.799  25.339  26.116  1.00  0.00     0.135 A 
ATOM    102  F   UNL A   1      54.336  28.626  26.175  1.00  0.00    -0.206 F 
ATOM    103  C   UNL A   1      55.313  26.505  25.976  1.00  0.00     0.059 A 
ATOM    104  C   UNL A   1      53.928  24.530  25.987  1.00  0.00     0.059 A 
ATOM    105  F   UNL A   1      51.633  24.693  26.254  1.00  0.00    -0.206 F 
ATOM    106  C   UNL A   1      55.184  25.118  25.949  1.00  0.00     0.060 A 
BRANCH 106 107
ATOM    107  S   UNL A   1      56.666  24.081  25.995  1.00  0.00     0.124 S 
ATOM    108  O   UNL A   1      57.522  24.817  26.919  1.00  0.00    -0.237 OA
ATOM    109  O   UNL A   1      56.140  22.811  26.485  1.00  0.00    -0.237 OA
ATOM    110  O   UNL A   1      57.115  24.070  24.605  1.00  0.00    -0.744 OA
ENDBRANCH 106 107
ENDBRANCH  74  99
BRANCH  86 111
ATOM    111  C   UNL A   1      49.646  31.604  28.794  1.00  0.00     0.058 A 
ATOM    112  C   UNL A   1      49.008  31.717  27.545  1.00  0.00     0.135 A 
ATOM    113  C   UNL A   1      50.202  32.775  29.333  1.00  0.00     0.135 A 
ATOM    114  F   UNL A   1      48.349  30.679  27.011  1.00  0.00    -0.206 F 
ATOM    115  C   UNL A   1      48.979  32.924  26.840  1.00  0.00     0.059 A 
ATOM    116  C   UNL A   1      50.153  33.994  28.665  1.00  0.00     0.059 A 
ATOM    117  F   UNL A   1      50.767  32.752  30.552  1.00  0.00    -0.206 F 
ATOM    118  C   UNL A   1      49.559  34.057  27.408  1.00  0.00     0.060 A 
BRANCH 118 119
ATOM    119  S   UNL A   1      49.490  35.627  26.516  1.00  0.00     0.124 S 
ATOM    120  O   UNL A   1      48.680  36.451  27.407  1.00  0.00    -0.237 OA
ATOM    121  O   UNL A   1      50.898  35.996  26.414  1.00  0.00    -0.237 OA
ATOM    122  O   UNL A   1      48.856  35.272  25.248  1.00  0.00    -0.744 OA
ENDBRANCH 118 119
ENDBRANCH  86 111
ENDBRANCH  60  61
ENDBRANCH  53  55
ENDBRANCH  52  53
ENDBRANCH  51  52
ENDBRANCH  50  51
ENDBRANCH  49  50
ENDBRANCH  48  49
ENDBRANCH  47  48
ENDBRANCH  46  47
ENDBRANCH  45  46
ENDBRANCH  44  45
ENDBRANCH  43  44
ENDBRANCH  42  43
ENDBRANCH   1  42
TORSDOF 38
ENDMDL
MODEL 3
REMARK VINA RESULT:      -4.8      2.866      3.651
REMARK SMILES NS(=O)(=O)c1ccc(-n2nc(C(=O)NCCCCCCCCCCC(=O)OCCOCCOCCOCCOC(=O)c3ccc(-c4c5nc(c(-c6c(F)cc(S(=O)(=O)[O-])cc6F)c6ccc([nH]6)c(-c6c(F)cc(S(=O)(=O)[O-])cc6F)c6nc(c(-c7c(F)cc(S(=O)(=O)[O-])cc7F)c7ccc4[nH]7)C=C6)C=C5)cc3)cc2-c2ccccc2)cc1
REMARK SMILES IDX 28 1 27 2 25 3 26 4 24 5 23 6 22 7 21 8 20 9 19 10 18 11
REMARK SMILES IDX 17 12 16 13 15 14 14 15 12 16 13 17 11 19 9 20 10 21 109 22
REMARK SMILES IDX 108 23 8 24 5 25 6 26 117 27 7 28 116 29 2 30 3 31 4 32 1 33
REMARK SMILES IDX 110 36 111 37 115 38 112 39 114 40 113 41 29 42 30 43 31 44
REMARK SMILES IDX 32 45 33 46 34 47 35 48 36 49 37 50 38 51 39 52 40 53 41 54
REMARK SMILES IDX 42 55 43 56 107 57 44 58 106 59 45 60 46 61 47 62 100 63
REMARK SMILES IDX 48 64 105 65 99 66 101 67 49 68 104 69 98 70 97 71 50 73
REMARK SMILES IDX 84 74 63 75 83 76 64 77 67 78 82 79 102 80 65 81 66 82 81 84
REMARK SMILES IDX 103 85 68 86 51 87 52 88 61 89 53 90 54 91 60 92 62 93 55 94
REMARK SMILES IDX 56 95 57 96 58 97 59 98 85 99 86 100 95 101 87 102 88 103
REMARK SMILES IDX 94 104 96 105 89 106 90 107 91 108 92 109 93 110 69 111
REMARK SMILES IDX 70 112 79 113 71 114 72 115 78 116 80 117 73 118 74 119
REMARK SMILES IDX 75 120 76 121 77 122
REMARK H PARENT 14 18 1 34 1 35 101 72 67 83
REMARK Flexibility Score: inf
ROOT
ATOM      1  C   UNL A   1      44.282  25.143  35.965  1.00  0.00     0.261 C 
ENDROOT
BRANCH   1   2
ATOM      2  O   UNL A   1      44.774  26.359  36.549  1.00  0.00    -0.463 OA
BRANCH   2   3
ATOM      3  C   UNL A   1      44.866  27.456  35.771  1.00  0.00     0.305 C 
ATOM      4  O   UNL A   1      45.663  28.370  35.955  1.00  0.00    -0.252 OA
BRANCH   3   5
ATOM      5  C   UNL A   1      43.934  27.449  34.565  1.00  0.00     0.123 C 
BRANCH   5   6
ATOM      6  C   UNL A   1      43.878  28.594  33.549  1.00  0.00     0.012 C 
BRANCH   6   7
ATOM      7  C   UNL A   1      42.703  29.561  33.683  1.00  0.00     0.001 C 
BRANCH   7   8
ATOM      8  C   UNL A   1      41.384  28.868  33.360  1.00  0.00     0.000 C 
BRANCH   8   9
ATOM      9  C   UNL A   1      40.466  29.767  32.529  1.00  0.00     0.000 C 
BRANCH   9  10
ATOM     10  C   UNL A   1      39.260  30.268  33.331  1.00  0.00     0.000 C 
BRANCH  10  11
ATOM     11  C   UNL A   1      39.095  31.788  33.227  1.00  0.00     0.000 C 
BRANCH  11  12
ATOM     12  C   UNL A   1      39.437  32.504  34.540  1.00  0.00     0.002 C 
BRANCH  12  13
ATOM     13  C   UNL A   1      38.220  32.651  35.459  1.00  0.00     0.021 C 
BRANCH  13  14
ATOM     14  C   UNL A   1      38.377  31.763  36.690  1.00  0.00     0.116 C 
BRANCH  14  15
ATOM     15  N   UNL A   1      37.447  32.205  37.695  1.00  0.00    -0.351 N 
ATOM     16  C   UNL A   1      37.640  32.867  38.879  1.00  0.00     0.271 C 
ATOM     17  O   UNL A   1      36.675  32.884  39.648  1.00  0.00    -0.267 OA
ATOM     18  H   UNL A   1      36.506  31.997  37.496  1.00  0.00     0.163 HD
BRANCH  16  19
ATOM     19  C   UNL A   1      38.904  33.570  39.173  1.00  0.00     0.151 A 
ATOM     20  N   UNL A   1      40.468  34.259  40.466  1.00  0.00    -0.232 N 
ATOM     21  N   UNL A   1      39.576  33.265  40.298  1.00  0.00    -0.162 NA
ATOM     22  C   UNL A   1      40.563  35.069  39.351  1.00  0.00     0.075 A 
ATOM     23  C   UNL A   1      39.623  34.570  38.474  1.00  0.00     0.065 A 
BRANCH  20  24
ATOM     24  C   UNL A   1      41.206  34.335  41.666  1.00  0.00     0.065 A 
ATOM     25  C   UNL A   1      42.681  34.259  44.004  1.00  0.00     0.082 A 
ATOM     26  C   UNL A   1      43.292  34.679  42.820  1.00  0.00     0.024 A 
ATOM     27  C   UNL A   1      41.320  33.936  44.039  1.00  0.00     0.024 A 
ATOM     28  C   UNL A   1      42.554  34.703  41.640  1.00  0.00     0.030 A 
ATOM     29  C   UNL A   1      40.570  34.003  42.868  1.00  0.00     0.030 A 
BRANCH  25  30
ATOM     30  S   UNL A   1      43.615  34.063  45.488  1.00  0.00     0.238 S 
ATOM     31  O   UNL A   1      43.994  35.376  45.956  1.00  0.00    -0.207 OA
ATOM     32  O   UNL A   1      44.566  32.995  45.301  1.00  0.00    -0.207 OA
BRANCH  30  33
ATOM     33  N   UNL A   1      42.505  33.493  46.612  1.00  0.00    -0.225 NA
ATOM     34  H   UNL A   1      42.975  32.866  47.265  1.00  0.00     0.137 HD
ATOM     35  H   UNL A   1      41.762  32.987  46.130  1.00  0.00     0.137 HD
ENDBRANCH  30  33
ENDBRANCH  25  30
ENDBRANCH  20  24
BRANCH  22  36
ATOM     36  C   UNL A   1      41.530  36.134  39.112  1.00  0.00     0.000 A 
ATOM     37  C   UNL A   1      42.485  36.013  38.096  1.00  0.00     0.010 A 
ATOM     38  C   UNL A   1      41.481  37.309  39.873  1.00  0.00     0.010 A 
ATOM     39  C   UNL A   1      43.384  37.052  37.850  1.00  0.00     0.001 A 
ATOM     40  C   UNL A   1      42.383  38.345  39.627  1.00  0.00     0.001 A 
ATOM     41  C   UNL A   1      43.333  38.216  38.616  1.00  0.00     0.000 A 
ENDBRANCH  22  36
ENDBRANCH  16  19
ENDBRANCH  14  15
ENDBRANCH  13  14
ENDBRANCH  12  13
ENDBRANCH  11  12
ENDBRANCH  10  11
ENDBRANCH   9  10
ENDBRANCH   8   9
ENDBRANCH   7   8
ENDBRANCH   6   7
ENDBRANCH   5   6
ENDBRANCH   3   5
ENDBRANCH   2   3
ENDBRANCH   1   2
BRANCH   1  42
ATOM     42  C   UNL A   1      45.370  24.116  35.617  1.00  0.00     0.202 C 
BRANCH  42  43
ATOM     43  O   UNL A   1      46.733  24.516  35.585  1.00  0.00    -0.376 OA
BRANCH  43  44
ATOM     44  C   UNL A   1      47.638  23.863  34.699  1.00  0.00     0.188 C 
BRANCH  44  45
ATOM     45  C   UNL A   1      47.912  22.352  34.825  1.00  0.00     0.188 C 
BRANCH  45  46
ATOM     46  O   UNL A   1      49.083  21.981  35.523  1.00  0.00    -0.377 OA
BRANCH  46  47
ATOM     47  C   UNL A   1      50.148  21.477  34.730  1.00  0.00     0.188 C 
BRANCH  47  48
ATOM     48  C   UNL A   1      51.545  21.359  35.383  1.00  0.00     0.188 C 
BRANCH  48  49
ATOM     49  O   UNL A   1      51.951  22.471  36.181  1.00  0.00    -0.376 OA
BRANCH  49  50
ATOM     50  C   UNL A   1      53.156  23.171  35.906  1.00  0.00     0.202 C 
BRANCH  50  51
ATOM     51  C   UNL A   1      53.152  24.150  34.729  1.00  0.00     0.261 C 
BRANCH  51  52
ATOM     52  O   UNL A   1      51.893  24.746  34.484  1.00  0.00    -0.460 OA
BRANCH  52  53
ATOM     53  C   UNL A   1      51.928  25.808  33.667  1.00  0.00     0.338 C 
ATOM     54  O   UNL A   1      52.102  26.984  33.983  1.00  0.00    -0.246 OA
BRANCH  53  55
ATOM     55  C   UNL A   1      51.604  25.378  32.315  1.00  0.00     0.060 A 
ATOM     56  C   UNL A   1      52.281  26.052  31.300  1.00  0.00     0.016 A 
ATOM     57  C   UNL A   1      50.393  24.699  32.109  1.00  0.00     0.016 A 
ATOM     58  C   UNL A   1      51.574  26.336  30.164  1.00  0.00     0.010 A 
ATOM     59  C   UNL A   1      49.683  24.997  30.980  1.00  0.00     0.010 A 
ATOM     60  C   UNL A   1      50.245  25.906  30.089  1.00  0.00    -0.014 A 
BRANCH  60  61
ATOM     61  C   UNL A   1      49.457  26.403  28.993  1.00  0.00     0.031 A 
ATOM     62  C   UNL A   1      48.449  27.375  29.452  1.00  0.00     0.074 A 
ATOM     63  C   UNL A   1      49.705  26.051  27.720  1.00  0.00     0.049 A 
ATOM     64  N   UNL A   1      47.174  27.205  29.537  1.00  0.00    -0.248 NA
ATOM     65  C   UNL A   1      48.946  28.587  30.125  1.00  0.00     0.031 C 
ATOM     66  C   UNL A   1      50.856  25.323  27.179  1.00  0.00     0.029 A 
ATOM     67  N   UNL A   1      49.008  26.382  26.606  1.00  0.00    -0.354 N 
ATOM     68  C   UNL A   1      46.689  28.412  30.025  1.00  0.00     0.074 A 
ATOM     69  C   UNL A   1      47.813  29.102  30.598  1.00  0.00     0.031 C 
ATOM     70  C   UNL A   1      50.892  25.489  25.836  1.00  0.00     0.029 A 
ATOM     71  C   UNL A   1      49.710  26.223  25.418  1.00  0.00     0.049 A 
ATOM     72  H   UNL A   1      48.079  26.707  26.636  1.00  0.00     0.167 HD
ATOM     73  C   UNL A   1      45.479  28.885  29.625  1.00  0.00     0.037 A 
ATOM     74  C   UNL A   1      49.363  26.778  24.227  1.00  0.00     0.037 A 
ATOM     75  C   UNL A   1      44.652  27.826  29.099  1.00  0.00     0.049 A 
ATOM     76  C   UNL A   1      47.918  27.146  24.327  1.00  0.00     0.074 A 
ATOM     77  C   UNL A   1      44.206  26.617  29.599  1.00  0.00     0.029 A 
ATOM     78  N   UNL A   1      44.497  27.744  27.735  1.00  0.00    -0.354 N 
ATOM     79  N   UNL A   1      46.951  26.273  24.423  1.00  0.00    -0.248 NA
ATOM     80  C   UNL A   1      47.597  28.480  24.818  1.00  0.00     0.031 C 
ATOM     81  C   UNL A   1      44.277  25.711  28.501  1.00  0.00     0.029 A 
ATOM     82  C   UNL A   1      44.690  26.431  27.380  1.00  0.00     0.049 A 
ATOM     83  H   UNL A   1      44.285  28.488  27.126  1.00  0.00     0.167 HD
ATOM     84  C   UNL A   1      46.067  26.813  25.350  1.00  0.00     0.074 A 
ATOM     85  C   UNL A   1      46.488  28.203  25.510  1.00  0.00     0.031 C 
ATOM     86  C   UNL A   1      45.266  26.017  26.118  1.00  0.00     0.037 A 
BRANCH  73  87
ATOM     87  C   UNL A   1      45.234  30.346  29.345  1.00  0.00     0.058 A 
ATOM     88  C   UNL A   1      44.014  30.922  29.743  1.00  0.00     0.135 A 
ATOM     89  C   UNL A   1      46.025  31.134  28.474  1.00  0.00     0.135 A 
ATOM     90  F   UNL A   1      43.176  30.255  30.552  1.00  0.00    -0.206 F 
ATOM     91  C   UNL A   1      43.584  32.158  29.260  1.00  0.00     0.059 A 
ATOM     92  C   UNL A   1      45.646  32.392  28.033  1.00  0.00     0.059 A 
ATOM     93  F   UNL A   1      47.159  30.689  27.921  1.00  0.00    -0.206 F 
ATOM     94  C   UNL A   1      44.404  32.878  28.396  1.00  0.00     0.060 A 
BRANCH  94  95
ATOM     95  S   UNL A   1      43.814  34.422  27.689  1.00  0.00     0.124 S 
ATOM     96  O   UNL A   1      45.021  35.240  27.738  1.00  0.00    -0.237 OA
ATOM     97  O   UNL A   1      43.379  33.998  26.363  1.00  0.00    -0.237 OA
ATOM     98  O   UNL A   1      42.744  34.818  28.598  1.00  0.00    -0.744 OA
ENDBRANCH  94  95
ENDBRANCH  73  87
BRANCH  74  99
ATOM     99  C   UNL A   1      50.267  27.383  23.209  1.00  0.00     0.058 A 
ATOM    100  C   UNL A   1      50.054  27.164  21.835  1.00  0.00     0.135 A 
ATOM    101  C   UNL A   1      51.172  28.413  23.536  1.00  0.00     0.135 A 
ATOM    102  F   UNL A   1      49.197  26.215  21.429  1.00  0.00    -0.206 F 
ATOM    103  C   UNL A   1      50.653  27.958  20.849  1.00  0.00     0.059 A 
ATOM    104  C   UNL A   1      51.790  29.208  22.571  1.00  0.00     0.059 A 
ATOM    105  F   UNL A   1      51.417  28.749  24.811  1.00  0.00    -0.206 F 
ATOM    106  C   UNL A   1      51.502  28.995  21.230  1.00  0.00     0.060 A 
BRANCH 106 107
ATOM    107  S   UNL A   1      52.126  30.146  19.982  1.00  0.00     0.124 S 
ATOM    108  O   UNL A   1      53.565  30.096  20.218  1.00  0.00    -0.237 OA
ATOM    109  O   UNL A   1      51.661  29.538  18.740  1.00  0.00    -0.237 OA
ATOM    110  O   UNL A   1      51.481  31.409  20.333  1.00  0.00    -0.744 OA
ENDBRANCH 106 107
ENDBRANCH  74  99
BRANCH  86 111
ATOM    111  C   UNL A   1      45.136  24.559  25.754  1.00  0.00     0.058 A 
ATOM    112  C   UNL A   1      46.037  23.549  26.139  1.00  0.00     0.135 A 
ATOM    113  C   UNL A   1      43.968  24.150  25.090  1.00  0.00     0.135 A 
ATOM    114  F   UNL A   1      47.118  23.836  26.879  1.00  0.00    -0.206 F 
ATOM    115  C   UNL A   1      45.816  22.205  25.826  1.00  0.00     0.059 A 
ATOM    116  C   UNL A   1      43.710  22.813  24.799  1.00  0.00     0.059 A 
ATOM    117  F   UNL A   1      43.034  25.054  24.753  1.00  0.00    -0.206 F 
ATOM    118  C   UNL A   1      44.649  21.848  25.151  1.00  0.00     0.060 A 
BRANCH 118 119
ATOM    119  S   UNL A   1      44.342  20.108  24.776  1.00  0.00     0.124 S 
ATOM    120  O   UNL A   1      45.404  19.442  25.525  1.00  0.00    -0.237 OA
ATOM    121  O   UNL A   1      42.988  19.908  25.281  1.00  0.00    -0.237 OA
ATOM    122  O   UNL A   1      44.471  20.043  23.322  1.00  0.00    -0.744 OA
ENDBRANCH 118 119
ENDBRANCH  86 111
ENDBRANCH  60  61
ENDBRANCH  53  55
ENDBRANCH  52  53
ENDBRANCH  51  52
ENDBRANCH  50  51
ENDBRANCH  49  50
ENDBRANCH  48  49
ENDBRANCH  47  48
ENDBRANCH  46  47
ENDBRANCH  45  46
ENDBRANCH  44  45
ENDBRANCH  43  44
ENDBRANCH  42  43
ENDBRANCH   1  42
TORSDOF 38
ENDMDL
