MODEL 1
REMARK VINA RESULT:     -10.1      0.000      0.000
REMARK SMILES Cc1ccc(C)c(S(=O)(=O)N[C@@H](CC2=c3ccccc3=NC2)C(=O)OCCOCCOCCOCCOC(=O)c2ccc(-c3c4nc(c(-c5c(F)cc(S(=O)(=O)[O-])cc5F)c5ccc([nH]5)c(-c5c(F)cc(S(=O)(=O)[O-])cc5F)c5nc(c(-c6c(F)cc(S(=O)(=O)[O-])cc6F)c6ccc3[nH]6)C=C5)C=C4)cc2)c1
REMARK SMILES IDX 31 1 30 2 29 3 28 4 27 5 26 6 25 7 23 8 24 9 12 10 11 11
REMARK SMILES IDX 8 13 9 14 10 15 7 16 1 17 2 18 3 19 106 20 4 21 5 22 6 23
REMARK SMILES IDX 13 24 14 25 15 26 22 27 16 28 20 29 21 30 17 31 19 32 18 33
REMARK SMILES IDX 32 34 33 35 34 36 35 37 36 38 37 39 38 40 39 41 40 42 41 43
REMARK SMILES IDX 105 44 42 45 104 46 43 47 44 48 45 49 98 50 46 51 103 52
REMARK SMILES IDX 97 53 99 54 47 55 102 56 96 57 95 58 48 60 82 61 61 62 81 63
REMARK SMILES IDX 62 64 65 65 80 66 100 67 63 68 64 69 79 71 101 72 66 73
REMARK SMILES IDX 49 74 50 75 59 76 51 77 52 78 58 79 60 80 53 81 54 82 55 83
REMARK SMILES IDX 56 84 57 85 83 86 84 87 93 88 85 89 86 90 92 91 94 92 87 93
REMARK SMILES IDX 88 94 89 95 90 96 91 97 67 98 68 99 77 100 69 101 70 102
REMARK SMILES IDX 76 103 78 104 71 105 72 106 73 107 74 108 75 109
REMARK H PARENT 11 12 99 59 65 70
REMARK Flexibility Score: inf
ROOT
ATOM      1  O   UNL A   1      40.216  23.565  26.592  1.00  0.00    -0.377 OA
ENDROOT
BRANCH   1   2
ATOM      2  C   UNL A   1      38.884  23.937  26.859  1.00  0.00     0.188 C 
BRANCH   2   3
ATOM      3  C   UNL A   1      37.881  23.450  25.834  1.00  0.00     0.188 C 
BRANCH   3   4
ATOM      4  O   UNL A   1      36.569  23.936  25.623  1.00  0.00    -0.376 OA
BRANCH   4   5
ATOM      5  C   UNL A   1      35.904  23.654  24.397  1.00  0.00     0.202 C 
BRANCH   5   6
ATOM      6  C   UNL A   1      34.345  23.682  24.379  1.00  0.00     0.261 C 
BRANCH   6   7
ATOM      7  O   UNL A   1      33.673  24.512  23.390  1.00  0.00    -0.462 OA
BRANCH   7   8
ATOM      8  C   UNL A   1      32.548  23.980  22.907  1.00  0.00     0.324 C 
ATOM      9  O   UNL A   1      32.540  23.147  22.024  1.00  0.00    -0.250 OA
BRANCH   8  10
ATOM     10  C   UNL A   1      31.245  24.416  23.424  1.00  0.00     0.183 C 
BRANCH  10  11
ATOM     11  N   UNL A   1      30.934  23.903  24.899  1.00  0.00    -0.197 NA
ATOM     12  H   UNL A   1      29.947  23.645  24.926  1.00  0.00     0.142 HD
BRANCH  11  13
ATOM     13  S   UNL A   1      31.261  25.134  26.430  1.00  0.00     0.241 S 
ATOM     14  O   UNL A   1      31.726  24.226  27.406  1.00  0.00    -0.207 OA
ATOM     15  O   UNL A   1      29.891  25.641  26.625  1.00  0.00    -0.207 OA
BRANCH  13  16
ATOM     16  C   UNL A   1      32.788  26.898  26.030  1.00  0.00     0.085 A 
ATOM     17  C   UNL A   1      33.858  28.001  22.335  1.00  0.00     0.044 C 
ATOM     18  C   UNL A   1      33.818  28.218  23.843  1.00  0.00    -0.050 A 
ATOM     19  C   UNL A   1      33.307  29.300  24.418  1.00  0.00     0.004 A 
ATOM     20  C   UNL A   1      33.836  27.199  24.795  1.00  0.00     0.025 A 
ATOM     21  C   UNL A   1      32.783  29.135  25.765  1.00  0.00     0.005 A 
ATOM     22  C   UNL A   1      32.487  28.011  26.569  1.00  0.00    -0.031 A 
ATOM     23  C   UNL A   1      31.451  27.802  27.513  1.00  0.00     0.046 C 
ENDBRANCH  13  16
ENDBRANCH  11  13
ENDBRANCH  10  11
BRANCH  10  24
ATOM     24  C   UNL A   1      31.173  26.074  23.233  1.00  0.00     0.065 C 
BRANCH  24  25
ATOM     25  C   UNL A   1      29.864  26.958  23.396  1.00  0.00    -0.037 C 
ATOM     26  C   UNL A   1      29.620  28.221  22.981  1.00  0.00     0.001 A 
ATOM     27  C   UNL A   1      28.546  26.366  23.872  1.00  0.00     0.174 C 
ATOM     28  C   UNL A   1      30.365  29.271  22.335  1.00  0.00     0.010 A 
ATOM     29  C   UNL A   1      28.140  28.360  23.090  1.00  0.00     0.065 A 
ATOM     30  N   UNL A   1      27.493  27.404  23.679  1.00  0.00    -0.280 NA
ATOM     31  C   UNL A   1      29.718  30.301  21.751  1.00  0.00     0.001 A 
ATOM     32  C   UNL A   1      27.500  29.534  22.430  1.00  0.00     0.028 A 
ATOM     33  C   UNL A   1      28.270  30.401  21.753  1.00  0.00     0.002 A 
ENDBRANCH  24  25
ENDBRANCH  10  24
ENDBRANCH   8  10
ENDBRANCH   7   8
ENDBRANCH   6   7
ENDBRANCH   5   6
ENDBRANCH   4   5
ENDBRANCH   3   4
ENDBRANCH   2   3
ENDBRANCH   1   2
BRANCH   1  34
ATOM     34  C   UNL A   1      40.933  23.170  27.747  1.00  0.00     0.188 C 
BRANCH  34  35
ATOM     35  C   UNL A   1      41.487  21.749  27.631  1.00  0.00     0.188 C 
BRANCH  35  36
ATOM     36  O   UNL A   1      42.825  21.758  27.143  1.00  0.00    -0.376 OA
BRANCH  36  37
ATOM     37  C   UNL A   1      43.037  21.017  25.957  1.00  0.00     0.202 C 
BRANCH  37  38
ATOM     38  C   UNL A   1      44.074  21.704  25.070  1.00  0.00     0.261 C 
BRANCH  38  39
ATOM     39  O   UNL A   1      43.845  23.062  24.605  1.00  0.00    -0.460 OA
BRANCH  39  40
ATOM     40  C   UNL A   1      44.829  23.991  24.672  1.00  0.00     0.338 C 
ATOM     41  O   UNL A   1      46.004  23.754  24.446  1.00  0.00    -0.246 OA
BRANCH  40  42
ATOM     42  C   UNL A   1      44.280  25.321  25.051  1.00  0.00     0.060 A 
ATOM     43  C   UNL A   1      45.175  26.334  25.212  1.00  0.00     0.016 A 
ATOM     44  C   UNL A   1      42.975  25.495  25.552  1.00  0.00     0.016 A 
ATOM     45  C   UNL A   1      44.840  27.285  26.177  1.00  0.00     0.010 A 
ATOM     46  C   UNL A   1      42.676  26.446  26.579  1.00  0.00     0.010 A 
ATOM     47  C   UNL A   1      43.655  27.324  27.045  1.00  0.00    -0.014 A 
BRANCH  47  48
ATOM     48  C   UNL A   1      43.433  28.771  27.772  1.00  0.00     0.031 A 
ATOM     49  C   UNL A   1      43.517  27.709  29.430  1.00  0.00     0.074 A 
ATOM     50  C   UNL A   1      43.517  30.466  27.628  1.00  0.00     0.049 A 
ATOM     51  N   UNL A   1      42.770  27.721  30.538  1.00  0.00    -0.248 NA
ATOM     52  C   UNL A   1      44.649  26.718  29.704  1.00  0.00     0.031 C 
ATOM     53  C   UNL A   1      44.045  31.593  26.711  1.00  0.00     0.029 A 
ATOM     54  N   UNL A   1      43.310  31.708  28.780  1.00  0.00    -0.354 N 
ATOM     55  C   UNL A   1      43.384  27.025  31.577  1.00  0.00     0.074 A 
ATOM     56  C   UNL A   1      44.380  26.230  30.918  1.00  0.00     0.031 C 
ATOM     57  C   UNL A   1      44.447  32.804  27.371  1.00  0.00     0.029 A 
ATOM     58  C   UNL A   1      44.167  32.942  28.882  1.00  0.00     0.049 A 
ATOM     59  H   UNL A   1      42.575  31.609  29.428  1.00  0.00     0.167 HD
ATOM     60  C   UNL A   1      43.215  27.255  32.926  1.00  0.00     0.037 A 
ATOM     61  C   UNL A   1      44.666  33.787  30.125  1.00  0.00     0.037 A 
ATOM     62  C   UNL A   1      42.177  28.209  33.300  1.00  0.00     0.049 A 
ATOM     63  C   UNL A   1      44.084  33.716  31.873  1.00  0.00     0.074 A 
ATOM     64  C   UNL A   1      40.806  28.157  33.261  1.00  0.00     0.029 A 
ATOM     65  N   UNL A   1      42.496  29.464  33.849  1.00  0.00    -0.354 N 
ATOM     66  N   UNL A   1      42.835  33.776  32.355  1.00  0.00    -0.248 NA
ATOM     67  C   UNL A   1      44.929  32.995  32.915  1.00  0.00     0.031 C 
ATOM     68  C   UNL A   1      40.348  29.483  33.515  1.00  0.00     0.029 A 
ATOM     69  C   UNL A   1      41.436  30.373  33.696  1.00  0.00     0.049 A 
ATOM     70  H   UNL A   1      43.353  29.678  34.284  1.00  0.00     0.167 HD
ATOM     71  C   UNL A   1      42.662  32.718  33.352  1.00  0.00     0.074 A 
ATOM     72  C   UNL A   1      44.036  32.405  33.743  1.00  0.00     0.031 C 
ATOM     73  C   UNL A   1      41.513  31.906  33.441  1.00  0.00     0.037 A 
BRANCH  60  74
ATOM     74  C   UNL A   1      44.129  26.721  34.030  1.00  0.00     0.058 A 
ATOM     75  C   UNL A   1      45.370  27.350  34.303  1.00  0.00     0.135 A 
ATOM     76  C   UNL A   1      43.951  25.465  34.640  1.00  0.00     0.135 A 
ATOM     77  F   UNL A   1      45.631  28.586  33.847  1.00  0.00    -0.206 F 
ATOM     78  C   UNL A   1      46.406  26.704  34.989  1.00  0.00     0.059 A 
ATOM     79  C   UNL A   1      44.942  24.836  35.386  1.00  0.00     0.059 A 
ATOM     80  F   UNL A   1      42.850  24.729  34.450  1.00  0.00    -0.206 F 
ATOM     81  C   UNL A   1      46.192  25.423  35.486  1.00  0.00     0.060 A 
BRANCH  81  82
ATOM     82  S   UNL A   1      47.576  24.453  36.115  1.00  0.00     0.124 S 
ATOM     83  O   UNL A   1      48.497  25.502  36.537  1.00  0.00    -0.237 OA
ATOM     84  O   UNL A   1      46.956  23.677  37.182  1.00  0.00    -0.237 OA
ATOM     85  O   UNL A   1      48.002  23.679  34.950  1.00  0.00    -0.744 OA
ENDBRANCH  81  82
ENDBRANCH  60  74
BRANCH  61  86
ATOM     86  C   UNL A   1      46.262  34.420  30.316  1.00  0.00     0.058 A 
ATOM     87  C   UNL A   1      47.474  33.786  29.978  1.00  0.00     0.135 A 
ATOM     88  C   UNL A   1      46.560  35.824  30.505  1.00  0.00     0.135 A 
ATOM     89  F   UNL A   1      47.461  32.603  29.345  1.00  0.00    -0.206 F 
ATOM     90  C   UNL A   1      48.770  34.411  30.169  1.00  0.00     0.059 A 
ATOM     91  C   UNL A   1      47.741  36.400  30.917  1.00  0.00     0.059 A 
ATOM     92  F   UNL A   1      45.864  36.820  29.928  1.00  0.00    -0.206 F 
ATOM     93  C   UNL A   1      48.878  35.685  30.741  1.00  0.00     0.060 A 
BRANCH  93  94
ATOM     94  S   UNL A   1      50.388  36.553  31.204  1.00  0.00     0.124 S 
ATOM     95  O   UNL A   1      49.959  37.944  31.259  1.00  0.00    -0.237 OA
ATOM     96  O   UNL A   1      50.732  35.934  32.480  1.00  0.00    -0.237 OA
ATOM     97  O   UNL A   1      51.282  36.223  30.093  1.00  0.00    -0.744 OA
ENDBRANCH  93  94
ENDBRANCH  61  86
BRANCH  73  98
ATOM     98  C   UNL A   1      40.204  32.482  32.865  1.00  0.00     0.058 A 
ATOM     99  C   UNL A   1      39.792  32.291  31.534  1.00  0.00     0.135 A 
ATOM    100  C   UNL A   1      39.221  33.036  33.724  1.00  0.00     0.135 A 
ATOM    101  F   UNL A   1      40.547  31.669  30.621  1.00  0.00    -0.206 F 
ATOM    102  C   UNL A   1      38.516  32.608  31.087  1.00  0.00     0.059 A 
ATOM    103  C   UNL A   1      37.900  33.270  33.315  1.00  0.00     0.059 A 
ATOM    104  F   UNL A   1      39.500  33.267  35.020  1.00  0.00    -0.206 F 
ATOM    105  C   UNL A   1      37.558  33.045  31.988  1.00  0.00     0.060 A 
BRANCH 105 106
ATOM    106  S   UNL A   1      35.888  33.309  31.369  1.00  0.00     0.124 S 
ATOM    107  O   UNL A   1      35.206  32.083  31.779  1.00  0.00    -0.237 OA
ATOM    108  O   UNL A   1      35.485  34.511  32.092  1.00  0.00    -0.237 OA
ATOM    109  O   UNL A   1      36.077  33.463  29.931  1.00  0.00    -0.744 OA
ENDBRANCH 105 106
ENDBRANCH  73  98
ENDBRANCH  47  48
ENDBRANCH  40  42
ENDBRANCH  39  40
ENDBRANCH  38  39
ENDBRANCH  37  38
ENDBRANCH  36  37
ENDBRANCH  35  36
ENDBRANCH  34  35
ENDBRANCH   1  34
TORSDOF 28
ENDMDL
MODEL 2
REMARK VINA RESULT:      -9.4      2.173      4.006
REMARK SMILES Cc1ccc(C)c(S(=O)(=O)N[C@@H](CC2=c3ccccc3=NC2)C(=O)OCCOCCOCCOCCOC(=O)c2ccc(-c3c4nc(c(-c5c(F)cc(S(=O)(=O)[O-])cc5F)c5ccc([nH]5)c(-c5c(F)cc(S(=O)(=O)[O-])cc5F)c5nc(c(-c6c(F)cc(S(=O)(=O)[O-])cc6F)c6ccc3[nH]6)C=C5)C=C4)cc2)c1
REMARK SMILES IDX 31 1 30 2 29 3 28 4 27 5 26 6 25 7 23 8 24 9 12 10 11 11
REMARK SMILES IDX 8 13 9 14 10 15 7 16 1 17 2 18 3 19 106 20 4 21 5 22 6 23
REMARK SMILES IDX 13 24 14 25 15 26 22 27 16 28 20 29 21 30 17 31 19 32 18 33
REMARK SMILES IDX 32 34 33 35 34 36 35 37 36 38 37 39 38 40 39 41 40 42 41 43
REMARK SMILES IDX 105 44 42 45 104 46 43 47 44 48 45 49 98 50 46 51 103 52
REMARK SMILES IDX 97 53 99 54 47 55 102 56 96 57 95 58 48 60 82 61 61 62 81 63
REMARK SMILES IDX 62 64 65 65 80 66 100 67 63 68 64 69 79 71 101 72 66 73
REMARK SMILES IDX 49 74 50 75 59 76 51 77 52 78 58 79 60 80 53 81 54 82 55 83
REMARK SMILES IDX 56 84 57 85 83 86 84 87 93 88 85 89 86 90 92 91 94 92 87 93
REMARK SMILES IDX 88 94 89 95 90 96 91 97 67 98 68 99 77 100 69 101 70 102
REMARK SMILES IDX 76 103 78 104 71 105 72 106 73 107 74 108 75 109
REMARK H PARENT 11 12 99 59 65 70
REMARK Flexibility Score: inf
ROOT
ATOM      1  O   UNL A   1      39.999  25.945  29.111  1.00  0.00    -0.377 OA
ENDROOT
BRANCH   1   2
ATOM      2  C   UNL A   1      39.671  27.307  29.262  1.00  0.00     0.188 C 
BRANCH   2   3
ATOM      3  C   UNL A   1      38.967  27.917  28.067  1.00  0.00     0.188 C 
BRANCH   3   4
ATOM      4  O   UNL A   1      38.304  29.165  28.011  1.00  0.00    -0.376 OA
BRANCH   4   5
ATOM      5  C   UNL A   1      36.928  29.246  28.366  1.00  0.00     0.202 C 
BRANCH   5   6
ATOM      6  C   UNL A   1      35.923  29.792  27.305  1.00  0.00     0.261 C 
BRANCH   6   7
ATOM      7  O   UNL A   1      34.957  28.873  26.720  1.00  0.00    -0.462 OA
BRANCH   7   8
ATOM      8  C   UNL A   1      33.684  29.192  26.966  1.00  0.00     0.324 C 
ATOM      9  O   UNL A   1      33.355  30.247  27.468  1.00  0.00    -0.250 OA
BRANCH   8  10
ATOM     10  C   UNL A   1      32.613  28.239  26.653  1.00  0.00     0.183 C 
BRANCH  10  11
ATOM     11  N   UNL A   1      31.464  28.843  25.729  1.00  0.00    -0.197 NA
ATOM     12  H   UNL A   1      30.598  28.364  25.975  1.00  0.00     0.142 HD
BRANCH  11  13
ATOM     13  S   UNL A   1      31.663  28.717  23.751  1.00  0.00     0.241 S 
ATOM     14  O   UNL A   1      32.999  29.146  23.592  1.00  0.00    -0.207 OA
ATOM     15  O   UNL A   1      30.626  29.681  23.345  1.00  0.00    -0.207 OA
BRANCH  13  16
ATOM     16  C   UNL A   1      31.276  26.581  22.807  1.00  0.00     0.085 A 
ATOM     17  C   UNL A   1      34.080  23.727  22.756  1.00  0.00     0.044 C 
ATOM     18  C   UNL A   1      32.645  24.205  22.563  1.00  0.00    -0.050 A 
ATOM     19  C   UNL A   1      31.605  23.688  23.206  1.00  0.00     0.004 A 
ATOM     20  C   UNL A   1      32.282  25.475  22.117  1.00  0.00     0.025 A 
ATOM     21  C   UNL A   1      30.465  24.568  23.410  1.00  0.00     0.005 A 
ATOM     22  C   UNL A   1      30.263  25.960  23.264  1.00  0.00    -0.031 A 
ATOM     23  C   UNL A   1      29.472  26.859  24.020  1.00  0.00     0.046 C 
ENDBRANCH  13  16
ENDBRANCH  11  13
ENDBRANCH  10  11
BRANCH  10  24
ATOM     24  C   UNL A   1      33.342  26.863  26.049  1.00  0.00     0.065 C 
BRANCH  24  25
ATOM     25  C   UNL A   1      32.824  25.378  26.274  1.00  0.00    -0.037 C 
ATOM     26  C   UNL A   1      33.515  24.217  26.283  1.00  0.00     0.001 A 
ATOM     27  C   UNL A   1      31.417  25.083  26.771  1.00  0.00     0.174 C 
ATOM     28  C   UNL A   1      34.878  23.809  26.050  1.00  0.00     0.010 A 
ATOM     29  C   UNL A   1      32.574  23.239  26.898  1.00  0.00     0.065 A 
ATOM     30  N   UNL A   1      31.353  23.628  27.093  1.00  0.00    -0.280 NA
ATOM     31  C   UNL A   1      35.307  22.604  26.478  1.00  0.00     0.001 A 
ATOM     32  C   UNL A   1      33.122  21.922  27.332  1.00  0.00     0.028 A 
ATOM     33  C   UNL A   1      34.432  21.678  27.174  1.00  0.00     0.002 A 
ENDBRANCH  24  25
ENDBRANCH  10  24
ENDBRANCH   8  10
ENDBRANCH   7   8
ENDBRANCH   6   7
ENDBRANCH   5   6
ENDBRANCH   4   5
ENDBRANCH   3   4
ENDBRANCH   2   3
ENDBRANCH   1   2
BRANCH   1  34
ATOM     34  C   UNL A   1      39.900  25.486  27.776  1.00  0.00     0.188 C 
BRANCH  34  35
ATOM     35  C   UNL A   1      40.224  23.997  27.647  1.00  0.00     0.188 C 
BRANCH  35  36
ATOM     36  O   UNL A   1      40.906  23.724  26.427  1.00  0.00    -0.376 OA
BRANCH  36  37
ATOM     37  C   UNL A   1      41.286  22.375  26.239  1.00  0.00     0.202 C 
BRANCH  37  38
ATOM     38  C   UNL A   1      42.804  22.253  26.126  1.00  0.00     0.261 C 
BRANCH  38  39
ATOM     39  O   UNL A   1      43.584  23.366  25.609  1.00  0.00    -0.460 OA
BRANCH  39  40
ATOM     40  C   UNL A   1      44.798  23.661  26.134  1.00  0.00     0.338 C 
ATOM     41  O   UNL A   1      45.806  23.004  25.929  1.00  0.00    -0.246 OA
BRANCH  40  42
ATOM     42  C   UNL A   1      44.729  24.885  26.978  1.00  0.00     0.060 A 
ATOM     43  C   UNL A   1      43.490  25.304  27.355  1.00  0.00     0.016 A 
ATOM     44  C   UNL A   1      45.809  25.778  27.119  1.00  0.00     0.016 A 
ATOM     45  C   UNL A   1      43.337  26.685  27.490  1.00  0.00     0.010 A 
ATOM     46  C   UNL A   1      45.618  27.194  27.204  1.00  0.00     0.010 A 
ATOM     47  C   UNL A   1      44.335  27.739  27.265  1.00  0.00    -0.014 A 
BRANCH  47  48
ATOM     48  C   UNL A   1      43.895  29.188  27.878  1.00  0.00     0.031 A 
ATOM     49  C   UNL A   1      43.751  28.186  29.570  1.00  0.00     0.074 A 
ATOM     50  C   UNL A   1      43.894  30.879  27.680  1.00  0.00     0.049 A 
ATOM     51  N   UNL A   1      42.819  28.179  30.527  1.00  0.00    -0.248 NA
ATOM     52  C   UNL A   1      44.877  27.286  30.080  1.00  0.00     0.031 C 
ATOM     53  C   UNL A   1      44.503  32.012  26.822  1.00  0.00     0.029 A 
ATOM     54  N   UNL A   1      43.406  32.138  28.724  1.00  0.00    -0.354 N 
ATOM     55  C   UNL A   1      43.282  27.560  31.687  1.00  0.00     0.074 A 
ATOM     56  C   UNL A   1      44.429  26.818  31.247  1.00  0.00     0.031 C 
ATOM     57  C   UNL A   1      44.703  33.268  27.490  1.00  0.00     0.029 A 
ATOM     58  C   UNL A   1      44.150  33.432  28.921  1.00  0.00     0.049 A 
ATOM     59  H   UNL A   1      42.576  32.008  29.236  1.00  0.00     0.167 HD
ATOM     60  C   UNL A   1      42.862  27.819  32.974  1.00  0.00     0.037 A 
ATOM     61  C   UNL A   1      44.365  34.348  30.195  1.00  0.00     0.037 A 
ATOM     62  C   UNL A   1      41.714  28.708  33.120  1.00  0.00     0.049 A 
ATOM     63  C   UNL A   1      43.486  34.290  31.816  1.00  0.00     0.074 A 
ATOM     64  C   UNL A   1      40.378  28.558  32.843  1.00  0.00     0.029 A 
ATOM     65  N   UNL A   1      41.850  29.999  33.662  1.00  0.00    -0.354 N 
ATOM     66  N   UNL A   1      42.170  34.276  32.068  1.00  0.00    -0.248 NA
ATOM     67  C   UNL A   1      44.178  33.663  33.019  1.00  0.00     0.031 C 
ATOM     68  C   UNL A   1      39.798  29.855  32.956  1.00  0.00     0.029 A 
ATOM     69  C   UNL A   1      40.777  30.825  33.287  1.00  0.00     0.049 A 
ATOM     70  H   UNL A   1      42.600  30.286  34.231  1.00  0.00     0.167 HD
ATOM     71  C   UNL A   1      41.891  33.239  33.063  1.00  0.00     0.074 A 
ATOM     72  C   UNL A   1      43.191  33.037  33.702  1.00  0.00     0.031 C 
ATOM     73  C   UNL A   1      40.799  32.352  32.983  1.00  0.00     0.037 A 
BRANCH  60  74
ATOM     74  C   UNL A   1      43.597  27.385  34.244  1.00  0.00     0.058 A 
ATOM     75  C   UNL A   1      42.951  26.568  35.205  1.00  0.00     0.135 A 
ATOM     76  C   UNL A   1      44.807  27.964  34.672  1.00  0.00     0.135 A 
ATOM     77  F   UNL A   1      41.831  25.894  34.895  1.00  0.00    -0.206 F 
ATOM     78  C   UNL A   1      43.392  26.472  36.531  1.00  0.00     0.059 A 
ATOM     79  C   UNL A   1      45.301  27.823  35.964  1.00  0.00     0.059 A 
ATOM     80  F   UNL A   1      45.516  28.790  33.894  1.00  0.00    -0.206 F 
ATOM     81  C   UNL A   1      44.548  27.147  36.908  1.00  0.00     0.060 A 
BRANCH  81  82
ATOM     82  S   UNL A   1      44.987  27.284  38.652  1.00  0.00     0.124 S 
ATOM     83  O   UNL A   1      43.895  26.553  39.284  1.00  0.00    -0.237 OA
ATOM     84  O   UNL A   1      46.297  26.645  38.696  1.00  0.00    -0.237 OA
ATOM     85  O   UNL A   1      44.992  28.727  38.885  1.00  0.00    -0.744 OA
ENDBRANCH  81  82
ENDBRANCH  60  74
BRANCH  61  86
ATOM     86  C   UNL A   1      45.857  35.098  30.636  1.00  0.00     0.058 A 
ATOM     87  C   UNL A   1      46.039  36.408  31.123  1.00  0.00     0.135 A 
ATOM     88  C   UNL A   1      47.078  34.372  30.918  1.00  0.00     0.135 A 
ATOM     89  F   UNL A   1      44.974  37.180  31.391  1.00  0.00    -0.206 F 
ATOM     90  C   UNL A   1      47.340  36.943  31.478  1.00  0.00     0.059 A 
ATOM     91  C   UNL A   1      48.360  34.862  31.022  1.00  0.00     0.059 A 
ATOM     92  F   UNL A   1      47.111  33.168  31.516  1.00  0.00    -0.206 F 
ATOM     93  C   UNL A   1      48.502  36.178  31.317  1.00  0.00     0.060 A 
BRANCH  93  94
ATOM     94  S   UNL A   1      50.208  36.713  31.545  1.00  0.00     0.124 S 
ATOM     95  O   UNL A   1      50.406  36.566  32.980  1.00  0.00    -0.237 OA
ATOM     96  O   UNL A   1      50.948  35.788  30.694  1.00  0.00    -0.237 OA
ATOM     97  O   UNL A   1      50.159  38.095  31.064  1.00  0.00    -0.744 OA
ENDBRANCH  93  94
ENDBRANCH  61  86
BRANCH  73  98
ATOM     98  C   UNL A   1      39.580  32.815  32.163  1.00  0.00     0.058 A 
ATOM     99  C   UNL A   1      39.411  32.531  30.796  1.00  0.00     0.135 A 
ATOM    100  C   UNL A   1      38.437  33.350  32.810  1.00  0.00     0.135 A 
ATOM    101  F   UNL A   1      40.343  31.912  30.062  1.00  0.00    -0.206 F 
ATOM    102  C   UNL A   1      38.215  32.746  30.123  1.00  0.00     0.059 A 
ATOM    103  C   UNL A   1      37.195  33.481  32.172  1.00  0.00     0.059 A 
ATOM    104  F   UNL A   1      38.478  33.664  34.118  1.00  0.00    -0.206 F 
ATOM    105  C   UNL A   1      37.096  33.168  30.823  1.00  0.00     0.060 A 
BRANCH 105 106
ATOM    106  S   UNL A   1      35.545  33.296  29.919  1.00  0.00     0.124 S 
ATOM    107  O   UNL A   1      35.996  33.622  28.568  1.00  0.00    -0.237 OA
ATOM    108  O   UNL A   1      34.991  31.955  30.079  1.00  0.00    -0.237 OA
ATOM    109  O   UNL A   1      34.834  34.367  30.610  1.00  0.00    -0.744 OA
ENDBRANCH 105 106
ENDBRANCH  73  98
ENDBRANCH  47  48
ENDBRANCH  40  42
ENDBRANCH  39  40
ENDBRANCH  38  39
ENDBRANCH  37  38
ENDBRANCH  36  37
ENDBRANCH  35  36
ENDBRANCH  34  35
ENDBRANCH   1  34
TORSDOF 28
ENDMDL
MODEL 3
REMARK VINA RESULT:      -9.1      3.264      8.744
REMARK SMILES Cc1ccc(C)c(S(=O)(=O)N[C@@H](CC2=c3ccccc3=NC2)C(=O)OCCOCCOCCOCCOC(=O)c2ccc(-c3c4nc(c(-c5c(F)cc(S(=O)(=O)[O-])cc5F)c5ccc([nH]5)c(-c5c(F)cc(S(=O)(=O)[O-])cc5F)c5nc(c(-c6c(F)cc(S(=O)(=O)[O-])cc6F)c6ccc3[nH]6)C=C5)C=C4)cc2)c1
REMARK SMILES IDX 31 1 30 2 29 3 28 4 27 5 26 6 25 7 23 8 24 9 12 10 11 11
REMARK SMILES IDX 8 13 9 14 10 15 7 16 1 17 2 18 3 19 106 20 4 21 5 22 6 23
REMARK SMILES IDX 13 24 14 25 15 26 22 27 16 28 20 29 21 30 17 31 19 32 18 33
REMARK SMILES IDX 32 34 33 35 34 36 35 37 36 38 37 39 38 40 39 41 40 42 41 43
REMARK SMILES IDX 105 44 42 45 104 46 43 47 44 48 45 49 98 50 46 51 103 52
REMARK SMILES IDX 97 53 99 54 47 55 102 56 96 57 95 58 48 60 82 61 61 62 81 63
REMARK SMILES IDX 62 64 65 65 80 66 100 67 63 68 64 69 79 71 101 72 66 73
REMARK SMILES IDX 49 74 50 75 59 76 51 77 52 78 58 79 60 80 53 81 54 82 55 83
REMARK SMILES IDX 56 84 57 85 83 86 84 87 93 88 85 89 86 90 92 91 94 92 87 93
REMARK SMILES IDX 88 94 89 95 90 96 91 97 67 98 68 99 77 100 69 101 70 102
REMARK SMILES IDX 76 103 78 104 71 105 72 106 73 107 74 108 75 109
REMARK H PARENT 11 12 99 59 65 70
REMARK Flexibility Score: inf
ROOT
ATOM      1  O   UNL A   1      40.234  26.038  28.935  1.00  0.00    -0.377 OA
ENDROOT
BRANCH   1   2
ATOM      2  C   UNL A   1      39.638  27.251  29.333  1.00  0.00     0.188 C 
BRANCH   2   3
ATOM      3  C   UNL A   1      39.132  28.104  28.189  1.00  0.00     0.188 C 
BRANCH   3   4
ATOM      4  O   UNL A   1      38.365  29.290  28.280  1.00  0.00    -0.376 OA
BRANCH   4   5
ATOM      5  C   UNL A   1      36.948  29.203  28.383  1.00  0.00     0.202 C 
BRANCH   5   6
ATOM      6  C   UNL A   1      36.085  29.853  27.258  1.00  0.00     0.261 C 
BRANCH   6   7
ATOM      7  O   UNL A   1      35.101  29.030  26.570  1.00  0.00    -0.462 OA
BRANCH   7   8
ATOM      8  C   UNL A   1      33.846  29.221  26.984  1.00  0.00     0.324 C 
ATOM      9  O   UNL A   1      33.505  30.197  27.621  1.00  0.00    -0.250 OA
BRANCH   8  10
ATOM     10  C   UNL A   1      32.815  28.217  26.699  1.00  0.00     0.183 C 
BRANCH  10  11
ATOM     11  N   UNL A   1      31.586  28.778  25.855  1.00  0.00    -0.197 NA
ATOM     12  H   UNL A   1      30.762  28.242  26.130  1.00  0.00     0.142 HD
BRANCH  11  13
ATOM     13  S   UNL A   1      31.685  28.721  23.867  1.00  0.00     0.241 S 
ATOM     14  O   UNL A   1      32.995  29.203  23.654  1.00  0.00    -0.207 OA
ATOM     15  O   UNL A   1      30.595  29.660  23.547  1.00  0.00    -0.207 OA
BRANCH  13  16
ATOM     16  C   UNL A   1      31.322  26.603  22.874  1.00  0.00     0.085 A 
ATOM     17  C   UNL A   1      34.234  23.882  22.523  1.00  0.00     0.044 C 
ATOM     18  C   UNL A   1      32.771  24.300  22.447  1.00  0.00    -0.050 A 
ATOM     19  C   UNL A   1      31.802  23.716  23.142  1.00  0.00     0.004 A 
ATOM     20  C   UNL A   1      32.323  25.567  22.075  1.00  0.00     0.025 A 
ATOM     21  C   UNL A   1      30.643  24.536  23.457  1.00  0.00     0.005 A 
ATOM     22  C   UNL A   1      30.372  25.922  23.378  1.00  0.00    -0.031 A 
ATOM     23  C   UNL A   1      29.599  26.759  24.220  1.00  0.00     0.046 C 
ENDBRANCH  13  16
ENDBRANCH  11  13
ENDBRANCH  10  11
BRANCH  10  24
ATOM     24  C   UNL A   1      33.588  26.903  26.016  1.00  0.00     0.065 C 
BRANCH  24  25
ATOM     25  C   UNL A   1      33.124  25.391  26.161  1.00  0.00    -0.037 C 
ATOM     26  C   UNL A   1      33.853  24.255  26.085  1.00  0.00     0.001 A 
ATOM     27  C   UNL A   1      31.740  25.018  26.671  1.00  0.00     0.174 C 
ATOM     28  C   UNL A   1      35.221  23.909  25.798  1.00  0.00     0.010 A 
ATOM     29  C   UNL A   1      32.959  23.211  26.660  1.00  0.00     0.065 A 
ATOM     30  N   UNL A   1      31.731  23.545  26.906  1.00  0.00    -0.280 NA
ATOM     31  C   UNL A   1      35.701  22.695  26.142  1.00  0.00     0.001 A 
ATOM     32  C   UNL A   1      33.560  21.890  27.001  1.00  0.00     0.028 A 
ATOM     33  C   UNL A   1      34.873  21.700  26.800  1.00  0.00     0.002 A 
ENDBRANCH  24  25
ENDBRANCH  10  24
ENDBRANCH   8  10
ENDBRANCH   7   8
ENDBRANCH   6   7
ENDBRANCH   5   6
ENDBRANCH   4   5
ENDBRANCH   3   4
ENDBRANCH   2   3
ENDBRANCH   1   2
BRANCH   1  34
ATOM     34  C   UNL A   1      40.385  25.918  27.532  1.00  0.00     0.188 C 
BRANCH  34  35
ATOM     35  C   UNL A   1      41.279  24.740  27.141  1.00  0.00     0.188 C 
BRANCH  35  36
ATOM     36  O   UNL A   1      41.853  24.937  25.853  1.00  0.00    -0.376 OA
BRANCH  36  37
ATOM     37  C   UNL A   1      42.619  23.853  25.365  1.00  0.00     0.202 C 
BRANCH  37  38
ATOM     38  C   UNL A   1      44.077  24.267  25.174  1.00  0.00     0.261 C 
BRANCH  38  39
ATOM     39  O   UNL A   1      44.398  25.629  24.780  1.00  0.00    -0.460 OA
BRANCH  39  40
ATOM     40  C   UNL A   1      45.449  26.279  25.336  1.00  0.00     0.338 C 
ATOM     41  O   UNL A   1      46.616  26.039  25.070  1.00  0.00    -0.246 OA
BRANCH  40  42
ATOM     42  C   UNL A   1      44.985  27.314  26.299  1.00  0.00     0.060 A 
ATOM     43  C   UNL A   1      45.730  27.487  27.425  1.00  0.00     0.016 A 
ATOM     44  C   UNL A   1      43.689  27.865  26.263  1.00  0.00     0.016 A 
ATOM     45  C   UNL A   1      45.018  27.860  28.566  1.00  0.00     0.010 A 
ATOM     46  C   UNL A   1      42.967  28.188  27.456  1.00  0.00     0.010 A 
ATOM     47  C   UNL A   1      43.572  28.074  28.709  1.00  0.00    -0.014 A 
BRANCH  47  48
ATOM     48  C   UNL A   1      43.166  28.854  30.087  1.00  0.00     0.031 A 
ATOM     49  C   UNL A   1      44.003  30.403  29.201  1.00  0.00     0.074 A 
ATOM     50  C   UNL A   1      42.191  28.868  31.482  1.00  0.00     0.049 A 
ATOM     51  N   UNL A   1      44.856  31.332  29.643  1.00  0.00    -0.248 NA
ATOM     52  C   UNL A   1      43.636  30.822  27.777  1.00  0.00     0.031 C 
ATOM     53  C   UNL A   1      40.974  28.172  32.133  1.00  0.00     0.029 A 
ATOM     54  N   UNL A   1      41.972  30.049  32.694  1.00  0.00    -0.354 N 
ATOM     55  C   UNL A   1      44.931  32.415  28.770  1.00  0.00     0.074 A 
ATOM     56  C   UNL A   1      44.373  31.912  27.547  1.00  0.00     0.031 C 
ATOM     57  C   UNL A   1      40.159  28.995  32.982  1.00  0.00     0.029 A 
ATOM     58  C   UNL A   1      40.647  30.423  33.304  1.00  0.00     0.049 A 
ATOM     59  H   UNL A   1      42.772  30.523  33.018  1.00  0.00     0.167 HD
ATOM     60  C   UNL A   1      45.245  33.715  29.106  1.00  0.00     0.037 A 
ATOM     61  C   UNL A   1      40.066  31.806  33.813  1.00  0.00     0.037 A 
ATOM     62  C   UNL A   1      45.694  33.945  30.475  1.00  0.00     0.049 A 
ATOM     63  C   UNL A   1      40.964  33.387  34.123  1.00  0.00     0.074 A 
ATOM     64  C   UNL A   1      46.849  33.621  31.143  1.00  0.00     0.029 A 
ATOM     65  N   UNL A   1      44.901  34.647  31.400  1.00  0.00    -0.354 N 
ATOM     66  N   UNL A   1      42.072  33.606  34.844  1.00  0.00    -0.248 NA
ATOM     67  C   UNL A   1      40.860  34.518  33.109  1.00  0.00     0.031 C 
ATOM     68  C   UNL A   1      46.600  33.883  32.522  1.00  0.00     0.029 A 
ATOM     69  C   UNL A   1      45.278  34.354  32.721  1.00  0.00     0.049 A 
ATOM     70  H   UNL A   1      44.174  35.264  31.153  1.00  0.00     0.167 HD
ATOM     71  C   UNL A   1      42.977  34.458  34.070  1.00  0.00     0.074 A 
ATOM     72  C   UNL A   1      42.084  35.095  33.103  1.00  0.00     0.031 C 
ATOM     73  C   UNL A   1      44.368  34.244  33.980  1.00  0.00     0.037 A 
BRANCH  60  74
ATOM     74  C   UNL A   1      45.002  34.936  28.218  1.00  0.00     0.058 A 
ATOM     75  C   UNL A   1      46.090  35.722  27.761  1.00  0.00     0.135 A 
ATOM     76  C   UNL A   1      43.731  35.513  28.027  1.00  0.00     0.135 A 
ATOM     77  F   UNL A   1      47.347  35.251  27.812  1.00  0.00    -0.206 F 
ATOM     78  C   UNL A   1      45.931  37.037  27.307  1.00  0.00     0.059 A 
ATOM     79  C   UNL A   1      43.546  36.790  27.510  1.00  0.00     0.059 A 
ATOM     80  F   UNL A   1      42.608  34.913  28.438  1.00  0.00    -0.206 F 
ATOM     81  C   UNL A   1      44.651  37.575  27.231  1.00  0.00     0.060 A 
BRANCH  81  82
ATOM     82  S   UNL A   1      44.428  39.339  26.929  1.00  0.00     0.124 S 
ATOM     83  O   UNL A   1      45.434  39.586  25.901  1.00  0.00    -0.237 OA
ATOM     84  O   UNL A   1      43.038  39.409  26.495  1.00  0.00    -0.237 OA
ATOM     85  O   UNL A   1      44.704  39.941  28.232  1.00  0.00    -0.744 OA
ENDBRANCH  81  82
ENDBRANCH  60  74
BRANCH  61  86
ATOM     86  C   UNL A   1      38.458  32.370  33.529  1.00  0.00     0.058 A 
ATOM     87  C   UNL A   1      37.539  32.837  34.490  1.00  0.00     0.135 A 
ATOM     88  C   UNL A   1      37.962  32.789  32.235  1.00  0.00     0.135 A 
ATOM     89  F   UNL A   1      37.917  32.979  35.770  1.00  0.00    -0.206 F 
ATOM     90  C   UNL A   1      36.208  33.302  34.146  1.00  0.00     0.059 A 
ATOM     91  C   UNL A   1      36.658  33.005  31.847  1.00  0.00     0.059 A 
ATOM     92  F   UNL A   1      38.712  33.419  31.314  1.00  0.00    -0.206 F 
ATOM     93  C   UNL A   1      35.756  33.276  32.821  1.00  0.00     0.060 A 
BRANCH  93  94
ATOM     94  S   UNL A   1      34.099  33.655  32.221  1.00  0.00     0.124 S 
ATOM     95  O   UNL A   1      34.121  35.106  32.101  1.00  0.00    -0.237 OA
ATOM     96  O   UNL A   1      34.035  32.906  30.971  1.00  0.00    -0.237 OA
ATOM     97  O   UNL A   1      33.259  33.134  33.300  1.00  0.00    -0.744 OA
ENDBRANCH  93  94
ENDBRANCH  61  86
BRANCH  73  98
ATOM     98  C   UNL A   1      45.031  33.461  35.129  1.00  0.00     0.058 A 
ATOM     99  C   UNL A   1      45.373  32.100  35.045  1.00  0.00     0.135 A 
ATOM    100  C   UNL A   1      45.555  34.143  36.257  1.00  0.00     0.135 A 
ATOM    101  F   UNL A   1      45.068  31.338  33.988  1.00  0.00    -0.206 F 
ATOM    102  C   UNL A   1      46.173  31.464  35.985  1.00  0.00     0.059 A 
ATOM    103  C   UNL A   1      46.443  33.543  37.162  1.00  0.00     0.059 A 
ATOM    104  F   UNL A   1      45.293  35.448  36.447  1.00  0.00    -0.206 F 
ATOM    105  C   UNL A   1      46.750  32.197  37.010  1.00  0.00     0.060 A 
BRANCH 105 106
ATOM    106  S   UNL A   1      47.884  31.341  38.115  1.00  0.00     0.124 S 
ATOM    107  O   UNL A   1      47.279  30.014  38.217  1.00  0.00    -0.237 OA
ATOM    108  O   UNL A   1      49.134  31.393  37.363  1.00  0.00    -0.237 OA
ATOM    109  O   UNL A   1      47.840  32.139  39.335  1.00  0.00    -0.744 OA
ENDBRANCH 105 106
ENDBRANCH  73  98
ENDBRANCH  47  48
ENDBRANCH  40  42
ENDBRANCH  39  40
ENDBRANCH  38  39
ENDBRANCH  37  38
ENDBRANCH  36  37
ENDBRANCH  35  36
ENDBRANCH  34  35
ENDBRANCH   1  34
TORSDOF 28
ENDMDL
