MODEL 1
REMARK VINA RESULT:      -9.5      0.000      0.000
REMARK SMILES Cc1ccccc1NC(=O)CSc1nc(C(=O)OCCOCCOCCOCCOC(=O)c2ccc(-c3c4nc(c(-c5c(F)cc(S(=O)(=O)[O-])cc5F)c5ccc([nH]5)c(-c5c(F)cc(S(=O)(=O)[O-])cc5F)c5nc(c(-c6c(F)cc(S(=O)(=O)[O-])cc6F)c6ccc3[nH]6)C=C5)C=C4)cc2)c2ccccc2n1
REMARK SMILES IDX 23 1 22 2 21 3 20 4 19 5 18 6 16 7 17 8 15 9 13 10 14 11
REMARK SMILES IDX 105 12 104 13 99 14 103 15 100 16 102 17 101 18 12 19 11 20
REMARK SMILES IDX 9 21 8 22 10 24 7 25 1 26 2 27 3 28 4 29 6 30 5 31 24 32
REMARK SMILES IDX 25 33 26 34 27 35 28 36 29 37 30 38 31 39 32 40 33 41 34 42
REMARK SMILES IDX 98 43 35 44 97 45 36 46 37 47 38 48 91 49 39 50 96 51 90 52
REMARK SMILES IDX 92 53 40 54 95 55 89 56 88 57 41 59 75 60 54 61 74 62 55 63
REMARK SMILES IDX 58 64 73 65 93 66 56 67 57 68 72 70 94 71 59 72 42 73 43 74
REMARK SMILES IDX 52 75 44 76 45 77 51 78 53 79 46 80 47 81 48 82 49 83 50 84
REMARK SMILES IDX 76 85 77 86 86 87 78 88 79 89 85 90 87 91 80 92 81 93 82 94
REMARK SMILES IDX 83 95 84 96 60 97 61 98 70 99 62 100 63 101 69 102 71 103
REMARK SMILES IDX 64 104 65 105 66 106 67 107 68 108
REMARK H PARENT 8 23 92 58 58 69
REMARK Flexibility Score: inf
ROOT
ATOM      1  C   UNL A   1      33.924  33.462  28.132  1.00  0.00     0.188 C 
ENDROOT
BRANCH   1   2
ATOM      2  C   UNL A   1      33.817  31.936  28.260  1.00  0.00     0.188 C 
BRANCH   2   3
ATOM      3  O   UNL A   1      34.640  31.142  27.415  1.00  0.00    -0.376 OA
BRANCH   3   4
ATOM      4  C   UNL A   1      34.365  29.739  27.415  1.00  0.00     0.202 C 
BRANCH   4   5
ATOM      5  C   UNL A   1      33.684  29.219  26.155  1.00  0.00     0.261 C 
BRANCH   5   6
ATOM      6  O   UNL A   1      34.409  28.075  25.666  1.00  0.00    -0.458 OA
BRANCH   6   7
ATOM      7  C   UNL A   1      33.626  27.181  25.030  1.00  0.00     0.357 C 
ATOM      8  O   UNL A   1      33.351  27.179  23.842  1.00  0.00    -0.244 OA
BRANCH   7   9
ATOM      9  C   UNL A   1      33.561  25.923  25.802  1.00  0.00     0.160 A 
ATOM     10  C   UNL A   1      31.915  24.950  26.954  1.00  0.00     0.189 A 
ATOM     11  N   UNL A   1      32.565  26.048  26.684  1.00  0.00    -0.215 NA
ATOM     12  N   UNL A   1      32.491  23.746  26.938  1.00  0.00    -0.222 NA
ATOM     13  C   UNL A   1      33.688  23.663  26.335  1.00  0.00     0.076 A 
ATOM     14  C   UNL A   1      34.204  24.714  25.574  1.00  0.00     0.034 A 
ATOM     15  C   UNL A   1      34.403  22.472  26.383  1.00  0.00     0.029 A 
ATOM     16  C   UNL A   1      35.271  24.463  24.687  1.00  0.00     0.013 A 
ATOM     17  C   UNL A   1      35.544  22.266  25.600  1.00  0.00     0.002 A 
ATOM     18  C   UNL A   1      35.940  23.244  24.700  1.00  0.00     0.001 A 
BRANCH  10  19
ATOM     19  S   UNL A   1      30.185  25.097  26.581  1.00  0.00    -0.076 SA
BRANCH  19  20
ATOM     20  C   UNL A   1      30.240  26.339  25.190  1.00  0.00     0.178 C 
BRANCH  20  21
ATOM     21  C   UNL A   1      29.451  25.998  23.919  1.00  0.00     0.234 C 
ATOM     22  N   UNL A   1      29.786  24.986  23.064  1.00  0.00    -0.325 N 
ATOM     23  H   UNL A   1      29.082  24.739  22.421  1.00  0.00     0.169 HD
ATOM     24  O   UNL A   1      28.465  26.669  23.596  1.00  0.00    -0.274 OA
BRANCH  22  25
ATOM     25  C   UNL A   1      30.966  24.242  22.953  1.00  0.00     0.044 A 
ATOM     26  C   UNL A   1      31.997  25.969  21.354  1.00  0.00     0.046 C 
ATOM     27  C   UNL A   1      31.980  24.647  22.070  1.00  0.00    -0.027 A 
ATOM     28  C   UNL A   1      33.051  23.765  21.838  1.00  0.00     0.005 A 
ATOM     29  C   UNL A   1      33.123  22.527  22.478  1.00  0.00     0.000 A 
ATOM     30  C   UNL A   1      31.130  23.067  23.697  1.00  0.00     0.026 A 
ATOM     31  C   UNL A   1      32.174  22.188  23.429  1.00  0.00     0.002 A 
ENDBRANCH  22  25
ENDBRANCH  20  21
ENDBRANCH  19  20
ENDBRANCH  10  19
ENDBRANCH   7   9
ENDBRANCH   6   7
ENDBRANCH   5   6
ENDBRANCH   4   5
ENDBRANCH   3   4
ENDBRANCH   2   3
ENDBRANCH   1   2
BRANCH   1  32
ATOM     32  O   UNL A   1      32.891  34.223  28.733  1.00  0.00    -0.377 OA
BRANCH  32  33
ATOM     33  C   UNL A   1      33.134  35.592  29.089  1.00  0.00     0.188 C 
BRANCH  33  34
ATOM     34  C   UNL A   1      32.974  36.033  30.544  1.00  0.00     0.188 C 
BRANCH  34  35
ATOM     35  O   UNL A   1      33.349  34.944  31.392  1.00  0.00    -0.376 OA
BRANCH  35  36
ATOM     36  C   UNL A   1      34.728  34.861  31.730  1.00  0.00     0.202 C 
BRANCH  36  37
ATOM     37  C   UNL A   1      35.424  33.580  31.256  1.00  0.00     0.261 C 
BRANCH  37  38
ATOM     38  O   UNL A   1      36.855  33.752  31.161  1.00  0.00    -0.460 OA
BRANCH  38  39
ATOM     39  C   UNL A   1      37.396  33.500  29.936  1.00  0.00     0.338 C 
ATOM     40  O   UNL A   1      37.199  34.203  28.954  1.00  0.00    -0.246 OA
BRANCH  39  41
ATOM     41  C   UNL A   1      38.297  32.320  29.983  1.00  0.00     0.060 A 
ATOM     42  C   UNL A   1      37.800  31.016  30.124  1.00  0.00     0.016 A 
ATOM     43  C   UNL A   1      39.664  32.536  30.048  1.00  0.00     0.016 A 
ATOM     44  C   UNL A   1      38.659  29.958  30.486  1.00  0.00     0.010 A 
ATOM     45  C   UNL A   1      40.481  31.517  30.489  1.00  0.00     0.010 A 
ATOM     46  C   UNL A   1      40.006  30.217  30.736  1.00  0.00    -0.014 A 
BRANCH  46  47
ATOM     47  C   UNL A   1      40.991  29.328  31.397  1.00  0.00     0.031 A 
ATOM     48  C   UNL A   1      41.400  28.042  30.705  1.00  0.00     0.074 A 
ATOM     49  C   UNL A   1      41.805  29.849  32.349  1.00  0.00     0.049 A 
ATOM     50  N   UNL A   1      42.466  27.355  30.950  1.00  0.00    -0.248 NA
ATOM     51  C   UNL A   1      40.616  27.424  29.632  1.00  0.00     0.031 C 
ATOM     52  C   UNL A   1      43.219  29.518  32.489  1.00  0.00     0.029 A 
ATOM     53  N   UNL A   1      41.636  30.836  33.316  1.00  0.00    -0.354 N 
ATOM     54  C   UNL A   1      42.674  26.441  29.933  1.00  0.00     0.074 A 
ATOM     55  C   UNL A   1      41.450  26.480  29.177  1.00  0.00     0.031 C 
ATOM     56  C   UNL A   1      43.782  30.213  33.477  1.00  0.00     0.029 A 
ATOM     57  C   UNL A   1      42.704  30.782  34.227  1.00  0.00     0.049 A 
ATOM     58  H   UNL A   1      40.885  31.472  33.355  1.00  0.00     0.167 HD
ATOM     59  C   UNL A   1      43.900  25.840  29.806  1.00  0.00     0.037 A 
ATOM     60  C   UNL A   1      42.545  30.420  35.536  1.00  0.00     0.037 A 
ATOM     61  C   UNL A   1      44.729  26.068  31.008  1.00  0.00     0.049 A 
ATOM     62  C   UNL A   1      43.225  29.087  35.854  1.00  0.00     0.074 A 
ATOM     63  C   UNL A   1      46.025  26.489  31.221  1.00  0.00     0.029 A 
ATOM     64  N   UNL A   1      44.165  25.956  32.286  1.00  0.00    -0.354 N 
ATOM     65  N   UNL A   1      43.385  28.133  34.959  1.00  0.00    -0.248 NA
ATOM     66  C   UNL A   1      43.942  28.783  37.093  1.00  0.00     0.031 C 
ATOM     67  C   UNL A   1      46.181  26.796  32.603  1.00  0.00     0.029 A 
ATOM     68  C   UNL A   1      45.023  26.414  33.264  1.00  0.00     0.049 A 
ATOM     69  H   UNL A   1      43.268  25.595  32.464  1.00  0.00     0.167 HD
ATOM     70  C   UNL A   1      44.258  27.184  35.426  1.00  0.00     0.074 A 
ATOM     71  C   UNL A   1      44.546  27.619  36.783  1.00  0.00     0.031 C 
ATOM     72  C   UNL A   1      44.771  26.157  34.676  1.00  0.00     0.037 A 
BRANCH  59  73
ATOM     73  C   UNL A   1      44.463  25.164  28.531  1.00  0.00     0.058 A 
ATOM     74  C   UNL A   1      45.269  25.887  27.611  1.00  0.00     0.135 A 
ATOM     75  C   UNL A   1      44.164  23.853  28.091  1.00  0.00     0.135 A 
ATOM     76  F   UNL A   1      45.688  27.130  27.881  1.00  0.00    -0.206 F 
ATOM     77  C   UNL A   1      45.698  25.379  26.371  1.00  0.00     0.059 A 
ATOM     78  C   UNL A   1      44.637  23.300  26.885  1.00  0.00     0.059 A 
ATOM     79  F   UNL A   1      43.356  23.041  28.781  1.00  0.00    -0.206 F 
ATOM     80  C   UNL A   1      45.385  24.077  26.014  1.00  0.00     0.060 A 
BRANCH  80  81
ATOM     81  S   UNL A   1      45.993  23.401  24.451  1.00  0.00     0.124 S 
ATOM     82  O   UNL A   1      46.630  22.158  24.875  1.00  0.00    -0.237 OA
ATOM     83  O   UNL A   1      44.769  23.252  23.669  1.00  0.00    -0.237 OA
ATOM     84  O   UNL A   1      46.908  24.432  23.968  1.00  0.00    -0.744 OA
ENDBRANCH  80  81
ENDBRANCH  59  73
BRANCH  60  85
ATOM     85  C   UNL A   1      41.496  31.249  36.212  1.00  0.00     0.058 A 
ATOM     86  C   UNL A   1      41.909  32.591  36.393  1.00  0.00     0.135 A 
ATOM     87  C   UNL A   1      40.157  31.052  35.823  1.00  0.00     0.135 A 
ATOM     88  F   UNL A   1      43.153  32.848  36.831  1.00  0.00    -0.206 F 
ATOM     89  C   UNL A   1      41.180  33.653  35.859  1.00  0.00     0.059 A 
ATOM     90  C   UNL A   1      39.401  32.106  35.292  1.00  0.00     0.059 A 
ATOM     91  F   UNL A   1      39.673  29.806  35.699  1.00  0.00    -0.206 F 
ATOM     92  C   UNL A   1      39.970  33.380  35.223  1.00  0.00     0.060 A 
BRANCH  92  93
ATOM     93  S   UNL A   1      39.341  34.611  34.043  1.00  0.00     0.124 S 
ATOM     94  O   UNL A   1      37.994  34.124  33.779  1.00  0.00    -0.237 OA
ATOM     95  O   UNL A   1      39.438  35.844  34.822  1.00  0.00    -0.237 OA
ATOM     96  O   UNL A   1      40.283  34.515  32.935  1.00  0.00    -0.744 OA
ENDBRANCH  92  93
ENDBRANCH  60  85
BRANCH  72  97
ATOM     97  C   UNL A   1      45.186  24.784  35.200  1.00  0.00     0.058 A 
ATOM     98  C   UNL A   1      44.391  23.635  35.081  1.00  0.00     0.135 A 
ATOM     99  C   UNL A   1      46.522  24.538  35.635  1.00  0.00     0.135 A 
ATOM    100  F   UNL A   1      43.138  23.689  34.610  1.00  0.00    -0.206 F 
ATOM    101  C   UNL A   1      44.867  22.358  35.382  1.00  0.00     0.059 A 
ATOM    102  C   UNL A   1      47.029  23.270  35.898  1.00  0.00     0.059 A 
ATOM    103  F   UNL A   1      47.425  25.516  35.778  1.00  0.00    -0.206 F 
ATOM    104  C   UNL A   1      46.190  22.181  35.776  1.00  0.00     0.060 A 
BRANCH 104 105
ATOM    105  S   UNL A   1      46.811  20.516  36.043  1.00  0.00     0.124 S 
ATOM    106  O   UNL A   1      46.712  19.950  34.700  1.00  0.00    -0.237 OA
ATOM    107  O   UNL A   1      48.166  20.764  36.525  1.00  0.00    -0.237 OA
ATOM    108  O   UNL A   1      45.896  19.957  37.032  1.00  0.00    -0.744 OA
ENDBRANCH 104 105
ENDBRANCH  72  97
ENDBRANCH  46  47
ENDBRANCH  39  41
ENDBRANCH  38  39
ENDBRANCH  37  38
ENDBRANCH  36  37
ENDBRANCH  35  36
ENDBRANCH  34  35
ENDBRANCH  33  34
ENDBRANCH  32  33
ENDBRANCH   1  32
TORSDOF 27
ENDMDL
MODEL 2
REMARK VINA RESULT:      -9.4      3.534      9.268
REMARK SMILES Cc1ccccc1NC(=O)CSc1nc(C(=O)OCCOCCOCCOCCOC(=O)c2ccc(-c3c4nc(c(-c5c(F)cc(S(=O)(=O)[O-])cc5F)c5ccc([nH]5)c(-c5c(F)cc(S(=O)(=O)[O-])cc5F)c5nc(c(-c6c(F)cc(S(=O)(=O)[O-])cc6F)c6ccc3[nH]6)C=C5)C=C4)cc2)c2ccccc2n1
REMARK SMILES IDX 23 1 22 2 21 3 20 4 19 5 18 6 16 7 17 8 15 9 13 10 14 11
REMARK SMILES IDX 105 12 104 13 99 14 103 15 100 16 102 17 101 18 12 19 11 20
REMARK SMILES IDX 9 21 8 22 10 24 7 25 1 26 2 27 3 28 4 29 6 30 5 31 24 32
REMARK SMILES IDX 25 33 26 34 27 35 28 36 29 37 30 38 31 39 32 40 33 41 34 42
REMARK SMILES IDX 98 43 35 44 97 45 36 46 37 47 38 48 91 49 39 50 96 51 90 52
REMARK SMILES IDX 92 53 40 54 95 55 89 56 88 57 41 59 75 60 54 61 74 62 55 63
REMARK SMILES IDX 58 64 73 65 93 66 56 67 57 68 72 70 94 71 59 72 42 73 43 74
REMARK SMILES IDX 52 75 44 76 45 77 51 78 53 79 46 80 47 81 48 82 49 83 50 84
REMARK SMILES IDX 76 85 77 86 86 87 78 88 79 89 85 90 87 91 80 92 81 93 82 94
REMARK SMILES IDX 83 95 84 96 60 97 61 98 70 99 62 100 63 101 69 102 71 103
REMARK SMILES IDX 64 104 65 105 66 106 67 107 68 108
REMARK H PARENT 8 23 92 58 58 69
REMARK Flexibility Score: inf
ROOT
ATOM      1  C   UNL A   1      37.774  29.850  29.191  1.00  0.00     0.188 C 
ENDROOT
BRANCH   1   2
ATOM      2  C   UNL A   1      36.428  29.645  28.484  1.00  0.00     0.188 C 
BRANCH   2   3
ATOM      3  O   UNL A   1      36.026  30.621  27.531  1.00  0.00    -0.376 OA
BRANCH   3   4
ATOM      4  C   UNL A   1      34.619  30.859  27.438  1.00  0.00     0.202 C 
BRANCH   4   5
ATOM      5  C   UNL A   1      33.772  29.615  27.208  1.00  0.00     0.261 C 
BRANCH   5   6
ATOM      6  O   UNL A   1      33.262  29.633  25.861  1.00  0.00    -0.458 OA
BRANCH   6   7
ATOM      7  C   UNL A   1      32.817  28.432  25.443  1.00  0.00     0.357 C 
ATOM      8  O   UNL A   1      32.785  27.406  26.101  1.00  0.00    -0.244 OA
BRANCH   7   9
ATOM      9  C   UNL A   1      31.897  28.600  24.299  1.00  0.00     0.160 A 
ATOM     10  C   UNL A   1      30.980  27.139  22.882  1.00  0.00     0.189 A 
ATOM     11  N   UNL A   1      32.055  27.539  23.502  1.00  0.00    -0.215 NA
ATOM     12  N   UNL A   1      30.012  27.975  22.502  1.00  0.00    -0.222 NA
ATOM     13  C   UNL A   1      30.030  29.201  23.051  1.00  0.00     0.076 A 
ATOM     14  C   UNL A   1      30.872  29.518  24.119  1.00  0.00     0.034 A 
ATOM     15  C   UNL A   1      29.128  30.164  22.616  1.00  0.00     0.029 A 
ATOM     16  C   UNL A   1      30.614  30.677  24.879  1.00  0.00     0.013 A 
ATOM     17  C   UNL A   1      28.963  31.377  23.293  1.00  0.00     0.002 A 
ATOM     18  C   UNL A   1      29.664  31.604  24.467  1.00  0.00     0.001 A 
BRANCH  10  19
ATOM     19  S   UNL A   1      30.578  25.454  23.273  1.00  0.00    -0.076 SA
BRANCH  19  20
ATOM     20  C   UNL A   1      32.270  24.787  23.689  1.00  0.00     0.178 C 
BRANCH  20  21
ATOM     21  C   UNL A   1      33.086  24.191  22.535  1.00  0.00     0.234 C 
ATOM     22  N   UNL A   1      33.454  22.877  22.462  1.00  0.00    -0.325 N 
ATOM     23  H   UNL A   1      33.777  22.587  21.578  1.00  0.00     0.169 HD
ATOM     24  O   UNL A   1      33.481  24.910  21.611  1.00  0.00    -0.274 OA
BRANCH  22  25
ATOM     25  C   UNL A   1      33.445  21.874  23.439  1.00  0.00     0.044 A 
ATOM     26  C   UNL A   1      35.735  22.620  24.336  1.00  0.00     0.046 C 
ATOM     27  C   UNL A   1      34.562  21.680  24.266  1.00  0.00    -0.027 A 
ATOM     28  C   UNL A   1      34.592  20.538  25.087  1.00  0.00     0.005 A 
ATOM     29  C   UNL A   1      33.535  19.626  25.099  1.00  0.00     0.000 A 
ATOM     30  C   UNL A   1      32.334  21.034  23.575  1.00  0.00     0.026 A 
ATOM     31  C   UNL A   1      32.392  19.888  24.360  1.00  0.00     0.002 A 
ENDBRANCH  22  25
ENDBRANCH  20  21
ENDBRANCH  19  20
ENDBRANCH  10  19
ENDBRANCH   7   9
ENDBRANCH   6   7
ENDBRANCH   5   6
ENDBRANCH   4   5
ENDBRANCH   3   4
ENDBRANCH   2   3
ENDBRANCH   1   2
BRANCH   1  32
ATOM     32  O   UNL A   1      38.650  28.737  29.224  1.00  0.00    -0.377 OA
BRANCH  32  33
ATOM     33  C   UNL A   1      39.183  28.216  27.998  1.00  0.00     0.188 C 
BRANCH  33  34
ATOM     34  C   UNL A   1      40.158  27.039  28.038  1.00  0.00     0.188 C 
BRANCH  34  35
ATOM     35  O   UNL A   1      39.815  26.130  26.988  1.00  0.00    -0.376 OA
BRANCH  35  36
ATOM     36  C   UNL A   1      40.858  25.805  26.077  1.00  0.00     0.202 C 
BRANCH  36  37
ATOM     37  C   UNL A   1      41.961  24.916  26.663  1.00  0.00     0.261 C 
BRANCH  37  38
ATOM     38  O   UNL A   1      43.277  25.385  26.297  1.00  0.00    -0.460 OA
BRANCH  38  39
ATOM     39  C   UNL A   1      44.296  24.509  26.525  1.00  0.00     0.338 C 
ATOM     40  O   UNL A   1      44.954  23.993  25.633  1.00  0.00    -0.246 OA
BRANCH  39  41
ATOM     41  C   UNL A   1      44.535  24.336  27.981  1.00  0.00     0.060 A 
ATOM     42  C   UNL A   1      43.741  23.486  28.764  1.00  0.00     0.016 A 
ATOM     43  C   UNL A   1      45.463  25.158  28.600  1.00  0.00     0.016 A 
ATOM     44  C   UNL A   1      43.769  23.575  30.171  1.00  0.00     0.010 A 
ATOM     45  C   UNL A   1      45.419  25.304  29.970  1.00  0.00     0.010 A 
ATOM     46  C   UNL A   1      44.568  24.538  30.787  1.00  0.00    -0.014 A 
BRANCH  46  47
ATOM     47  C   UNL A   1      44.520  24.986  32.199  1.00  0.00     0.031 A 
ATOM     48  C   UNL A   1      43.929  26.345  32.518  1.00  0.00     0.074 A 
ATOM     49  C   UNL A   1      44.595  24.054  33.182  1.00  0.00     0.049 A 
ATOM     50  N   UNL A   1      43.494  26.731  33.671  1.00  0.00    -0.248 NA
ATOM     51  C   UNL A   1      43.761  27.403  31.516  1.00  0.00     0.031 C 
ATOM     52  C   UNL A   1      43.799  24.089  34.405  1.00  0.00     0.029 A 
ATOM     53  N   UNL A   1      45.269  22.843  33.303  1.00  0.00    -0.354 N 
ATOM     54  C   UNL A   1      42.745  27.885  33.524  1.00  0.00     0.074 A 
ATOM     55  C   UNL A   1      43.008  28.297  32.170  1.00  0.00     0.031 C 
ATOM     56  C   UNL A   1      44.041  23.024  35.168  1.00  0.00     0.029 A 
ATOM     57  C   UNL A   1      45.227  22.418  34.642  1.00  0.00     0.049 A 
ATOM     58  H   UNL A   1      45.708  22.360  32.566  1.00  0.00     0.167 HD
ATOM     59  C   UNL A   1      41.920  28.289  34.542  1.00  0.00     0.037 A 
ATOM     60  C   UNL A   1      46.340  22.346  35.432  1.00  0.00     0.037 A 
ATOM     61  C   UNL A   1      42.209  27.544  35.785  1.00  0.00     0.049 A 
ATOM     62  C   UNL A   1      46.310  23.370  36.570  1.00  0.00     0.074 A 
ATOM     63  C   UNL A   1      41.435  26.874  36.710  1.00  0.00     0.029 A 
ATOM     64  N   UNL A   1      43.533  27.314  36.179  1.00  0.00    -0.354 N 
ATOM     65  N   UNL A   1      45.689  24.528  36.473  1.00  0.00    -0.248 NA
ATOM     66  C   UNL A   1      46.778  23.125  37.934  1.00  0.00     0.031 C 
ATOM     67  C   UNL A   1      42.294  26.104  37.546  1.00  0.00     0.029 A 
ATOM     68  C   UNL A   1      43.606  26.425  37.231  1.00  0.00     0.049 A 
ATOM     69  H   UNL A   1      44.316  27.735  35.757  1.00  0.00     0.167 HD
ATOM     70  C   UNL A   1      45.582  25.115  37.709  1.00  0.00     0.074 A 
ATOM     71  C   UNL A   1      46.317  24.213  38.582  1.00  0.00     0.031 C 
ATOM     72  C   UNL A   1      44.842  26.236  37.981  1.00  0.00     0.037 A 
BRANCH  59  73
ATOM     73  C   UNL A   1      40.711  29.250  34.417  1.00  0.00     0.058 A 
ATOM     74  C   UNL A   1      39.765  29.108  33.367  1.00  0.00     0.135 A 
ATOM     75  C   UNL A   1      40.480  30.393  35.217  1.00  0.00     0.135 A 
ATOM     76  F   UNL A   1      39.802  28.058  32.535  1.00  0.00    -0.206 F 
ATOM     77  C   UNL A   1      38.726  30.022  33.114  1.00  0.00     0.059 A 
ATOM     78  C   UNL A   1      39.408  31.286  35.024  1.00  0.00     0.059 A 
ATOM     79  F   UNL A   1      41.306  30.742  36.209  1.00  0.00    -0.206 F 
ATOM     80  C   UNL A   1      38.546  31.110  33.953  1.00  0.00     0.060 A 
BRANCH  80  81
ATOM     81  S   UNL A   1      37.170  32.249  33.668  1.00  0.00     0.124 S 
ATOM     82  O   UNL A   1      36.764  32.593  35.027  1.00  0.00    -0.237 OA
ATOM     83  O   UNL A   1      37.796  33.323  32.902  1.00  0.00    -0.237 OA
ATOM     84  O   UNL A   1      36.210  31.441  32.920  1.00  0.00    -0.744 OA
ENDBRANCH  80  81
ENDBRANCH  59  73
BRANCH  60  85
ATOM     85  C   UNL A   1      47.415  21.520  34.795  1.00  0.00     0.058 A 
ATOM     86  C   UNL A   1      48.607  22.257  34.594  1.00  0.00     0.135 A 
ATOM     87  C   UNL A   1      47.566  20.191  35.236  1.00  0.00     0.135 A 
ATOM     88  F   UNL A   1      48.539  23.508  34.107  1.00  0.00    -0.206 F 
ATOM     89  C   UNL A   1      49.817  21.845  35.152  1.00  0.00     0.059 A 
ATOM     90  C   UNL A   1      48.774  19.753  35.793  1.00  0.00     0.059 A 
ATOM     91  F   UNL A   1      46.485  19.409  35.383  1.00  0.00    -0.206 F 
ATOM     92  C   UNL A   1      49.860  20.631  35.835  1.00  0.00     0.060 A 
BRANCH  92  93
ATOM     93  S   UNL A   1      51.203  20.385  37.034  1.00  0.00     0.124 S 
ATOM     94  O   UNL A   1      50.514  20.549  38.307  1.00  0.00    -0.237 OA
ATOM     95  O   UNL A   1      51.643  19.029  36.711  1.00  0.00    -0.237 OA
ATOM     96  O   UNL A   1      52.153  21.433  36.683  1.00  0.00    -0.744 OA
ENDBRANCH  92  93
ENDBRANCH  60  85
BRANCH  72  97
ATOM     97  C   UNL A   1      45.145  27.271  39.061  1.00  0.00     0.058 A 
ATOM     98  C   UNL A   1      44.891  27.069  40.425  1.00  0.00     0.135 A 
ATOM     99  C   UNL A   1      45.931  28.426  38.770  1.00  0.00     0.135 A 
ATOM    100  F   UNL A   1      44.234  25.989  40.868  1.00  0.00    -0.206 F 
ATOM    101  C   UNL A   1      45.356  27.939  41.413  1.00  0.00     0.059 A 
ATOM    102  C   UNL A   1      46.440  29.280  39.742  1.00  0.00     0.059 A 
ATOM    103  F   UNL A   1      46.291  28.758  37.523  1.00  0.00    -0.206 F 
ATOM    104  C   UNL A   1      46.142  29.033  41.066  1.00  0.00     0.060 A 
BRANCH 104 105
ATOM    105  S   UNL A   1      46.827  30.069  42.365  1.00  0.00     0.124 S 
ATOM    106  O   UNL A   1      46.957  31.350  41.678  1.00  0.00    -0.237 OA
ATOM    107  O   UNL A   1      45.791  30.005  43.391  1.00  0.00    -0.237 OA
ATOM    108  O   UNL A   1      48.081  29.409  42.711  1.00  0.00    -0.744 OA
ENDBRANCH 104 105
ENDBRANCH  72  97
ENDBRANCH  46  47
ENDBRANCH  39  41
ENDBRANCH  38  39
ENDBRANCH  37  38
ENDBRANCH  36  37
ENDBRANCH  35  36
ENDBRANCH  34  35
ENDBRANCH  33  34
ENDBRANCH  32  33
ENDBRANCH   1  32
TORSDOF 27
ENDMDL
MODEL 3
REMARK VINA RESULT:      -9.3      6.684     11.873
REMARK SMILES Cc1ccccc1NC(=O)CSc1nc(C(=O)OCCOCCOCCOCCOC(=O)c2ccc(-c3c4nc(c(-c5c(F)cc(S(=O)(=O)[O-])cc5F)c5ccc([nH]5)c(-c5c(F)cc(S(=O)(=O)[O-])cc5F)c5nc(c(-c6c(F)cc(S(=O)(=O)[O-])cc6F)c6ccc3[nH]6)C=C5)C=C4)cc2)c2ccccc2n1
REMARK SMILES IDX 23 1 22 2 21 3 20 4 19 5 18 6 16 7 17 8 15 9 13 10 14 11
REMARK SMILES IDX 105 12 104 13 99 14 103 15 100 16 102 17 101 18 12 19 11 20
REMARK SMILES IDX 9 21 8 22 10 24 7 25 1 26 2 27 3 28 4 29 6 30 5 31 24 32
REMARK SMILES IDX 25 33 26 34 27 35 28 36 29 37 30 38 31 39 32 40 33 41 34 42
REMARK SMILES IDX 98 43 35 44 97 45 36 46 37 47 38 48 91 49 39 50 96 51 90 52
REMARK SMILES IDX 92 53 40 54 95 55 89 56 88 57 41 59 75 60 54 61 74 62 55 63
REMARK SMILES IDX 58 64 73 65 93 66 56 67 57 68 72 70 94 71 59 72 42 73 43 74
REMARK SMILES IDX 52 75 44 76 45 77 51 78 53 79 46 80 47 81 48 82 49 83 50 84
REMARK SMILES IDX 76 85 77 86 86 87 78 88 79 89 85 90 87 91 80 92 81 93 82 94
REMARK SMILES IDX 83 95 84 96 60 97 61 98 70 99 62 100 63 101 69 102 71 103
REMARK SMILES IDX 64 104 65 105 66 106 67 107 68 108
REMARK H PARENT 8 23 92 58 58 69
REMARK Flexibility Score: inf
ROOT
ATOM      1  C   UNL A   1      33.287  34.131  28.324  1.00  0.00     0.188 C 
ENDROOT
BRANCH   1   2
ATOM      2  C   UNL A   1      34.032  32.793  28.240  1.00  0.00     0.188 C 
BRANCH   2   3
ATOM      3  O   UNL A   1      33.375  31.708  27.599  1.00  0.00    -0.376 OA
BRANCH   3   4
ATOM      4  C   UNL A   1      34.152  30.520  27.428  1.00  0.00     0.202 C 
BRANCH   4   5
ATOM      5  C   UNL A   1      33.715  29.630  26.271  1.00  0.00     0.261 C 
BRANCH   5   6
ATOM      6  O   UNL A   1      33.623  28.268  26.731  1.00  0.00    -0.458 OA
BRANCH   6   7
ATOM      7  C   UNL A   1      33.595  27.368  25.729  1.00  0.00     0.357 C 
ATOM      8  O   UNL A   1      34.560  26.836  25.209  1.00  0.00    -0.244 OA
BRANCH   7   9
ATOM      9  C   UNL A   1      32.275  26.705  25.679  1.00  0.00     0.160 A 
ATOM     10  C   UNL A   1      30.519  26.953  24.324  1.00  0.00     0.189 A 
ATOM     11  N   UNL A   1      31.437  27.532  25.047  1.00  0.00    -0.215 NA
ATOM     12  N   UNL A   1      29.992  25.768  24.638  1.00  0.00    -0.222 NA
ATOM     13  C   UNL A   1      30.655  25.041  25.553  1.00  0.00     0.076 A 
ATOM     14  C   UNL A   1      31.934  25.396  25.990  1.00  0.00     0.034 A 
ATOM     15  C   UNL A   1      30.107  23.853  26.019  1.00  0.00     0.029 A 
ATOM     16  C   UNL A   1      32.720  24.440  26.664  1.00  0.00     0.013 A 
ATOM     17  C   UNL A   1      30.844  22.960  26.803  1.00  0.00     0.002 A 
ATOM     18  C   UNL A   1      32.178  23.227  27.072  1.00  0.00     0.001 A 
BRANCH  10  19
ATOM     19  S   UNL A   1      30.608  27.447  22.620  1.00  0.00    -0.076 SA
BRANCH  19  20
ATOM     20  C   UNL A   1      31.617  26.048  21.912  1.00  0.00     0.178 C 
BRANCH  20  21
ATOM     21  C   UNL A   1      33.139  26.128  22.089  1.00  0.00     0.234 C 
ATOM     22  N   UNL A   1      33.914  25.081  22.503  1.00  0.00    -0.325 N 
ATOM     23  H   UNL A   1      34.881  25.202  22.363  1.00  0.00     0.169 HD
ATOM     24  O   UNL A   1      33.738  27.190  21.884  1.00  0.00    -0.274 OA
BRANCH  22  25
ATOM     25  C   UNL A   1      33.557  23.863  23.094  1.00  0.00     0.044 A 
ATOM     26  C   UNL A   1      35.803  23.716  24.333  1.00  0.00     0.046 C 
ATOM     27  C   UNL A   1      34.480  23.160  23.883  1.00  0.00    -0.027 A 
ATOM     28  C   UNL A   1      34.153  21.851  24.283  1.00  0.00     0.005 A 
ATOM     29  C   UNL A   1      32.937  21.267  23.925  1.00  0.00     0.000 A 
ATOM     30  C   UNL A   1      32.285  23.320  22.873  1.00  0.00     0.026 A 
ATOM     31  C   UNL A   1      31.990  22.013  23.241  1.00  0.00     0.002 A 
ENDBRANCH  22  25
ENDBRANCH  20  21
ENDBRANCH  19  20
ENDBRANCH  10  19
ENDBRANCH   7   9
ENDBRANCH   6   7
ENDBRANCH   5   6
ENDBRANCH   4   5
ENDBRANCH   3   4
ENDBRANCH   2   3
ENDBRANCH   1   2
BRANCH   1  32
ATOM     32  O   UNL A   1      33.356  34.821  29.559  1.00  0.00    -0.377 OA
BRANCH  32  33
ATOM     33  C   UNL A   1      34.531  34.699  30.375  1.00  0.00     0.188 C 
BRANCH  33  34
ATOM     34  C   UNL A   1      34.405  34.773  31.896  1.00  0.00     0.188 C 
BRANCH  34  35
ATOM     35  O   UNL A   1      34.991  33.596  32.458  1.00  0.00    -0.376 OA
BRANCH  35  36
ATOM     36  C   UNL A   1      34.726  32.378  31.773  1.00  0.00     0.202 C 
BRANCH  36  37
ATOM     37  C   UNL A   1      35.964  31.512  31.511  1.00  0.00     0.261 C 
BRANCH  37  38
ATOM     38  O   UNL A   1      36.372  30.790  32.692  1.00  0.00    -0.460 OA
BRANCH  38  39
ATOM     39  C   UNL A   1      37.643  30.296  32.669  1.00  0.00     0.338 C 
ATOM     40  O   UNL A   1      38.014  29.426  31.895  1.00  0.00    -0.246 OA
BRANCH  39  41
ATOM     41  C   UNL A   1      38.508  31.006  33.647  1.00  0.00     0.060 A 
ATOM     42  C   UNL A   1      39.067  30.348  34.752  1.00  0.00     0.016 A 
ATOM     43  C   UNL A   1      38.630  32.382  33.544  1.00  0.00     0.016 A 
ATOM     44  C   UNL A   1      39.607  31.085  35.826  1.00  0.00     0.010 A 
ATOM     45  C   UNL A   1      39.076  33.097  34.634  1.00  0.00     0.010 A 
ATOM     46  C   UNL A   1      39.557  32.478  35.802  1.00  0.00    -0.014 A 
BRANCH  46  47
ATOM     47  C   UNL A   1      39.792  33.412  36.929  1.00  0.00     0.031 A 
ATOM     48  C   UNL A   1      38.787  33.462  38.063  1.00  0.00     0.074 A 
ATOM     49  C   UNL A   1      41.051  33.870  37.145  1.00  0.00     0.049 A 
ATOM     50  N   UNL A   1      39.003  33.929  39.248  1.00  0.00    -0.248 NA
ATOM     51  C   UNL A   1      37.419  32.949  37.946  1.00  0.00     0.031 C 
ATOM     52  C   UNL A   1      41.648  34.031  38.467  1.00  0.00     0.029 A 
ATOM     53  N   UNL A   1      42.111  34.188  36.301  1.00  0.00    -0.354 N 
ATOM     54  C   UNL A   1      37.990  33.527  40.099  1.00  0.00     0.074 A 
ATOM     55  C   UNL A   1      36.993  32.981  39.216  1.00  0.00     0.031 C 
ATOM     56  C   UNL A   1      42.909  34.451  38.378  1.00  0.00     0.029 A 
ATOM     57  C   UNL A   1      43.089  34.888  37.028  1.00  0.00     0.049 A 
ATOM     58  H   UNL A   1      42.166  33.958  35.346  1.00  0.00     0.167 HD
ATOM     59  C   UNL A   1      38.170  33.621  41.454  1.00  0.00     0.037 A 
ATOM     60  C   UNL A   1      43.389  36.201  36.791  1.00  0.00     0.037 A 
ATOM     61  C   UNL A   1      39.356  34.442  41.776  1.00  0.00     0.049 A 
ATOM     62  C   UNL A   1      42.988  37.105  37.959  1.00  0.00     0.074 A 
ATOM     63  C   UNL A   1      40.445  34.281  42.608  1.00  0.00     0.029 A 
ATOM     64  N   UNL A   1      39.597  35.635  41.083  1.00  0.00    -0.354 N 
ATOM     65  N   UNL A   1      41.980  36.832  38.762  1.00  0.00    -0.248 NA
ATOM     66  C   UNL A   1      43.764  38.247  38.443  1.00  0.00     0.031 C 
ATOM     67  C   UNL A   1      41.412  35.276  42.286  1.00  0.00     0.029 A 
ATOM     68  C   UNL A   1      40.848  36.144  41.362  1.00  0.00     0.049 A 
ATOM     69  H   UNL A   1      38.953  36.059  40.472  1.00  0.00     0.167 HD
ATOM     70  C   UNL A   1      42.020  37.643  39.868  1.00  0.00     0.074 A 
ATOM     71  C   UNL A   1      43.134  38.538  39.599  1.00  0.00     0.031 C 
ATOM     72  C   UNL A   1      41.222  37.498  40.973  1.00  0.00     0.037 A 
BRANCH  59  73
ATOM     73  C   UNL A   1      37.386  32.842  42.541  1.00  0.00     0.058 A 
ATOM     74  C   UNL A   1      37.871  31.610  43.056  1.00  0.00     0.135 A 
ATOM     75  C   UNL A   1      36.106  33.182  43.038  1.00  0.00     0.135 A 
ATOM     76  F   UNL A   1      39.086  31.149  42.729  1.00  0.00    -0.206 F 
ATOM     77  C   UNL A   1      37.148  30.786  43.938  1.00  0.00     0.059 A 
ATOM     78  C   UNL A   1      35.393  32.407  43.972  1.00  0.00     0.059 A 
ATOM     79  F   UNL A   1      35.448  34.267  42.616  1.00  0.00    -0.206 F 
ATOM     80  C   UNL A   1      35.908  31.194  44.401  1.00  0.00     0.060 A 
BRANCH  80  81
ATOM     81  S   UNL A   1      35.007  30.167  45.587  1.00  0.00     0.124 S 
ATOM     82  O   UNL A   1      34.825  31.078  46.713  1.00  0.00    -0.237 OA
ATOM     83  O   UNL A   1      33.796  29.815  44.852  1.00  0.00    -0.237 OA
ATOM     84  O   UNL A   1      35.920  29.053  45.834  1.00  0.00    -0.744 OA
ENDBRANCH  80  81
ENDBRANCH  59  73
BRANCH  60  85
ATOM     85  C   UNL A   1      43.727  36.438  35.351  1.00  0.00     0.058 A 
ATOM     86  C   UNL A   1      42.786  37.280  34.712  1.00  0.00     0.135 A 
ATOM     87  C   UNL A   1      45.080  36.649  35.025  1.00  0.00     0.135 A 
ATOM     88  F   UNL A   1      41.472  37.088  34.925  1.00  0.00    -0.206 F 
ATOM     89  C   UNL A   1      43.174  38.475  34.108  1.00  0.00     0.059 A 
ATOM     90  C   UNL A   1      45.493  37.839  34.410  1.00  0.00     0.059 A 
ATOM     91  F   UNL A   1      46.025  35.845  35.537  1.00  0.00    -0.206 F 
ATOM     92  C   UNL A   1      44.531  38.787  34.052  1.00  0.00     0.060 A 
BRANCH  92  93
ATOM     93  S   UNL A   1      44.988  40.531  33.834  1.00  0.00     0.124 S 
ATOM     94  O   UNL A   1      46.385  40.538  34.245  1.00  0.00    -0.237 OA
ATOM     95  O   UNL A   1      44.736  40.727  32.407  1.00  0.00    -0.237 OA
ATOM     96  O   UNL A   1      44.060  41.227  34.717  1.00  0.00    -0.744 OA
ENDBRANCH  92  93
ENDBRANCH  60  85
BRANCH  72  97
ATOM     97  C   UNL A   1      40.750  38.622  41.893  1.00  0.00     0.058 A 
ATOM     98  C   UNL A   1      41.350  38.921  43.125  1.00  0.00     0.135 A 
ATOM     99  C   UNL A   1      39.809  39.595  41.440  1.00  0.00     0.135 A 
ATOM    100  F   UNL A   1      42.309  38.148  43.649  1.00  0.00    -0.206 F 
ATOM    101  C   UNL A   1      41.036  40.069  43.853  1.00  0.00     0.059 A 
ATOM    102  C   UNL A   1      39.516  40.766  42.129  1.00  0.00     0.059 A 
ATOM    103  F   UNL A   1      39.163  39.483  40.273  1.00  0.00    -0.206 F 
ATOM    104  C   UNL A   1      40.130  40.994  43.343  1.00  0.00     0.060 A 
BRANCH 104 105
ATOM    105  S   UNL A   1      39.834  42.521  44.244  1.00  0.00     0.124 S 
ATOM    106  O   UNL A   1      40.172  43.523  43.237  1.00  0.00    -0.237 OA
ATOM    107  O   UNL A   1      38.417  42.415  44.577  1.00  0.00    -0.237 OA
ATOM    108  O   UNL A   1      40.744  42.437  45.381  1.00  0.00    -0.744 OA
ENDBRANCH 104 105
ENDBRANCH  72  97
ENDBRANCH  46  47
ENDBRANCH  39  41
ENDBRANCH  38  39
ENDBRANCH  37  38
ENDBRANCH  36  37
ENDBRANCH  35  36
ENDBRANCH  34  35
ENDBRANCH  33  34
ENDBRANCH  32  33
ENDBRANCH   1  32
TORSDOF 27
ENDMDL
