MODEL 1
REMARK VINA RESULT:      -8.9      0.000      0.000
REMARK SMILES Cc1nsc(NCCn2cccn2)c1C(=O)OCCOCCOCCOCCOC(=O)c1ccc(-c2c3nc(c(-c4c(F)cc(S(=O)(=O)[O-])cc4F)c4ccc([nH]4)c(-c4c(F)cc(S(=O)(=O)[O-])cc4F)c4nc(c(-c5c(F)cc(S(=O)(=O)[O-])cc5F)c5ccc2[nH]5)C=C4)C=C3)cc1
REMARK SMILES IDX 22 1 21 2 20 3 19 4 18 5 17 6 15 7 16 8 14 9 1 10 2 11 3 12
REMARK SMILES IDX 4 13 5 14 6 15 7 17 8 18 9 19 10 20 13 21 11 22 12 23 23 24
REMARK SMILES IDX 24 25 25 26 26 27 27 28 28 29 29 30 30 31 31 32 32 33 33 34
REMARK SMILES IDX 97 35 34 36 96 37 35 38 36 39 37 40 90 41 38 42 95 43 89 44
REMARK SMILES IDX 91 45 39 46 94 47 88 48 87 49 40 51 74 52 53 53 73 54 54 55
REMARK SMILES IDX 57 56 72 57 92 58 55 59 56 60 71 62 93 63 58 64 41 65 42 66
REMARK SMILES IDX 51 67 43 68 44 69 50 70 52 71 45 72 46 73 47 74 48 75 49 76
REMARK SMILES IDX 75 77 76 78 85 79 77 80 78 81 84 82 86 83 79 84 80 85 81 86
REMARK SMILES IDX 82 87 83 88 59 89 60 90 69 91 61 92 62 93 68 94 70 95 63 96
REMARK SMILES IDX 64 97 65 98 66 99 67 100
REMARK H PARENT 6 16 91 50 57 61
REMARK Flexibility Score: inf
ROOT
ATOM      1  C   UNL A   1      34.185  25.102  26.099  1.00  0.00     0.188 C 
ENDROOT
BRANCH   1   2
ATOM      2  C   UNL A   1      34.395  23.630  26.512  1.00  0.00     0.188 C 
BRANCH   2   3
ATOM      3  O   UNL A   1      35.660  23.120  26.130  1.00  0.00    -0.376 OA
BRANCH   3   4
ATOM      4  C   UNL A   1      36.157  23.317  24.826  1.00  0.00     0.202 C 
BRANCH   4   5
ATOM      5  C   UNL A   1      35.262  23.756  23.655  1.00  0.00     0.261 C 
BRANCH   5   6
ATOM      6  O   UNL A   1      34.652  22.729  22.872  1.00  0.00    -0.460 OA
BRANCH   6   7
ATOM      7  C   UNL A   1      33.340  22.867  22.556  1.00  0.00     0.343 C 
ATOM      8  O   UNL A   1      32.923  23.038  21.415  1.00  0.00    -0.246 OA
BRANCH   7   9
ATOM      9  C   UNL A   1      32.490  22.629  23.714  1.00  0.00     0.117 A 
ATOM     10  C   UNL A   1      33.005  20.089  24.063  1.00  0.00     0.069 C 
ATOM     11  C   UNL A   1      32.332  21.373  24.410  1.00  0.00     0.068 A 
ATOM     12  N   UNL A   1      31.479  21.375  25.433  1.00  0.00    -0.195 NA
ATOM     13  S   UNL A   1      30.759  22.854  25.528  1.00  0.00    -0.018 S 
ATOM     14  C   UNL A   1      31.583  23.568  24.199  1.00  0.00     0.124 A 
BRANCH  14  15
ATOM     15  N   UNL A   1      31.351  24.803  23.684  1.00  0.00    -0.373 N 
ATOM     16  H   UNL A   1      32.141  25.325  23.412  1.00  0.00     0.161 HD
BRANCH  15  17
ATOM     17  C   UNL A   1      30.054  25.432  23.493  1.00  0.00     0.137 C 
BRANCH  17  18
ATOM     18  C   UNL A   1      29.918  26.625  24.445  1.00  0.00     0.165 C 
BRANCH  18  19
ATOM     19  N   UNL A   1      29.580  27.857  23.754  1.00  0.00    -0.271 N 
ATOM     20  C   UNL A   1      30.297  29.018  23.739  1.00  0.00     0.108 A 
ATOM     21  N   UNL A   1      28.448  27.924  23.021  1.00  0.00    -0.181 NA
ATOM     22  C   UNL A   1      29.572  29.902  22.974  1.00  0.00     0.042 A 
ATOM     23  C   UNL A   1      28.438  29.178  22.564  1.00  0.00     0.135 A 
ENDBRANCH  18  19
ENDBRANCH  17  18
ENDBRANCH  15  17
ENDBRANCH  14  15
ENDBRANCH   7   9
ENDBRANCH   6   7
ENDBRANCH   5   6
ENDBRANCH   4   5
ENDBRANCH   3   4
ENDBRANCH   2   3
ENDBRANCH   1   2
BRANCH   1  24
ATOM     24  O   UNL A   1      32.922  25.666  26.412  1.00  0.00    -0.377 OA
BRANCH  24  25
ATOM     25  C   UNL A   1      32.706  27.063  26.211  1.00  0.00     0.188 C 
BRANCH  25  26
ATOM     26  C   UNL A   1      31.982  27.996  27.229  1.00  0.00     0.188 C 
BRANCH  26  27
ATOM     27  O   UNL A   1      32.656  29.189  27.587  1.00  0.00    -0.376 OA
BRANCH  27  28
ATOM     28  C   UNL A   1      32.548  30.408  26.885  1.00  0.00     0.202 C 
BRANCH  28  29
ATOM     29  C   UNL A   1      33.614  31.480  27.067  1.00  0.00     0.261 C 
BRANCH  29  30
ATOM     30  O   UNL A   1      34.270  31.414  28.313  1.00  0.00    -0.460 OA
BRANCH  30  31
ATOM     31  C   UNL A   1      35.520  31.899  28.303  1.00  0.00     0.338 C 
ATOM     32  O   UNL A   1      35.956  32.813  27.606  1.00  0.00    -0.246 OA
BRANCH  31  33
ATOM     33  C   UNL A   1      36.312  31.101  29.227  1.00  0.00     0.060 A 
ATOM     34  C   UNL A   1      37.136  31.798  30.109  1.00  0.00     0.016 A 
ATOM     35  C   UNL A   1      36.471  29.733  28.949  1.00  0.00     0.016 A 
ATOM     36  C   UNL A   1      38.312  31.198  30.473  1.00  0.00     0.010 A 
ATOM     37  C   UNL A   1      37.648  29.141  29.301  1.00  0.00     0.010 A 
ATOM     38  C   UNL A   1      38.592  29.934  29.945  1.00  0.00    -0.014 A 
BRANCH  38  39
ATOM     39  C   UNL A   1      39.943  29.449  30.038  1.00  0.00     0.031 A 
ATOM     40  C   UNL A   1      40.373  29.253  31.431  1.00  0.00     0.074 A 
ATOM     41  C   UNL A   1      40.642  29.141  28.929  1.00  0.00     0.049 A 
ATOM     42  N   UNL A   1      41.201  29.975  32.106  1.00  0.00    -0.248 NA
ATOM     43  C   UNL A   1      39.620  28.276  32.235  1.00  0.00     0.031 C 
ATOM     44  C   UNL A   1      40.167  29.074  27.541  1.00  0.00     0.029 A 
ATOM     45  N   UNL A   1      41.927  28.724  28.831  1.00  0.00    -0.354 N 
ATOM     46  C   UNL A   1      41.270  29.363  33.348  1.00  0.00     0.074 A 
ATOM     47  C   UNL A   1      40.120  28.504  33.449  1.00  0.00     0.031 C 
ATOM     48  C   UNL A   1      41.086  28.427  26.788  1.00  0.00     0.029 A 
ATOM     49  C   UNL A   1      42.256  28.162  27.606  1.00  0.00     0.049 A 
ATOM     50  H   UNL A   1      42.574  28.815  29.567  1.00  0.00     0.167 HD
ATOM     51  C   UNL A   1      42.427  29.362  34.059  1.00  0.00     0.037 A 
ATOM     52  C   UNL A   1      43.381  27.450  27.341  1.00  0.00     0.037 A 
ATOM     53  C   UNL A   1      43.341  30.371  33.586  1.00  0.00     0.049 A 
ATOM     54  C   UNL A   1      44.379  27.825  28.382  1.00  0.00     0.074 A 
ATOM     55  C   UNL A   1      43.302  31.748  33.492  1.00  0.00     0.029 A 
ATOM     56  N   UNL A   1      44.348  29.961  32.744  1.00  0.00    -0.354 N 
ATOM     57  N   UNL A   1      44.878  29.029  28.499  1.00  0.00    -0.248 NA
ATOM     58  C   UNL A   1      44.449  27.010  29.585  1.00  0.00     0.031 C 
ATOM     59  C   UNL A   1      43.988  32.062  32.281  1.00  0.00     0.029 A 
ATOM     60  C   UNL A   1      44.453  30.870  31.722  1.00  0.00     0.049 A 
ATOM     61  H   UNL A   1      44.899  29.153  32.857  1.00  0.00     0.167 HD
ATOM     62  C   UNL A   1      44.944  29.265  29.867  1.00  0.00     0.074 A 
ATOM     63  C   UNL A   1      44.749  27.954  30.483  1.00  0.00     0.031 C 
ATOM     64  C   UNL A   1      44.858  30.534  30.370  1.00  0.00     0.037 A 
BRANCH  51  65
ATOM     65  C   UNL A   1      42.871  28.183  34.884  1.00  0.00     0.058 A 
ATOM     66  C   UNL A   1      43.239  28.381  36.226  1.00  0.00     0.135 A 
ATOM     67  C   UNL A   1      43.209  26.923  34.334  1.00  0.00     0.135 A 
ATOM     68  F   UNL A   1      42.986  29.551  36.836  1.00  0.00    -0.206 F 
ATOM     69  C   UNL A   1      43.941  27.420  36.952  1.00  0.00     0.059 A 
ATOM     70  C   UNL A   1      43.849  25.929  35.056  1.00  0.00     0.059 A 
ATOM     71  F   UNL A   1      43.029  26.630  33.040  1.00  0.00    -0.206 F 
ATOM     72  C   UNL A   1      44.252  26.201  36.351  1.00  0.00     0.060 A 
BRANCH  72  73
ATOM     73  S   UNL A   1      45.253  25.002  37.242  1.00  0.00     0.124 S 
ATOM     74  O   UNL A   1      44.642  25.043  38.565  1.00  0.00    -0.237 OA
ATOM     75  O   UNL A   1      45.029  23.787  36.467  1.00  0.00    -0.237 OA
ATOM     76  O   UNL A   1      46.601  25.556  37.151  1.00  0.00    -0.744 OA
ENDBRANCH  72  73
ENDBRANCH  51  65
BRANCH  52  77
ATOM     77  C   UNL A   1      43.452  26.196  26.541  1.00  0.00     0.058 A 
ATOM     78  C   UNL A   1      44.429  26.000  25.549  1.00  0.00     0.135 A 
ATOM     79  C   UNL A   1      42.703  25.057  26.905  1.00  0.00     0.135 A 
ATOM     80  F   UNL A   1      45.218  27.018  25.171  1.00  0.00    -0.206 F 
ATOM     81  C   UNL A   1      44.656  24.747  24.963  1.00  0.00     0.059 A 
ATOM     82  C   UNL A   1      42.904  23.804  26.330  1.00  0.00     0.059 A 
ATOM     83  F   UNL A   1      41.802  25.109  27.897  1.00  0.00    -0.206 F 
ATOM     84  C   UNL A   1      43.893  23.650  25.367  1.00  0.00     0.060 A 
BRANCH  84  85
ATOM     85  S   UNL A   1      44.253  22.007  24.700  1.00  0.00     0.124 S 
ATOM     86  O   UNL A   1      44.274  22.264  23.264  1.00  0.00    -0.237 OA
ATOM     87  O   UNL A   1      45.541  21.701  25.312  1.00  0.00    -0.237 OA
ATOM     88  O   UNL A   1      43.133  21.196  25.170  1.00  0.00    -0.744 OA
ENDBRANCH  84  85
ENDBRANCH  52  77
BRANCH  64  89
ATOM     89  C   UNL A   1      44.975  31.686  29.398  1.00  0.00     0.058 A 
ATOM     90  C   UNL A   1      46.193  32.155  28.871  1.00  0.00     0.135 A 
ATOM     91  C   UNL A   1      43.800  32.223  28.856  1.00  0.00     0.135 A 
ATOM     92  F   UNL A   1      47.359  31.624  29.262  1.00  0.00    -0.206 F 
ATOM     93  C   UNL A   1      46.241  33.135  27.877  1.00  0.00     0.059 A 
ATOM     94  C   UNL A   1      43.822  33.181  27.843  1.00  0.00     0.059 A 
ATOM     95  F   UNL A   1      42.604  31.773  29.269  1.00  0.00    -0.206 F 
ATOM     96  C   UNL A   1      45.047  33.639  27.364  1.00  0.00     0.060 A 
BRANCH  96  97
ATOM     97  S   UNL A   1      45.105  34.838  26.012  1.00  0.00     0.124 S 
ATOM     98  O   UNL A   1      46.531  34.894  25.710  1.00  0.00    -0.237 OA
ATOM     99  O   UNL A   1      44.267  34.210  24.994  1.00  0.00    -0.237 OA
ATOM    100  O   UNL A   1      44.545  36.049  26.607  1.00  0.00    -0.744 OA
ENDBRANCH  96  97
ENDBRANCH  64  89
ENDBRANCH  38  39
ENDBRANCH  31  33
ENDBRANCH  30  31
ENDBRANCH  29  30
ENDBRANCH  28  29
ENDBRANCH  27  28
ENDBRANCH  26  27
ENDBRANCH  25  26
ENDBRANCH  24  25
ENDBRANCH   1  24
TORSDOF 27
ENDMDL
MODEL 2
REMARK VINA RESULT:      -8.5      1.317      3.330
REMARK SMILES Cc1nsc(NCCn2cccn2)c1C(=O)OCCOCCOCCOCCOC(=O)c1ccc(-c2c3nc(c(-c4c(F)cc(S(=O)(=O)[O-])cc4F)c4ccc([nH]4)c(-c4c(F)cc(S(=O)(=O)[O-])cc4F)c4nc(c(-c5c(F)cc(S(=O)(=O)[O-])cc5F)c5ccc2[nH]5)C=C4)C=C3)cc1
REMARK SMILES IDX 22 1 21 2 20 3 19 4 18 5 17 6 15 7 16 8 14 9 1 10 2 11 3 12
REMARK SMILES IDX 4 13 5 14 6 15 7 17 8 18 9 19 10 20 13 21 11 22 12 23 23 24
REMARK SMILES IDX 24 25 25 26 26 27 27 28 28 29 29 30 30 31 31 32 32 33 33 34
REMARK SMILES IDX 97 35 34 36 96 37 35 38 36 39 37 40 90 41 38 42 95 43 89 44
REMARK SMILES IDX 91 45 39 46 94 47 88 48 87 49 40 51 74 52 53 53 73 54 54 55
REMARK SMILES IDX 57 56 72 57 92 58 55 59 56 60 71 62 93 63 58 64 41 65 42 66
REMARK SMILES IDX 51 67 43 68 44 69 50 70 52 71 45 72 46 73 47 74 48 75 49 76
REMARK SMILES IDX 75 77 76 78 85 79 77 80 78 81 84 82 86 83 79 84 80 85 81 86
REMARK SMILES IDX 82 87 83 88 59 89 60 90 69 91 61 92 62 93 68 94 70 95 63 96
REMARK SMILES IDX 64 97 65 98 66 99 67 100
REMARK H PARENT 6 16 91 50 57 61
REMARK Flexibility Score: inf
ROOT
ATOM      1  C   UNL A   1      33.880  25.416  26.024  1.00  0.00     0.188 C 
ENDROOT
BRANCH   1   2
ATOM      2  C   UNL A   1      34.222  23.953  26.378  1.00  0.00     0.188 C 
BRANCH   2   3
ATOM      3  O   UNL A   1      35.493  23.548  25.902  1.00  0.00    -0.376 OA
BRANCH   3   4
ATOM      4  C   UNL A   1      36.009  24.056  24.693  1.00  0.00     0.202 C 
BRANCH   4   5
ATOM      5  C   UNL A   1      35.140  24.268  23.443  1.00  0.00     0.261 C 
BRANCH   5   6
ATOM      6  O   UNL A   1      34.710  23.104  22.736  1.00  0.00    -0.460 OA
BRANCH   6   7
ATOM      7  C   UNL A   1      33.475  23.124  22.173  1.00  0.00     0.343 C 
ATOM      8  O   UNL A   1      33.264  22.977  20.974  1.00  0.00    -0.246 OA
BRANCH   7   9
ATOM      9  C   UNL A   1      32.433  23.179  23.190  1.00  0.00     0.117 A 
ATOM     10  C   UNL A   1      31.497  25.563  22.662  1.00  0.00     0.069 C 
ATOM     11  C   UNL A   1      31.526  24.279  23.420  1.00  0.00     0.068 A 
ATOM     12  N   UNL A   1      30.665  24.126  24.424  1.00  0.00    -0.195 NA
ATOM     13  S   UNL A   1      30.985  22.705  25.193  1.00  0.00    -0.018 S 
ATOM     14  C   UNL A   1      32.293  22.220  24.189  1.00  0.00     0.124 A 
BRANCH  14  15
ATOM     15  N   UNL A   1      33.080  21.129  24.372  1.00  0.00    -0.373 N 
ATOM     16  H   UNL A   1      33.456  20.713  23.563  1.00  0.00     0.161 HD
BRANCH  15  17
ATOM     17  C   UNL A   1      33.423  20.512  25.644  1.00  0.00     0.137 C 
BRANCH  17  18
ATOM     18  C   UNL A   1      32.871  19.082  25.686  1.00  0.00     0.165 C 
BRANCH  18  19
ATOM     19  N   UNL A   1      33.132  18.346  24.462  1.00  0.00    -0.271 N 
ATOM     20  C   UNL A   1      32.280  18.163  23.411  1.00  0.00     0.108 A 
ATOM     21  N   UNL A   1      34.333  17.759  24.277  1.00  0.00    -0.181 NA
ATOM     22  C   UNL A   1      32.959  17.387  22.502  1.00  0.00     0.042 A 
ATOM     23  C   UNL A   1      34.216  17.160  23.090  1.00  0.00     0.135 A 
ENDBRANCH  18  19
ENDBRANCH  17  18
ENDBRANCH  15  17
ENDBRANCH  14  15
ENDBRANCH   7   9
ENDBRANCH   6   7
ENDBRANCH   5   6
ENDBRANCH   4   5
ENDBRANCH   3   4
ENDBRANCH   2   3
ENDBRANCH   1   2
BRANCH   1  24
ATOM     24  O   UNL A   1      32.584  25.861  26.386  1.00  0.00    -0.377 OA
BRANCH  24  25
ATOM     25  C   UNL A   1      32.162  27.174  26.016  1.00  0.00     0.188 C 
BRANCH  25  26
ATOM     26  C   UNL A   1      31.419  28.160  26.968  1.00  0.00     0.188 C 
BRANCH  26  27
ATOM     27  O   UNL A   1      32.159  29.278  27.426  1.00  0.00    -0.376 OA
BRANCH  27  28
ATOM     28  C   UNL A   1      32.248  30.510  26.744  1.00  0.00     0.202 C 
BRANCH  28  29
ATOM     29  C   UNL A   1      33.468  31.398  26.948  1.00  0.00     0.261 C 
BRANCH  29  30
ATOM     30  O   UNL A   1      34.130  31.170  28.171  1.00  0.00    -0.460 OA
BRANCH  30  31
ATOM     31  C   UNL A   1      35.379  31.655  28.218  1.00  0.00     0.338 C 
ATOM     32  O   UNL A   1      35.805  32.666  27.664  1.00  0.00    -0.246 OA
BRANCH  31  33
ATOM     33  C   UNL A   1      36.185  30.728  28.999  1.00  0.00     0.060 A 
ATOM     34  C   UNL A   1      36.774  31.231  30.158  1.00  0.00     0.016 A 
ATOM     35  C   UNL A   1      36.605  29.537  28.382  1.00  0.00     0.016 A 
ATOM     36  C   UNL A   1      37.985  30.707  30.522  1.00  0.00     0.010 A 
ATOM     37  C   UNL A   1      37.817  29.025  28.738  1.00  0.00     0.010 A 
ATOM     38  C   UNL A   1      38.534  29.705  29.716  1.00  0.00    -0.014 A 
BRANCH  38  39
ATOM     39  C   UNL A   1      39.929  29.394  29.884  1.00  0.00     0.031 A 
ATOM     40  C   UNL A   1      40.291  29.193  31.295  1.00  0.00     0.074 A 
ATOM     41  C   UNL A   1      40.729  29.227  28.815  1.00  0.00     0.049 A 
ATOM     42  N   UNL A   1      40.975  29.985  32.050  1.00  0.00    -0.248 NA
ATOM     43  C   UNL A   1      39.624  28.094  32.011  1.00  0.00     0.031 C 
ATOM     44  C   UNL A   1      40.356  29.161  27.396  1.00  0.00     0.029 A 
ATOM     45  N   UNL A   1      42.062  28.983  28.790  1.00  0.00    -0.354 N 
ATOM     46  C   UNL A   1      41.044  29.333  33.272  1.00  0.00     0.074 A 
ATOM     47  C   UNL A   1      40.012  28.330  33.263  1.00  0.00     0.031 C 
ATOM     48  C   UNL A   1      41.398  28.671  26.685  1.00  0.00     0.029 A 
ATOM     49  C   UNL A   1      42.538  28.522  27.571  1.00  0.00     0.049 A 
ATOM     50  H   UNL A   1      42.644  29.124  29.571  1.00  0.00     0.167 HD
ATOM     51  C   UNL A   1      42.145  29.449  34.059  1.00  0.00     0.037 A 
ATOM     52  C   UNL A   1      43.761  27.972  27.358  1.00  0.00     0.037 A 
ATOM     53  C   UNL A   1      42.946  30.586  33.685  1.00  0.00     0.049 A 
ATOM     54  C   UNL A   1      44.633  28.426  28.477  1.00  0.00     0.074 A 
ATOM     55  C   UNL A   1      42.735  31.950  33.638  1.00  0.00     0.029 A 
ATOM     56  N   UNL A   1      44.050  30.346  32.900  1.00  0.00    -0.354 N 
ATOM     57  N   UNL A   1      44.963  29.677  28.671  1.00  0.00    -0.248 NA
ATOM     58  C   UNL A   1      44.734  27.575  29.652  1.00  0.00     0.031 C 
ATOM     59  C   UNL A   1      43.448  32.402  32.489  1.00  0.00     0.029 A 
ATOM     60  C   UNL A   1      44.099  31.305  31.920  1.00  0.00     0.049 A 
ATOM     61  H   UNL A   1      44.694  29.611  33.021  1.00  0.00     0.167 HD
ATOM     62  C   UNL A   1      44.911  29.860  30.047  1.00  0.00     0.074 A 
ATOM     63  C   UNL A   1      44.851  28.508  30.602  1.00  0.00     0.031 C 
ATOM     64  C   UNL A   1      44.629  31.084  30.588  1.00  0.00     0.037 A 
BRANCH  51  65
ATOM     65  C   UNL A   1      42.686  28.301  34.870  1.00  0.00     0.058 A 
ATOM     66  C   UNL A   1      42.968  28.495  36.233  1.00  0.00     0.135 A 
ATOM     67  C   UNL A   1      43.193  27.109  34.301  1.00  0.00     0.135 A 
ATOM     68  F   UNL A   1      42.554  29.606  36.864  1.00  0.00    -0.206 F 
ATOM     69  C   UNL A   1      43.745  27.596  36.964  1.00  0.00     0.059 A 
ATOM     70  C   UNL A   1      43.912  26.170  35.024  1.00  0.00     0.059 A 
ATOM     71  F   UNL A   1      43.106  26.841  32.991  1.00  0.00    -0.206 F 
ATOM     72  C   UNL A   1      44.222  26.443  36.344  1.00  0.00     0.060 A 
BRANCH  72  73
ATOM     73  S   UNL A   1      45.316  25.337  37.247  1.00  0.00     0.124 S 
ATOM     74  O   UNL A   1      45.696  24.392  36.203  1.00  0.00    -0.237 OA
ATOM     75  O   UNL A   1      46.360  26.249  37.699  1.00  0.00    -0.237 OA
ATOM     76  O   UNL A   1      44.459  24.803  38.300  1.00  0.00    -0.744 OA
ENDBRANCH  72  73
ENDBRANCH  51  65
BRANCH  52  77
ATOM     77  C   UNL A   1      44.045  26.775  26.520  1.00  0.00     0.058 A 
ATOM     78  C   UNL A   1      44.996  26.798  25.486  1.00  0.00     0.135 A 
ATOM     79  C   UNL A   1      43.556  25.501  26.881  1.00  0.00     0.135 A 
ATOM     80  F   UNL A   1      45.548  27.960  25.106  1.00  0.00    -0.206 F 
ATOM     81  C   UNL A   1      45.443  25.628  24.856  1.00  0.00     0.059 A 
ATOM     82  C   UNL A   1      43.978  24.325  26.264  1.00  0.00     0.059 A 
ATOM     83  F   UNL A   1      42.708  25.351  27.910  1.00  0.00    -0.206 F 
ATOM     84  C   UNL A   1      44.933  24.392  25.259  1.00  0.00     0.060 A 
BRANCH  84  85
ATOM     85  S   UNL A   1      45.584  22.869  24.531  1.00  0.00     0.124 S 
ATOM     86  O   UNL A   1      45.969  22.110  25.716  1.00  0.00    -0.237 OA
ATOM     87  O   UNL A   1      44.432  22.361  23.796  1.00  0.00    -0.237 OA
ATOM     88  O   UNL A   1      46.694  23.334  23.703  1.00  0.00    -0.744 OA
ENDBRANCH  84  85
ENDBRANCH  52  77
BRANCH  64  89
ATOM     89  C   UNL A   1      44.655  32.283  29.668  1.00  0.00     0.058 A 
ATOM     90  C   UNL A   1      43.521  32.804  29.017  1.00  0.00     0.135 A 
ATOM     91  C   UNL A   1      45.839  33.027  29.575  1.00  0.00     0.135 A 
ATOM     92  F   UNL A   1      42.327  32.210  29.138  1.00  0.00    -0.206 F 
ATOM     93  C   UNL A   1      43.571  33.991  28.282  1.00  0.00     0.059 A 
ATOM     94  C   UNL A   1      45.906  34.227  28.870  1.00  0.00     0.059 A 
ATOM     95  F   UNL A   1      46.941  32.618  30.225  1.00  0.00    -0.206 F 
ATOM     96  C   UNL A   1      44.768  34.701  28.218  1.00  0.00     0.060 A 
BRANCH  96  97
ATOM     97  S   UNL A   1      44.811  36.283  27.346  1.00  0.00     0.124 S 
ATOM     98  O   UNL A   1      45.048  37.228  28.433  1.00  0.00    -0.237 OA
ATOM     99  O   UNL A   1      45.919  36.102  26.412  1.00  0.00    -0.237 OA
ATOM    100  O   UNL A   1      43.492  36.366  26.725  1.00  0.00    -0.744 OA
ENDBRANCH  96  97
ENDBRANCH  64  89
ENDBRANCH  38  39
ENDBRANCH  31  33
ENDBRANCH  30  31
ENDBRANCH  29  30
ENDBRANCH  28  29
ENDBRANCH  27  28
ENDBRANCH  26  27
ENDBRANCH  25  26
ENDBRANCH  24  25
ENDBRANCH   1  24
TORSDOF 27
ENDMDL
MODEL 3
REMARK VINA RESULT:      -8.2      4.380      9.629
REMARK SMILES Cc1nsc(NCCn2cccn2)c1C(=O)OCCOCCOCCOCCOC(=O)c1ccc(-c2c3nc(c(-c4c(F)cc(S(=O)(=O)[O-])cc4F)c4ccc([nH]4)c(-c4c(F)cc(S(=O)(=O)[O-])cc4F)c4nc(c(-c5c(F)cc(S(=O)(=O)[O-])cc5F)c5ccc2[nH]5)C=C4)C=C3)cc1
REMARK SMILES IDX 22 1 21 2 20 3 19 4 18 5 17 6 15 7 16 8 14 9 1 10 2 11 3 12
REMARK SMILES IDX 4 13 5 14 6 15 7 17 8 18 9 19 10 20 13 21 11 22 12 23 23 24
REMARK SMILES IDX 24 25 25 26 26 27 27 28 28 29 29 30 30 31 31 32 32 33 33 34
REMARK SMILES IDX 97 35 34 36 96 37 35 38 36 39 37 40 90 41 38 42 95 43 89 44
REMARK SMILES IDX 91 45 39 46 94 47 88 48 87 49 40 51 74 52 53 53 73 54 54 55
REMARK SMILES IDX 57 56 72 57 92 58 55 59 56 60 71 62 93 63 58 64 41 65 42 66
REMARK SMILES IDX 51 67 43 68 44 69 50 70 52 71 45 72 46 73 47 74 48 75 49 76
REMARK SMILES IDX 75 77 76 78 85 79 77 80 78 81 84 82 86 83 79 84 80 85 81 86
REMARK SMILES IDX 82 87 83 88 59 89 60 90 69 91 61 92 62 93 68 94 70 95 63 96
REMARK SMILES IDX 64 97 65 98 66 99 67 100
REMARK H PARENT 6 16 91 50 57 61
REMARK Flexibility Score: inf
ROOT
ATOM      1  C   UNL A   1      33.493  25.037  26.249  1.00  0.00     0.188 C 
ENDROOT
BRANCH   1   2
ATOM      2  C   UNL A   1      33.478  23.518  25.976  1.00  0.00     0.188 C 
BRANCH   2   3
ATOM      3  O   UNL A   1      34.725  23.021  25.525  1.00  0.00    -0.376 OA
BRANCH   3   4
ATOM      4  C   UNL A   1      35.487  23.731  24.575  1.00  0.00     0.202 C 
BRANCH   4   5
ATOM      5  C   UNL A   1      34.873  24.784  23.638  1.00  0.00     0.261 C 
BRANCH   5   6
ATOM      6  O   UNL A   1      34.395  24.336  22.369  1.00  0.00    -0.460 OA
BRANCH   6   7
ATOM      7  C   UNL A   1      33.300  24.949  21.851  1.00  0.00     0.343 C 
ATOM      8  O   UNL A   1      33.273  25.494  20.753  1.00  0.00    -0.246 OA
BRANCH   7   9
ATOM      9  C   UNL A   1      32.130  24.735  22.691  1.00  0.00     0.117 A 
ATOM     10  C   UNL A   1      32.148  22.121  22.734  1.00  0.00     0.069 C 
ATOM     11  C   UNL A   1      31.599  23.457  23.103  1.00  0.00     0.068 A 
ATOM     12  N   UNL A   1      30.500  23.495  23.854  1.00  0.00    -0.195 NA
ATOM     13  S   UNL A   1      30.006  25.061  24.003  1.00  0.00    -0.018 S 
ATOM     14  C   UNL A   1      31.269  25.762  23.072  1.00  0.00     0.124 A 
BRANCH  14  15
ATOM     15  N   UNL A   1      31.377  27.071  22.727  1.00  0.00    -0.373 N 
ATOM     16  H   UNL A   1      32.286  27.448  22.696  1.00  0.00     0.161 HD
BRANCH  15  17
ATOM     17  C   UNL A   1      30.284  27.972  22.400  1.00  0.00     0.137 C 
BRANCH  17  18
ATOM     18  C   UNL A   1      30.414  29.258  23.225  1.00  0.00     0.165 C 
BRANCH  18  19
ATOM     19  N   UNL A   1      29.344  30.203  22.961  1.00  0.00    -0.271 N 
ATOM     20  C   UNL A   1      28.461  30.180  21.919  1.00  0.00     0.108 A 
ATOM     21  N   UNL A   1      29.141  31.237  23.804  1.00  0.00    -0.181 NA
ATOM     22  C   UNL A   1      27.655  31.283  22.081  1.00  0.00     0.042 A 
ATOM     23  C   UNL A   1      28.124  31.903  23.253  1.00  0.00     0.135 A 
ENDBRANCH  18  19
ENDBRANCH  17  18
ENDBRANCH  15  17
ENDBRANCH  14  15
ENDBRANCH   7   9
ENDBRANCH   6   7
ENDBRANCH   5   6
ENDBRANCH   4   5
ENDBRANCH   3   4
ENDBRANCH   2   3
ENDBRANCH   1   2
BRANCH   1  24
ATOM     24  O   UNL A   1      32.286  25.597  26.740  1.00  0.00    -0.377 OA
BRANCH  24  25
ATOM     25  C   UNL A   1      31.898  26.907  26.325  1.00  0.00     0.188 C 
BRANCH  25  26
ATOM     26  C   UNL A   1      31.457  28.043  27.298  1.00  0.00     0.188 C 
BRANCH  26  27
ATOM     27  O   UNL A   1      32.439  29.007  27.634  1.00  0.00    -0.376 OA
BRANCH  27  28
ATOM     28  C   UNL A   1      33.112  29.821  26.698  1.00  0.00     0.202 C 
BRANCH  28  29
ATOM     29  C   UNL A   1      34.272  30.694  27.156  1.00  0.00     0.261 C 
BRANCH  29  30
ATOM     30  O   UNL A   1      33.981  31.461  28.302  1.00  0.00    -0.460 OA
BRANCH  30  31
ATOM     31  C   UNL A   1      34.857  32.447  28.541  1.00  0.00     0.338 C 
ATOM     32  O   UNL A   1      35.186  33.350  27.775  1.00  0.00    -0.246 OA
BRANCH  31  33
ATOM     33  C   UNL A   1      35.418  32.228  29.866  1.00  0.00     0.060 A 
ATOM     34  C   UNL A   1      35.355  33.298  30.757  1.00  0.00     0.016 A 
ATOM     35  C   UNL A   1      36.278  31.131  30.046  1.00  0.00     0.016 A 
ATOM     36  C   UNL A   1      36.375  33.419  31.663  1.00  0.00     0.010 A 
ATOM     37  C   UNL A   1      37.300  31.259  30.939  1.00  0.00     0.010 A 
ATOM     38  C   UNL A   1      37.392  32.460  31.634  1.00  0.00    -0.014 A 
BRANCH  38  39
ATOM     39  C   UNL A   1      38.617  32.756  32.329  1.00  0.00     0.031 A 
ATOM     40  C   UNL A   1      39.659  33.274  31.431  1.00  0.00     0.074 A 
ATOM     41  C   UNL A   1      38.693  32.638  33.668  1.00  0.00     0.049 A 
ATOM     42  N   UNL A   1      40.719  32.663  31.023  1.00  0.00    -0.248 NA
ATOM     43  C   UNL A   1      39.373  34.533  30.725  1.00  0.00     0.031 C 
ATOM     44  C   UNL A   1      37.610  32.377  34.625  1.00  0.00     0.029 A 
ATOM     45  N   UNL A   1      39.769  32.825  34.471  1.00  0.00    -0.354 N 
ATOM     46  C   UNL A   1      41.368  33.584  30.215  1.00  0.00     0.074 A 
ATOM     47  C   UNL A   1      40.396  34.589  29.874  1.00  0.00     0.031 C 
ATOM     48  C   UNL A   1      38.047  32.650  35.876  1.00  0.00     0.029 A 
ATOM     49  C   UNL A   1      39.462  32.967  35.817  1.00  0.00     0.049 A 
ATOM     50  H   UNL A   1      40.691  32.855  34.128  1.00  0.00     0.167 HD
ATOM     51  C   UNL A   1      42.724  33.622  30.156  1.00  0.00     0.037 A 
ATOM     52  C   UNL A   1      40.313  33.410  36.778  1.00  0.00     0.037 A 
ATOM     53  C   UNL A   1      43.311  32.403  30.651  1.00  0.00     0.049 A 
ATOM     54  C   UNL A   1      41.692  33.207  36.252  1.00  0.00     0.074 A 
ATOM     55  C   UNL A   1      43.250  31.075  30.278  1.00  0.00     0.029 A 
ATOM     56  N   UNL A   1      43.785  32.413  31.943  1.00  0.00    -0.354 N 
ATOM     57  N   UNL A   1      42.202  32.028  36.006  1.00  0.00    -0.248 NA
ATOM     58  C   UNL A   1      42.321  34.309  35.542  1.00  0.00     0.031 C 
ATOM     59  C   UNL A   1      43.274  30.339  31.500  1.00  0.00     0.029 A 
ATOM     60  C   UNL A   1      43.398  31.247  32.554  1.00  0.00     0.049 A 
ATOM     61  H   UNL A   1      44.313  33.135  32.356  1.00  0.00     0.167 HD
ATOM     62  C   UNL A   1      42.918  32.179  34.825  1.00  0.00     0.074 A 
ATOM     63  C   UNL A   1      43.027  33.625  34.636  1.00  0.00     0.031 C 
ATOM     64  C   UNL A   1      43.101  31.128  33.969  1.00  0.00     0.037 A 
BRANCH  51  65
ATOM     65  C   UNL A   1      43.495  34.911  30.046  1.00  0.00     0.058 A 
ATOM     66  C   UNL A   1      44.448  35.057  29.023  1.00  0.00     0.135 A 
ATOM     67  C   UNL A   1      43.528  35.895  31.062  1.00  0.00     0.135 A 
ATOM     68  F   UNL A   1      44.517  34.163  28.023  1.00  0.00    -0.206 F 
ATOM     69  C   UNL A   1      45.402  36.074  29.040  1.00  0.00     0.059 A 
ATOM     70  C   UNL A   1      44.426  36.951  31.065  1.00  0.00     0.059 A 
ATOM     71  F   UNL A   1      42.763  35.825  32.159  1.00  0.00    -0.206 F 
ATOM     72  C   UNL A   1      45.388  37.008  30.074  1.00  0.00     0.060 A 
BRANCH  72  73
ATOM     73  S   UNL A   1      46.683  38.254  30.162  1.00  0.00     0.124 S 
ATOM     74  O   UNL A   1      47.816  37.533  29.596  1.00  0.00    -0.237 OA
ATOM     75  O   UNL A   1      46.127  39.324  29.342  1.00  0.00    -0.237 OA
ATOM     76  O   UNL A   1      46.769  38.547  31.590  1.00  0.00    -0.744 OA
ENDBRANCH  72  73
ENDBRANCH  51  65
BRANCH  52  77
ATOM     77  C   UNL A   1      39.976  34.364  37.869  1.00  0.00     0.058 A 
ATOM     78  C   UNL A   1      40.179  34.049  39.223  1.00  0.00     0.135 A 
ATOM     79  C   UNL A   1      39.668  35.713  37.588  1.00  0.00     0.135 A 
ATOM     80  F   UNL A   1      40.518  32.800  39.580  1.00  0.00    -0.206 F 
ATOM     81  C   UNL A   1      40.095  35.015  40.236  1.00  0.00     0.059 A 
ATOM     82  C   UNL A   1      39.570  36.689  38.578  1.00  0.00     0.059 A 
ATOM     83  F   UNL A   1      39.536  36.144  36.325  1.00  0.00    -0.206 F 
ATOM     84  C   UNL A   1      39.797  36.337  39.902  1.00  0.00     0.060 A 
BRANCH  84  85
ATOM     85  S   UNL A   1      39.795  37.612  41.186  1.00  0.00     0.124 S 
ATOM     86  O   UNL A   1      39.319  36.870  42.347  1.00  0.00    -0.237 OA
ATOM     87  O   UNL A   1      41.196  38.017  41.219  1.00  0.00    -0.237 OA
ATOM     88  O   UNL A   1      38.871  38.617  40.667  1.00  0.00    -0.744 OA
ENDBRANCH  84  85
ENDBRANCH  52  77
BRANCH  64  89
ATOM     89  C   UNL A   1      42.752  29.745  34.467  1.00  0.00     0.058 A 
ATOM     90  C   UNL A   1      41.556  29.071  34.154  1.00  0.00     0.135 A 
ATOM     91  C   UNL A   1      43.734  29.013  35.149  1.00  0.00     0.135 A 
ATOM     92  F   UNL A   1      40.607  29.664  33.419  1.00  0.00    -0.206 F 
ATOM     93  C   UNL A   1      41.335  27.744  34.530  1.00  0.00     0.059 A 
ATOM     94  C   UNL A   1      43.548  27.680  35.509  1.00  0.00     0.059 A 
ATOM     95  F   UNL A   1      44.922  29.578  35.421  1.00  0.00    -0.206 F 
ATOM     96  C   UNL A   1      42.341  27.053  35.204  1.00  0.00     0.060 A 
BRANCH  96  97
ATOM     97  S   UNL A   1      42.094  25.308  35.608  1.00  0.00     0.124 S 
ATOM     98  O   UNL A   1      40.662  25.255  35.880  1.00  0.00    -0.237 OA
ATOM     99  O   UNL A   1      42.533  24.635  34.388  1.00  0.00    -0.237 OA
ATOM    100  O   UNL A   1      42.959  25.101  36.767  1.00  0.00    -0.744 OA
ENDBRANCH  96  97
ENDBRANCH  64  89
ENDBRANCH  38  39
ENDBRANCH  31  33
ENDBRANCH  30  31
ENDBRANCH  29  30
ENDBRANCH  28  29
ENDBRANCH  27  28
ENDBRANCH  26  27
ENDBRANCH  25  26
ENDBRANCH  24  25
ENDBRANCH   1  24
TORSDOF 27
ENDMDL
