MODEL 1
REMARK VINA RESULT:      -7.4      0.000      0.000
REMARK SMILES Cc1ccc(Nc2c(Cl)cc(Cl)cc2Cl)c(CC(=O)OCCOCCOCCOCCOC(=O)c2ccc(-c3c4nc(c(-c5c(F)cc(S(=O)(=O)[O-])cc5F)c5ccc([nH]5)c(-c5c(F)cc(S(=O)(=O)[O-])cc5F)c5nc(c(-c6c(F)cc(S(=O)(=O)[O-])cc6F)c6ccc3[nH]6)C=C5)C=C4)cc2)c1
REMARK SMILES IDX 26 1 25 2 24 3 23 4 22 5 21 6 20 7 18 8 19 9 17 10 16 11
REMARK SMILES IDX 1 12 2 13 3 14 101 15 4 16 5 17 6 18 7 20 8 21 14 22 9 23
REMARK SMILES IDX 10 24 13 25 15 26 11 27 12 28 27 29 28 30 29 31 30 32 31 33
REMARK SMILES IDX 32 34 33 35 34 36 35 37 36 38 100 39 37 40 99 41 38 42 39 43
REMARK SMILES IDX 40 44 93 45 41 46 98 47 92 48 94 49 42 50 97 51 91 52 90 53
REMARK SMILES IDX 43 55 77 56 56 57 76 58 57 59 60 60 75 61 95 62 58 63 59 64
REMARK SMILES IDX 74 66 96 67 61 68 44 69 45 70 54 71 46 72 47 73 53 74 55 75
REMARK SMILES IDX 48 76 49 77 50 78 51 79 52 80 78 81 79 82 88 83 80 84 81 85
REMARK SMILES IDX 87 86 89 87 82 88 83 89 84 90 85 91 86 92 62 93 63 94 72 95
REMARK SMILES IDX 64 96 65 97 71 98 73 99 66 100 67 101 68 102 69 103 70 104
REMARK H PARENT 6 19 94 54 60 65
REMARK Flexibility Score: inf
ROOT
ATOM      1  O   UNL A   1      40.952  36.821  38.403  1.00  0.00    -0.377 OA
ENDROOT
BRANCH   1   2
ATOM      2  C   UNL A   1      41.032  35.720  37.524  1.00  0.00     0.188 C 
BRANCH   2   3
ATOM      3  C   UNL A   1      39.700  35.526  36.791  1.00  0.00     0.188 C 
BRANCH   3   4
ATOM      4  O   UNL A   1      39.547  35.962  35.445  1.00  0.00    -0.376 OA
BRANCH   4   5
ATOM      5  C   UNL A   1      40.104  35.125  34.453  1.00  0.00     0.202 C 
BRANCH   5   6
ATOM      6  C   UNL A   1      39.007  34.359  33.718  1.00  0.00     0.261 C 
BRANCH   6   7
ATOM      7  O   UNL A   1      39.532  33.577  32.643  1.00  0.00    -0.463 OA
BRANCH   7   8
ATOM      8  C   UNL A   1      38.882  33.784  31.468  1.00  0.00     0.310 C 
ATOM      9  O   UNL A   1      38.275  34.796  31.139  1.00  0.00    -0.252 OA
BRANCH   8  10
ATOM     10  C   UNL A   1      38.917  32.562  30.607  1.00  0.00     0.160 C 
BRANCH  10  11
ATOM     11  C   UNL A   1      38.382  31.298  31.241  1.00  0.00    -0.013 A 
ATOM     12  C   UNL A   1      40.039  28.443  33.219  1.00  0.00     0.044 C 
ATOM     13  C   UNL A   1      39.009  29.289  32.531  1.00  0.00    -0.051 A 
ATOM     14  C   UNL A   1      37.668  28.927  32.552  1.00  0.00     0.005 A 
ATOM     15  C   UNL A   1      39.353  30.470  31.873  1.00  0.00     0.009 A 
ATOM     16  C   UNL A   1      36.706  29.711  31.893  1.00  0.00     0.026 A 
ATOM     17  C   UNL A   1      37.016  30.909  31.215  1.00  0.00     0.042 A 
BRANCH  17  18
ATOM     18  N   UNL A   1      36.010  31.666  30.519  1.00  0.00    -0.353 N 
ATOM     19  H   UNL A   1      35.668  31.250  29.695  1.00  0.00     0.167 HD
BRANCH  18  20
ATOM     20  C   UNL A   1      35.427  32.944  30.849  1.00  0.00     0.076 A 
ATOM     21  C   UNL A   1      35.090  33.328  32.159  1.00  0.00     0.067 A 
ATOM     22  C   UNL A   1      34.982  33.824  29.824  1.00  0.00     0.067 A 
ATOM     23  Cl  UNL A   1      35.896  32.657  33.541  1.00  0.00    -0.082 Cl
ATOM     24  C   UNL A   1      34.170  34.357  32.412  1.00  0.00     0.043 A 
ATOM     25  C   UNL A   1      34.033  34.830  30.062  1.00  0.00     0.043 A 
ATOM     26  Cl  UNL A   1      35.638  33.764  28.226  1.00  0.00    -0.082 Cl
ATOM     27  C   UNL A   1      33.608  35.068  31.359  1.00  0.00     0.044 A 
ATOM     28  Cl  UNL A   1      32.396  36.250  31.673  1.00  0.00    -0.084 Cl
ENDBRANCH  18  20
ENDBRANCH  17  18
ENDBRANCH  10  11
ENDBRANCH   8  10
ENDBRANCH   7   8
ENDBRANCH   6   7
ENDBRANCH   5   6
ENDBRANCH   4   5
ENDBRANCH   3   4
ENDBRANCH   2   3
ENDBRANCH   1   2
BRANCH   1  29
ATOM     29  C   UNL A   1      42.056  37.125  39.251  1.00  0.00     0.188 C 
BRANCH  29  30
ATOM     30  C   UNL A   1      43.147  38.056  38.765  1.00  0.00     0.188 C 
BRANCH  30  31
ATOM     31  O   UNL A   1      44.322  37.848  39.529  1.00  0.00    -0.376 OA
BRANCH  31  32
ATOM     32  C   UNL A   1      45.467  38.472  38.996  1.00  0.00     0.202 C 
BRANCH  32  33
ATOM     33  C   UNL A   1      45.118  39.492  37.916  1.00  0.00     0.261 C 
BRANCH  33  34
ATOM     34  O   UNL A   1      45.556  38.971  36.645  1.00  0.00    -0.460 OA
BRANCH  34  35
ATOM     35  C   UNL A   1      45.231  39.741  35.573  1.00  0.00     0.338 C 
ATOM     36  O   UNL A   1      45.266  40.974  35.585  1.00  0.00    -0.246 OA
BRANCH  35  37
ATOM     37  C   UNL A   1      44.779  38.902  34.429  1.00  0.00     0.060 A 
ATOM     38  C   UNL A   1      43.517  38.283  34.424  1.00  0.00     0.016 A 
ATOM     39  C   UNL A   1      45.673  38.592  33.415  1.00  0.00     0.016 A 
ATOM     40  C   UNL A   1      43.210  37.245  33.509  1.00  0.00     0.010 A 
ATOM     41  C   UNL A   1      45.367  37.567  32.533  1.00  0.00     0.010 A 
ATOM     42  C   UNL A   1      44.166  36.833  32.589  1.00  0.00    -0.014 A 
BRANCH  42  43
ATOM     43  C   UNL A   1      44.140  35.639  31.697  1.00  0.00     0.031 A 
ATOM     44  C   UNL A   1      44.484  34.317  32.332  1.00  0.00     0.074 A 
ATOM     45  C   UNL A   1      43.401  35.681  30.552  1.00  0.00     0.049 A 
ATOM     46  N   UNL A   1      44.237  33.155  31.833  1.00  0.00    -0.248 NA
ATOM     47  C   UNL A   1      45.143  34.208  33.640  1.00  0.00     0.031 C 
ATOM     48  C   UNL A   1      42.479  34.653  30.044  1.00  0.00     0.029 A 
ATOM     49  N   UNL A   1      43.167  36.717  29.662  1.00  0.00    -0.354 N 
ATOM     50  C   UNL A   1      44.393  32.199  32.827  1.00  0.00     0.074 A 
ATOM     51  C   UNL A   1      45.057  32.897  33.897  1.00  0.00     0.031 C 
ATOM     52  C   UNL A   1      41.775  35.103  28.992  1.00  0.00     0.029 A 
ATOM     53  C   UNL A   1      42.496  36.249  28.517  1.00  0.00     0.049 A 
ATOM     54  H   UNL A   1      43.433  37.653  29.811  1.00  0.00     0.167 HD
ATOM     55  C   UNL A   1      43.811  30.968  32.671  1.00  0.00     0.037 A 
ATOM     56  C   UNL A   1      43.198  36.229  27.342  1.00  0.00     0.037 A 
ATOM     57  C   UNL A   1      43.283  30.771  31.295  1.00  0.00     0.049 A 
ATOM     58  C   UNL A   1      43.740  34.824  27.011  1.00  0.00     0.074 A 
ATOM     59  C   UNL A   1      42.187  30.149  30.720  1.00  0.00     0.029 A 
ATOM     60  N   UNL A   1      43.952  31.355  30.218  1.00  0.00    -0.354 N 
ATOM     61  N   UNL A   1      43.479  33.740  27.713  1.00  0.00    -0.248 NA
ATOM     62  C   UNL A   1      44.599  34.501  25.874  1.00  0.00     0.031 C 
ATOM     63  C   UNL A   1      42.198  30.409  29.311  1.00  0.00     0.029 A 
ATOM     64  C   UNL A   1      43.336  31.136  29.009  1.00  0.00     0.049 A 
ATOM     65  H   UNL A   1      44.784  31.874  30.315  1.00  0.00     0.167 HD
ATOM     66  C   UNL A   1      44.141  32.651  27.229  1.00  0.00     0.074 A 
ATOM     67  C   UNL A   1      44.834  33.187  26.065  1.00  0.00     0.031 C 
ATOM     68  C   UNL A   1      44.099  31.402  27.797  1.00  0.00     0.037 A 
BRANCH  55  69
ATOM     69  C   UNL A   1      43.551  29.942  33.800  1.00  0.00     0.058 A 
ATOM     70  C   UNL A   1      43.984  28.601  33.652  1.00  0.00     0.135 A 
ATOM     71  C   UNL A   1      42.781  30.157  34.970  1.00  0.00     0.135 A 
ATOM     72  F   UNL A   1      44.797  28.247  32.649  1.00  0.00    -0.206 F 
ATOM     73  C   UNL A   1      43.618  27.559  34.518  1.00  0.00     0.059 A 
ATOM     74  C   UNL A   1      42.459  29.139  35.893  1.00  0.00     0.059 A 
ATOM     75  F   UNL A   1      42.269  31.358  35.265  1.00  0.00    -0.206 F 
ATOM     76  C   UNL A   1      42.849  27.832  35.639  1.00  0.00     0.060 A 
BRANCH  76  77
ATOM     77  S   UNL A   1      42.425  26.477  36.763  1.00  0.00     0.124 S 
ATOM     78  O   UNL A   1      40.981  26.625  36.897  1.00  0.00    -0.237 OA
ATOM     79  O   UNL A   1      42.873  25.300  36.022  1.00  0.00    -0.237 OA
ATOM     80  O   UNL A   1      43.199  26.776  37.965  1.00  0.00    -0.744 OA
ENDBRANCH  76  77
ENDBRANCH  55  69
BRANCH  56  81
ATOM     81  C   UNL A   1      43.731  37.630  27.115  1.00  0.00     0.058 A 
ATOM     82  C   UNL A   1      42.705  38.610  27.031  1.00  0.00     0.135 A 
ATOM     83  C   UNL A   1      44.919  38.029  27.759  1.00  0.00     0.135 A 
ATOM     84  F   UNL A   1      41.550  38.311  26.413  1.00  0.00    -0.206 F 
ATOM     85  C   UNL A   1      42.735  39.782  27.792  1.00  0.00     0.059 A 
ATOM     86  C   UNL A   1      44.968  39.208  28.526  1.00  0.00     0.059 A 
ATOM     87  F   UNL A   1      45.940  37.165  27.870  1.00  0.00    -0.206 F 
ATOM     88  C   UNL A   1      43.843  40.036  28.594  1.00  0.00     0.060 A 
BRANCH  88  89
ATOM     89  S   UNL A   1      43.683  41.299  29.892  1.00  0.00     0.124 S 
ATOM     90  O   UNL A   1      44.463  40.721  30.978  1.00  0.00    -0.237 OA
ATOM     91  O   UNL A   1      44.263  42.477  29.248  1.00  0.00    -0.237 OA
ATOM     92  O   UNL A   1      42.244  41.368  30.112  1.00  0.00    -0.744 OA
ENDBRANCH  88  89
ENDBRANCH  56  81
BRANCH  68  93
ATOM     93  C   UNL A   1      44.906  30.243  27.283  1.00  0.00     0.058 A 
ATOM     94  C   UNL A   1      44.325  29.146  26.643  1.00  0.00     0.135 A 
ATOM     95  C   UNL A   1      46.307  30.180  27.494  1.00  0.00     0.135 A 
ATOM     96  F   UNL A   1      42.991  29.041  26.535  1.00  0.00    -0.206 F 
ATOM     97  C   UNL A   1      45.100  28.130  26.095  1.00  0.00     0.059 A 
ATOM     98  C   UNL A   1      47.090  29.141  27.018  1.00  0.00     0.059 A 
ATOM     99  F   UNL A   1      46.976  31.143  28.141  1.00  0.00    -0.206 F 
ATOM    100  C   UNL A   1      46.485  28.154  26.263  1.00  0.00     0.060 A 
BRANCH 100 101
ATOM    101  S   UNL A   1      47.492  26.902  25.461  1.00  0.00     0.124 S 
ATOM    102  O   UNL A   1      47.161  27.086  24.053  1.00  0.00    -0.237 OA
ATOM    103  O   UNL A   1      48.834  27.323  25.856  1.00  0.00    -0.237 OA
ATOM    104  O   UNL A   1      47.025  25.653  26.054  1.00  0.00    -0.744 OA
ENDBRANCH 100 101
ENDBRANCH  68  93
ENDBRANCH  42  43
ENDBRANCH  35  37
ENDBRANCH  34  35
ENDBRANCH  33  34
ENDBRANCH  32  33
ENDBRANCH  31  32
ENDBRANCH  30  31
ENDBRANCH  29  30
ENDBRANCH   1  29
TORSDOF 26
ENDMDL
MODEL 2
REMARK VINA RESULT:      -7.3      6.090     12.815
REMARK SMILES Cc1ccc(Nc2c(Cl)cc(Cl)cc2Cl)c(CC(=O)OCCOCCOCCOCCOC(=O)c2ccc(-c3c4nc(c(-c5c(F)cc(S(=O)(=O)[O-])cc5F)c5ccc([nH]5)c(-c5c(F)cc(S(=O)(=O)[O-])cc5F)c5nc(c(-c6c(F)cc(S(=O)(=O)[O-])cc6F)c6ccc3[nH]6)C=C5)C=C4)cc2)c1
REMARK SMILES IDX 26 1 25 2 24 3 23 4 22 5 21 6 20 7 18 8 19 9 17 10 16 11
REMARK SMILES IDX 1 12 2 13 3 14 101 15 4 16 5 17 6 18 7 20 8 21 14 22 9 23
REMARK SMILES IDX 10 24 13 25 15 26 11 27 12 28 27 29 28 30 29 31 30 32 31 33
REMARK SMILES IDX 32 34 33 35 34 36 35 37 36 38 100 39 37 40 99 41 38 42 39 43
REMARK SMILES IDX 40 44 93 45 41 46 98 47 92 48 94 49 42 50 97 51 91 52 90 53
REMARK SMILES IDX 43 55 77 56 56 57 76 58 57 59 60 60 75 61 95 62 58 63 59 64
REMARK SMILES IDX 74 66 96 67 61 68 44 69 45 70 54 71 46 72 47 73 53 74 55 75
REMARK SMILES IDX 48 76 49 77 50 78 51 79 52 80 78 81 79 82 88 83 80 84 81 85
REMARK SMILES IDX 87 86 89 87 82 88 83 89 84 90 85 91 86 92 62 93 63 94 72 95
REMARK SMILES IDX 64 96 65 97 71 98 73 99 66 100 67 101 68 102 69 103 70 104
REMARK H PARENT 6 19 94 54 60 65
REMARK Flexibility Score: inf
ROOT
ATOM      1  O   UNL A   1      46.656  43.243  24.004  1.00  0.00    -0.377 OA
ENDROOT
BRANCH   1   2
ATOM      2  C   UNL A   1      47.879  43.264  23.300  1.00  0.00     0.188 C 
BRANCH   2   3
ATOM      3  C   UNL A   1      47.678  42.749  21.870  1.00  0.00     0.188 C 
BRANCH   3   4
ATOM      4  O   UNL A   1      48.546  43.170  20.823  1.00  0.00    -0.376 OA
BRANCH   4   5
ATOM      5  C   UNL A   1      47.920  43.644  19.650  1.00  0.00     0.202 C 
BRANCH   5   6
ATOM      6  C   UNL A   1      47.701  45.153  19.729  1.00  0.00     0.261 C 
BRANCH   6   7
ATOM      7  O   UNL A   1      46.628  45.581  18.886  1.00  0.00    -0.463 OA
BRANCH   7   8
ATOM      8  C   UNL A   1      46.415  46.921  18.937  1.00  0.00     0.310 C 
ATOM      9  O   UNL A   1      47.231  47.799  18.687  1.00  0.00    -0.252 OA
BRANCH   8  10
ATOM     10  C   UNL A   1      45.037  47.231  19.431  1.00  0.00     0.160 C 
BRANCH  10  11
ATOM     11  C   UNL A   1      43.904  46.772  18.542  1.00  0.00    -0.013 A 
ATOM     12  C   UNL A   1      41.806  48.531  15.837  1.00  0.00     0.044 C 
ATOM     13  C   UNL A   1      42.341  47.484  16.769  1.00  0.00    -0.051 A 
ATOM     14  C   UNL A   1      41.841  46.189  16.739  1.00  0.00     0.005 A 
ATOM     15  C   UNL A   1      43.366  47.764  17.673  1.00  0.00     0.009 A 
ATOM     16  C   UNL A   1      42.330  45.213  17.624  1.00  0.00     0.026 A 
ATOM     17  C   UNL A   1      43.364  45.459  18.553  1.00  0.00     0.042 A 
BRANCH  17  18
ATOM     18  N   UNL A   1      43.813  44.445  19.469  1.00  0.00    -0.353 N 
ATOM     19  H   UNL A   1      44.611  43.945  19.182  1.00  0.00     0.167 HD
BRANCH  18  20
ATOM     20  C   UNL A   1      43.269  44.053  20.747  1.00  0.00     0.076 A 
ATOM     21  C   UNL A   1      43.931  44.262  21.969  1.00  0.00     0.067 A 
ATOM     22  C   UNL A   1      42.096  43.252  20.819  1.00  0.00     0.067 A 
ATOM     23  Cl  UNL A   1      45.088  45.537  22.173  1.00  0.00    -0.082 Cl
ATOM     24  C   UNL A   1      43.604  43.526  23.119  1.00  0.00     0.043 A 
ATOM     25  C   UNL A   1      41.783  42.483  21.951  1.00  0.00     0.043 A 
ATOM     26  Cl  UNL A   1      40.931  43.227  19.542  1.00  0.00    -0.082 Cl
ATOM     27  C   UNL A   1      42.565  42.604  23.089  1.00  0.00     0.044 A 
ATOM     28  Cl  UNL A   1      42.246  41.626  24.469  1.00  0.00    -0.084 Cl
ENDBRANCH  18  20
ENDBRANCH  17  18
ENDBRANCH  10  11
ENDBRANCH   8  10
ENDBRANCH   7   8
ENDBRANCH   6   7
ENDBRANCH   5   6
ENDBRANCH   4   5
ENDBRANCH   3   4
ENDBRANCH   2   3
ENDBRANCH   1   2
BRANCH   1  29
ATOM     29  C   UNL A   1      46.601  42.652  25.300  1.00  0.00     0.188 C 
BRANCH  29  30
ATOM     30  C   UNL A   1      45.876  41.338  25.500  1.00  0.00     0.188 C 
BRANCH  30  31
ATOM     31  O   UNL A   1      45.160  41.373  26.722  1.00  0.00    -0.376 OA
BRANCH  31  32
ATOM     32  C   UNL A   1      45.185  40.157  27.433  1.00  0.00     0.202 C 
BRANCH  32  33
ATOM     33  C   UNL A   1      44.608  39.003  26.620  1.00  0.00     0.261 C 
BRANCH  33  34
ATOM     34  O   UNL A   1      44.013  38.059  27.535  1.00  0.00    -0.460 OA
BRANCH  34  35
ATOM     35  C   UNL A   1      42.769  37.636  27.185  1.00  0.00     0.338 C 
ATOM     36  O   UNL A   1      42.004  38.288  26.471  1.00  0.00    -0.246 OA
BRANCH  35  37
ATOM     37  C   UNL A   1      42.450  36.329  27.824  1.00  0.00     0.060 A 
ATOM     38  C   UNL A   1      41.202  36.090  28.425  1.00  0.00     0.016 A 
ATOM     39  C   UNL A   1      43.450  35.380  27.972  1.00  0.00     0.016 A 
ATOM     40  C   UNL A   1      41.004  34.991  29.298  1.00  0.00     0.010 A 
ATOM     41  C   UNL A   1      43.250  34.315  28.839  1.00  0.00     0.010 A 
ATOM     42  C   UNL A   1      42.057  34.124  29.562  1.00  0.00    -0.014 A 
BRANCH  42  43
ATOM     43  C   UNL A   1      42.138  33.052  30.596  1.00  0.00     0.031 A 
ATOM     44  C   UNL A   1      42.391  33.500  32.012  1.00  0.00     0.074 A 
ATOM     45  C   UNL A   1      41.551  31.846  30.350  1.00  0.00     0.049 A 
ATOM     46  N   UNL A   1      42.203  32.791  33.071  1.00  0.00    -0.248 NA
ATOM     47  C   UNL A   1      42.877  34.844  32.347  1.00  0.00     0.031 C 
ATOM     48  C   UNL A   1      40.695  31.066  31.257  1.00  0.00     0.029 A 
ATOM     49  N   UNL A   1      41.438  31.115  29.178  1.00  0.00    -0.354 N 
ATOM     50  C   UNL A   1      42.225  33.627  34.178  1.00  0.00     0.074 A 
ATOM     51  C   UNL A   1      42.751  34.871  33.680  1.00  0.00     0.031 C 
ATOM     52  C   UNL A   1      40.133  30.023  30.625  1.00  0.00     0.029 A 
ATOM     53  C   UNL A   1      40.915  29.835  29.436  1.00  0.00     0.049 A 
ATOM     54  H   UNL A   1      41.688  31.448  28.285  1.00  0.00     0.167 HD
ATOM     55  C   UNL A   1      41.661  33.201  35.353  1.00  0.00     0.037 A 
ATOM     56  C   UNL A   1      41.761  28.770  29.285  1.00  0.00     0.037 A 
ATOM     57  C   UNL A   1      41.311  31.755  35.310  1.00  0.00     0.049 A 
ATOM     58  C   UNL A   1      42.333  28.283  30.633  1.00  0.00     0.074 A 
ATOM     59  C   UNL A   1      40.294  30.955  35.802  1.00  0.00     0.029 A 
ATOM     60  N   UNL A   1      42.114  30.881  34.578  1.00  0.00    -0.354 N 
ATOM     61  N   UNL A   1      41.978  28.761  31.808  1.00  0.00    -0.248 NA
ATOM     62  C   UNL A   1      43.328  27.225  30.790  1.00  0.00     0.031 C 
ATOM     63  C   UNL A   1      40.485  29.619  35.319  1.00  0.00     0.029 A 
ATOM     64  C   UNL A   1      41.657  29.585  34.583  1.00  0.00     0.049 A 
ATOM     65  H   UNL A   1      42.931  31.164  34.104  1.00  0.00     0.167 HD
ATOM     66  C   UNL A   1      42.690  28.191  32.822  1.00  0.00     0.074 A 
ATOM     67  C   UNL A   1      43.529  27.226  32.123  1.00  0.00     0.031 C 
ATOM     68  C   UNL A   1      42.569  28.537  34.144  1.00  0.00     0.037 A 
BRANCH  55  69
ATOM     69  C   UNL A   1      41.254  34.105  36.540  1.00  0.00     0.058 A 
ATOM     70  C   UNL A   1      40.112  34.937  36.438  1.00  0.00     0.135 A 
ATOM     71  C   UNL A   1      41.993  34.309  37.732  1.00  0.00     0.135 A 
ATOM     72  F   UNL A   1      39.255  34.808  35.417  1.00  0.00    -0.206 F 
ATOM     73  C   UNL A   1      39.784  35.935  37.369  1.00  0.00     0.059 A 
ATOM     74  C   UNL A   1      41.642  35.257  38.717  1.00  0.00     0.059 A 
ATOM     75  F   UNL A   1      43.115  33.627  37.992  1.00  0.00    -0.206 F 
ATOM     76  C   UNL A   1      40.556  36.095  38.510  1.00  0.00     0.060 A 
BRANCH  76  77
ATOM     77  S   UNL A   1      40.086  37.361  39.716  1.00  0.00     0.124 S 
ATOM     78  O   UNL A   1      39.975  36.589  40.948  1.00  0.00    -0.237 OA
ATOM     79  O   UNL A   1      41.210  38.291  39.653  1.00  0.00    -0.237 OA
ATOM     80  O   UNL A   1      38.827  37.883  39.190  1.00  0.00    -0.744 OA
ENDBRANCH  76  77
ENDBRANCH  55  69
BRANCH  56  81
ATOM     81  C   UNL A   1      42.326  28.843  27.881  1.00  0.00     0.058 A 
ATOM     82  C   UNL A   1      43.741  28.987  27.856  1.00  0.00     0.135 A 
ATOM     83  C   UNL A   1      41.767  28.038  26.868  1.00  0.00     0.135 A 
ATOM     84  F   UNL A   1      44.346  29.755  28.777  1.00  0.00    -0.206 F 
ATOM     85  C   UNL A   1      44.556  28.154  27.084  1.00  0.00     0.059 A 
ATOM     86  C   UNL A   1      42.574  27.198  26.080  1.00  0.00     0.059 A 
ATOM     87  F   UNL A   1      40.437  27.862  26.816  1.00  0.00    -0.206 F 
ATOM     88  C   UNL A   1      43.962  27.212  26.252  1.00  0.00     0.060 A 
BRANCH  88  89
ATOM     89  S   UNL A   1      45.002  25.865  25.612  1.00  0.00     0.124 S 
ATOM     90  O   UNL A   1      44.015  24.975  25.016  1.00  0.00    -0.237 OA
ATOM     91  O   UNL A   1      45.874  26.570  24.672  1.00  0.00    -0.237 OA
ATOM     92  O   UNL A   1      45.669  25.364  26.807  1.00  0.00    -0.744 OA
ENDBRANCH  88  89
ENDBRANCH  56  81
BRANCH  68  93
ATOM     93  C   UNL A   1      43.428  27.945  35.226  1.00  0.00     0.058 A 
ATOM     94  C   UNL A   1      44.722  28.397  35.492  1.00  0.00     0.135 A 
ATOM     95  C   UNL A   1      42.979  26.835  35.987  1.00  0.00     0.135 A 
ATOM     96  F   UNL A   1      45.293  29.336  34.723  1.00  0.00    -0.206 F 
ATOM     97  C   UNL A   1      45.462  27.894  36.557  1.00  0.00     0.059 A 
ATOM     98  C   UNL A   1      43.729  26.274  37.007  1.00  0.00     0.059 A 
ATOM     99  F   UNL A   1      41.778  26.276  35.793  1.00  0.00    -0.206 F 
ATOM    100  C   UNL A   1      44.943  26.854  37.327  1.00  0.00     0.060 A 
BRANCH 100 101
ATOM    101  S   UNL A   1      45.850  26.283  38.767  1.00  0.00     0.124 S 
ATOM    102  O   UNL A   1      46.587  27.477  39.167  1.00  0.00    -0.237 OA
ATOM    103  O   UNL A   1      44.758  25.887  39.652  1.00  0.00    -0.237 OA
ATOM    104  O   UNL A   1      46.667  25.191  38.249  1.00  0.00    -0.744 OA
ENDBRANCH 100 101
ENDBRANCH  68  93
ENDBRANCH  42  43
ENDBRANCH  35  37
ENDBRANCH  34  35
ENDBRANCH  33  34
ENDBRANCH  32  33
ENDBRANCH  31  32
ENDBRANCH  30  31
ENDBRANCH  29  30
ENDBRANCH   1  29
TORSDOF 26
ENDMDL
MODEL 3
REMARK VINA RESULT:      -7.3      4.906      9.978
REMARK SMILES Cc1ccc(Nc2c(Cl)cc(Cl)cc2Cl)c(CC(=O)OCCOCCOCCOCCOC(=O)c2ccc(-c3c4nc(c(-c5c(F)cc(S(=O)(=O)[O-])cc5F)c5ccc([nH]5)c(-c5c(F)cc(S(=O)(=O)[O-])cc5F)c5nc(c(-c6c(F)cc(S(=O)(=O)[O-])cc6F)c6ccc3[nH]6)C=C5)C=C4)cc2)c1
REMARK SMILES IDX 26 1 25 2 24 3 23 4 22 5 21 6 20 7 18 8 19 9 17 10 16 11
REMARK SMILES IDX 1 12 2 13 3 14 101 15 4 16 5 17 6 18 7 20 8 21 14 22 9 23
REMARK SMILES IDX 10 24 13 25 15 26 11 27 12 28 27 29 28 30 29 31 30 32 31 33
REMARK SMILES IDX 32 34 33 35 34 36 35 37 36 38 100 39 37 40 99 41 38 42 39 43
REMARK SMILES IDX 40 44 93 45 41 46 98 47 92 48 94 49 42 50 97 51 91 52 90 53
REMARK SMILES IDX 43 55 77 56 56 57 76 58 57 59 60 60 75 61 95 62 58 63 59 64
REMARK SMILES IDX 74 66 96 67 61 68 44 69 45 70 54 71 46 72 47 73 53 74 55 75
REMARK SMILES IDX 48 76 49 77 50 78 51 79 52 80 78 81 79 82 88 83 80 84 81 85
REMARK SMILES IDX 87 86 89 87 82 88 83 89 84 90 85 91 86 92 62 93 63 94 72 95
REMARK SMILES IDX 64 96 65 97 71 98 73 99 66 100 67 101 68 102 69 103 70 104
REMARK H PARENT 6 19 94 54 60 65
REMARK Flexibility Score: inf
ROOT
ATOM      1  O   UNL A   1      33.952  33.902  31.383  1.00  0.00    -0.377 OA
ENDROOT
BRANCH   1   2
ATOM      2  C   UNL A   1      34.757  35.052  31.517  1.00  0.00     0.188 C 
BRANCH   2   3
ATOM      3  C   UNL A   1      34.873  35.452  32.992  1.00  0.00     0.188 C 
BRANCH   3   4
ATOM      4  O   UNL A   1      35.994  35.040  33.767  1.00  0.00    -0.376 OA
BRANCH   4   5
ATOM      5  C   UNL A   1      35.768  33.975  34.667  1.00  0.00     0.202 C 
BRANCH   5   6
ATOM      6  C   UNL A   1      37.033  33.138  34.837  1.00  0.00     0.261 C 
BRANCH   6   7
ATOM      7  O   UNL A   1      37.931  33.718  35.786  1.00  0.00    -0.463 OA
BRANCH   7   8
ATOM      8  C   UNL A   1      37.753  33.241  37.046  1.00  0.00     0.310 C 
ATOM      9  O   UNL A   1      36.724  32.762  37.505  1.00  0.00    -0.252 OA
BRANCH   8  10
ATOM     10  C   UNL A   1      38.979  33.442  37.879  1.00  0.00     0.160 C 
BRANCH  10  11
ATOM     11  C   UNL A   1      38.801  34.302  39.109  1.00  0.00    -0.013 A 
ATOM     12  C   UNL A   1      39.323  38.053  39.793  1.00  0.00     0.044 C 
ATOM     13  C   UNL A   1      38.995  36.602  39.985  1.00  0.00    -0.051 A 
ATOM     14  C   UNL A   1      38.510  36.142  41.202  1.00  0.00     0.005 A 
ATOM     15  C   UNL A   1      39.138  35.677  38.951  1.00  0.00     0.009 A 
ATOM     16  C   UNL A   1      38.218  34.780  41.385  1.00  0.00     0.026 A 
ATOM     17  C   UNL A   1      38.353  33.815  40.365  1.00  0.00     0.042 A 
BRANCH  17  18
ATOM     18  N   UNL A   1      38.080  32.422  40.602  1.00  0.00    -0.353 N 
ATOM     19  H   UNL A   1      38.601  31.794  40.051  1.00  0.00     0.167 HD
BRANCH  18  20
ATOM     20  C   UNL A   1      37.157  31.809  41.526  1.00  0.00     0.076 A 
ATOM     21  C   UNL A   1      35.776  32.075  41.535  1.00  0.00     0.067 A 
ATOM     22  C   UNL A   1      37.634  31.032  42.617  1.00  0.00     0.067 A 
ATOM     23  Cl  UNL A   1      34.940  32.605  40.110  1.00  0.00    -0.082 Cl
ATOM     24  C   UNL A   1      34.983  31.814  42.663  1.00  0.00     0.043 A 
ATOM     25  C   UNL A   1      36.860  30.799  43.765  1.00  0.00     0.043 A 
ATOM     26  Cl  UNL A   1      39.177  30.253  42.574  1.00  0.00    -0.082 Cl
ATOM     27  C   UNL A   1      35.541  31.224  43.790  1.00  0.00     0.044 A 
ATOM     28  Cl  UNL A   1      34.588  31.012  45.208  1.00  0.00    -0.084 Cl
ENDBRANCH  18  20
ENDBRANCH  17  18
ENDBRANCH  10  11
ENDBRANCH   8  10
ENDBRANCH   7   8
ENDBRANCH   6   7
ENDBRANCH   5   6
ENDBRANCH   4   5
ENDBRANCH   3   4
ENDBRANCH   2   3
ENDBRANCH   1   2
BRANCH   1  29
ATOM     29  C   UNL A   1      34.453  32.772  30.673  1.00  0.00     0.188 C 
BRANCH  29  30
ATOM     30  C   UNL A   1      35.644  32.009  31.213  1.00  0.00     0.188 C 
BRANCH  30  31
ATOM     31  O   UNL A   1      35.956  30.938  30.340  1.00  0.00    -0.376 OA
BRANCH  31  32
ATOM     32  C   UNL A   1      36.683  31.325  29.197  1.00  0.00     0.202 C 
BRANCH  32  33
ATOM     33  C   UNL A   1      38.155  31.574  29.509  1.00  0.00     0.261 C 
BRANCH  33  34
ATOM     34  O   UNL A   1      38.415  32.986  29.366  1.00  0.00    -0.460 OA
BRANCH  34  35
ATOM     35  C   UNL A   1      38.815  33.608  30.506  1.00  0.00     0.338 C 
ATOM     36  O   UNL A   1      38.275  34.623  30.953  1.00  0.00    -0.246 OA
BRANCH  35  37
ATOM     37  C   UNL A   1      40.009  32.938  31.090  1.00  0.00     0.060 A 
ATOM     38  C   UNL A   1      41.211  32.819  30.371  1.00  0.00     0.016 A 
ATOM     39  C   UNL A   1      39.895  32.278  32.305  1.00  0.00     0.016 A 
ATOM     40  C   UNL A   1      42.229  31.922  30.781  1.00  0.00     0.010 A 
ATOM     41  C   UNL A   1      40.892  31.393  32.690  1.00  0.00     0.010 A 
ATOM     42  C   UNL A   1      42.046  31.149  31.922  1.00  0.00    -0.014 A 
BRANCH  42  43
ATOM     43  C   UNL A   1      42.870  30.006  32.408  1.00  0.00     0.031 A 
ATOM     44  C   UNL A   1      42.854  28.758  31.564  1.00  0.00     0.074 A 
ATOM     45  C   UNL A   1      43.908  30.249  33.258  1.00  0.00     0.049 A 
ATOM     46  N   UNL A   1      43.702  27.790  31.634  1.00  0.00    -0.248 NA
ATOM     47  C   UNL A   1      41.848  28.512  30.523  1.00  0.00     0.031 C 
ATOM     48  C   UNL A   1      45.275  29.709  33.179  1.00  0.00     0.029 A 
ATOM     49  N   UNL A   1      44.040  31.164  34.290  1.00  0.00    -0.354 N 
ATOM     50  C   UNL A   1      43.567  26.994  30.506  1.00  0.00     0.074 A 
ATOM     51  C   UNL A   1      42.332  27.428  29.905  1.00  0.00     0.031 C 
ATOM     52  C   UNL A   1      46.089  30.306  34.064  1.00  0.00     0.029 A 
ATOM     53  C   UNL A   1      45.219  30.927  35.021  1.00  0.00     0.049 A 
ATOM     54  H   UNL A   1      43.395  31.884  34.484  1.00  0.00     0.167 HD
ATOM     55  C   UNL A   1      44.593  26.159  30.146  1.00  0.00     0.037 A 
ATOM     56  C   UNL A   1      45.082  30.449  36.295  1.00  0.00     0.037 A 
ATOM     57  C   UNL A   1      45.635  26.068  31.204  1.00  0.00     0.049 A 
ATOM     58  C   UNL A   1      45.298  28.924  36.373  1.00  0.00     0.074 A 
ATOM     59  C   UNL A   1      47.014  25.958  31.247  1.00  0.00     0.029 A 
ATOM     60  N   UNL A   1      45.254  26.149  32.544  1.00  0.00    -0.354 N 
ATOM     61  N   UNL A   1      45.672  28.173  35.357  1.00  0.00    -0.248 NA
ATOM     62  C   UNL A   1      45.132  28.112  37.576  1.00  0.00     0.031 C 
ATOM     63  C   UNL A   1      47.438  26.017  32.614  1.00  0.00     0.029 A 
ATOM     64  C   UNL A   1      46.314  26.098  33.417  1.00  0.00     0.049 A 
ATOM     65  H   UNL A   1      44.316  26.234  32.836  1.00  0.00     0.167 HD
ATOM     66  C   UNL A   1      45.723  26.853  35.696  1.00  0.00     0.074 A 
ATOM     67  C   UNL A   1      45.374  26.870  37.110  1.00  0.00     0.031 C 
ATOM     68  C   UNL A   1      46.029  25.840  34.822  1.00  0.00     0.037 A 
BRANCH  55  69
ATOM     69  C   UNL A   1      44.782  25.508  28.755  1.00  0.00     0.058 A 
ATOM     70  C   UNL A   1      44.333  24.184  28.527  1.00  0.00     0.135 A 
ATOM     71  C   UNL A   1      45.501  26.054  27.663  1.00  0.00     0.135 A 
ATOM     72  F   UNL A   1      43.562  23.554  29.421  1.00  0.00    -0.206 F 
ATOM     73  C   UNL A   1      44.641  23.440  27.377  1.00  0.00     0.059 A 
ATOM     74  C   UNL A   1      45.762  25.349  26.468  1.00  0.00     0.059 A 
ATOM     75  F   UNL A   1      46.021  27.287  27.706  1.00  0.00    -0.206 F 
ATOM     76  C   UNL A   1      45.362  24.027  26.348  1.00  0.00     0.060 A 
BRANCH  76  77
ATOM     77  S   UNL A   1      45.710  23.059  24.858  1.00  0.00     0.124 S 
ATOM     78  O   UNL A   1      44.374  22.832  24.316  1.00  0.00    -0.237 OA
ATOM     79  O   UNL A   1      46.559  23.961  24.085  1.00  0.00    -0.237 OA
ATOM     80  O   UNL A   1      46.386  21.870  25.373  1.00  0.00    -0.744 OA
ENDBRANCH  76  77
ENDBRANCH  55  69
BRANCH  56  81
ATOM     81  C   UNL A   1      44.176  31.411  37.039  1.00  0.00     0.058 A 
ATOM     82  C   UNL A   1      44.751  32.699  37.212  1.00  0.00     0.135 A 
ATOM     83  C   UNL A   1      42.788  31.378  36.797  1.00  0.00     0.135 A 
ATOM     84  F   UNL A   1      46.066  32.810  37.467  1.00  0.00    -0.206 F 
ATOM     85  C   UNL A   1      44.068  33.868  36.865  1.00  0.00     0.059 A 
ATOM     86  C   UNL A   1      42.084  32.546  36.450  1.00  0.00     0.059 A 
ATOM     87  F   UNL A   1      42.167  30.199  36.634  1.00  0.00    -0.206 F 
ATOM     88  C   UNL A   1      42.755  33.773  36.415  1.00  0.00     0.060 A 
BRANCH  88  89
ATOM     89  S   UNL A   1      42.043  35.210  35.558  1.00  0.00     0.124 S 
ATOM     90  O   UNL A   1      41.663  36.071  36.670  1.00  0.00    -0.237 OA
ATOM     91  O   UNL A   1      43.169  35.674  34.748  1.00  0.00    -0.237 OA
ATOM     92  O   UNL A   1      40.942  34.631  34.799  1.00  0.00    -0.744 OA
ENDBRANCH  88  89
ENDBRANCH  56  81
BRANCH  68  93
ATOM     93  C   UNL A   1      45.996  24.388  35.211  1.00  0.00     0.058 A 
ATOM     94  C   UNL A   1      44.828  23.625  35.175  1.00  0.00     0.135 A 
ATOM     95  C   UNL A   1      47.157  23.741  35.707  1.00  0.00     0.135 A 
ATOM     96  F   UNL A   1      43.649  24.188  34.869  1.00  0.00    -0.206 F 
ATOM     97  C   UNL A   1      44.842  22.262  35.452  1.00  0.00     0.059 A 
ATOM     98  C   UNL A   1      47.176  22.401  36.056  1.00  0.00     0.059 A 
ATOM     99  F   UNL A   1      48.328  24.378  35.840  1.00  0.00    -0.206 F 
ATOM    100  C   UNL A   1      46.028  21.654  35.862  1.00  0.00     0.060 A 
BRANCH 100 101
ATOM    101  S   UNL A   1      46.070  19.876  36.110  1.00  0.00     0.124 S 
ATOM    102  O   UNL A   1      45.671  19.745  37.507  1.00  0.00    -0.237 OA
ATOM    103  O   UNL A   1      45.087  19.430  35.127  1.00  0.00    -0.237 OA
ATOM    104  O   UNL A   1      47.455  19.521  35.821  1.00  0.00    -0.744 OA
ENDBRANCH 100 101
ENDBRANCH  68  93
ENDBRANCH  42  43
ENDBRANCH  35  37
ENDBRANCH  34  35
ENDBRANCH  33  34
ENDBRANCH  32  33
ENDBRANCH  31  32
ENDBRANCH  30  31
ENDBRANCH  29  30
ENDBRANCH   1  29
TORSDOF 26
ENDMDL
