MODEL 1
REMARK VINA RESULT:     -10.0      0.000      0.000
REMARK SMILES CCn1ncc(Br)c1C(=O)N[C@H]1C(=O)N2C(C(=O)OCCOCCOCCOCCOC(=O)c3ccc(-c4c5nc(c(-c6c(F)cc(S(=O)(=O)[O-])cc6F)c6ccc([nH]6)c(-c6c(F)cc(S(=O)(=O)[O-])cc6F)c6nc(c(-c7c(F)cc(S(=O)(=O)[O-])cc7F)c7ccc4[nH]7)C=C6)C=C5)cc3)=C(C)CS[C@H]12
REMARK SMILES IDX 25 1 24 2 23 3 22 4 21 5 20 6 19 7 17 8 18 9 16 10 12 11
REMARK SMILES IDX 13 12 104 13 14 14 15 15 103 16 102 17 100 18 101 19 11 20
REMARK SMILES IDX 9 21 10 22 8 24 3 25 4 26 5 27 6 28 7 29 2 30 1 31 26 32
REMARK SMILES IDX 27 33 28 34 29 35 30 36 31 37 32 38 33 39 34 40 35 41 99 42
REMARK SMILES IDX 36 43 98 44 37 45 38 46 39 47 92 48 40 49 97 50 91 51 93 52
REMARK SMILES IDX 41 53 96 54 90 55 89 56 42 58 76 59 55 60 75 61 56 62 59 63
REMARK SMILES IDX 74 64 94 65 57 66 58 67 73 69 95 70 60 71 43 72 44 73 53 74
REMARK SMILES IDX 45 75 46 76 52 77 54 78 47 79 48 80 49 81 50 82 51 83 77 84
REMARK SMILES IDX 78 85 87 86 79 87 80 88 86 89 88 90 81 91 82 92 83 93 84 94
REMARK SMILES IDX 85 95 61 96 62 97 71 98 63 99 64 100 70 101 72 102 65 103
REMARK SMILES IDX 66 104 67 105 68 106 69 107
REMARK H PARENT 11 23 93 57 59 68
REMARK Flexibility Score: inf
ROOT
ATOM      1  O   UNL A   1      34.800  33.578  29.388  1.00  0.00    -0.377 OA
ENDROOT
BRANCH   1   2
ATOM      2  C   UNL A   1      35.145  32.549  28.466  1.00  0.00     0.188 C 
BRANCH   2   3
ATOM      3  C   UNL A   1      34.169  31.372  28.253  1.00  0.00     0.188 C 
BRANCH   3   4
ATOM      4  O   UNL A   1      34.351  30.795  26.973  1.00  0.00    -0.376 OA
BRANCH   4   5
ATOM      5  C   UNL A   1      34.353  29.389  26.922  1.00  0.00     0.202 C 
BRANCH   5   6
ATOM      6  C   UNL A   1      33.056  28.658  27.292  1.00  0.00     0.261 C 
BRANCH   6   7
ATOM      7  O   UNL A   1      32.907  27.308  26.821  1.00  0.00    -0.459 OA
BRANCH   7   8
ATOM      8  C   UNL A   1      31.719  26.908  26.327  1.00  0.00     0.355 C 
ATOM      9  O   UNL A   1      30.665  26.886  26.951  1.00  0.00    -0.244 OA
BRANCH   8  10
ATOM     10  C   UNL A   1      31.820  26.470  24.883  1.00  0.00     0.131 C 
ATOM     11  C   UNL A   1      32.233  23.202  24.140  1.00  0.00     0.206 C 
ATOM     12  C   UNL A   1      31.115  24.253  23.949  1.00  0.00     0.253 C 
ATOM     13  C   UNL A   1      33.095  24.514  24.258  1.00  0.00     0.181 C 
ATOM     14  O   UNL A   1      30.125  24.325  23.273  1.00  0.00    -0.272 OA
ATOM     15  N   UNL A   1      31.844  25.114  24.731  1.00  0.00    -0.289 N 
ATOM     16  S   UNL A   1      33.577  25.189  22.593  1.00  0.00    -0.129 SA
ATOM     17  C   UNL A   1      32.588  26.728  22.522  1.00  0.00     0.105 C 
ATOM     18  C   UNL A   1      32.139  27.283  23.853  1.00  0.00    -0.032 C 
ATOM     19  C   UNL A   1      32.137  28.793  23.871  1.00  0.00     0.043 C 
BRANCH  11  20
ATOM     20  N   UNL A   1      32.160  22.303  25.349  1.00  0.00    -0.336 N 
ATOM     21  C   UNL A   1      33.174  22.018  26.250  1.00  0.00     0.271 C 
ATOM     22  O   UNL A   1      32.935  22.245  27.436  1.00  0.00    -0.267 OA
ATOM     23  H   UNL A   1      31.292  21.869  25.518  1.00  0.00     0.164 HD
BRANCH  21  24
ATOM     24  C   UNL A   1      34.317  21.238  25.848  1.00  0.00     0.140 A 
ATOM     25  N   UNL A   1      34.355  19.974  25.291  1.00  0.00    -0.259 N 
ATOM     26  N   UNL A   1      35.575  19.627  24.817  1.00  0.00    -0.180 NA
ATOM     27  C   UNL A   1      36.321  20.716  24.995  1.00  0.00     0.151 A 
ATOM     28  C   UNL A   1      35.590  21.730  25.615  1.00  0.00     0.069 A 
ATOM     29  Br  UNL A   1      36.249  23.464  25.884  1.00  0.00    -0.047 Br
BRANCH  25  30
ATOM     30  C   UNL A   1      33.266  19.048  25.029  1.00  0.00     0.142 C 
ATOM     31  C   UNL A   1      32.567  19.303  23.701  1.00  0.00     0.029 C 
ENDBRANCH  25  30
ENDBRANCH  21  24
ENDBRANCH  11  20
ENDBRANCH   8  10
ENDBRANCH   7   8
ENDBRANCH   6   7
ENDBRANCH   5   6
ENDBRANCH   4   5
ENDBRANCH   3   4
ENDBRANCH   2   3
ENDBRANCH   1   2
BRANCH   1  32
ATOM     32  C   UNL A   1      34.380  34.849  28.899  1.00  0.00     0.188 C 
BRANCH  32  33
ATOM     33  C   UNL A   1      32.880  35.213  28.734  1.00  0.00     0.188 C 
BRANCH  33  34
ATOM     34  O   UNL A   1      32.413  36.258  29.567  1.00  0.00    -0.376 OA
BRANCH  34  35
ATOM     35  C   UNL A   1      33.285  37.158  30.217  1.00  0.00     0.202 C 
BRANCH  35  36
ATOM     36  C   UNL A   1      33.342  37.091  31.739  1.00  0.00     0.261 C 
BRANCH  36  37
ATOM     37  O   UNL A   1      34.275  36.149  32.222  1.00  0.00    -0.460 OA
BRANCH  37  38
ATOM     38  C   UNL A   1      33.706  34.994  32.609  1.00  0.00     0.338 C 
ATOM     39  O   UNL A   1      32.520  34.711  32.585  1.00  0.00    -0.246 OA
BRANCH  38  40
ATOM     40  C   UNL A   1      34.736  34.166  33.227  1.00  0.00     0.060 A 
ATOM     41  C   UNL A   1      35.865  34.848  33.672  1.00  0.00     0.016 A 
ATOM     42  C   UNL A   1      34.732  32.794  32.933  1.00  0.00     0.016 A 
ATOM     43  C   UNL A   1      37.071  34.213  33.534  1.00  0.00     0.010 A 
ATOM     44  C   UNL A   1      35.937  32.169  32.779  1.00  0.00     0.010 A 
ATOM     45  C   UNL A   1      37.085  32.926  32.981  1.00  0.00    -0.014 A 
BRANCH  45  46
ATOM     46  C   UNL A   1      38.369  32.350  32.683  1.00  0.00     0.031 A 
ATOM     47  C   UNL A   1      39.201  32.231  33.891  1.00  0.00     0.074 A 
ATOM     48  C   UNL A   1      38.713  31.933  31.454  1.00  0.00     0.049 A 
ATOM     49  N   UNL A   1      40.185  32.992  34.229  1.00  0.00    -0.248 NA
ATOM     50  C   UNL A   1      38.733  31.330  34.954  1.00  0.00     0.031 C 
ATOM     51  C   UNL A   1      37.878  31.766  30.264  1.00  0.00     0.029 A 
ATOM     52  N   UNL A   1      39.922  31.482  31.044  1.00  0.00    -0.354 N 
ATOM     53  C   UNL A   1      40.622  32.494  35.446  1.00  0.00     0.074 A 
ATOM     54  C   UNL A   1      39.568  31.648  35.942  1.00  0.00     0.031 C 
ATOM     55  C   UNL A   1      38.558  31.037  29.346  1.00  0.00     0.029 A 
ATOM     56  C   UNL A   1      39.910  30.810  29.830  1.00  0.00     0.049 A 
ATOM     57  H   UNL A   1      40.746  31.619  31.565  1.00  0.00     0.167 HD
ATOM     58  C   UNL A   1      41.927  32.593  35.809  1.00  0.00     0.037 A 
ATOM     59  C   UNL A   1      40.931  30.062  29.338  1.00  0.00     0.037 A 
ATOM     60  C   UNL A   1      42.622  33.572  35.010  1.00  0.00     0.049 A 
ATOM     61  C   UNL A   1      42.170  30.510  30.040  1.00  0.00     0.074 A 
ATOM     62  C   UNL A   1      42.456  34.926  34.790  1.00  0.00     0.029 A 
ATOM     63  N   UNL A   1      43.399  33.113  33.972  1.00  0.00    -0.354 N 
ATOM     64  N   UNL A   1      42.702  31.693  29.883  1.00  0.00    -0.248 NA
ATOM     65  C   UNL A   1      42.532  29.832  31.279  1.00  0.00     0.031 C 
ATOM     66  C   UNL A   1      42.737  35.116  33.405  1.00  0.00     0.029 A 
ATOM     67  C   UNL A   1      43.120  33.886  32.870  1.00  0.00     0.049 A 
ATOM     68  H   UNL A   1      44.039  32.367  34.011  1.00  0.00     0.167 HD
ATOM     69  C   UNL A   1      43.105  32.081  31.154  1.00  0.00     0.074 A 
ATOM     70  C   UNL A   1      43.045  30.863  31.959  1.00  0.00     0.031 C 
ATOM     71  C   UNL A   1      43.169  33.399  31.507  1.00  0.00     0.037 A 
BRANCH  58  72
ATOM     72  C   UNL A   1      42.635  31.537  36.611  1.00  0.00     0.058 A 
ATOM     73  C   UNL A   1      43.348  31.913  37.763  1.00  0.00     0.135 A 
ATOM     74  C   UNL A   1      42.859  30.219  36.151  1.00  0.00     0.135 A 
ATOM     75  F   UNL A   1      43.225  33.150  38.269  1.00  0.00    -0.206 F 
ATOM     76  C   UNL A   1      44.259  31.058  38.382  1.00  0.00     0.059 A 
ATOM     77  C   UNL A   1      43.712  29.331  36.788  1.00  0.00     0.059 A 
ATOM     78  F   UNL A   1      42.342  29.757  35.006  1.00  0.00    -0.206 F 
ATOM     79  C   UNL A   1      44.439  29.771  37.879  1.00  0.00     0.060 A 
BRANCH  79  80
ATOM     80  S   UNL A   1      45.678  28.697  38.618  1.00  0.00     0.124 S 
ATOM     81  O   UNL A   1      46.222  29.558  39.661  1.00  0.00    -0.237 OA
ATOM     82  O   UNL A   1      44.868  27.571  39.069  1.00  0.00    -0.237 OA
ATOM     83  O   UNL A   1      46.577  28.408  37.504  1.00  0.00    -0.744 OA
ENDBRANCH  79  80
ENDBRANCH  58  72
BRANCH  59  84
ATOM     84  C   UNL A   1      40.844  28.766  28.612  1.00  0.00     0.058 A 
ATOM     85  C   UNL A   1      41.670  28.500  27.504  1.00  0.00     0.135 A 
ATOM     86  C   UNL A   1      40.165  27.658  29.156  1.00  0.00     0.135 A 
ATOM     87  F   UNL A   1      42.372  29.490  26.932  1.00  0.00    -0.206 F 
ATOM     88  C   UNL A   1      41.853  27.205  27.002  1.00  0.00     0.059 A 
ATOM     89  C   UNL A   1      40.323  26.361  28.666  1.00  0.00     0.059 A 
ATOM     90  F   UNL A   1      39.393  27.782  30.246  1.00  0.00    -0.206 F 
ATOM     91  C   UNL A   1      41.191  26.137  27.606  1.00  0.00     0.060 A 
BRANCH  91  92
ATOM     92  S   UNL A   1      41.567  24.446  27.088  1.00  0.00     0.124 S 
ATOM     93  O   UNL A   1      42.561  24.041  28.075  1.00  0.00    -0.237 OA
ATOM     94  O   UNL A   1      40.266  23.794  27.188  1.00  0.00    -0.237 OA
ATOM     95  O   UNL A   1      42.072  24.613  25.727  1.00  0.00    -0.744 OA
ENDBRANCH  91  92
ENDBRANCH  59  84
BRANCH  71  96
ATOM     96  C   UNL A   1      43.068  34.436  30.414  1.00  0.00     0.058 A 
ATOM     97  C   UNL A   1      41.860  34.896  29.859  1.00  0.00     0.135 A 
ATOM     98  C   UNL A   1      44.242  35.096  30.019  1.00  0.00     0.135 A 
ATOM     99  F   UNL A   1      40.683  34.397  30.262  1.00  0.00    -0.206 F 
ATOM    100  C   UNL A   1      41.827  35.931  28.920  1.00  0.00     0.059 A 
ATOM    101  C   UNL A   1      44.230  36.150  29.110  1.00  0.00     0.059 A 
ATOM    102  F   UNL A   1      45.422  34.748  30.560  1.00  0.00    -0.206 F 
ATOM    103  C   UNL A   1      43.019  36.552  28.552  1.00  0.00     0.060 A 
BRANCH 103 104
ATOM    104  S   UNL A   1      42.975  37.931  27.385  1.00  0.00     0.124 S 
ATOM    105  O   UNL A   1      44.325  37.911  26.835  1.00  0.00    -0.237 OA
ATOM    106  O   UNL A   1      41.910  37.536  26.466  1.00  0.00    -0.237 OA
ATOM    107  O   UNL A   1      42.662  39.081  28.228  1.00  0.00    -0.744 OA
ENDBRANCH 103 104
ENDBRANCH  71  96
ENDBRANCH  45  46
ENDBRANCH  38  40
ENDBRANCH  37  38
ENDBRANCH  36  37
ENDBRANCH  35  36
ENDBRANCH  34  35
ENDBRANCH  33  34
ENDBRANCH  32  33
ENDBRANCH   1  32
TORSDOF 26
ENDMDL
MODEL 2
REMARK VINA RESULT:      -9.9      3.062      9.807
REMARK SMILES CCn1ncc(Br)c1C(=O)N[C@H]1C(=O)N2C(C(=O)OCCOCCOCCOCCOC(=O)c3ccc(-c4c5nc(c(-c6c(F)cc(S(=O)(=O)[O-])cc6F)c6ccc([nH]6)c(-c6c(F)cc(S(=O)(=O)[O-])cc6F)c6nc(c(-c7c(F)cc(S(=O)(=O)[O-])cc7F)c7ccc4[nH]7)C=C6)C=C5)cc3)=C(C)CS[C@H]12
REMARK SMILES IDX 25 1 24 2 23 3 22 4 21 5 20 6 19 7 17 8 18 9 16 10 12 11
REMARK SMILES IDX 13 12 104 13 14 14 15 15 103 16 102 17 100 18 101 19 11 20
REMARK SMILES IDX 9 21 10 22 8 24 3 25 4 26 5 27 6 28 7 29 2 30 1 31 26 32
REMARK SMILES IDX 27 33 28 34 29 35 30 36 31 37 32 38 33 39 34 40 35 41 99 42
REMARK SMILES IDX 36 43 98 44 37 45 38 46 39 47 92 48 40 49 97 50 91 51 93 52
REMARK SMILES IDX 41 53 96 54 90 55 89 56 42 58 76 59 55 60 75 61 56 62 59 63
REMARK SMILES IDX 74 64 94 65 57 66 58 67 73 69 95 70 60 71 43 72 44 73 53 74
REMARK SMILES IDX 45 75 46 76 52 77 54 78 47 79 48 80 49 81 50 82 51 83 77 84
REMARK SMILES IDX 78 85 87 86 79 87 80 88 86 89 88 90 81 91 82 92 83 93 84 94
REMARK SMILES IDX 85 95 61 96 62 97 71 98 63 99 64 100 70 101 72 102 65 103
REMARK SMILES IDX 66 104 67 105 68 106 69 107
REMARK H PARENT 11 23 93 57 59 68
REMARK Flexibility Score: inf
ROOT
ATOM      1  O   UNL A   1      34.688  21.086  26.554  1.00  0.00    -0.377 OA
ENDROOT
BRANCH   1   2
ATOM      2  C   UNL A   1      34.397  22.456  26.806  1.00  0.00     0.188 C 
BRANCH   2   3
ATOM      3  C   UNL A   1      35.312  23.543  26.199  1.00  0.00     0.188 C 
BRANCH   3   4
ATOM      4  O   UNL A   1      34.544  24.542  25.554  1.00  0.00    -0.376 OA
BRANCH   4   5
ATOM      5  C   UNL A   1      34.934  24.874  24.244  1.00  0.00     0.202 C 
BRANCH   5   6
ATOM      6  C   UNL A   1      35.133  23.727  23.245  1.00  0.00     0.261 C 
BRANCH   6   7
ATOM      7  O   UNL A   1      33.972  23.269  22.532  1.00  0.00    -0.459 OA
BRANCH   7   8
ATOM      8  C   UNL A   1      32.981  24.138  22.255  1.00  0.00     0.355 C 
ATOM      9  O   UNL A   1      32.946  24.887  21.287  1.00  0.00    -0.244 OA
BRANCH   8  10
ATOM     10  C   UNL A   1      31.884  24.102  23.296  1.00  0.00     0.131 C 
ATOM     11  C   UNL A   1      30.528  26.984  24.417  1.00  0.00     0.206 C 
ATOM     12  C   UNL A   1      30.044  25.781  23.576  1.00  0.00     0.253 C 
ATOM     13  C   UNL A   1      31.592  25.914  24.868  1.00  0.00     0.181 C 
ATOM     14  O   UNL A   1      28.971  25.357  23.241  1.00  0.00    -0.272 OA
ATOM     15  N   UNL A   1      31.338  25.327  23.550  1.00  0.00    -0.289 N 
ATOM     16  S   UNL A   1      30.951  24.817  26.226  1.00  0.00    -0.129 SA
ATOM     17  C   UNL A   1      30.794  23.213  25.359  1.00  0.00     0.105 C 
ATOM     18  C   UNL A   1      31.633  23.055  24.112  1.00  0.00    -0.032 C 
ATOM     19  C   UNL A   1      32.149  21.646  23.945  1.00  0.00     0.043 C 
BRANCH  11  20
ATOM     20  N   UNL A   1      31.032  28.203  23.684  1.00  0.00    -0.336 N 
ATOM     21  C   UNL A   1      32.037  29.070  24.082  1.00  0.00     0.271 C 
ATOM     22  O   UNL A   1      32.965  29.234  23.290  1.00  0.00    -0.267 OA
ATOM     23  H   UNL A   1      30.596  28.405  22.825  1.00  0.00     0.164 HD
BRANCH  21  24
ATOM     24  C   UNL A   1      31.854  29.937  25.218  1.00  0.00     0.140 A 
ATOM     25  N   UNL A   1      32.717  30.189  26.268  1.00  0.00    -0.259 N 
ATOM     26  N   UNL A   1      32.336  31.229  27.046  1.00  0.00    -0.180 NA
ATOM     27  C   UNL A   1      31.251  31.711  26.443  1.00  0.00     0.151 A 
ATOM     28  C   UNL A   1      30.923  30.957  25.315  1.00  0.00     0.069 A 
ATOM     29  Br  UNL A   1      29.560  31.424  24.118  1.00  0.00    -0.047 Br
BRANCH  25  30
ATOM     30  C   UNL A   1      34.011  29.595  26.561  1.00  0.00     0.142 C 
ATOM     31  C   UNL A   1      33.928  28.118  26.917  1.00  0.00     0.029 C 
ENDBRANCH  25  30
ENDBRANCH  21  24
ENDBRANCH  11  20
ENDBRANCH   8  10
ENDBRANCH   7   8
ENDBRANCH   6   7
ENDBRANCH   5   6
ENDBRANCH   4   5
ENDBRANCH   3   4
ENDBRANCH   2   3
ENDBRANCH   1   2
BRANCH   1  32
ATOM     32  C   UNL A   1      35.053  20.673  25.239  1.00  0.00     0.188 C 
BRANCH  32  33
ATOM     33  C   UNL A   1      36.058  19.518  24.988  1.00  0.00     0.188 C 
BRANCH  33  34
ATOM     34  O   UNL A   1      37.405  19.913  24.807  1.00  0.00    -0.376 OA
BRANCH  34  35
ATOM     35  C   UNL A   1      37.847  21.233  25.041  1.00  0.00     0.202 C 
BRANCH  35  36
ATOM     36  C   UNL A   1      39.050  21.407  25.961  1.00  0.00     0.261 C 
BRANCH  36  37
ATOM     37  O   UNL A   1      39.186  22.720  26.462  1.00  0.00    -0.460 OA
BRANCH  37  38
ATOM     38  C   UNL A   1      40.246  22.866  27.274  1.00  0.00     0.338 C 
ATOM     39  O   UNL A   1      40.666  22.065  28.093  1.00  0.00    -0.246 OA
BRANCH  38  40
ATOM     40  C   UNL A   1      40.739  24.232  27.135  1.00  0.00     0.060 A 
ATOM     41  C   UNL A   1      41.913  24.518  27.826  1.00  0.00     0.016 A 
ATOM     42  C   UNL A   1      39.824  25.217  26.732  1.00  0.00     0.016 A 
ATOM     43  C   UNL A   1      42.022  25.767  28.379  1.00  0.00     0.010 A 
ATOM     44  C   UNL A   1      39.927  26.456  27.299  1.00  0.00     0.010 A 
ATOM     45  C   UNL A   1      40.967  26.670  28.195  1.00  0.00    -0.014 A 
BRANCH  45  46
ATOM     46  C   UNL A   1      41.023  27.906  28.926  1.00  0.00     0.031 A 
ATOM     47  C   UNL A   1      42.131  28.758  28.465  1.00  0.00     0.074 A 
ATOM     48  C   UNL A   1      40.126  28.237  29.870  1.00  0.00     0.049 A 
ATOM     49  N   UNL A   1      43.262  28.943  29.057  1.00  0.00    -0.248 NA
ATOM     50  C   UNL A   1      42.078  29.256  27.083  1.00  0.00     0.031 C 
ATOM     51  C   UNL A   1      38.858  27.590  30.209  1.00  0.00     0.029 A 
ATOM     52  N   UNL A   1      40.147  29.315  30.688  1.00  0.00    -0.354 N 
ATOM     53  C   UNL A   1      43.968  29.796  28.225  1.00  0.00     0.074 A 
ATOM     54  C   UNL A   1      43.303  29.761  26.947  1.00  0.00     0.031 C 
ATOM     55  C   UNL A   1      38.136  28.422  30.998  1.00  0.00     0.029 A 
ATOM     56  C   UNL A   1      38.944  29.586  31.323  1.00  0.00     0.049 A 
ATOM     57  H   UNL A   1      40.953  29.865  30.822  1.00  0.00     0.167 HD
ATOM     58  C   UNL A   1      44.869  30.676  28.734  1.00  0.00     0.037 A 
ATOM     59  C   UNL A   1      38.648  30.734  31.985  1.00  0.00     0.037 A 
ATOM     60  C   UNL A   1      45.247  30.320  30.079  1.00  0.00     0.049 A 
ATOM     61  C   UNL A   1      39.949  31.376  32.337  1.00  0.00     0.074 A 
ATOM     62  C   UNL A   1      45.831  29.206  30.652  1.00  0.00     0.029 A 
ATOM     63  N   UNL A   1      44.651  31.006  31.112  1.00  0.00    -0.354 N 
ATOM     64  N   UNL A   1      40.795  30.870  33.195  1.00  0.00    -0.248 NA
ATOM     65  C   UNL A   1      40.528  32.310  31.379  1.00  0.00     0.031 C 
ATOM     66  C   UNL A   1      45.163  29.035  31.899  1.00  0.00     0.029 A 
ATOM     67  C   UNL A   1      44.257  30.084  32.052  1.00  0.00     0.049 A 
ATOM     68  H   UNL A   1      44.529  31.981  31.168  1.00  0.00     0.167 HD
ATOM     69  C   UNL A   1      42.048  31.078  32.633  1.00  0.00     0.074 A 
ATOM     70  C   UNL A   1      41.825  32.037  31.553  1.00  0.00     0.031 C 
ATOM     71  C   UNL A   1      43.094  30.240  32.900  1.00  0.00     0.037 A 
BRANCH  58  72
ATOM     72  C   UNL A   1      45.096  32.042  28.152  1.00  0.00     0.058 A 
ATOM     73  C   UNL A   1      46.377  32.387  27.686  1.00  0.00     0.135 A 
ATOM     74  C   UNL A   1      44.178  33.111  28.274  1.00  0.00     0.135 A 
ATOM     75  F   UNL A   1      47.330  31.450  27.556  1.00  0.00    -0.206 F 
ATOM     76  C   UNL A   1      46.736  33.705  27.412  1.00  0.00     0.059 A 
ATOM     77  C   UNL A   1      44.495  34.420  27.947  1.00  0.00     0.059 A 
ATOM     78  F   UNL A   1      42.961  32.958  28.811  1.00  0.00    -0.206 F 
ATOM     79  C   UNL A   1      45.788  34.716  27.556  1.00  0.00     0.060 A 
BRANCH  79  80
ATOM     80  S   UNL A   1      46.272  36.428  27.293  1.00  0.00     0.124 S 
ATOM     81  O   UNL A   1      47.271  36.288  26.240  1.00  0.00    -0.237 OA
ATOM     82  O   UNL A   1      45.007  37.040  26.902  1.00  0.00    -0.237 OA
ATOM     83  O   UNL A   1      46.781  36.836  28.599  1.00  0.00    -0.744 OA
ENDBRANCH  79  80
ENDBRANCH  58  72
BRANCH  59  84
ATOM     84  C   UNL A   1      37.360  31.479  31.986  1.00  0.00     0.058 A 
ATOM     85  C   UNL A   1      36.782  31.925  33.190  1.00  0.00     0.135 A 
ATOM     86  C   UNL A   1      36.816  32.019  30.804  1.00  0.00     0.135 A 
ATOM     87  F   UNL A   1      37.248  31.480  34.367  1.00  0.00    -0.206 F 
ATOM     88  C   UNL A   1      35.766  32.889  33.220  1.00  0.00     0.059 A 
ATOM     89  C   UNL A   1      35.797  32.972  30.808  1.00  0.00     0.059 A 
ATOM     90  F   UNL A   1      37.322  31.708  29.601  1.00  0.00    -0.206 F 
ATOM     91  C   UNL A   1      35.296  33.424  32.022  1.00  0.00     0.060 A 
BRANCH  91  92
ATOM     92  S   UNL A   1      34.123  34.800  32.059  1.00  0.00     0.124 S 
ATOM     93  O   UNL A   1      33.926  35.068  30.640  1.00  0.00    -0.237 OA
ATOM     94  O   UNL A   1      32.985  34.219  32.763  1.00  0.00    -0.237 OA
ATOM     95  O   UNL A   1      34.842  35.838  32.796  1.00  0.00    -0.744 OA
ENDBRANCH  91  92
ENDBRANCH  59  84
BRANCH  71  96
ATOM     96  C   UNL A   1      42.945  29.253  34.033  1.00  0.00     0.058 A 
ATOM     97  C   UNL A   1      42.310  28.002  33.923  1.00  0.00     0.135 A 
ATOM     98  C   UNL A   1      43.606  29.528  35.240  1.00  0.00     0.135 A 
ATOM     99  F   UNL A   1      41.749  27.613  32.770  1.00  0.00    -0.206 F 
ATOM    100  C   UNL A   1      42.292  27.089  34.982  1.00  0.00     0.059 A 
ATOM    101  C   UNL A   1      43.629  28.621  36.296  1.00  0.00     0.059 A 
ATOM    102  F   UNL A   1      44.286  30.677  35.386  1.00  0.00    -0.206 F 
ATOM    103  C   UNL A   1      42.956  27.409  36.166  1.00  0.00     0.060 A 
BRANCH 103 104
ATOM    104  S   UNL A   1      42.988  26.206  37.514  1.00  0.00     0.124 S 
ATOM    105  O   UNL A   1      41.580  26.122  37.884  1.00  0.00    -0.237 OA
ATOM    106  O   UNL A   1      43.546  25.020  36.869  1.00  0.00    -0.237 OA
ATOM    107  O   UNL A   1      43.858  26.830  38.507  1.00  0.00    -0.744 OA
ENDBRANCH 103 104
ENDBRANCH  71  96
ENDBRANCH  45  46
ENDBRANCH  38  40
ENDBRANCH  37  38
ENDBRANCH  36  37
ENDBRANCH  35  36
ENDBRANCH  34  35
ENDBRANCH  33  34
ENDBRANCH  32  33
ENDBRANCH   1  32
TORSDOF 26
ENDMDL
MODEL 3
REMARK VINA RESULT:      -9.7      3.263      9.746
REMARK SMILES CCn1ncc(Br)c1C(=O)N[C@H]1C(=O)N2C(C(=O)OCCOCCOCCOCCOC(=O)c3ccc(-c4c5nc(c(-c6c(F)cc(S(=O)(=O)[O-])cc6F)c6ccc([nH]6)c(-c6c(F)cc(S(=O)(=O)[O-])cc6F)c6nc(c(-c7c(F)cc(S(=O)(=O)[O-])cc7F)c7ccc4[nH]7)C=C6)C=C5)cc3)=C(C)CS[C@H]12
REMARK SMILES IDX 25 1 24 2 23 3 22 4 21 5 20 6 19 7 17 8 18 9 16 10 12 11
REMARK SMILES IDX 13 12 104 13 14 14 15 15 103 16 102 17 100 18 101 19 11 20
REMARK SMILES IDX 9 21 10 22 8 24 3 25 4 26 5 27 6 28 7 29 2 30 1 31 26 32
REMARK SMILES IDX 27 33 28 34 29 35 30 36 31 37 32 38 33 39 34 40 35 41 99 42
REMARK SMILES IDX 36 43 98 44 37 45 38 46 39 47 92 48 40 49 97 50 91 51 93 52
REMARK SMILES IDX 41 53 96 54 90 55 89 56 42 58 76 59 55 60 75 61 56 62 59 63
REMARK SMILES IDX 74 64 94 65 57 66 58 67 73 69 95 70 60 71 43 72 44 73 53 74
REMARK SMILES IDX 45 75 46 76 52 77 54 78 47 79 48 80 49 81 50 82 51 83 77 84
REMARK SMILES IDX 78 85 87 86 79 87 80 88 86 89 88 90 81 91 82 92 83 93 84 94
REMARK SMILES IDX 85 95 61 96 62 97 71 98 63 99 64 100 70 101 72 102 65 103
REMARK SMILES IDX 66 104 67 105 68 106 69 107
REMARK H PARENT 11 23 93 57 59 68
REMARK Flexibility Score: inf
ROOT
ATOM      1  O   UNL A   1      35.466  21.828  25.862  1.00  0.00    -0.377 OA
ENDROOT
BRANCH   1   2
ATOM      2  C   UNL A   1      34.320  21.290  26.513  1.00  0.00     0.188 C 
BRANCH   2   3
ATOM      3  C   UNL A   1      32.991  21.189  25.734  1.00  0.00     0.188 C 
BRANCH   3   4
ATOM      4  O   UNL A   1      31.980  21.954  26.364  1.00  0.00    -0.376 OA
BRANCH   4   5
ATOM      5  C   UNL A   1      31.744  23.232  25.827  1.00  0.00     0.202 C 
BRANCH   5   6
ATOM      6  C   UNL A   1      32.413  24.430  26.513  1.00  0.00     0.261 C 
BRANCH   6   7
ATOM      7  O   UNL A   1      32.656  25.596  25.707  1.00  0.00    -0.459 OA
BRANCH   7   8
ATOM      8  C   UNL A   1      33.838  25.728  25.075  1.00  0.00     0.355 C 
ATOM      9  O   UNL A   1      34.932  25.767  25.623  1.00  0.00    -0.244 OA
BRANCH   8  10
ATOM     10  C   UNL A   1      33.674  25.830  23.575  1.00  0.00     0.131 C 
ATOM     11  C   UNL A   1      32.156  28.529  22.228  1.00  0.00     0.206 C 
ATOM     12  C   UNL A   1      33.587  27.944  22.230  1.00  0.00     0.253 C 
ATOM     13  C   UNL A   1      31.820  27.037  22.601  1.00  0.00     0.181 C 
ATOM     14  O   UNL A   1      34.576  28.119  21.571  1.00  0.00    -0.272 OA
ATOM     15  N   UNL A   1      33.171  27.032  23.168  1.00  0.00    -0.289 N 
ATOM     16  S   UNL A   1      31.717  25.944  21.100  1.00  0.00    -0.129 SA
ATOM     17  C   UNL A   1      33.197  24.888  21.313  1.00  0.00     0.105 C 
ATOM     18  C   UNL A   1      33.733  24.785  22.721  1.00  0.00    -0.032 C 
ATOM     19  C   UNL A   1      34.279  23.411  23.026  1.00  0.00     0.043 C 
BRANCH  11  20
ATOM     20  N   UNL A   1      31.825  29.595  23.243  1.00  0.00    -0.336 N 
ATOM     21  C   UNL A   1      30.691  29.681  24.036  1.00  0.00     0.271 C 
ATOM     22  O   UNL A   1      30.874  29.750  25.251  1.00  0.00    -0.267 OA
ATOM     23  H   UNL A   1      32.491  30.311  23.356  1.00  0.00     0.164 HD
BRANCH  21  24
ATOM     24  C   UNL A   1      29.404  29.962  23.450  1.00  0.00     0.140 A 
ATOM     25  N   UNL A   1      28.349  29.102  23.215  1.00  0.00    -0.259 N 
ATOM     26  N   UNL A   1      27.202  29.732  22.868  1.00  0.00    -0.180 NA
ATOM     27  C   UNL A   1      27.498  31.028  22.960  1.00  0.00     0.151 A 
ATOM     28  C   UNL A   1      28.832  31.216  23.321  1.00  0.00     0.069 A 
ATOM     29  Br  UNL A   1      29.573  32.894  23.707  1.00  0.00    -0.047 Br
BRANCH  25  30
ATOM     30  C   UNL A   1      28.268  27.665  23.417  1.00  0.00     0.142 C 
ATOM     31  C   UNL A   1      26.925  27.211  23.971  1.00  0.00     0.029 C 
ENDBRANCH  25  30
ENDBRANCH  21  24
ENDBRANCH  11  20
ENDBRANCH   8  10
ENDBRANCH   7   8
ENDBRANCH   6   7
ENDBRANCH   5   6
ENDBRANCH   4   5
ENDBRANCH   3   4
ENDBRANCH   2   3
ENDBRANCH   1   2
BRANCH   1  32
ATOM     32  C   UNL A   1      36.270  20.986  25.040  1.00  0.00     0.188 C 
BRANCH  32  33
ATOM     33  C   UNL A   1      37.820  21.055  25.058  1.00  0.00     0.188 C 
BRANCH  33  34
ATOM     34  O   UNL A   1      38.386  21.732  26.165  1.00  0.00    -0.376 OA
BRANCH  34  35
ATOM     35  C   UNL A   1      38.769  23.090  26.111  1.00  0.00     0.202 C 
BRANCH  35  36
ATOM     36  C   UNL A   1      39.721  23.585  27.193  1.00  0.00     0.261 C 
BRANCH  36  37
ATOM     37  O   UNL A   1      40.920  22.844  27.263  1.00  0.00    -0.460 OA
BRANCH  37  38
ATOM     38  C   UNL A   1      41.744  23.075  26.226  1.00  0.00     0.338 C 
ATOM     39  O   UNL A   1      42.096  22.280  25.371  1.00  0.00    -0.246 OA
BRANCH  38  40
ATOM     40  C   UNL A   1      42.293  24.418  26.374  1.00  0.00     0.060 A 
ATOM     41  C   UNL A   1      43.041  24.635  27.528  1.00  0.00     0.016 A 
ATOM     42  C   UNL A   1      41.691  25.453  25.642  1.00  0.00     0.016 A 
ATOM     43  C   UNL A   1      42.932  25.867  28.118  1.00  0.00     0.010 A 
ATOM     44  C   UNL A   1      41.569  26.675  26.242  1.00  0.00     0.010 A 
ATOM     45  C   UNL A   1      42.103  26.822  27.516  1.00  0.00    -0.014 A 
BRANCH  45  46
ATOM     46  C   UNL A   1      41.867  28.040  28.241  1.00  0.00     0.031 A 
ATOM     47  C   UNL A   1      42.983  28.987  28.087  1.00  0.00     0.074 A 
ATOM     48  C   UNL A   1      40.732  28.276  28.920  1.00  0.00     0.049 A 
ATOM     49  N   UNL A   1      43.902  29.245  28.953  1.00  0.00    -0.248 NA
ATOM     50  C   UNL A   1      43.249  29.514  26.740  1.00  0.00     0.031 C 
ATOM     51  C   UNL A   1      39.477  27.524  28.916  1.00  0.00     0.029 A 
ATOM     52  N   UNL A   1      40.453  29.333  29.720  1.00  0.00    -0.354 N 
ATOM     53  C   UNL A   1      44.728  30.171  28.336  1.00  0.00     0.074 A 
ATOM     54  C   UNL A   1      44.422  30.117  26.930  1.00  0.00     0.031 C 
ATOM     55  C   UNL A   1      38.509  28.278  29.493  1.00  0.00     0.029 A 
ATOM     56  C   UNL A   1      39.108  29.492  30.021  1.00  0.00     0.049 A 
ATOM     57  H   UNL A   1      41.148  29.940  30.061  1.00  0.00     0.167 HD
ATOM     58  C   UNL A   1      45.391  31.105  29.065  1.00  0.00     0.037 A 
ATOM     59  C   UNL A   1      38.558  30.598  30.588  1.00  0.00     0.037 A 
ATOM     60  C   UNL A   1      45.436  30.747  30.461  1.00  0.00     0.049 A 
ATOM     61  C   UNL A   1      39.667  31.330  31.268  1.00  0.00     0.074 A 
ATOM     62  C   UNL A   1      45.941  29.668  31.162  1.00  0.00     0.029 A 
ATOM     63  N   UNL A   1      44.540  31.359  31.306  1.00  0.00    -0.354 N 
ATOM     64  N   UNL A   1      40.301  30.871  32.314  1.00  0.00    -0.248 NA
ATOM     65  C   UNL A   1      40.396  32.330  30.497  1.00  0.00     0.031 C 
ATOM     66  C   UNL A   1      44.990  29.414  32.192  1.00  0.00     0.029 A 
ATOM     67  C   UNL A   1      43.993  30.386  32.108  1.00  0.00     0.049 A 
ATOM     68  H   UNL A   1      44.328  32.320  31.332  1.00  0.00     0.167 HD
ATOM     69  C   UNL A   1      41.635  31.189  32.098  1.00  0.00     0.074 A 
ATOM     70  C   UNL A   1      41.621  32.155  31.001  1.00  0.00     0.031 C 
ATOM     71  C   UNL A   1      42.641  30.430  32.626  1.00  0.00     0.037 A 
BRANCH  58  72
ATOM     72  C   UNL A   1      45.649  32.500  28.567  1.00  0.00     0.058 A 
ATOM     73  C   UNL A   1      46.959  33.010  28.598  1.00  0.00     0.135 A 
ATOM     74  C   UNL A   1      44.628  33.443  28.309  1.00  0.00     0.135 A 
ATOM     75  F   UNL A   1      47.999  32.202  28.858  1.00  0.00    -0.206 F 
ATOM     76  C   UNL A   1      47.229  34.367  28.437  1.00  0.00     0.059 A 
ATOM     77  C   UNL A   1      44.880  34.787  28.083  1.00  0.00     0.059 A 
ATOM     78  F   UNL A   1      43.327  33.130  28.362  1.00  0.00    -0.206 F 
ATOM     79  C   UNL A   1      46.179  35.249  28.189  1.00  0.00     0.060 A 
BRANCH  79  80
ATOM     80  S   UNL A   1      46.512  37.012  28.071  1.00  0.00     0.124 S 
ATOM     81  O   UNL A   1      46.076  37.477  29.382  1.00  0.00    -0.237 OA
ATOM     82  O   UNL A   1      47.950  37.030  27.827  1.00  0.00    -0.237 OA
ATOM     83  O   UNL A   1      45.686  37.433  26.944  1.00  0.00    -0.744 OA
ENDBRANCH  79  80
ENDBRANCH  58  72
BRANCH  59  84
ATOM     84  C   UNL A   1      37.257  31.239  30.257  1.00  0.00     0.058 A 
ATOM     85  C   UNL A   1      36.526  31.940  31.234  1.00  0.00     0.135 A 
ATOM     86  C   UNL A   1      36.842  31.428  28.923  1.00  0.00     0.135 A 
ATOM     87  F   UNL A   1      36.860  31.838  32.530  1.00  0.00    -0.206 F 
ATOM     88  C   UNL A   1      35.485  32.817  30.904  1.00  0.00     0.059 A 
ATOM     89  C   UNL A   1      35.802  32.288  28.571  1.00  0.00     0.059 A 
ATOM     90  F   UNL A   1      37.499  30.854  27.904  1.00  0.00    -0.206 F 
ATOM     91  C   UNL A   1      35.145  33.001  29.564  1.00  0.00     0.060 A 
BRANCH  91  92
ATOM     92  S   UNL A   1      33.935  34.269  29.117  1.00  0.00     0.124 S 
ATOM     93  O   UNL A   1      33.305  34.552  30.401  1.00  0.00    -0.237 OA
ATOM     94  O   UNL A   1      34.781  35.327  28.574  1.00  0.00    -0.237 OA
ATOM     95  O   UNL A   1      33.084  33.595  28.139  1.00  0.00    -0.744 OA
ENDBRANCH  91  92
ENDBRANCH  59  84
BRANCH  71  96
ATOM     96  C   UNL A   1      42.285  29.406  33.677  1.00  0.00     0.058 A 
ATOM     97  C   UNL A   1      41.884  28.085  33.402  1.00  0.00     0.135 A 
ATOM     98  C   UNL A   1      42.504  29.737  35.022  1.00  0.00     0.135 A 
ATOM     99  F   UNL A   1      41.757  27.652  32.140  1.00  0.00    -0.206 F 
ATOM    100  C   UNL A   1      41.665  27.154  34.421  1.00  0.00     0.059 A 
ATOM    101  C   UNL A   1      42.325  28.817  36.052  1.00  0.00     0.059 A 
ATOM    102  F   UNL A   1      42.950  30.962  35.348  1.00  0.00    -0.206 F 
ATOM    103  C   UNL A   1      41.888  27.531  35.745  1.00  0.00     0.060 A 
BRANCH 103 104
ATOM    104  S   UNL A   1      41.666  26.313  37.061  1.00  0.00     0.124 S 
ATOM    105  O   UNL A   1      40.382  26.706  37.629  1.00  0.00    -0.237 OA
ATOM    106  O   UNL A   1      41.676  25.049  36.329  1.00  0.00    -0.237 OA
ATOM    107  O   UNL A   1      42.823  26.529  37.925  1.00  0.00    -0.744 OA
ENDBRANCH 103 104
ENDBRANCH  71  96
ENDBRANCH  45  46
ENDBRANCH  38  40
ENDBRANCH  37  38
ENDBRANCH  36  37
ENDBRANCH  35  36
ENDBRANCH  34  35
ENDBRANCH  33  34
ENDBRANCH  32  33
ENDBRANCH   1  32
TORSDOF 26
ENDMDL
