MODEL 1
REMARK VINA RESULT:      -9.2      0.000      0.000
REMARK SMILES O=C(N[C@H](C(=O)OCCOCCOCCOCCOC(=O)c1ccc(-c2c3nc(c(-c4c(F)cc(S(=O)(=O)[O-])cc4F)c4ccc([nH]4)c(-c4c(F)cc(S(=O)(=O)[O-])cc4F)c4nc(c(-c5c(F)cc(S(=O)(=O)[O-])cc5F)c5ccc2[nH]5)C=C4)C=C3)cc1)c1ccccc1F)c1ccc(C[NH+]2CCCCC2)cc1
REMARK SMILES IDX 12 1 11 2 10 3 9 4 8 5 7 6 5 7 6 8 4 9 3 10 1 11 2 12 95 14
REMARK SMILES IDX 96 15 107 16 97 17 106 18 98 19 99 20 100 21 101 22 105 23
REMARK SMILES IDX 102 25 104 26 103 27 88 28 89 29 93 30 90 31 92 32 94 33
REMARK SMILES IDX 91 34 13 35 14 36 15 37 16 38 17 39 18 40 19 41 20 42 21 43
REMARK SMILES IDX 22 44 23 45 87 46 24 47 86 48 25 49 26 50 27 51 80 52 28 53
REMARK SMILES IDX 85 54 79 55 81 56 29 57 84 58 78 59 77 60 30 62 64 63 43 64
REMARK SMILES IDX 63 65 44 66 47 67 62 68 82 69 45 70 46 71 61 73 83 74 48 75
REMARK SMILES IDX 31 76 32 77 41 78 33 79 34 80 40 81 42 82 35 83 36 84 37 85
REMARK SMILES IDX 38 86 39 87 65 88 66 89 75 90 67 91 68 92 74 93 76 94 69 95
REMARK SMILES IDX 70 96 71 97 72 98 73 99 49 100 50 101 59 102 51 103 52 104
REMARK SMILES IDX 58 105 60 106 53 107 54 108 55 109 56 110 57 111
REMARK H PARENT 3 13 100 24 81 61 47 72
REMARK Flexibility Score: inf
ROOT
ATOM      1  C   UNL A   1      31.187  25.949  23.999  1.00  0.00     0.188 C 
ENDROOT
BRANCH   1   2
ATOM      2  C   UNL A   1      30.509  25.181  25.159  1.00  0.00     0.188 C 
BRANCH   2   3
ATOM      3  O   UNL A   1      30.836  23.816  25.277  1.00  0.00    -0.376 OA
BRANCH   3   4
ATOM      4  C   UNL A   1      30.896  23.181  26.542  1.00  0.00     0.202 C 
BRANCH   4   5
ATOM      5  C   UNL A   1      31.984  23.456  27.595  1.00  0.00     0.261 C 
BRANCH   5   6
ATOM      6  O   UNL A   1      33.324  23.133  27.213  1.00  0.00    -0.461 OA
BRANCH   6   7
ATOM      7  C   UNL A   1      33.957  23.986  26.365  1.00  0.00     0.333 C 
ATOM      8  O   UNL A   1      33.901  25.211  26.470  1.00  0.00    -0.249 OA
BRANCH   7   9
ATOM      9  C   UNL A   1      34.958  23.296  25.407  1.00  0.00     0.226 C 
BRANCH   9  10
ATOM     10  N   UNL A   1      34.667  23.903  24.066  1.00  0.00    -0.335 N 
ATOM     11  O   UNL A   1      33.942  24.160  21.948  1.00  0.00    -0.269 OA
ATOM     12  C   UNL A   1      33.909  23.522  22.994  1.00  0.00     0.252 C 
ATOM     13  H   UNL A   1      35.122  24.766  23.928  1.00  0.00     0.165 HD
BRANCH  12  14
ATOM     14  C   UNL A   1      33.118  22.291  23.081  1.00  0.00     0.039 A 
ATOM     15  C   UNL A   1      33.142  21.541  24.251  1.00  0.00     0.014 A 
ATOM     16  C   UNL A   1      32.491  21.814  21.925  1.00  0.00     0.014 A 
ATOM     17  C   UNL A   1      32.705  20.226  24.210  1.00  0.00     0.010 A 
ATOM     18  C   UNL A   1      32.089  20.481  21.881  1.00  0.00     0.010 A 
ATOM     19  C   UNL A   1      32.267  19.656  23.002  1.00  0.00     0.006 A 
BRANCH  19  20
ATOM     20  C   UNL A   1      32.062  18.158  22.906  1.00  0.00     0.299 C 
BRANCH  20  21
ATOM     21  N   UNL A   1      32.737  17.334  23.928  1.00  0.00    -0.331 N 
ATOM     22  C   UNL A   1      31.817  16.506  24.717  1.00  0.00     0.262 C 
ATOM     23  C   UNL A   1      33.858  16.539  23.410  1.00  0.00     0.262 C 
ATOM     24  H   UNL A   1      33.140  18.021  24.565  1.00  0.00     0.348 HD
ATOM     25  C   UNL A   1      32.546  15.824  25.882  1.00  0.00     0.062 C 
ATOM     26  C   UNL A   1      34.651  15.881  24.537  1.00  0.00     0.062 C 
ATOM     27  C   UNL A   1      33.746  15.015  25.401  1.00  0.00     0.012 C 
ENDBRANCH  20  21
ENDBRANCH  19  20
ENDBRANCH  12  14
ENDBRANCH   9  10
BRANCH   9  28
ATOM     28  C   UNL A   1      36.439  23.256  25.795  1.00  0.00     0.021 A 
ATOM     29  C   UNL A   1      37.093  24.398  26.292  1.00  0.00     0.009 A 
ATOM     30  C   UNL A   1      37.256  22.144  25.550  1.00  0.00     0.129 A 
ATOM     31  C   UNL A   1      38.471  24.431  26.532  1.00  0.00     0.001 A 
ATOM     32  C   UNL A   1      38.622  22.141  25.851  1.00  0.00     0.039 A 
ATOM     33  F   UNL A   1      36.758  21.044  24.967  1.00  0.00    -0.207 F 
ATOM     34  C   UNL A   1      39.237  23.293  26.329  1.00  0.00     0.003 A 
ENDBRANCH   9  28
ENDBRANCH   7   9
ENDBRANCH   6   7
ENDBRANCH   5   6
ENDBRANCH   4   5
ENDBRANCH   3   4
ENDBRANCH   2   3
ENDBRANCH   1   2
BRANCH   1  35
ATOM     35  O   UNL A   1      30.416  26.502  22.949  1.00  0.00    -0.377 OA
BRANCH  35  36
ATOM     36  C   UNL A   1      29.907  27.823  23.068  1.00  0.00     0.188 C 
BRANCH  36  37
ATOM     37  C   UNL A   1      30.840  29.002  23.422  1.00  0.00     0.188 C 
BRANCH  37  38
ATOM     38  O   UNL A   1      30.969  29.278  24.807  1.00  0.00    -0.376 OA
BRANCH  38  39
ATOM     39  C   UNL A   1      32.277  29.302  25.357  1.00  0.00     0.202 C 
BRANCH  39  40
ATOM     40  C   UNL A   1      32.608  30.394  26.387  1.00  0.00     0.261 C 
BRANCH  40  41
ATOM     41  O   UNL A   1      33.683  30.108  27.295  1.00  0.00    -0.460 OA
BRANCH  41  42
ATOM     42  C   UNL A   1      34.343  31.163  27.815  1.00  0.00     0.338 C 
ATOM     43  O   UNL A   1      33.892  32.277  28.038  1.00  0.00    -0.246 OA
BRANCH  42  44
ATOM     44  C   UNL A   1      35.668  30.691  28.256  1.00  0.00     0.060 A 
ATOM     45  C   UNL A   1      35.758  29.503  28.996  1.00  0.00     0.016 A 
ATOM     46  C   UNL A   1      36.815  31.422  27.943  1.00  0.00     0.016 A 
ATOM     47  C   UNL A   1      36.996  29.068  29.465  1.00  0.00     0.010 A 
ATOM     48  C   UNL A   1      38.052  30.998  28.437  1.00  0.00     0.010 A 
ATOM     49  C   UNL A   1      38.139  29.844  29.236  1.00  0.00    -0.014 A 
BRANCH  49  50
ATOM     50  C   UNL A   1      39.363  29.586  30.030  1.00  0.00     0.031 A 
ATOM     51  C   UNL A   1      40.275  28.478  29.573  1.00  0.00     0.074 A 
ATOM     52  C   UNL A   1      39.678  30.330  31.105  1.00  0.00     0.049 A 
ATOM     53  N   UNL A   1      41.369  28.022  30.123  1.00  0.00    -0.248 NA
ATOM     54  C   UNL A   1      39.895  27.788  28.329  1.00  0.00     0.031 C 
ATOM     55  C   UNL A   1      38.903  31.459  31.611  1.00  0.00     0.029 A 
ATOM     56  N   UNL A   1      40.740  30.234  31.971  1.00  0.00    -0.354 N 
ATOM     57  C   UNL A   1      41.801  26.988  29.299  1.00  0.00     0.074 A 
ATOM     58  C   UNL A   1      40.834  26.862  28.232  1.00  0.00     0.031 C 
ATOM     59  C   UNL A   1      39.507  31.945  32.710  1.00  0.00     0.029 A 
ATOM     60  C   UNL A   1      40.691  31.138  33.004  1.00  0.00     0.049 A 
ATOM     61  H   UNL A   1      41.467  29.579  31.861  1.00  0.00     0.167 HD
ATOM     62  C   UNL A   1      42.910  26.221  29.416  1.00  0.00     0.037 A 
ATOM     63  C   UNL A   1      41.498  31.278  34.076  1.00  0.00     0.037 A 
ATOM     64  C   UNL A   1      43.867  26.355  30.482  1.00  0.00     0.049 A 
ATOM     65  C   UNL A   1      42.687  30.361  34.228  1.00  0.00     0.074 A 
ATOM     66  C   UNL A   1      45.030  25.634  30.687  1.00  0.00     0.029 A 
ATOM     67  N   UNL A   1      43.769  27.263  31.526  1.00  0.00    -0.354 N 
ATOM     68  N   UNL A   1      43.095  29.396  33.435  1.00  0.00    -0.248 NA
ATOM     69  C   UNL A   1      43.528  30.550  35.418  1.00  0.00     0.031 C 
ATOM     70  C   UNL A   1      45.603  26.065  31.888  1.00  0.00     0.029 A 
ATOM     71  C   UNL A   1      44.836  27.104  32.393  1.00  0.00     0.049 A 
ATOM     72  H   UNL A   1      43.048  27.924  31.634  1.00  0.00     0.167 HD
ATOM     73  C   UNL A   1      44.259  28.893  34.011  1.00  0.00     0.074 A 
ATOM     74  C   UNL A   1      44.492  29.664  35.215  1.00  0.00     0.031 C 
ATOM     75  C   UNL A   1      45.062  27.888  33.582  1.00  0.00     0.037 A 
BRANCH  62  76
ATOM     76  C   UNL A   1      43.129  25.148  28.385  1.00  0.00     0.058 A 
ATOM     77  C   UNL A   1      42.842  23.798  28.644  1.00  0.00     0.135 A 
ATOM     78  C   UNL A   1      43.607  25.480  27.106  1.00  0.00     0.135 A 
ATOM     79  F   UNL A   1      42.404  23.419  29.857  1.00  0.00    -0.206 F 
ATOM     80  C   UNL A   1      43.041  22.814  27.681  1.00  0.00     0.059 A 
ATOM     81  C   UNL A   1      43.784  24.517  26.118  1.00  0.00     0.059 A 
ATOM     82  F   UNL A   1      43.904  26.754  26.806  1.00  0.00    -0.206 F 
ATOM     83  C   UNL A   1      43.510  23.184  26.420  1.00  0.00     0.060 A 
BRANCH  83  84
ATOM     84  S   UNL A   1      43.749  21.897  25.177  1.00  0.00     0.124 S 
ATOM     85  O   UNL A   1      43.657  22.667  23.940  1.00  0.00    -0.237 OA
ATOM     86  O   UNL A   1      45.075  21.387  25.510  1.00  0.00    -0.237 OA
ATOM     87  O   UNL A   1      42.645  20.975  25.424  1.00  0.00    -0.744 OA
ENDBRANCH  83  84
ENDBRANCH  62  76
BRANCH  63  88
ATOM     88  C   UNL A   1      41.205  32.316  35.102  1.00  0.00     0.058 A 
ATOM     89  C   UNL A   1      40.243  32.103  36.101  1.00  0.00     0.135 A 
ATOM     90  C   UNL A   1      41.873  33.552  35.095  1.00  0.00     0.135 A 
ATOM     91  F   UNL A   1      39.566  30.945  36.144  1.00  0.00    -0.206 F 
ATOM     92  C   UNL A   1      39.941  33.081  37.044  1.00  0.00     0.059 A 
ATOM     93  C   UNL A   1      41.609  34.533  36.046  1.00  0.00     0.059 A 
ATOM     94  F   UNL A   1      42.808  33.807  34.167  1.00  0.00    -0.206 F 
ATOM     95  C   UNL A   1      40.633  34.293  37.011  1.00  0.00     0.060 A 
BRANCH  95  96
ATOM     96  S   UNL A   1      40.264  35.535  38.268  1.00  0.00     0.124 S 
ATOM     97  O   UNL A   1      39.279  34.841  39.088  1.00  0.00    -0.237 OA
ATOM     98  O   UNL A   1      41.572  35.747  38.880  1.00  0.00    -0.237 OA
ATOM     99  O   UNL A   1      39.756  36.660  37.489  1.00  0.00    -0.744 OA
ENDBRANCH  95  96
ENDBRANCH  63  88
BRANCH  75 100
ATOM    100  C   UNL A   1      46.303  27.591  34.385  1.00  0.00     0.058 A 
ATOM    101  C   UNL A   1      47.482  28.337  34.238  1.00  0.00     0.135 A 
ATOM    102  C   UNL A   1      46.286  26.579  35.361  1.00  0.00     0.135 A 
ATOM    103  F   UNL A   1      47.555  29.312  33.319  1.00  0.00    -0.206 F 
ATOM    104  C   UNL A   1      48.609  28.074  35.012  1.00  0.00     0.059 A 
ATOM    105  C   UNL A   1      47.389  26.322  36.167  1.00  0.00     0.059 A 
ATOM    106  F   UNL A   1      45.180  25.843  35.553  1.00  0.00    -0.206 F 
ATOM    107  C   UNL A   1      48.552  27.067  35.976  1.00  0.00     0.060 A 
BRANCH 107 108
ATOM    108  S   UNL A   1      50.010  26.760  36.994  1.00  0.00     0.124 S 
ATOM    109  O   UNL A   1      51.089  27.127  36.083  1.00  0.00    -0.237 OA
ATOM    110  O   UNL A   1      49.799  27.662  38.122  1.00  0.00    -0.237 OA
ATOM    111  O   UNL A   1      49.914  25.337  37.310  1.00  0.00    -0.744 OA
ENDBRANCH 107 108
ENDBRANCH  75 100
ENDBRANCH  49  50
ENDBRANCH  42  44
ENDBRANCH  41  42
ENDBRANCH  40  41
ENDBRANCH  39  40
ENDBRANCH  38  39
ENDBRANCH  37  38
ENDBRANCH  36  37
ENDBRANCH  35  36
ENDBRANCH   1  35
TORSDOF 28
ENDMDL
MODEL 2
REMARK VINA RESULT:      -8.6      6.027     11.421
REMARK SMILES O=C(N[C@H](C(=O)OCCOCCOCCOCCOC(=O)c1ccc(-c2c3nc(c(-c4c(F)cc(S(=O)(=O)[O-])cc4F)c4ccc([nH]4)c(-c4c(F)cc(S(=O)(=O)[O-])cc4F)c4nc(c(-c5c(F)cc(S(=O)(=O)[O-])cc5F)c5ccc2[nH]5)C=C4)C=C3)cc1)c1ccccc1F)c1ccc(C[NH+]2CCCCC2)cc1
REMARK SMILES IDX 12 1 11 2 10 3 9 4 8 5 7 6 5 7 6 8 4 9 3 10 1 11 2 12 95 14
REMARK SMILES IDX 96 15 107 16 97 17 106 18 98 19 99 20 100 21 101 22 105 23
REMARK SMILES IDX 102 25 104 26 103 27 88 28 89 29 93 30 90 31 92 32 94 33
REMARK SMILES IDX 91 34 13 35 14 36 15 37 16 38 17 39 18 40 19 41 20 42 21 43
REMARK SMILES IDX 22 44 23 45 87 46 24 47 86 48 25 49 26 50 27 51 80 52 28 53
REMARK SMILES IDX 85 54 79 55 81 56 29 57 84 58 78 59 77 60 30 62 64 63 43 64
REMARK SMILES IDX 63 65 44 66 47 67 62 68 82 69 45 70 46 71 61 73 83 74 48 75
REMARK SMILES IDX 31 76 32 77 41 78 33 79 34 80 40 81 42 82 35 83 36 84 37 85
REMARK SMILES IDX 38 86 39 87 65 88 66 89 75 90 67 91 68 92 74 93 76 94 69 95
REMARK SMILES IDX 70 96 71 97 72 98 73 99 49 100 50 101 59 102 51 103 52 104
REMARK SMILES IDX 58 105 60 106 53 107 54 108 55 109 56 110 57 111
REMARK H PARENT 3 13 100 24 81 61 47 72
REMARK Flexibility Score: inf
ROOT
ATOM      1  C   UNL A   1      45.833  24.826  28.280  1.00  0.00     0.188 C 
ENDROOT
BRANCH   1   2
ATOM      2  C   UNL A   1      44.807  25.089  27.152  1.00  0.00     0.188 C 
BRANCH   2   3
ATOM      3  O   UNL A   1      44.243  23.949  26.545  1.00  0.00    -0.376 OA
BRANCH   3   4
ATOM      4  C   UNL A   1      42.882  23.609  26.744  1.00  0.00     0.202 C 
BRANCH   4   5
ATOM      5  C   UNL A   1      42.085  23.946  28.016  1.00  0.00     0.261 C 
BRANCH   5   6
ATOM      6  O   UNL A   1      40.773  24.477  27.815  1.00  0.00    -0.461 OA
BRANCH   6   7
ATOM      7  C   UNL A   1      40.676  25.704  27.238  1.00  0.00     0.333 C 
ATOM      8  O   UNL A   1      40.185  25.893  26.126  1.00  0.00    -0.249 OA
BRANCH   7   9
ATOM      9  C   UNL A   1      41.002  26.877  28.195  1.00  0.00     0.226 C 
BRANCH   9  10
ATOM     10  N   UNL A   1      42.119  27.612  27.512  1.00  0.00    -0.335 N 
ATOM     11  O   UNL A   1      43.655  29.185  27.020  1.00  0.00    -0.269 OA
ATOM     12  C   UNL A   1      42.869  28.710  27.831  1.00  0.00     0.252 C 
ATOM     13  H   UNL A   1      42.366  27.216  26.645  1.00  0.00     0.165 HD
BRANCH  12  14
ATOM     14  C   UNL A   1      42.659  29.366  29.125  1.00  0.00     0.039 A 
ATOM     15  C   UNL A   1      42.831  28.640  30.298  1.00  0.00     0.014 A 
ATOM     16  C   UNL A   1      42.131  30.660  29.143  1.00  0.00     0.014 A 
ATOM     17  C   UNL A   1      42.291  29.136  31.475  1.00  0.00     0.010 A 
ATOM     18  C   UNL A   1      41.558  31.136  30.320  1.00  0.00     0.010 A 
ATOM     19  C   UNL A   1      41.565  30.341  31.476  1.00  0.00     0.006 A 
BRANCH  19  20
ATOM     20  C   UNL A   1      40.749  30.727  32.692  1.00  0.00     0.299 C 
BRANCH  20  21
ATOM     21  N   UNL A   1      39.330  31.060  32.455  1.00  0.00    -0.331 N 
ATOM     22  C   UNL A   1      38.400  30.305  33.302  1.00  0.00     0.262 C 
ATOM     23  C   UNL A   1      39.040  32.500  32.497  1.00  0.00     0.262 C 
ATOM     24  H   UNL A   1      39.169  30.761  31.494  1.00  0.00     0.348 HD
ATOM     25  C   UNL A   1      36.945  30.548  32.880  1.00  0.00     0.062 C 
ATOM     26  C   UNL A   1      37.617  32.801  32.033  1.00  0.00     0.062 C 
ATOM     27  C   UNL A   1      36.601  32.034  32.868  1.00  0.00     0.012 C 
ENDBRANCH  20  21
ENDBRANCH  19  20
ENDBRANCH  12  14
ENDBRANCH   9  10
BRANCH   9  28
ATOM     28  C   UNL A   1      39.855  27.759  28.695  1.00  0.00     0.021 A 
ATOM     29  C   UNL A   1      39.250  27.530  29.944  1.00  0.00     0.009 A 
ATOM     30  C   UNL A   1      39.250  28.740  27.896  1.00  0.00     0.129 A 
ATOM     31  C   UNL A   1      38.118  28.232  30.373  1.00  0.00     0.001 A 
ATOM     32  C   UNL A   1      38.161  29.498  28.341  1.00  0.00     0.039 A 
ATOM     33  F   UNL A   1      39.672  28.957  26.642  1.00  0.00    -0.207 F 
ATOM     34  C   UNL A   1      37.582  29.233  29.577  1.00  0.00     0.003 A 
ENDBRANCH   9  28
ENDBRANCH   7   9
ENDBRANCH   6   7
ENDBRANCH   5   6
ENDBRANCH   4   5
ENDBRANCH   3   4
ENDBRANCH   2   3
ENDBRANCH   1   2
BRANCH   1  35
ATOM     35  O   UNL A   1      47.196  24.592  27.980  1.00  0.00    -0.377 OA
BRANCH  35  36
ATOM     36  C   UNL A   1      48.204  25.328  28.657  1.00  0.00     0.188 C 
BRANCH  36  37
ATOM     37  C   UNL A   1      49.690  24.916  28.551  1.00  0.00     0.188 C 
BRANCH  37  38
ATOM     38  O   UNL A   1      50.100  24.448  27.278  1.00  0.00    -0.376 OA
BRANCH  38  39
ATOM     39  C   UNL A   1      51.072  25.206  26.576  1.00  0.00     0.202 C 
BRANCH  39  40
ATOM     40  C   UNL A   1      50.581  26.218  25.527  1.00  0.00     0.261 C 
BRANCH  40  41
ATOM     41  O   UNL A   1      50.376  27.562  25.986  1.00  0.00    -0.460 OA
BRANCH  41  42
ATOM     42  C   UNL A   1      49.205  28.148  25.666  1.00  0.00     0.338 C 
ATOM     43  O   UNL A   1      48.723  28.269  24.548  1.00  0.00    -0.246 OA
BRANCH  42  44
ATOM     44  C   UNL A   1      48.498  28.455  26.922  1.00  0.00     0.060 A 
ATOM     45  C   UNL A   1      47.116  28.231  27.000  1.00  0.00     0.016 A 
ATOM     46  C   UNL A   1      49.197  28.968  28.016  1.00  0.00     0.016 A 
ATOM     47  C   UNL A   1      46.421  28.563  28.161  1.00  0.00     0.010 A 
ATOM     48  C   UNL A   1      48.495  29.326  29.169  1.00  0.00     0.010 A 
ATOM     49  C   UNL A   1      47.099  29.165  29.229  1.00  0.00    -0.014 A 
BRANCH  49  50
ATOM     50  C   UNL A   1      46.322  29.845  30.292  1.00  0.00     0.031 A 
ATOM     51  C   UNL A   1      46.123  29.113  31.593  1.00  0.00     0.074 A 
ATOM     52  C   UNL A   1      45.832  31.086  30.126  1.00  0.00     0.049 A 
ATOM     53  N   UNL A   1      45.441  29.466  32.649  1.00  0.00    -0.248 NA
ATOM     54  C   UNL A   1      46.783  27.801  31.714  1.00  0.00     0.031 C 
ATOM     55  C   UNL A   1      46.004  31.912  28.933  1.00  0.00     0.029 A 
ATOM     56  N   UNL A   1      45.079  31.864  30.970  1.00  0.00    -0.354 N 
ATOM     57  C   UNL A   1      45.580  28.418  33.553  1.00  0.00     0.074 A 
ATOM     58  C   UNL A   1      46.383  27.403  32.910  1.00  0.00     0.031 C 
ATOM     59  C   UNL A   1      45.360  33.079  29.116  1.00  0.00     0.029 A 
ATOM     60  C   UNL A   1      44.703  33.067  30.423  1.00  0.00     0.049 A 
ATOM     61  H   UNL A   1      44.832  31.586  31.882  1.00  0.00     0.167 HD
ATOM     62  C   UNL A   1      45.090  28.317  34.812  1.00  0.00     0.037 A 
ATOM     63  C   UNL A   1      43.899  34.032  30.914  1.00  0.00     0.037 A 
ATOM     64  C   UNL A   1      44.292  29.333  35.445  1.00  0.00     0.049 A 
ATOM     65  C   UNL A   1      43.301  33.864  32.289  1.00  0.00     0.074 A 
ATOM     66  C   UNL A   1      43.756  29.334  36.719  1.00  0.00     0.029 A 
ATOM     67  N   UNL A   1      43.908  30.525  34.848  1.00  0.00    -0.354 N 
ATOM     68  N   UNL A   1      43.451  32.877  33.142  1.00  0.00    -0.248 NA
ATOM     69  C   UNL A   1      42.426  34.942  32.772  1.00  0.00     0.031 C 
ATOM     70  C   UNL A   1      42.997  30.498  36.873  1.00  0.00     0.029 A 
ATOM     71  C   UNL A   1      43.119  31.257  35.719  1.00  0.00     0.049 A 
ATOM     72  H   UNL A   1      44.160  30.809  33.940  1.00  0.00     0.167 HD
ATOM     73  C   UNL A   1      42.722  33.234  34.274  1.00  0.00     0.074 A 
ATOM     74  C   UNL A   1      42.137  34.530  33.998  1.00  0.00     0.031 C 
ATOM     75  C   UNL A   1      42.554  32.554  35.435  1.00  0.00     0.037 A 
BRANCH  62  76
ATOM     76  C   UNL A   1      45.377  27.051  35.573  1.00  0.00     0.058 A 
ATOM     77  C   UNL A   1      44.520  25.940  35.517  1.00  0.00     0.135 A 
ATOM     78  C   UNL A   1      46.543  26.939  36.348  1.00  0.00     0.135 A 
ATOM     79  F   UNL A   1      43.379  25.999  34.810  1.00  0.00    -0.206 F 
ATOM     80  C   UNL A   1      44.798  24.771  36.218  1.00  0.00     0.059 A 
ATOM     81  C   UNL A   1      46.856  25.769  37.033  1.00  0.00     0.059 A 
ATOM     82  F   UNL A   1      47.393  27.973  36.443  1.00  0.00    -0.206 F 
ATOM     83  C   UNL A   1      45.970  24.695  36.972  1.00  0.00     0.060 A 
BRANCH  83  84
ATOM     84  S   UNL A   1      46.323  23.166  37.865  1.00  0.00     0.124 S 
ATOM     85  O   UNL A   1      45.660  22.177  37.020  1.00  0.00    -0.237 OA
ATOM     86  O   UNL A   1      47.781  23.132  37.857  1.00  0.00    -0.237 OA
ATOM     87  O   UNL A   1      45.710  23.385  39.171  1.00  0.00    -0.744 OA
ENDBRANCH  83  84
ENDBRANCH  62  76
BRANCH  63  88
ATOM     88  C   UNL A   1      43.596  35.240  30.097  1.00  0.00     0.058 A 
ATOM     89  C   UNL A   1      44.429  36.368  30.129  1.00  0.00     0.135 A 
ATOM     90  C   UNL A   1      42.456  35.296  29.278  1.00  0.00     0.135 A 
ATOM     91  F   UNL A   1      45.523  36.373  30.906  1.00  0.00    -0.206 F 
ATOM     92  C   UNL A   1      44.136  37.513  29.393  1.00  0.00     0.059 A 
ATOM     93  C   UNL A   1      42.159  36.418  28.511  1.00  0.00     0.059 A 
ATOM     94  F   UNL A   1      41.628  34.242  29.204  1.00  0.00    -0.206 F 
ATOM     95  C   UNL A   1      43.000  37.527  28.583  1.00  0.00     0.060 A 
BRANCH  95  96
ATOM     96  S   UNL A   1      42.656  39.000  27.599  1.00  0.00     0.124 S 
ATOM     97  O   UNL A   1      41.874  38.445  26.500  1.00  0.00    -0.237 OA
ATOM     98  O   UNL A   1      41.924  39.836  28.546  1.00  0.00    -0.237 OA
ATOM     99  O   UNL A   1      43.986  39.486  27.245  1.00  0.00    -0.744 OA
ENDBRANCH  95  96
ENDBRANCH  63  88
BRANCH  75 100
ATOM    100  C   UNL A   1      41.749  33.213  36.524  1.00  0.00     0.058 A 
ATOM    101  C   UNL A   1      42.320  34.125  37.425  1.00  0.00     0.135 A 
ATOM    102  C   UNL A   1      40.368  32.972  36.625  1.00  0.00     0.135 A 
ATOM    103  F   UNL A   1      43.635  34.390  37.376  1.00  0.00    -0.206 F 
ATOM    104  C   UNL A   1      41.556  34.754  38.404  1.00  0.00     0.059 A 
ATOM    105  C   UNL A   1      39.579  33.615  37.574  1.00  0.00     0.059 A 
ATOM    106  F   UNL A   1      39.766  32.120  35.781  1.00  0.00    -0.206 F 
ATOM    107  C   UNL A   1      40.186  34.495  38.468  1.00  0.00     0.060 A 
BRANCH 107 108
ATOM    108  S   UNL A   1      39.203  35.344  39.721  1.00  0.00     0.124 S 
ATOM    109  O   UNL A   1      38.925  36.617  39.065  1.00  0.00    -0.237 OA
ATOM    110  O   UNL A   1      38.060  34.450  39.880  1.00  0.00    -0.237 OA
ATOM    111  O   UNL A   1      40.101  35.415  40.871  1.00  0.00    -0.744 OA
ENDBRANCH 107 108
ENDBRANCH  75 100
ENDBRANCH  49  50
ENDBRANCH  42  44
ENDBRANCH  41  42
ENDBRANCH  40  41
ENDBRANCH  39  40
ENDBRANCH  38  39
ENDBRANCH  37  38
ENDBRANCH  36  37
ENDBRANCH  35  36
ENDBRANCH   1  35
TORSDOF 28
ENDMDL
MODEL 3
REMARK VINA RESULT:      -8.6      6.524     11.565
REMARK SMILES O=C(N[C@H](C(=O)OCCOCCOCCOCCOC(=O)c1ccc(-c2c3nc(c(-c4c(F)cc(S(=O)(=O)[O-])cc4F)c4ccc([nH]4)c(-c4c(F)cc(S(=O)(=O)[O-])cc4F)c4nc(c(-c5c(F)cc(S(=O)(=O)[O-])cc5F)c5ccc2[nH]5)C=C4)C=C3)cc1)c1ccccc1F)c1ccc(C[NH+]2CCCCC2)cc1
REMARK SMILES IDX 12 1 11 2 10 3 9 4 8 5 7 6 5 7 6 8 4 9 3 10 1 11 2 12 95 14
REMARK SMILES IDX 96 15 107 16 97 17 106 18 98 19 99 20 100 21 101 22 105 23
REMARK SMILES IDX 102 25 104 26 103 27 88 28 89 29 93 30 90 31 92 32 94 33
REMARK SMILES IDX 91 34 13 35 14 36 15 37 16 38 17 39 18 40 19 41 20 42 21 43
REMARK SMILES IDX 22 44 23 45 87 46 24 47 86 48 25 49 26 50 27 51 80 52 28 53
REMARK SMILES IDX 85 54 79 55 81 56 29 57 84 58 78 59 77 60 30 62 64 63 43 64
REMARK SMILES IDX 63 65 44 66 47 67 62 68 82 69 45 70 46 71 61 73 83 74 48 75
REMARK SMILES IDX 31 76 32 77 41 78 33 79 34 80 40 81 42 82 35 83 36 84 37 85
REMARK SMILES IDX 38 86 39 87 65 88 66 89 75 90 67 91 68 92 74 93 76 94 69 95
REMARK SMILES IDX 70 96 71 97 72 98 73 99 49 100 50 101 59 102 51 103 52 104
REMARK SMILES IDX 58 105 60 106 53 107 54 108 55 109 56 110 57 111
REMARK H PARENT 3 13 100 24 81 61 47 72
REMARK Flexibility Score: inf
ROOT
ATOM      1  C   UNL A   1      47.686  24.522  27.313  1.00  0.00     0.188 C 
ENDROOT
BRANCH   1   2
ATOM      2  C   UNL A   1      46.764  24.296  26.091  1.00  0.00     0.188 C 
BRANCH   2   3
ATOM      3  O   UNL A   1      46.475  22.955  25.769  1.00  0.00    -0.376 OA
BRANCH   3   4
ATOM      4  C   UNL A   1      45.255  22.352  26.164  1.00  0.00     0.202 C 
BRANCH   4   5
ATOM      5  C   UNL A   1      44.293  22.952  27.205  1.00  0.00     0.261 C 
BRANCH   5   6
ATOM      6  O   UNL A   1      43.060  23.468  26.697  1.00  0.00    -0.461 OA
BRANCH   6   7
ATOM      7  C   UNL A   1      43.058  24.748  26.239  1.00  0.00     0.333 C 
ATOM      8  O   UNL A   1      42.914  25.042  25.053  1.00  0.00    -0.249 OA
BRANCH   7   9
ATOM      9  C   UNL A   1      42.998  25.817  27.356  1.00  0.00     0.226 C 
BRANCH   9  10
ATOM     10  N   UNL A   1      44.411  26.308  27.474  1.00  0.00    -0.335 N 
ATOM     11  O   UNL A   1      46.208  27.518  28.094  1.00  0.00    -0.269 OA
ATOM     12  C   UNL A   1      45.042  27.202  28.295  1.00  0.00     0.252 C 
ATOM     13  H   UNL A   1      45.018  25.896  26.817  1.00  0.00     0.165 HD
BRANCH  12  14
ATOM     14  C   UNL A   1      44.279  27.846  29.369  1.00  0.00     0.039 A 
ATOM     15  C   UNL A   1      43.793  27.077  30.420  1.00  0.00     0.014 A 
ATOM     16  C   UNL A   1      43.917  29.189  29.224  1.00  0.00     0.014 A 
ATOM     17  C   UNL A   1      42.788  27.600  31.220  1.00  0.00     0.010 A 
ATOM     18  C   UNL A   1      42.882  29.695  30.006  1.00  0.00     0.010 A 
ATOM     19  C   UNL A   1      42.257  28.875  30.958  1.00  0.00     0.006 A 
BRANCH  19  20
ATOM     20  C   UNL A   1      40.984  29.318  31.650  1.00  0.00     0.299 C 
BRANCH  20  21
ATOM     21  N   UNL A   1      39.818  29.579  30.782  1.00  0.00    -0.331 N 
ATOM     22  C   UNL A   1      38.596  28.895  31.217  1.00  0.00     0.262 C 
ATOM     23  C   UNL A   1      39.570  31.005  30.529  1.00  0.00     0.262 C 
ATOM     24  H   UNL A   1      40.087  29.170  29.887  1.00  0.00     0.348 HD
ATOM     25  C   UNL A   1      37.476  29.046  30.178  1.00  0.00     0.062 C 
ATOM     26  C   UNL A   1      38.499  31.210  29.460  1.00  0.00     0.062 C 
ATOM     27  C   UNL A   1      37.204  30.510  29.849  1.00  0.00     0.012 C 
ENDBRANCH  20  21
ENDBRANCH  19  20
ENDBRANCH  12  14
ENDBRANCH   9  10
BRANCH   9  28
ATOM     28  C   UNL A   1      41.934  26.914  27.269  1.00  0.00     0.021 A 
ATOM     29  C   UNL A   1      40.726  26.816  27.982  1.00  0.00     0.009 A 
ATOM     30  C   UNL A   1      42.031  27.994  26.380  1.00  0.00     0.129 A 
ATOM     31  C   UNL A   1      39.681  27.734  27.823  1.00  0.00     0.001 A 
ATOM     32  C   UNL A   1      41.024  28.958  26.264  1.00  0.00     0.039 A 
ATOM     33  F   UNL A   1      43.090  28.117  25.566  1.00  0.00    -0.207 F 
ATOM     34  C   UNL A   1      39.837  28.820  26.975  1.00  0.00     0.003 A 
ENDBRANCH   9  28
ENDBRANCH   7   9
ENDBRANCH   6   7
ENDBRANCH   5   6
ENDBRANCH   4   5
ENDBRANCH   3   4
ENDBRANCH   2   3
ENDBRANCH   1   2
BRANCH   1  35
ATOM     35  O   UNL A   1      49.082  24.688  27.146  1.00  0.00    -0.377 OA
BRANCH  35  36
ATOM     36  C   UNL A   1      49.665  25.972  27.312  1.00  0.00     0.188 C 
BRANCH  36  37
ATOM     37  C   UNL A   1      51.197  26.137  27.427  1.00  0.00     0.188 C 
BRANCH  37  38
ATOM     38  O   UNL A   1      51.938  25.724  26.292  1.00  0.00    -0.376 OA
BRANCH  38  39
ATOM     39  C   UNL A   1      52.637  26.719  25.561  1.00  0.00     0.202 C 
BRANCH  39  40
ATOM     40  C   UNL A   1      51.933  28.064  25.314  1.00  0.00     0.261 C 
BRANCH  40  41
ATOM     41  O   UNL A   1      52.175  29.096  26.281  1.00  0.00    -0.460 OA
BRANCH  41  42
ATOM     42  C   UNL A   1      51.415  30.207  26.196  1.00  0.00     0.338 C 
ATOM     43  O   UNL A   1      51.434  31.045  25.306  1.00  0.00    -0.246 OA
BRANCH  42  44
ATOM     44  C   UNL A   1      50.409  30.147  27.271  1.00  0.00     0.060 A 
ATOM     45  C   UNL A   1      49.135  29.637  26.985  1.00  0.00     0.016 A 
ATOM     46  C   UNL A   1      50.723  30.598  28.554  1.00  0.00     0.016 A 
ATOM     47  C   UNL A   1      48.153  29.620  27.975  1.00  0.00     0.010 A 
ATOM     48  C   UNL A   1      49.730  30.605  29.538  1.00  0.00     0.010 A 
ATOM     49  C   UNL A   1      48.431  30.157  29.238  1.00  0.00    -0.014 A 
BRANCH  49  50
ATOM     50  C   UNL A   1      47.311  30.475  30.155  1.00  0.00     0.031 A 
ATOM     51  C   UNL A   1      46.982  29.476  31.233  1.00  0.00     0.074 A 
ATOM     52  C   UNL A   1      46.623  31.626  30.058  1.00  0.00     0.049 A 
ATOM     53  N   UNL A   1      46.021  29.495  32.118  1.00  0.00    -0.248 NA
ATOM     54  C   UNL A   1      47.856  28.294  31.320  1.00  0.00     0.031 C 
ATOM     55  C   UNL A   1      46.883  32.689  29.091  1.00  0.00     0.029 A 
ATOM     56  N   UNL A   1      45.555  32.086  30.787  1.00  0.00    -0.354 N 
ATOM     57  C   UNL A   1      46.168  28.327  32.857  1.00  0.00     0.074 A 
ATOM     58  C   UNL A   1      47.289  27.606  32.298  1.00  0.00     0.031 C 
ATOM     59  C   UNL A   1      45.986  33.675  29.276  1.00  0.00     0.029 A 
ATOM     60  C   UNL A   1      45.069  33.295  30.350  1.00  0.00     0.049 A 
ATOM     61  H   UNL A   1      45.172  31.596  31.551  1.00  0.00     0.167 HD
ATOM     62  C   UNL A   1      45.440  27.898  33.916  1.00  0.00     0.037 A 
ATOM     63  C   UNL A   1      43.992  33.999  30.757  1.00  0.00     0.037 A 
ATOM     64  C   UNL A   1      44.326  28.623  34.467  1.00  0.00     0.049 A 
ATOM     65  C   UNL A   1      43.149  33.465  31.890  1.00  0.00     0.074 A 
ATOM     66  C   UNL A   1      43.529  28.282  35.545  1.00  0.00     0.029 A 
ATOM     67  N   UNL A   1      43.847  29.830  33.980  1.00  0.00    -0.354 N 
ATOM     68  N   UNL A   1      43.306  32.366  32.592  1.00  0.00    -0.248 NA
ATOM     69  C   UNL A   1      41.983  34.266  32.287  1.00  0.00     0.031 C 
ATOM     70  C   UNL A   1      42.530  29.252  35.672  1.00  0.00     0.029 A 
ATOM     71  C   UNL A   1      42.748  30.235  34.718  1.00  0.00     0.049 A 
ATOM     72  H   UNL A   1      44.231  30.326  33.222  1.00  0.00     0.167 HD
ATOM     73  C   UNL A   1      42.283  32.366  33.537  1.00  0.00     0.074 A 
ATOM     74  C   UNL A   1      41.518  33.577  33.320  1.00  0.00     0.031 C 
ATOM     75  C   UNL A   1      42.004  31.451  34.498  1.00  0.00     0.037 A 
BRANCH  62  76
ATOM     76  C   UNL A   1      45.806  26.572  34.523  1.00  0.00     0.058 A 
ATOM     77  C   UNL A   1      46.762  26.460  35.546  1.00  0.00     0.135 A 
ATOM     78  C   UNL A   1      45.167  25.396  34.095  1.00  0.00     0.135 A 
ATOM     79  F   UNL A   1      47.421  27.548  35.978  1.00  0.00    -0.206 F 
ATOM     80  C   UNL A   1      47.087  25.229  36.106  1.00  0.00     0.059 A 
ATOM     81  C   UNL A   1      45.454  24.159  34.662  1.00  0.00     0.059 A 
ATOM     82  F   UNL A   1      44.250  25.444  33.116  1.00  0.00    -0.206 F 
ATOM     83  C   UNL A   1      46.425  24.084  35.659  1.00  0.00     0.060 A 
BRANCH  83  84
ATOM     84  S   UNL A   1      46.849  22.497  36.407  1.00  0.00     0.124 S 
ATOM     85  O   UNL A   1      45.982  22.489  37.582  1.00  0.00    -0.237 OA
ATOM     86  O   UNL A   1      46.495  21.553  35.352  1.00  0.00    -0.237 OA
ATOM     87  O   UNL A   1      48.276  22.619  36.683  1.00  0.00    -0.744 OA
ENDBRANCH  83  84
ENDBRANCH  62  76
BRANCH  63  88
ATOM     88  C   UNL A   1      43.636  35.278  30.084  1.00  0.00     0.058 A 
ATOM     89  C   UNL A   1      42.800  35.300  28.958  1.00  0.00     0.135 A 
ATOM     90  C   UNL A   1      44.140  36.505  30.545  1.00  0.00     0.135 A 
ATOM     91  F   UNL A   1      42.303  34.153  28.468  1.00  0.00    -0.206 F 
ATOM     92  C   UNL A   1      42.488  36.488  28.303  1.00  0.00     0.059 A 
ATOM     93  C   UNL A   1      43.817  37.709  29.925  1.00  0.00     0.059 A 
ATOM     94  F   UNL A   1      44.939  36.544  31.622  1.00  0.00    -0.206 F 
ATOM     95  C   UNL A   1      42.999  37.689  28.798  1.00  0.00     0.060 A 
BRANCH  95  96
ATOM     96  S   UNL A   1      42.550  39.228  27.967  1.00  0.00     0.124 S 
ATOM     97  O   UNL A   1      41.993  38.734  26.713  1.00  0.00    -0.237 OA
ATOM     98  O   UNL A   1      41.596  39.813  28.904  1.00  0.00    -0.237 OA
ATOM     99  O   UNL A   1      43.823  39.934  27.858  1.00  0.00    -0.744 OA
ENDBRANCH  95  96
ENDBRANCH  63  88
BRANCH  75 100
ATOM    100  C   UNL A   1      40.854  31.739  35.429  1.00  0.00     0.058 A 
ATOM    101  C   UNL A   1      41.013  32.507  36.592  1.00  0.00     0.135 A 
ATOM    102  C   UNL A   1      39.561  31.289  35.114  1.00  0.00     0.135 A 
ATOM    103  F   UNL A   1      42.227  32.960  36.943  1.00  0.00    -0.206 F 
ATOM    104  C   UNL A   1      39.935  32.796  37.425  1.00  0.00     0.059 A 
ATOM    105  C   UNL A   1      38.464  31.594  35.913  1.00  0.00     0.059 A 
ATOM    106  F   UNL A   1      39.349  30.562  34.006  1.00  0.00    -0.206 F 
ATOM    107  C   UNL A   1      38.664  32.338  37.075  1.00  0.00     0.060 A 
BRANCH 107 108
ATOM    108  S   UNL A   1      37.271  32.749  38.147  1.00  0.00     0.124 S 
ATOM    109  O   UNL A   1      36.883  31.433  38.643  1.00  0.00    -0.237 OA
ATOM    110  O   UNL A   1      37.884  33.640  39.127  1.00  0.00    -0.237 OA
ATOM    111  O   UNL A   1      36.318  33.383  37.240  1.00  0.00    -0.744 OA
ENDBRANCH 107 108
ENDBRANCH  75 100
ENDBRANCH  49  50
ENDBRANCH  42  44
ENDBRANCH  41  42
ENDBRANCH  40  41
ENDBRANCH  39  40
ENDBRANCH  38  39
ENDBRANCH  37  38
ENDBRANCH  36  37
ENDBRANCH  35  36
ENDBRANCH   1  35
TORSDOF 28
ENDMDL
