MODEL 1
REMARK VINA RESULT:     -10.1      0.000      0.000
REMARK SMILES COc1ccccc1-n1nnc(C(=O)OCCOCCOCCOCCOC(=O)c2ccc(-c3c4nc(c(-c5c(F)cc(S(=O)(=O)[O-])cc5F)c5ccc([nH]5)c(-c5c(F)cc(S(=O)(=O)[O-])cc5F)c5nc(c(-c6c(F)cc(S(=O)(=O)[O-])cc6F)c6ccc3[nH]6)C=C5)C=C4)cc2)c1-c1ccc(Cl)cc1
REMARK SMILES IDX 22 1 21 2 20 3 19 4 18 5 17 6 16 7 15 8 13 9 14 10 12 11
REMARK SMILES IDX 9 12 10 13 96 14 11 15 8 16 3 17 4 18 5 19 7 20 6 21 2 22
REMARK SMILES IDX 1 23 97 24 98 25 103 26 99 27 102 28 100 29 101 30 23 31
REMARK SMILES IDX 24 32 25 33 26 34 27 35 28 36 29 37 30 38 31 39 95 40 32 41
REMARK SMILES IDX 94 42 33 43 34 44 35 45 88 46 36 47 93 48 87 49 89 50 37 51
REMARK SMILES IDX 92 52 86 53 85 54 38 56 72 57 51 58 71 59 52 60 55 61 70 62
REMARK SMILES IDX 90 63 53 64 54 65 69 67 91 68 56 69 39 70 40 71 49 72 41 73
REMARK SMILES IDX 42 74 48 75 50 76 43 77 44 78 45 79 46 80 47 81 73 82 74 83
REMARK SMILES IDX 83 84 75 85 76 86 82 87 84 88 77 89 78 90 79 91 80 92 81 93
REMARK SMILES IDX 57 94 58 95 67 96 59 97 60 98 66 99 68 100 61 101 62 102
REMARK SMILES IDX 63 103 64 104 65 105
REMARK H PARENT 89 55 55 66
REMARK Flexibility Score: inf
ROOT
ATOM      1  C   UNL A   1      34.667  32.575  27.747  1.00  0.00     0.188 C 
ENDROOT
BRANCH   1   2
ATOM      2  O   UNL A   1      34.138  31.349  28.257  1.00  0.00    -0.377 OA
BRANCH   2   3
ATOM      3  C   UNL A   1      34.702  30.162  27.729  1.00  0.00     0.188 C 
BRANCH   3   4
ATOM      4  C   UNL A   1      34.134  29.730  26.354  1.00  0.00     0.188 C 
BRANCH   4   5
ATOM      5  O   UNL A   1      32.740  29.765  26.050  1.00  0.00    -0.376 OA
BRANCH   5   6
ATOM      6  C   UNL A   1      31.792  28.948  26.721  1.00  0.00     0.202 C 
BRANCH   6   7
ATOM      7  C   UNL A   1      31.980  27.433  26.776  1.00  0.00     0.261 C 
BRANCH   7   8
ATOM      8  O   UNL A   1      30.771  26.719  27.001  1.00  0.00    -0.458 OA
BRANCH   8   9
ATOM      9  C   UNL A   1      30.443  25.754  26.109  1.00  0.00     0.361 C 
ATOM     10  O   UNL A   1      29.535  25.845  25.282  1.00  0.00    -0.244 OA
BRANCH   9  11
ATOM     11  C   UNL A   1      31.349  24.624  26.176  1.00  0.00     0.198 A 
ATOM     12  N   UNL A   1      32.883  23.132  25.855  1.00  0.00    -0.208 N 
ATOM     13  N   UNL A   1      32.262  22.820  27.017  1.00  0.00    -0.061 NA
ATOM     14  C   UNL A   1      32.174  24.115  25.179  1.00  0.00     0.109 A 
ATOM     15  N   UNL A   1      31.414  23.804  27.281  1.00  0.00    -0.122 NA
BRANCH  12  16
ATOM     16  C   UNL A   1      34.178  22.652  25.593  1.00  0.00     0.109 A 
ATOM     17  C   UNL A   1      34.370  21.367  25.066  1.00  0.00     0.144 A 
ATOM     18  C   UNL A   1      35.663  20.861  24.959  1.00  0.00     0.049 A 
ATOM     19  C   UNL A   1      36.756  21.651  25.321  1.00  0.00     0.004 A 
ATOM     20  C   UNL A   1      35.273  23.474  25.894  1.00  0.00     0.032 A 
ATOM     21  C   UNL A   1      36.563  22.958  25.773  1.00  0.00     0.003 A 
BRANCH  17  22
ATOM     22  O   UNL A   1      33.359  20.530  24.671  1.00  0.00    -0.494 OA
ATOM     23  C   UNL A   1      33.226  19.370  25.495  1.00  0.00     0.278 C 
ENDBRANCH  17  22
ENDBRANCH  12  16
BRANCH  14  24
ATOM     24  C   UNL A   1      32.370  24.481  23.775  1.00  0.00     0.003 A 
ATOM     25  C   UNL A   1      32.238  25.815  23.365  1.00  0.00     0.012 A 
ATOM     26  C   UNL A   1      32.654  23.503  22.809  1.00  0.00     0.012 A 
ATOM     27  C   UNL A   1      32.354  26.162  22.019  1.00  0.00     0.021 A 
ATOM     28  C   UNL A   1      32.787  23.852  21.462  1.00  0.00     0.021 A 
ATOM     29  C   UNL A   1      32.626  25.180  21.072  1.00  0.00     0.041 A 
ATOM     30  Cl  UNL A   1      32.757  25.613  19.413  1.00  0.00    -0.084 Cl
ENDBRANCH  14  24
ENDBRANCH   9  11
ENDBRANCH   8   9
ENDBRANCH   7   8
ENDBRANCH   6   7
ENDBRANCH   5   6
ENDBRANCH   4   5
ENDBRANCH   3   4
ENDBRANCH   2   3
ENDBRANCH   1   2
BRANCH   1  31
ATOM     31  C   UNL A   1      33.946  33.903  28.108  1.00  0.00     0.188 C 
BRANCH  31  32
ATOM     32  O   UNL A   1      34.551  34.639  29.163  1.00  0.00    -0.376 OA
BRANCH  32  33
ATOM     33  C   UNL A   1      34.048  34.604  30.489  1.00  0.00     0.202 C 
BRANCH  33  34
ATOM     34  C   UNL A   1      35.043  34.361  31.619  1.00  0.00     0.261 C 
BRANCH  34  35
ATOM     35  O   UNL A   1      36.102  33.494  31.266  1.00  0.00    -0.460 OA
BRANCH  35  36
ATOM     36  C   UNL A   1      35.811  32.187  31.383  1.00  0.00     0.338 C 
ATOM     37  O   UNL A   1      34.973  31.677  32.116  1.00  0.00    -0.246 OA
BRANCH  36  38
ATOM     38  C   UNL A   1      36.757  31.437  30.565  1.00  0.00     0.060 A 
ATOM     39  C   UNL A   1      36.759  30.055  30.742  1.00  0.00     0.016 A 
ATOM     40  C   UNL A   1      37.824  32.134  29.976  1.00  0.00     0.016 A 
ATOM     41  C   UNL A   1      37.958  29.407  30.596  1.00  0.00     0.010 A 
ATOM     42  C   UNL A   1      39.022  31.488  29.848  1.00  0.00     0.010 A 
ATOM     43  C   UNL A   1      39.088  30.164  30.266  1.00  0.00    -0.014 A 
BRANCH  43  44
ATOM     44  C   UNL A   1      40.365  29.499  30.285  1.00  0.00     0.031 A 
ATOM     45  C   UNL A   1      40.836  29.309  31.665  1.00  0.00     0.074 A 
ATOM     46  C   UNL A   1      40.970  29.063  29.165  1.00  0.00     0.049 A 
ATOM     47  N   UNL A   1      41.689  30.037  32.302  1.00  0.00    -0.248 NA
ATOM     48  C   UNL A   1      40.078  28.382  32.523  1.00  0.00     0.031 C 
ATOM     49  C   UNL A   1      40.400  28.966  27.816  1.00  0.00     0.029 A 
ATOM     50  N   UNL A   1      42.208  28.522  29.016  1.00  0.00    -0.354 N 
ATOM     51  C   UNL A   1      41.797  29.434  33.547  1.00  0.00     0.074 A 
ATOM     52  C   UNL A   1      40.608  28.647  33.718  1.00  0.00     0.031 C 
ATOM     53  C   UNL A   1      41.203  28.195  27.047  1.00  0.00     0.029 A 
ATOM     54  C   UNL A   1      42.406  27.878  27.800  1.00  0.00     0.049 A 
ATOM     55  H   UNL A   1      42.905  28.582  29.709  1.00  0.00     0.167 HD
ATOM     56  C   UNL A   1      43.018  29.318  34.136  1.00  0.00     0.037 A 
ATOM     57  C   UNL A   1      43.472  27.105  27.473  1.00  0.00     0.037 A 
ATOM     58  C   UNL A   1      43.978  30.175  33.485  1.00  0.00     0.049 A 
ATOM     59  C   UNL A   1      44.584  27.488  28.379  1.00  0.00     0.074 A 
ATOM     60  C   UNL A   1      44.241  31.526  33.435  1.00  0.00     0.029 A 
ATOM     61  N   UNL A   1      44.587  29.597  32.400  1.00  0.00    -0.354 N 
ATOM     62  N   UNL A   1      45.152  28.664  28.357  1.00  0.00    -0.248 NA
ATOM     63  C   UNL A   1      44.825  26.707  29.589  1.00  0.00     0.031 C 
ATOM     64  C   UNL A   1      44.904  31.758  32.194  1.00  0.00     0.029 A 
ATOM     65  C   UNL A   1      45.066  30.542  31.533  1.00  0.00     0.049 A 
ATOM     66  H   UNL A   1      44.669  28.625  32.262  1.00  0.00     0.167 HD
ATOM     67  C   UNL A   1      45.453  28.932  29.678  1.00  0.00     0.074 A 
ATOM     68  C   UNL A   1      45.389  27.644  30.358  1.00  0.00     0.031 C 
ATOM     69  C   UNL A   1      45.401  30.205  30.164  1.00  0.00     0.037 A 
BRANCH  56  70
ATOM     70  C   UNL A   1      43.470  28.097  34.910  1.00  0.00     0.058 A 
ATOM     71  C   UNL A   1      43.955  28.268  36.222  1.00  0.00     0.135 A 
ATOM     72  C   UNL A   1      43.724  26.831  34.332  1.00  0.00     0.135 A 
ATOM     73  F   UNL A   1      43.786  29.436  36.864  1.00  0.00    -0.206 F 
ATOM     74  C   UNL A   1      44.683  27.278  36.885  1.00  0.00     0.059 A 
ATOM     75  C   UNL A   1      44.397  25.814  34.994  1.00  0.00     0.059 A 
ATOM     76  F   UNL A   1      43.425  26.539  33.062  1.00  0.00    -0.206 F 
ATOM     77  C   UNL A   1      44.907  26.058  36.256  1.00  0.00     0.060 A 
BRANCH  77  78
ATOM     78  S   UNL A   1      45.904  24.801  37.070  1.00  0.00     0.124 S 
ATOM     79  O   UNL A   1      45.171  23.585  36.734  1.00  0.00    -0.237 OA
ATOM     80  O   UNL A   1      47.197  24.975  36.418  1.00  0.00    -0.237 OA
ATOM     81  O   UNL A   1      45.859  25.197  38.475  1.00  0.00    -0.744 OA
ENDBRANCH  77  78
ENDBRANCH  56  70
BRANCH  57  82
ATOM     82  C   UNL A   1      43.502  25.871  26.648  1.00  0.00     0.058 A 
ATOM     83  C   UNL A   1      44.353  25.752  25.536  1.00  0.00     0.135 A 
ATOM     84  C   UNL A   1      42.906  24.679  27.108  1.00  0.00     0.135 A 
ATOM     85  F   UNL A   1      44.979  26.833  25.047  1.00  0.00    -0.206 F 
ATOM     86  C   UNL A   1      44.635  24.516  24.941  1.00  0.00     0.059 A 
ATOM     87  C   UNL A   1      43.169  23.437  26.529  1.00  0.00     0.059 A 
ATOM     88  F   UNL A   1      42.120  24.678  28.195  1.00  0.00    -0.206 F 
ATOM     89  C   UNL A   1      44.052  23.360  25.460  1.00  0.00     0.060 A 
BRANCH  89  90
ATOM     90  S   UNL A   1      44.539  21.746  24.800  1.00  0.00     0.124 S 
ATOM     91  O   UNL A   1      44.469  21.974  23.362  1.00  0.00    -0.237 OA
ATOM     92  O   UNL A   1      45.878  21.577  25.355  1.00  0.00    -0.237 OA
ATOM     93  O   UNL A   1      43.527  20.841  25.338  1.00  0.00    -0.744 OA
ENDBRANCH  89  90
ENDBRANCH  57  82
BRANCH  69  94
ATOM     94  C   UNL A   1      45.581  31.330  29.187  1.00  0.00     0.058 A 
ATOM     95  C   UNL A   1      44.544  31.978  28.497  1.00  0.00     0.135 A 
ATOM     96  C   UNL A   1      46.881  31.828  29.015  1.00  0.00     0.135 A 
ATOM     97  F   UNL A   1      43.266  31.609  28.669  1.00  0.00    -0.206 F 
ATOM     98  C   UNL A   1      44.798  33.057  27.646  1.00  0.00     0.059 A 
ATOM     99  C   UNL A   1      47.153  32.919  28.201  1.00  0.00     0.059 A 
ATOM    100  F   UNL A   1      47.906  31.276  29.686  1.00  0.00    -0.206 F 
ATOM    101  C   UNL A   1      46.108  33.522  27.508  1.00  0.00     0.060 A 
BRANCH 101 102
ATOM    102  S   UNL A   1      46.434  34.957  26.461  1.00  0.00     0.124 S 
ATOM    103  O   UNL A   1      47.186  34.368  25.358  1.00  0.00    -0.237 OA
ATOM    104  O   UNL A   1      45.089  35.423  26.136  1.00  0.00    -0.237 OA
ATOM    105  O   UNL A   1      47.198  35.848  27.331  1.00  0.00    -0.744 OA
ENDBRANCH 101 102
ENDBRANCH  69  94
ENDBRANCH  43  44
ENDBRANCH  36  38
ENDBRANCH  35  36
ENDBRANCH  34  35
ENDBRANCH  33  34
ENDBRANCH  32  33
ENDBRANCH  31  32
ENDBRANCH   1  31
TORSDOF 26
ENDMDL
MODEL 2
REMARK VINA RESULT:      -8.5      1.188      2.111
REMARK SMILES COc1ccccc1-n1nnc(C(=O)OCCOCCOCCOCCOC(=O)c2ccc(-c3c4nc(c(-c5c(F)cc(S(=O)(=O)[O-])cc5F)c5ccc([nH]5)c(-c5c(F)cc(S(=O)(=O)[O-])cc5F)c5nc(c(-c6c(F)cc(S(=O)(=O)[O-])cc6F)c6ccc3[nH]6)C=C5)C=C4)cc2)c1-c1ccc(Cl)cc1
REMARK SMILES IDX 22 1 21 2 20 3 19 4 18 5 17 6 16 7 15 8 13 9 14 10 12 11
REMARK SMILES IDX 9 12 10 13 96 14 11 15 8 16 3 17 4 18 5 19 7 20 6 21 2 22
REMARK SMILES IDX 1 23 97 24 98 25 103 26 99 27 102 28 100 29 101 30 23 31
REMARK SMILES IDX 24 32 25 33 26 34 27 35 28 36 29 37 30 38 31 39 95 40 32 41
REMARK SMILES IDX 94 42 33 43 34 44 35 45 88 46 36 47 93 48 87 49 89 50 37 51
REMARK SMILES IDX 92 52 86 53 85 54 38 56 72 57 51 58 71 59 52 60 55 61 70 62
REMARK SMILES IDX 90 63 53 64 54 65 69 67 91 68 56 69 39 70 40 71 49 72 41 73
REMARK SMILES IDX 42 74 48 75 50 76 43 77 44 78 45 79 46 80 47 81 73 82 74 83
REMARK SMILES IDX 83 84 75 85 76 86 82 87 84 88 77 89 78 90 79 91 80 92 81 93
REMARK SMILES IDX 57 94 58 95 67 96 59 97 60 98 66 99 68 100 61 101 62 102
REMARK SMILES IDX 63 103 64 104 65 105
REMARK H PARENT 89 55 55 66
REMARK Flexibility Score: inf
ROOT
ATOM      1  C   UNL A   1      34.737  32.538  28.018  1.00  0.00     0.188 C 
ENDROOT
BRANCH   1   2
ATOM      2  O   UNL A   1      34.407  31.336  28.718  1.00  0.00    -0.377 OA
BRANCH   2   3
ATOM      3  C   UNL A   1      35.330  30.271  28.590  1.00  0.00     0.188 C 
BRANCH   3   4
ATOM      4  C   UNL A   1      35.482  29.714  27.152  1.00  0.00     0.188 C 
BRANCH   4   5
ATOM      5  O   UNL A   1      34.421  29.050  26.465  1.00  0.00    -0.376 OA
BRANCH   5   6
ATOM      6  C   UNL A   1      33.337  28.437  27.147  1.00  0.00     0.202 C 
BRANCH   6   7
ATOM      7  C   UNL A   1      32.810  27.077  26.692  1.00  0.00     0.261 C 
BRANCH   7   8
ATOM      8  O   UNL A   1      31.412  26.912  26.901  1.00  0.00    -0.458 OA
BRANCH   8   9
ATOM      9  C   UNL A   1      30.867  25.723  26.548  1.00  0.00     0.361 C 
ATOM     10  O   UNL A   1      29.690  25.561  26.226  1.00  0.00    -0.244 OA
BRANCH   9  11
ATOM     11  C   UNL A   1      31.858  24.665  26.506  1.00  0.00     0.198 A 
ATOM     12  N   UNL A   1      33.454  23.293  26.005  1.00  0.00    -0.208 N 
ATOM     13  N   UNL A   1      32.993  22.937  27.226  1.00  0.00    -0.061 NA
ATOM     14  C   UNL A   1      32.602  24.218  25.419  1.00  0.00     0.109 A 
ATOM     15  N   UNL A   1      32.108  23.854  27.590  1.00  0.00    -0.122 NA
BRANCH  12  16
ATOM     16  C   UNL A   1      34.744  22.913  25.596  1.00  0.00     0.109 A 
ATOM     17  C   UNL A   1      34.939  21.745  24.845  1.00  0.00     0.144 A 
ATOM     18  C   UNL A   1      36.236  21.312  24.584  1.00  0.00     0.049 A 
ATOM     19  C   UNL A   1      37.328  22.066  25.020  1.00  0.00     0.004 A 
ATOM     20  C   UNL A   1      35.833  23.709  25.978  1.00  0.00     0.032 A 
ATOM     21  C   UNL A   1      37.127  23.268  25.702  1.00  0.00     0.003 A 
BRANCH  17  22
ATOM     22  O   UNL A   1      33.930  20.952  24.364  1.00  0.00    -0.494 OA
ATOM     23  C   UNL A   1      33.535  19.920  25.270  1.00  0.00     0.278 C 
ENDBRANCH  17  22
ENDBRANCH  12  16
BRANCH  14  24
ATOM     24  C   UNL A   1      32.611  24.597  24.004  1.00  0.00     0.003 A 
ATOM     25  C   UNL A   1      31.975  23.792  23.050  1.00  0.00     0.012 A 
ATOM     26  C   UNL A   1      33.289  25.748  23.573  1.00  0.00     0.012 A 
ATOM     27  C   UNL A   1      32.038  24.108  21.694  1.00  0.00     0.021 A 
ATOM     28  C   UNL A   1      33.339  26.075  22.214  1.00  0.00     0.021 A 
ATOM     29  C   UNL A   1      32.722  25.247  21.280  1.00  0.00     0.041 A 
ATOM     30  Cl  UNL A   1      32.806  25.625  19.605  1.00  0.00    -0.084 Cl
ENDBRANCH  14  24
ENDBRANCH   9  11
ENDBRANCH   8   9
ENDBRANCH   7   8
ENDBRANCH   6   7
ENDBRANCH   5   6
ENDBRANCH   4   5
ENDBRANCH   3   4
ENDBRANCH   2   3
ENDBRANCH   1   2
BRANCH   1  31
ATOM     31  C   UNL A   1      34.087  33.871  28.483  1.00  0.00     0.188 C 
BRANCH  31  32
ATOM     32  O   UNL A   1      34.755  34.513  29.561  1.00  0.00    -0.376 OA
BRANCH  32  33
ATOM     33  C   UNL A   1      34.206  34.556  30.868  1.00  0.00     0.202 C 
BRANCH  33  34
ATOM     34  C   UNL A   1      35.156  34.838  32.028  1.00  0.00     0.261 C 
BRANCH  34  35
ATOM     35  O   UNL A   1      36.308  34.020  32.030  1.00  0.00    -0.460 OA
BRANCH  35  36
ATOM     36  C   UNL A   1      36.056  32.706  32.168  1.00  0.00     0.338 C 
ATOM     37  O   UNL A   1      35.221  32.185  32.897  1.00  0.00    -0.246 OA
BRANCH  36  38
ATOM     38  C   UNL A   1      37.038  31.971  31.381  1.00  0.00     0.060 A 
ATOM     39  C   UNL A   1      37.160  30.613  31.668  1.00  0.00     0.016 A 
ATOM     40  C   UNL A   1      38.026  32.701  30.701  1.00  0.00     0.016 A 
ATOM     41  C   UNL A   1      38.403  30.054  31.533  1.00  0.00     0.010 A 
ATOM     42  C   UNL A   1      39.270  32.145  30.585  1.00  0.00     0.010 A 
ATOM     43  C   UNL A   1      39.457  30.870  31.104  1.00  0.00    -0.014 A 
BRANCH  43  44
ATOM     44  C   UNL A   1      40.785  30.314  31.133  1.00  0.00     0.031 A 
ATOM     45  C   UNL A   1      41.353  30.382  32.488  1.00  0.00     0.074 A 
ATOM     46  C   UNL A   1      41.356  29.751  30.052  1.00  0.00     0.049 A 
ATOM     47  N   UNL A   1      42.178  31.264  32.941  1.00  0.00    -0.248 NA
ATOM     48  C   UNL A   1      40.730  29.550  33.531  1.00  0.00     0.031 C 
ATOM     49  C   UNL A   1      40.717  29.398  28.780  1.00  0.00     0.029 A 
ATOM     50  N   UNL A   1      42.625  29.288  29.898  1.00  0.00    -0.354 N 
ATOM     51  C   UNL A   1      42.411  30.878  34.253  1.00  0.00     0.074 A 
ATOM     52  C   UNL A   1      41.306  30.040  34.629  1.00  0.00     0.031 C 
ATOM     53  C   UNL A   1      41.535  28.576  28.082  1.00  0.00     0.029 A 
ATOM     54  C   UNL A   1      42.804  28.475  28.785  1.00  0.00     0.049 A 
ATOM     55  H   UNL A   1      43.355  29.510  30.521  1.00  0.00     0.167 HD
ATOM     56  C   UNL A   1      43.670  30.948  34.762  1.00  0.00     0.037 A 
ATOM     57  C   UNL A   1      43.910  27.741  28.505  1.00  0.00     0.037 A 
ATOM     58  C   UNL A   1      44.513  31.760  33.918  1.00  0.00     0.049 A 
ATOM     59  C   UNL A   1      45.038  28.346  29.257  1.00  0.00     0.074 A 
ATOM     60  C   UNL A   1      44.656  33.101  33.642  1.00  0.00     0.029 A 
ATOM     61  N   UNL A   1      45.103  31.064  32.894  1.00  0.00    -0.354 N 
ATOM     62  N   UNL A   1      45.501  29.543  29.012  1.00  0.00    -0.248 NA
ATOM     63  C   UNL A   1      45.418  27.789  30.552  1.00  0.00     0.031 C 
ATOM     64  C   UNL A   1      45.221  33.182  32.334  1.00  0.00     0.029 A 
ATOM     65  C   UNL A   1      45.447  31.892  31.859  1.00  0.00     0.049 A 
ATOM     66  H   UNL A   1      45.259  30.091  32.902  1.00  0.00     0.167 HD
ATOM     67  C   UNL A   1      45.857  30.040  30.252  1.00  0.00     0.074 A 
ATOM     68  C   UNL A   1      45.945  28.875  31.124  1.00  0.00     0.031 C 
ATOM     69  C   UNL A   1      45.726  31.367  30.538  1.00  0.00     0.037 A 
BRANCH  56  70
ATOM     70  C   UNL A   1      44.271  29.904  35.680  1.00  0.00     0.058 A 
ATOM     71  C   UNL A   1      44.282  28.559  35.259  1.00  0.00     0.135 A 
ATOM     72  C   UNL A   1      44.560  30.112  37.049  1.00  0.00     0.135 A 
ATOM     73  F   UNL A   1      44.004  28.241  33.984  1.00  0.00    -0.206 F 
ATOM     74  C   UNL A   1      44.507  27.501  36.142  1.00  0.00     0.059 A 
ATOM     75  C   UNL A   1      44.842  29.078  37.932  1.00  0.00     0.059 A 
ATOM     76  F   UNL A   1      44.489  31.312  37.632  1.00  0.00    -0.206 F 
ATOM     77  C   UNL A   1      44.777  27.773  37.480  1.00  0.00     0.060 A 
BRANCH  77  78
ATOM     78  S   UNL A   1      44.999  26.418  38.642  1.00  0.00     0.124 S 
ATOM     79  O   UNL A   1      45.867  27.030  39.641  1.00  0.00    -0.237 OA
ATOM     80  O   UNL A   1      43.627  26.151  39.057  1.00  0.00    -0.237 OA
ATOM     81  O   UNL A   1      45.614  25.375  37.826  1.00  0.00    -0.744 OA
ENDBRANCH  77  78
ENDBRANCH  56  70
BRANCH  57  82
ATOM     82  C   UNL A   1      43.996  26.398  27.879  1.00  0.00     0.058 A 
ATOM     83  C   UNL A   1      43.453  25.261  28.503  1.00  0.00     0.135 A 
ATOM     84  C   UNL A   1      44.355  26.254  26.523  1.00  0.00     0.135 A 
ATOM     85  F   UNL A   1      43.063  25.318  29.784  1.00  0.00    -0.206 F 
ATOM     86  C   UNL A   1      43.236  24.063  27.811  1.00  0.00     0.059 A 
ATOM     87  C   UNL A   1      44.151  25.069  25.815  1.00  0.00     0.059 A 
ATOM     88  F   UNL A   1      44.831  27.294  25.824  1.00  0.00    -0.206 F 
ATOM     89  C   UNL A   1      43.570  23.984  26.460  1.00  0.00     0.060 A 
BRANCH  89  90
ATOM     90  S   UNL A   1      43.142  22.495  25.524  1.00  0.00     0.124 S 
ATOM     91  O   UNL A   1      44.150  21.549  25.985  1.00  0.00    -0.237 OA
ATOM     92  O   UNL A   1      41.775  22.236  25.964  1.00  0.00    -0.237 OA
ATOM     93  O   UNL A   1      43.275  22.920  24.133  1.00  0.00    -0.744 OA
ENDBRANCH  89  90
ENDBRANCH  57  82
BRANCH  69  94
ATOM     94  C   UNL A   1      45.750  32.332  29.388  1.00  0.00     0.058 A 
ATOM     95  C   UNL A   1      46.907  32.786  28.736  1.00  0.00     0.135 A 
ATOM     96  C   UNL A   1      44.512  32.745  28.873  1.00  0.00     0.135 A 
ATOM     97  F   UNL A   1      48.123  32.373  29.121  1.00  0.00    -0.206 F 
ATOM     98  C   UNL A   1      46.833  33.643  27.634  1.00  0.00     0.059 A 
ATOM     99  C   UNL A   1      44.413  33.570  27.760  1.00  0.00     0.059 A 
ATOM    100  F   UNL A   1      43.372  32.305  29.430  1.00  0.00    -0.206 F 
ATOM    101  C   UNL A   1      45.579  34.027  27.153  1.00  0.00     0.060 A 
BRANCH 101 102
ATOM    102  S   UNL A   1      45.475  35.081  25.690  1.00  0.00     0.124 S 
ATOM    103  O   UNL A   1      46.793  35.705  25.667  1.00  0.00    -0.237 OA
ATOM    104  O   UNL A   1      45.209  34.119  24.625  1.00  0.00    -0.237 OA
ATOM    105  O   UNL A   1      44.364  35.980  25.995  1.00  0.00    -0.744 OA
ENDBRANCH 101 102
ENDBRANCH  69  94
ENDBRANCH  43  44
ENDBRANCH  36  38
ENDBRANCH  35  36
ENDBRANCH  34  35
ENDBRANCH  33  34
ENDBRANCH  32  33
ENDBRANCH  31  32
ENDBRANCH   1  31
TORSDOF 26
ENDMDL
MODEL 3
REMARK VINA RESULT:      -8.2      8.366     15.523
REMARK SMILES COc1ccccc1-n1nnc(C(=O)OCCOCCOCCOCCOC(=O)c2ccc(-c3c4nc(c(-c5c(F)cc(S(=O)(=O)[O-])cc5F)c5ccc([nH]5)c(-c5c(F)cc(S(=O)(=O)[O-])cc5F)c5nc(c(-c6c(F)cc(S(=O)(=O)[O-])cc6F)c6ccc3[nH]6)C=C5)C=C4)cc2)c1-c1ccc(Cl)cc1
REMARK SMILES IDX 22 1 21 2 20 3 19 4 18 5 17 6 16 7 15 8 13 9 14 10 12 11
REMARK SMILES IDX 9 12 10 13 96 14 11 15 8 16 3 17 4 18 5 19 7 20 6 21 2 22
REMARK SMILES IDX 1 23 97 24 98 25 103 26 99 27 102 28 100 29 101 30 23 31
REMARK SMILES IDX 24 32 25 33 26 34 27 35 28 36 29 37 30 38 31 39 95 40 32 41
REMARK SMILES IDX 94 42 33 43 34 44 35 45 88 46 36 47 93 48 87 49 89 50 37 51
REMARK SMILES IDX 92 52 86 53 85 54 38 56 72 57 51 58 71 59 52 60 55 61 70 62
REMARK SMILES IDX 90 63 53 64 54 65 69 67 91 68 56 69 39 70 40 71 49 72 41 73
REMARK SMILES IDX 42 74 48 75 50 76 43 77 44 78 45 79 46 80 47 81 73 82 74 83
REMARK SMILES IDX 83 84 75 85 76 86 82 87 84 88 77 89 78 90 79 91 80 92 81 93
REMARK SMILES IDX 57 94 58 95 67 96 59 97 60 98 66 99 68 100 61 101 62 102
REMARK SMILES IDX 63 103 64 104 65 105
REMARK H PARENT 89 55 55 66
REMARK Flexibility Score: inf
ROOT
ATOM      1  C   UNL A   1      44.833  42.090  29.650  1.00  0.00     0.188 C 
ENDROOT
BRANCH   1   2
ATOM      2  O   UNL A   1      45.644  42.071  28.473  1.00  0.00    -0.377 OA
BRANCH   2   3
ATOM      3  C   UNL A   1      46.277  43.292  28.137  1.00  0.00     0.188 C 
BRANCH   3   4
ATOM      4  C   UNL A   1      46.491  43.516  26.619  1.00  0.00     0.188 C 
BRANCH   4   5
ATOM      5  O   UNL A   1      45.517  43.154  25.641  1.00  0.00    -0.376 OA
BRANCH   5   6
ATOM      6  C   UNL A   1      45.653  42.005  24.818  1.00  0.00     0.202 C 
BRANCH   6   7
ATOM      7  C   UNL A   1      46.849  41.868  23.877  1.00  0.00     0.261 C 
BRANCH   7   8
ATOM      8  O   UNL A   1      46.586  41.053  22.740  1.00  0.00    -0.458 OA
BRANCH   8   9
ATOM      9  C   UNL A   1      46.904  41.560  21.525  1.00  0.00     0.361 C 
ATOM     10  O   UNL A   1      47.928  41.288  20.899  1.00  0.00    -0.244 OA
BRANCH   9  11
ATOM     11  C   UNL A   1      45.847  42.401  20.996  1.00  0.00     0.198 A 
ATOM     12  N   UNL A   1      44.647  43.882  19.973  1.00  0.00    -0.208 N 
ATOM     13  N   UNL A   1      43.796  43.095  20.671  1.00  0.00    -0.061 NA
ATOM     14  C   UNL A   1      45.958  43.627  20.348  1.00  0.00     0.109 A 
ATOM     15  N   UNL A   1      44.515  42.111  21.191  1.00  0.00    -0.122 NA
BRANCH  12  16
ATOM     16  C   UNL A   1      44.182  44.628  18.876  1.00  0.00     0.109 A 
ATOM     17  C   UNL A   1      44.196  46.030  18.909  1.00  0.00     0.144 A 
ATOM     18  C   UNL A   1      43.591  46.741  17.876  1.00  0.00     0.049 A 
ATOM     19  C   UNL A   1      43.030  46.062  16.793  1.00  0.00     0.004 A 
ATOM     20  C   UNL A   1      43.680  43.943  17.760  1.00  0.00     0.032 A 
ATOM     21  C   UNL A   1      43.087  44.669  16.727  1.00  0.00     0.003 A 
BRANCH  17  22
ATOM     22  O   UNL A   1      44.737  46.778  19.922  1.00  0.00    -0.494 OA
ATOM     23  C   UNL A   1      45.373  47.975  19.469  1.00  0.00     0.278 C 
ENDBRANCH  17  22
ENDBRANCH  12  16
BRANCH  14  24
ATOM     24  C   UNL A   1      47.107  44.480  20.035  1.00  0.00     0.003 A 
ATOM     25  C   UNL A   1      47.687  44.447  18.760  1.00  0.00     0.012 A 
ATOM     26  C   UNL A   1      47.670  45.313  21.014  1.00  0.00     0.012 A 
ATOM     27  C   UNL A   1      48.824  45.204  18.475  1.00  0.00     0.021 A 
ATOM     28  C   UNL A   1      48.800  46.085  20.724  1.00  0.00     0.021 A 
ATOM     29  C   UNL A   1      49.377  46.018  19.458  1.00  0.00     0.041 A 
ATOM     30  Cl  UNL A   1      50.785  46.939  19.103  1.00  0.00    -0.084 Cl
ENDBRANCH  14  24
ENDBRANCH   9  11
ENDBRANCH   8   9
ENDBRANCH   7   8
ENDBRANCH   6   7
ENDBRANCH   5   6
ENDBRANCH   4   5
ENDBRANCH   3   4
ENDBRANCH   2   3
ENDBRANCH   1   2
BRANCH   1  31
ATOM     31  C   UNL A   1      43.481  41.325  29.634  1.00  0.00     0.188 C 
BRANCH  31  32
ATOM     32  O   UNL A   1      43.517  40.042  30.245  1.00  0.00    -0.376 OA
BRANCH  32  33
ATOM     33  C   UNL A   1      43.881  38.875  29.526  1.00  0.00     0.202 C 
BRANCH  33  34
ATOM     34  C   UNL A   1      43.709  38.893  28.010  1.00  0.00     0.261 C 
BRANCH  34  35
ATOM     35  O   UNL A   1      43.728  37.608  27.422  1.00  0.00    -0.460 OA
BRANCH  35  36
ATOM     36  C   UNL A   1      44.946  37.044  27.358  1.00  0.00     0.338 C 
ATOM     37  O   UNL A   1      45.955  37.516  26.847  1.00  0.00    -0.246 OA
BRANCH  36  38
ATOM     38  C   UNL A   1      44.851  35.695  27.902  1.00  0.00     0.060 A 
ATOM     39  C   UNL A   1      43.842  34.892  27.376  1.00  0.00     0.016 A 
ATOM     40  C   UNL A   1      45.479  35.428  29.130  1.00  0.00     0.016 A 
ATOM     41  C   UNL A   1      43.258  33.985  28.221  1.00  0.00     0.010 A 
ATOM     42  C   UNL A   1      44.882  34.535  29.976  1.00  0.00     0.010 A 
ATOM     43  C   UNL A   1      43.719  33.913  29.541  1.00  0.00    -0.014 A 
BRANCH  43  44
ATOM     44  C   UNL A   1      42.984  33.082  30.459  1.00  0.00     0.031 A 
ATOM     45  C   UNL A   1      43.249  31.658  30.205  1.00  0.00     0.074 A 
ATOM     46  C   UNL A   1      42.229  33.593  31.449  1.00  0.00     0.049 A 
ATOM     47  N   UNL A   1      42.507  30.837  29.542  1.00  0.00    -0.248 NA
ATOM     48  C   UNL A   1      44.607  31.158  30.475  1.00  0.00     0.031 C 
ATOM     49  C   UNL A   1      42.180  34.983  31.916  1.00  0.00     0.029 A 
ATOM     50  N   UNL A   1      41.403  32.948  32.316  1.00  0.00    -0.354 N 
ATOM     51  C   UNL A   1      43.187  29.629  29.606  1.00  0.00     0.074 A 
ATOM     52  C   UNL A   1      44.553  29.951  29.910  1.00  0.00     0.031 C 
ATOM     53  C   UNL A   1      41.552  35.029  33.114  1.00  0.00     0.029 A 
ATOM     54  C   UNL A   1      41.026  33.708  33.416  1.00  0.00     0.049 A 
ATOM     55  H   UNL A   1      41.098  32.022  32.175  1.00  0.00     0.167 HD
ATOM     56  C   UNL A   1      42.494  28.475  29.802  1.00  0.00     0.037 A 
ATOM     57  C   UNL A   1      40.368  33.251  34.511  1.00  0.00     0.037 A 
ATOM     58  C   UNL A   1      41.085  28.684  29.567  1.00  0.00     0.049 A 
ATOM     59  C   UNL A   1      39.675  31.999  34.114  1.00  0.00     0.074 A 
ATOM     60  C   UNL A   1      40.272  28.871  28.471  1.00  0.00     0.029 A 
ATOM     61  N   UNL A   1      40.402  29.133  30.668  1.00  0.00    -0.354 N 
ATOM     62  N   UNL A   1      38.702  31.965  33.244  1.00  0.00    -0.248 NA
ATOM     63  C   UNL A   1      40.310  30.712  34.384  1.00  0.00     0.031 C 
ATOM     64  C   UNL A   1      39.132  29.591  28.938  1.00  0.00     0.029 A 
ATOM     65  C   UNL A   1      39.256  29.792  30.311  1.00  0.00     0.049 A 
ATOM     66  H   UNL A   1      40.698  28.999  31.598  1.00  0.00     0.167 HD
ATOM     67  C   UNL A   1      38.883  30.775  32.565  1.00  0.00     0.074 A 
ATOM     68  C   UNL A   1      39.766  29.979  33.408  1.00  0.00     0.031 C 
ATOM     69  C   UNL A   1      38.574  30.671  31.241  1.00  0.00     0.037 A 
BRANCH  56  70
ATOM     70  C   UNL A   1      42.970  27.343  30.688  1.00  0.00     0.058 A 
ATOM     71  C   UNL A   1      43.134  27.585  32.066  1.00  0.00     0.135 A 
ATOM     72  C   UNL A   1      43.545  26.142  30.212  1.00  0.00     0.135 A 
ATOM     73  F   UNL A   1      42.644  28.704  32.626  1.00  0.00    -0.206 F 
ATOM     74  C   UNL A   1      43.862  26.728  32.895  1.00  0.00     0.059 A 
ATOM     75  C   UNL A   1      44.225  25.249  31.029  1.00  0.00     0.059 A 
ATOM     76  F   UNL A   1      43.572  25.812  28.917  1.00  0.00    -0.206 F 
ATOM     77  C   UNL A   1      44.411  25.566  32.362  1.00  0.00     0.060 A 
BRANCH  77  78
ATOM     78  S   UNL A   1      45.410  24.490  33.401  1.00  0.00     0.124 S 
ATOM     79  O   UNL A   1      46.742  25.049  33.204  1.00  0.00    -0.237 OA
ATOM     80  O   UNL A   1      44.810  24.699  34.714  1.00  0.00    -0.237 OA
ATOM     81  O   UNL A   1      45.189  23.168  32.822  1.00  0.00    -0.744 OA
ENDBRANCH  77  78
ENDBRANCH  56  70
BRANCH  57  82
ATOM     82  C   UNL A   1      40.539  33.655  35.930  1.00  0.00     0.058 A 
ATOM     83  C   UNL A   1      39.683  34.592  36.535  1.00  0.00     0.135 A 
ATOM     84  C   UNL A   1      41.365  32.912  36.798  1.00  0.00     0.135 A 
ATOM     85  F   UNL A   1      38.848  35.324  35.784  1.00  0.00    -0.206 F 
ATOM     86  C   UNL A   1      39.616  34.752  37.924  1.00  0.00     0.059 A 
ATOM     87  C   UNL A   1      41.318  33.057  38.184  1.00  0.00     0.059 A 
ATOM     88  F   UNL A   1      42.177  31.956  36.324  1.00  0.00    -0.206 F 
ATOM     89  C   UNL A   1      40.425  33.964  38.743  1.00  0.00     0.060 A 
BRANCH  89  90
ATOM     90  S   UNL A   1      40.225  34.051  40.539  1.00  0.00     0.124 S 
ATOM     91  O   UNL A   1      39.590  35.352  40.709  1.00  0.00    -0.237 OA
ATOM     92  O   UNL A   1      39.384  32.890  40.813  1.00  0.00    -0.237 OA
ATOM     93  O   UNL A   1      41.594  33.956  41.037  1.00  0.00    -0.744 OA
ENDBRANCH  89  90
ENDBRANCH  57  82
BRANCH  69  94
ATOM     94  C   UNL A   1      37.547  31.616  30.689  1.00  0.00     0.058 A 
ATOM     95  C   UNL A   1      37.825  32.746  29.903  1.00  0.00     0.135 A 
ATOM     96  C   UNL A   1      36.199  31.296  30.908  1.00  0.00     0.135 A 
ATOM     97  F   UNL A   1      39.086  33.072  29.586  1.00  0.00    -0.206 F 
ATOM     98  C   UNL A   1      36.799  33.541  29.383  1.00  0.00     0.059 A 
ATOM     99  C   UNL A   1      35.164  32.052  30.374  1.00  0.00     0.059 A 
ATOM    100  F   UNL A   1      35.874  30.201  31.614  1.00  0.00    -0.206 F 
ATOM    101  C   UNL A   1      35.471  33.183  29.623  1.00  0.00     0.060 A 
BRANCH 101 102
ATOM    102  S   UNL A   1      34.142  34.169  28.899  1.00  0.00     0.124 S 
ATOM    103  O   UNL A   1      34.867  35.313  28.359  1.00  0.00    -0.237 OA
ATOM    104  O   UNL A   1      33.572  33.255  27.914  1.00  0.00    -0.237 OA
ATOM    105  O   UNL A   1      33.275  34.462  30.038  1.00  0.00    -0.744 OA
ENDBRANCH 101 102
ENDBRANCH  69  94
ENDBRANCH  43  44
ENDBRANCH  36  38
ENDBRANCH  35  36
ENDBRANCH  34  35
ENDBRANCH  33  34
ENDBRANCH  32  33
ENDBRANCH  31  32
ENDBRANCH   1  31
TORSDOF 26
ENDMDL
