MODEL 1
REMARK VINA RESULT:      -9.0      0.000      0.000
REMARK SMILES Nc1ccc(S[C@@H](C(=O)OCCOCCOCCOCCOC(=O)c2ccc(-c3c4nc(c(-c5c(F)cc(S(=O)(=O)[O-])cc5F)c5ccc([nH]5)c(-c5c(F)cc(S(=O)(=O)[O-])cc5F)c5nc(c(-c6c(F)cc(S(=O)(=O)[O-])cc6F)c6ccc3[nH]6)C=C5)C=C4)cc2)C2CC2)cc1F
REMARK SMILES IDX 16 1 15 2 14 3 13 4 12 5 11 6 10 7 8 8 9 9 7 10 6 11 5 12
REMARK SMILES IDX 2 13 3 14 95 15 4 16 94 17 96 18 1 19 91 22 92 23 93 24
REMARK SMILES IDX 17 25 18 26 19 27 20 28 21 29 22 30 23 31 24 32 25 33 26 34
REMARK SMILES IDX 90 35 27 36 89 37 28 38 29 39 30 40 83 41 31 42 88 43 82 44
REMARK SMILES IDX 84 45 32 46 87 47 81 48 80 49 33 51 67 52 46 53 66 54 47 55
REMARK SMILES IDX 50 56 65 57 85 58 48 59 49 60 64 62 86 63 51 64 34 65 35 66
REMARK SMILES IDX 44 67 36 68 37 69 43 70 45 71 38 72 39 73 40 74 41 75 42 76
REMARK SMILES IDX 68 77 69 78 78 79 70 80 71 81 77 82 79 83 72 84 73 85 74 86
REMARK SMILES IDX 75 87 76 88 52 89 53 90 62 91 54 92 55 93 61 94 63 95 56 96
REMARK SMILES IDX 57 97 58 98 59 99 60 100
REMARK H PARENT 1 20 1 21 84 50 50 61
REMARK Flexibility Score: inf
ROOT
ATOM      1  O   UNL A   1      34.352  31.728  28.442  1.00  0.00    -0.377 OA
ENDROOT
BRANCH   1   2
ATOM      2  C   UNL A   1      33.426  31.341  27.451  1.00  0.00     0.188 C 
BRANCH   2   3
ATOM      3  C   UNL A   1      32.837  29.929  27.236  1.00  0.00     0.188 C 
BRANCH   3   4
ATOM      4  O   UNL A   1      33.731  28.845  27.140  1.00  0.00    -0.376 OA
BRANCH   4   5
ATOM      5  C   UNL A   1      33.365  27.614  26.547  1.00  0.00     0.202 C 
BRANCH   5   6
ATOM      6  C   UNL A   1      31.926  27.062  26.486  1.00  0.00     0.261 C 
BRANCH   6   7
ATOM      7  O   UNL A   1      31.729  25.691  26.879  1.00  0.00    -0.462 OA
BRANCH   7   8
ATOM      8  C   UNL A   1      30.798  24.965  26.224  1.00  0.00     0.319 C 
ATOM      9  O   UNL A   1      29.746  24.641  26.773  1.00  0.00    -0.251 OA
BRANCH   8  10
ATOM     10  C   UNL A   1      31.132  24.552  24.769  1.00  0.00     0.164 C 
BRANCH  10  11
ATOM     11  S   UNL A   1      32.852  24.009  24.303  1.00  0.00    -0.110 SA
BRANCH  11  12
ATOM     12  C   UNL A   1      33.203  22.259  24.581  1.00  0.00     0.011 A 
ATOM     13  C   UNL A   1      34.090  19.527  24.659  1.00  0.00     0.068 A 
ATOM     14  C   UNL A   1      32.767  19.845  24.394  1.00  0.00     0.030 A 
ATOM     15  C   UNL A   1      34.936  20.579  25.021  1.00  0.00     0.147 A 
ATOM     16  C   UNL A   1      32.340  21.188  24.362  1.00  0.00     0.017 A 
ATOM     17  C   UNL A   1      34.515  21.919  24.968  1.00  0.00     0.056 A 
ATOM     18  F   UNL A   1      36.212  20.308  25.346  1.00  0.00    -0.205 F 
BRANCH  13  19
ATOM     19  N   UNL A   1      34.518  18.204  24.629  1.00  0.00    -0.396 N 
ATOM     20  H   UNL A   1      35.427  17.974  24.927  1.00  0.00     0.156 HD
ATOM     21  H   UNL A   1      33.911  17.498  24.308  1.00  0.00     0.156 HD
ENDBRANCH  13  19
ENDBRANCH  11  12
ENDBRANCH  10  11
BRANCH  10  22
ATOM     22  C   UNL A   1      30.358  25.213  23.653  1.00  0.00     0.014 C 
ATOM     23  C   UNL A   1      29.692  26.570  23.830  1.00  0.00     0.006 C 
ATOM     24  C   UNL A   1      30.796  26.419  22.842  1.00  0.00     0.006 C 
ENDBRANCH  10  22
ENDBRANCH   8  10
ENDBRANCH   7   8
ENDBRANCH   6   7
ENDBRANCH   5   6
ENDBRANCH   4   5
ENDBRANCH   3   4
ENDBRANCH   2   3
ENDBRANCH   1   2
BRANCH   1  25
ATOM     25  C   UNL A   1      34.778  33.064  28.448  1.00  0.00     0.188 C 
BRANCH  25  26
ATOM     26  C   UNL A   1      35.163  33.529  29.855  1.00  0.00     0.188 C 
BRANCH  26  27
ATOM     27  O   UNL A   1      34.266  33.079  30.863  1.00  0.00    -0.376 OA
BRANCH  27  28
ATOM     28  C   UNL A   1      34.775  32.367  31.985  1.00  0.00     0.202 C 
BRANCH  28  29
ATOM     29  C   UNL A   1      35.907  31.330  31.870  1.00  0.00     0.261 C 
BRANCH  29  30
ATOM     30  O   UNL A   1      37.157  31.615  32.492  1.00  0.00    -0.460 OA
BRANCH  30  31
ATOM     31  C   UNL A   1      37.968  32.523  31.933  1.00  0.00     0.338 C 
ATOM     32  O   UNL A   1      37.966  33.731  32.104  1.00  0.00    -0.246 OA
BRANCH  31  33
ATOM     33  C   UNL A   1      39.013  31.732  31.259  1.00  0.00     0.060 A 
ATOM     34  C   UNL A   1      39.865  30.949  32.045  1.00  0.00     0.016 A 
ATOM     35  C   UNL A   1      39.073  31.681  29.860  1.00  0.00     0.016 A 
ATOM     36  C   UNL A   1      40.793  30.115  31.435  1.00  0.00     0.010 A 
ATOM     37  C   UNL A   1      40.032  30.877  29.249  1.00  0.00     0.010 A 
ATOM     38  C   UNL A   1      40.913  30.122  30.040  1.00  0.00    -0.014 A 
BRANCH  38  39
ATOM     39  C   UNL A   1      42.143  29.568  29.445  1.00  0.00     0.031 A 
ATOM     40  C   UNL A   1      43.327  30.490  29.358  1.00  0.00     0.074 A 
ATOM     41  C   UNL A   1      42.217  28.284  29.062  1.00  0.00     0.049 A 
ATOM     42  N   UNL A   1      44.520  30.266  28.882  1.00  0.00    -0.248 NA
ATOM     43  C   UNL A   1      43.136  31.853  29.886  1.00  0.00     0.031 C 
ATOM     44  C   UNL A   1      41.133  27.308  29.163  1.00  0.00     0.029 A 
ATOM     45  N   UNL A   1      43.255  27.582  28.510  1.00  0.00    -0.354 N 
ATOM     46  C   UNL A   1      45.216  31.457  29.048  1.00  0.00     0.074 A 
ATOM     47  C   UNL A   1      44.309  32.411  29.638  1.00  0.00     0.031 C 
ATOM     48  C   UNL A   1      41.562  26.130  28.675  1.00  0.00     0.029 A 
ATOM     49  C   UNL A   1      42.935  26.283  28.198  1.00  0.00     0.049 A 
ATOM     50  H   UNL A   1      44.145  27.972  28.350  1.00  0.00     0.167 HD
ATOM     51  C   UNL A   1      46.506  31.723  28.740  1.00  0.00     0.037 A 
ATOM     52  C   UNL A   1      43.670  25.341  27.574  1.00  0.00     0.037 A 
ATOM     53  C   UNL A   1      47.385  30.757  28.139  1.00  0.00     0.049 A 
ATOM     54  C   UNL A   1      45.081  25.686  27.166  1.00  0.00     0.074 A 
ATOM     55  C   UNL A   1      48.709  30.907  27.777  1.00  0.00     0.029 A 
ATOM     56  N   UNL A   1      47.017  29.460  27.804  1.00  0.00    -0.354 N 
ATOM     57  N   UNL A   1      45.739  26.810  27.338  1.00  0.00    -0.248 NA
ATOM     58  C   UNL A   1      45.852  24.637  26.487  1.00  0.00     0.031 C 
ATOM     59  C   UNL A   1      49.124  29.720  27.166  1.00  0.00     0.029 A 
ATOM     60  C   UNL A   1      48.082  28.806  27.213  1.00  0.00     0.049 A 
ATOM     61  H   UNL A   1      46.129  29.065  27.962  1.00  0.00     0.167 HD
ATOM     62  C   UNL A   1      47.012  26.593  26.820  1.00  0.00     0.074 A 
ATOM     63  C   UNL A   1      47.030  25.226  26.334  1.00  0.00     0.031 C 
ATOM     64  C   UNL A   1      48.071  27.438  26.754  1.00  0.00     0.037 A 
BRANCH  51  65
ATOM     65  C   UNL A   1      47.014  33.112  29.005  1.00  0.00     0.058 A 
ATOM     66  C   UNL A   1      47.634  33.461  30.217  1.00  0.00     0.135 A 
ATOM     67  C   UNL A   1      46.889  34.111  28.025  1.00  0.00     0.135 A 
ATOM     68  F   UNL A   1      47.754  32.554  31.201  1.00  0.00    -0.206 F 
ATOM     69  C   UNL A   1      48.092  34.752  30.455  1.00  0.00     0.059 A 
ATOM     70  C   UNL A   1      47.368  35.400  28.230  1.00  0.00     0.059 A 
ATOM     71  F   UNL A   1      46.291  33.838  26.855  1.00  0.00    -0.206 F 
ATOM     72  C   UNL A   1      47.959  35.714  29.452  1.00  0.00     0.060 A 
BRANCH  72  73
ATOM     73  S   UNL A   1      48.577  37.380  29.769  1.00  0.00     0.124 S 
ATOM     74  O   UNL A   1      49.412  37.612  28.595  1.00  0.00    -0.237 OA
ATOM     75  O   UNL A   1      47.344  38.161  29.833  1.00  0.00    -0.237 OA
ATOM     76  O   UNL A   1      49.295  37.243  31.032  1.00  0.00    -0.744 OA
ENDBRANCH  72  73
ENDBRANCH  51  65
BRANCH  52  77
ATOM     77  C   UNL A   1      43.086  24.004  27.289  1.00  0.00     0.058 A 
ATOM     78  C   UNL A   1      42.416  23.739  26.087  1.00  0.00     0.135 A 
ATOM     79  C   UNL A   1      43.192  22.954  28.219  1.00  0.00     0.135 A 
ATOM     80  F   UNL A   1      42.278  24.707  25.169  1.00  0.00    -0.206 F 
ATOM     81  C   UNL A   1      41.860  22.491  25.818  1.00  0.00     0.059 A 
ATOM     82  C   UNL A   1      42.673  21.690  27.962  1.00  0.00     0.059 A 
ATOM     83  F   UNL A   1      43.832  23.149  29.382  1.00  0.00    -0.206 F 
ATOM     84  C   UNL A   1      41.998  21.470  26.762  1.00  0.00     0.060 A 
BRANCH  84  85
ATOM     85  S   UNL A   1      41.317  19.842  26.382  1.00  0.00     0.124 S 
ATOM     86  O   UNL A   1      40.031  20.192  25.788  1.00  0.00    -0.237 OA
ATOM     87  O   UNL A   1      42.317  19.299  25.467  1.00  0.00    -0.237 OA
ATOM     88  O   UNL A   1      41.254  19.191  27.686  1.00  0.00    -0.744 OA
ENDBRANCH  84  85
ENDBRANCH  52  77
BRANCH  64  89
ATOM     89  C   UNL A   1      49.355  26.900  26.185  1.00  0.00     0.058 A 
ATOM     90  C   UNL A   1      49.733  27.131  24.855  1.00  0.00     0.135 A 
ATOM     91  C   UNL A   1      50.252  26.205  27.015  1.00  0.00     0.135 A 
ATOM     92  F   UNL A   1      48.911  27.786  24.021  1.00  0.00    -0.206 F 
ATOM     93  C   UNL A   1      50.948  26.672  24.358  1.00  0.00     0.059 A 
ATOM     94  C   UNL A   1      51.486  25.767  26.549  1.00  0.00     0.059 A 
ATOM     95  F   UNL A   1      49.943  25.970  28.299  1.00  0.00    -0.206 F 
ATOM     96  C   UNL A   1      51.821  25.997  25.215  1.00  0.00     0.060 A 
BRANCH  96  97
ATOM     97  S   UNL A   1      53.413  25.446  24.568  1.00  0.00     0.124 S 
ATOM     98  O   UNL A   1      53.259  25.714  23.142  1.00  0.00    -0.237 OA
ATOM     99  O   UNL A   1      54.352  26.307  25.278  1.00  0.00    -0.237 OA
ATOM    100  O   UNL A   1      53.461  24.035  24.938  1.00  0.00    -0.744 OA
ENDBRANCH  96  97
ENDBRANCH  64  89
ENDBRANCH  38  39
ENDBRANCH  31  33
ENDBRANCH  30  31
ENDBRANCH  29  30
ENDBRANCH  28  29
ENDBRANCH  27  28
ENDBRANCH  26  27
ENDBRANCH  25  26
ENDBRANCH   1  25
TORSDOF 27
ENDMDL
MODEL 2
REMARK VINA RESULT:      -7.7      4.434      8.178
REMARK SMILES Nc1ccc(S[C@@H](C(=O)OCCOCCOCCOCCOC(=O)c2ccc(-c3c4nc(c(-c5c(F)cc(S(=O)(=O)[O-])cc5F)c5ccc([nH]5)c(-c5c(F)cc(S(=O)(=O)[O-])cc5F)c5nc(c(-c6c(F)cc(S(=O)(=O)[O-])cc6F)c6ccc3[nH]6)C=C5)C=C4)cc2)C2CC2)cc1F
REMARK SMILES IDX 16 1 15 2 14 3 13 4 12 5 11 6 10 7 8 8 9 9 7 10 6 11 5 12
REMARK SMILES IDX 2 13 3 14 95 15 4 16 94 17 96 18 1 19 91 22 92 23 93 24
REMARK SMILES IDX 17 25 18 26 19 27 20 28 21 29 22 30 23 31 24 32 25 33 26 34
REMARK SMILES IDX 90 35 27 36 89 37 28 38 29 39 30 40 83 41 31 42 88 43 82 44
REMARK SMILES IDX 84 45 32 46 87 47 81 48 80 49 33 51 67 52 46 53 66 54 47 55
REMARK SMILES IDX 50 56 65 57 85 58 48 59 49 60 64 62 86 63 51 64 34 65 35 66
REMARK SMILES IDX 44 67 36 68 37 69 43 70 45 71 38 72 39 73 40 74 41 75 42 76
REMARK SMILES IDX 68 77 69 78 78 79 70 80 71 81 77 82 79 83 72 84 73 85 74 86
REMARK SMILES IDX 75 87 76 88 52 89 53 90 62 91 54 92 55 93 61 94 63 95 56 96
REMARK SMILES IDX 57 97 58 98 59 99 60 100
REMARK H PARENT 1 20 1 21 84 50 50 61
REMARK Flexibility Score: inf
ROOT
ATOM      1  O   UNL A   1      39.192  33.453  34.515  1.00  0.00    -0.377 OA
ENDROOT
BRANCH   1   2
ATOM      2  C   UNL A   1      39.847  33.388  35.762  1.00  0.00     0.188 C 
BRANCH   2   3
ATOM      3  C   UNL A   1      40.288  32.109  36.510  1.00  0.00     0.188 C 
BRANCH   3   4
ATOM      4  O   UNL A   1      39.623  30.904  36.211  1.00  0.00    -0.376 OA
BRANCH   4   5
ATOM      5  C   UNL A   1      40.266  29.830  35.552  1.00  0.00     0.202 C 
BRANCH   5   6
ATOM      6  C   UNL A   1      41.787  29.577  35.562  1.00  0.00     0.261 C 
BRANCH   6   7
ATOM      7  O   UNL A   1      42.368  29.008  34.374  1.00  0.00    -0.462 OA
BRANCH   7   8
ATOM      8  C   UNL A   1      42.371  27.664  34.243  1.00  0.00     0.319 C 
ATOM      9  O   UNL A   1      41.360  27.003  34.476  1.00  0.00    -0.251 OA
BRANCH   8  10
ATOM     10  C   UNL A   1      43.705  27.008  33.808  1.00  0.00     0.164 C 
BRANCH  10  11
ATOM     11  S   UNL A   1      44.680  27.689  32.375  1.00  0.00    -0.110 SA
BRANCH  11  12
ATOM     12  C   UNL A   1      45.825  29.022  32.794  1.00  0.00     0.011 A 
ATOM     13  C   UNL A   1      47.324  31.435  33.227  1.00  0.00     0.068 A 
ATOM     14  C   UNL A   1      47.866  30.368  32.526  1.00  0.00     0.030 A 
ATOM     15  C   UNL A   1      46.079  31.232  33.828  1.00  0.00     0.147 A 
ATOM     16  C   UNL A   1      47.125  29.187  32.322  1.00  0.00     0.017 A 
ATOM     17  C   UNL A   1      45.331  30.063  33.606  1.00  0.00     0.056 A 
ATOM     18  F   UNL A   1      45.544  32.218  34.568  1.00  0.00    -0.205 F 
BRANCH  13  19
ATOM     19  N   UNL A   1      48.038  32.620  33.372  1.00  0.00    -0.396 N 
ATOM     20  H   UNL A   1      48.062  33.075  34.244  1.00  0.00     0.156 HD
ATOM     21  H   UNL A   1      48.517  33.002  32.602  1.00  0.00     0.156 HD
ENDBRANCH  13  19
ENDBRANCH  11  12
ENDBRANCH  10  11
BRANCH  10  22
ATOM     22  C   UNL A   1      43.863  25.521  34.026  1.00  0.00     0.014 C 
ATOM     23  C   UNL A   1      45.222  24.839  33.967  1.00  0.00     0.006 C 
ATOM     24  C   UNL A   1      44.461  24.846  35.247  1.00  0.00     0.006 C 
ENDBRANCH  10  22
ENDBRANCH   8  10
ENDBRANCH   7   8
ENDBRANCH   6   7
ENDBRANCH   5   6
ENDBRANCH   4   5
ENDBRANCH   3   4
ENDBRANCH   2   3
ENDBRANCH   1   2
BRANCH   1  25
ATOM     25  C   UNL A   1      38.526  34.644  34.192  1.00  0.00     0.188 C 
BRANCH  25  26
ATOM     26  C   UNL A   1      37.570  34.456  33.011  1.00  0.00     0.188 C 
BRANCH  26  27
ATOM     27  O   UNL A   1      36.400  35.259  33.098  1.00  0.00    -0.376 OA
BRANCH  27  28
ATOM     28  C   UNL A   1      35.151  34.723  32.679  1.00  0.00     0.202 C 
BRANCH  28  29
ATOM     29  C   UNL A   1      34.605  33.378  33.197  1.00  0.00     0.261 C 
BRANCH  29  30
ATOM     30  O   UNL A   1      34.949  32.189  32.493  1.00  0.00    -0.460 OA
BRANCH  30  31
ATOM     31  C   UNL A   1      34.906  32.192  31.154  1.00  0.00     0.338 C 
ATOM     32  O   UNL A   1      34.091  32.744  30.435  1.00  0.00    -0.246 OA
BRANCH  31  33
ATOM     33  C   UNL A   1      36.185  31.591  30.734  1.00  0.00     0.060 A 
ATOM     34  C   UNL A   1      36.905  30.839  31.669  1.00  0.00     0.016 A 
ATOM     35  C   UNL A   1      36.607  31.679  29.402  1.00  0.00     0.016 A 
ATOM     36  C   UNL A   1      38.061  30.178  31.277  1.00  0.00     0.010 A 
ATOM     37  C   UNL A   1      37.789  31.051  29.019  1.00  0.00     0.010 A 
ATOM     38  C   UNL A   1      38.532  30.330  29.967  1.00  0.00    -0.014 A 
BRANCH  38  39
ATOM     39  C   UNL A   1      39.936  29.977  29.688  1.00  0.00     0.031 A 
ATOM     40  C   UNL A   1      40.958  31.061  29.887  1.00  0.00     0.074 A 
ATOM     41  C   UNL A   1      40.287  28.730  29.336  1.00  0.00     0.049 A 
ATOM     42  N   UNL A   1      42.250  31.026  29.713  1.00  0.00    -0.248 NA
ATOM     43  C   UNL A   1      40.449  32.365  30.351  1.00  0.00     0.031 C 
ATOM     44  C   UNL A   1      39.365  27.606  29.175  1.00  0.00     0.029 A 
ATOM     45  N   UNL A   1      41.518  28.203  29.052  1.00  0.00    -0.354 N 
ATOM     46  C   UNL A   1      42.704  32.298  30.039  1.00  0.00     0.074 A 
ATOM     47  C   UNL A   1      41.552  33.093  30.392  1.00  0.00     0.031 C 
ATOM     48  C   UNL A   1      40.067  26.520  28.807  1.00  0.00     0.029 A 
ATOM     49  C   UNL A   1      41.476  26.883  28.675  1.00  0.00     0.049 A 
ATOM     50  H   UNL A   1      42.353  28.721  29.111  1.00  0.00     0.167 HD
ATOM     51  C   UNL A   1      43.976  32.756  30.051  1.00  0.00     0.037 A 
ATOM     52  C   UNL A   1      42.469  26.077  28.248  1.00  0.00     0.037 A 
ATOM     53  C   UNL A   1      45.105  31.946  29.682  1.00  0.00     0.049 A 
ATOM     54  C   UNL A   1      43.870  26.633  28.192  1.00  0.00     0.074 A 
ATOM     55  C   UNL A   1      46.441  32.296  29.649  1.00  0.00     0.029 A 
ATOM     56  N   UNL A   1      45.022  30.622  29.270  1.00  0.00    -0.354 N 
ATOM     57  N   UNL A   1      44.296  27.833  28.515  1.00  0.00    -0.248 NA
ATOM     58  C   UNL A   1      44.926  25.729  27.720  1.00  0.00     0.031 C 
ATOM     59  C   UNL A   1      47.160  31.202  29.158  1.00  0.00     0.029 A 
ATOM     60  C   UNL A   1      46.282  30.147  28.955  1.00  0.00     0.049 A 
ATOM     61  H   UNL A   1      44.190  30.099  29.211  1.00  0.00     0.167 HD
ATOM     62  C   UNL A   1      45.673  27.818  28.319  1.00  0.00     0.074 A 
ATOM     63  C   UNL A   1      46.007  26.485  27.855  1.00  0.00     0.031 C 
ATOM     64  C   UNL A   1      46.581  28.808  28.509  1.00  0.00     0.037 A 
BRANCH  51  65
ATOM     65  C   UNL A   1      44.197  34.194  30.428  1.00  0.00     0.058 A 
ATOM     66  C   UNL A   1      44.391  35.196  29.462  1.00  0.00     0.135 A 
ATOM     67  C   UNL A   1      44.207  34.578  31.778  1.00  0.00     0.135 A 
ATOM     68  F   UNL A   1      44.422  34.881  28.157  1.00  0.00    -0.206 F 
ATOM     69  C   UNL A   1      44.605  36.522  29.822  1.00  0.00     0.059 A 
ATOM     70  C   UNL A   1      44.387  35.904  32.160  1.00  0.00     0.059 A 
ATOM     71  F   UNL A   1      44.043  33.660  32.744  1.00  0.00    -0.206 F 
ATOM     72  C   UNL A   1      44.596  36.867  31.175  1.00  0.00     0.060 A 
BRANCH  72  73
ATOM     73  S   UNL A   1      44.855  38.595  31.626  1.00  0.00     0.124 S 
ATOM     74  O   UNL A   1      46.209  38.557  32.170  1.00  0.00    -0.237 OA
ATOM     75  O   UNL A   1      44.709  39.275  30.342  1.00  0.00    -0.237 OA
ATOM     76  O   UNL A   1      43.797  38.857  32.596  1.00  0.00    -0.744 OA
ENDBRANCH  72  73
ENDBRANCH  51  65
BRANCH  52  77
ATOM     77  C   UNL A   1      42.172  24.680  27.834  1.00  0.00     0.058 A 
ATOM     78  C   UNL A   1      42.303  23.608  28.727  1.00  0.00     0.135 A 
ATOM     79  C   UNL A   1      41.742  24.388  26.527  1.00  0.00     0.135 A 
ATOM     80  F   UNL A   1      42.719  23.829  29.984  1.00  0.00    -0.206 F 
ATOM     81  C   UNL A   1      42.034  22.297  28.342  1.00  0.00     0.059 A 
ATOM     82  C   UNL A   1      41.438  23.092  26.127  1.00  0.00     0.059 A 
ATOM     83  F   UNL A   1      41.590  25.377  25.633  1.00  0.00    -0.206 F 
ATOM     84  C   UNL A   1      41.597  22.050  27.039  1.00  0.00     0.060 A 
BRANCH  84  85
ATOM     85  S   UNL A   1      41.204  20.353  26.566  1.00  0.00     0.124 S 
ATOM     86  O   UNL A   1      42.175  20.110  25.504  1.00  0.00    -0.237 OA
ATOM     87  O   UNL A   1      41.427  19.629  27.813  1.00  0.00    -0.237 OA
ATOM     88  O   UNL A   1      39.811  20.436  26.139  1.00  0.00    -0.744 OA
ENDBRANCH  84  85
ENDBRANCH  52  77
BRANCH  64  89
ATOM     89  C   UNL A   1      48.029  28.478  28.268  1.00  0.00     0.058 A 
ATOM     90  C   UNL A   1      48.789  27.750  29.195  1.00  0.00     0.135 A 
ATOM     91  C   UNL A   1      48.637  28.834  27.051  1.00  0.00     0.135 A 
ATOM     92  F   UNL A   1      48.258  27.390  30.373  1.00  0.00    -0.206 F 
ATOM     93  C   UNL A   1      50.112  27.408  28.935  1.00  0.00     0.059 A 
ATOM     94  C   UNL A   1      49.945  28.471  26.756  1.00  0.00     0.059 A 
ATOM     95  F   UNL A   1      47.947  29.518  26.125  1.00  0.00    -0.206 F 
ATOM     96  C   UNL A   1      50.679  27.767  27.710  1.00  0.00     0.060 A 
BRANCH  96  97
ATOM     97  S   UNL A   1      52.381  27.276  27.369  1.00  0.00     0.124 S 
ATOM     98  O   UNL A   1      52.628  27.939  26.093  1.00  0.00    -0.237 OA
ATOM     99  O   UNL A   1      53.097  27.821  28.517  1.00  0.00    -0.237 OA
ATOM    100  O   UNL A   1      52.311  25.819  27.314  1.00  0.00    -0.744 OA
ENDBRANCH  96  97
ENDBRANCH  64  89
ENDBRANCH  38  39
ENDBRANCH  31  33
ENDBRANCH  30  31
ENDBRANCH  29  30
ENDBRANCH  28  29
ENDBRANCH  27  28
ENDBRANCH  26  27
ENDBRANCH  25  26
ENDBRANCH   1  25
TORSDOF 27
ENDMDL
MODEL 3
REMARK VINA RESULT:      -7.4      7.584     13.001
REMARK SMILES Nc1ccc(S[C@@H](C(=O)OCCOCCOCCOCCOC(=O)c2ccc(-c3c4nc(c(-c5c(F)cc(S(=O)(=O)[O-])cc5F)c5ccc([nH]5)c(-c5c(F)cc(S(=O)(=O)[O-])cc5F)c5nc(c(-c6c(F)cc(S(=O)(=O)[O-])cc6F)c6ccc3[nH]6)C=C5)C=C4)cc2)C2CC2)cc1F
REMARK SMILES IDX 16 1 15 2 14 3 13 4 12 5 11 6 10 7 8 8 9 9 7 10 6 11 5 12
REMARK SMILES IDX 2 13 3 14 95 15 4 16 94 17 96 18 1 19 91 22 92 23 93 24
REMARK SMILES IDX 17 25 18 26 19 27 20 28 21 29 22 30 23 31 24 32 25 33 26 34
REMARK SMILES IDX 90 35 27 36 89 37 28 38 29 39 30 40 83 41 31 42 88 43 82 44
REMARK SMILES IDX 84 45 32 46 87 47 81 48 80 49 33 51 67 52 46 53 66 54 47 55
REMARK SMILES IDX 50 56 65 57 85 58 48 59 49 60 64 62 86 63 51 64 34 65 35 66
REMARK SMILES IDX 44 67 36 68 37 69 43 70 45 71 38 72 39 73 40 74 41 75 42 76
REMARK SMILES IDX 68 77 69 78 78 79 70 80 71 81 77 82 79 83 72 84 73 85 74 86
REMARK SMILES IDX 75 87 76 88 52 89 53 90 62 91 54 92 55 93 61 94 63 95 56 96
REMARK SMILES IDX 57 97 58 98 59 99 60 100
REMARK H PARENT 1 20 1 21 84 50 50 61
REMARK Flexibility Score: inf
ROOT
ATOM      1  O   UNL A   1      37.813  30.736  28.555  1.00  0.00    -0.377 OA
ENDROOT
BRANCH   1   2
ATOM      2  C   UNL A   1      36.427  30.636  28.797  1.00  0.00     0.188 C 
BRANCH   2   3
ATOM      3  C   UNL A   1      35.296  30.723  27.748  1.00  0.00     0.188 C 
BRANCH   3   4
ATOM      4  O   UNL A   1      35.101  29.623  26.890  1.00  0.00    -0.376 OA
BRANCH   4   5
ATOM      5  C   UNL A   1      33.906  28.868  26.890  1.00  0.00     0.202 C 
BRANCH   5   6
ATOM      6  C   UNL A   1      33.341  28.116  25.667  1.00  0.00     0.261 C 
BRANCH   6   7
ATOM      7  O   UNL A   1      33.288  28.834  24.419  1.00  0.00    -0.462 OA
BRANCH   7   8
ATOM      8  C   UNL A   1      32.582  28.296  23.402  1.00  0.00     0.319 C 
ATOM      9  O   UNL A   1      32.144  29.001  22.494  1.00  0.00    -0.251 OA
BRANCH   8  10
ATOM     10  C   UNL A   1      32.342  26.767  23.451  1.00  0.00     0.164 C 
BRANCH  10  11
ATOM     11  S   UNL A   1      33.544  25.587  22.655  1.00  0.00    -0.110 SA
BRANCH  11  12
ATOM     12  C   UNL A   1      33.818  24.048  23.561  1.00  0.00     0.011 A 
ATOM     13  C   UNL A   1      34.713  21.627  24.823  1.00  0.00     0.068 A 
ATOM     14  C   UNL A   1      33.657  21.621  23.924  1.00  0.00     0.030 A 
ATOM     15  C   UNL A   1      35.227  22.873  25.191  1.00  0.00     0.147 A 
ATOM     16  C   UNL A   1      33.222  22.814  23.313  1.00  0.00     0.017 A 
ATOM     17  C   UNL A   1      34.807  24.061  24.565  1.00  0.00     0.056 A 
ATOM     18  F   UNL A   1      36.210  22.930  26.106  1.00  0.00    -0.205 F 
BRANCH  13  19
ATOM     19  N   UNL A   1      35.177  20.438  25.376  1.00  0.00    -0.396 N 
ATOM     20  H   UNL A   1      35.648  20.448  26.240  1.00  0.00     0.156 HD
ATOM     21  H   UNL A   1      35.034  19.587  24.902  1.00  0.00     0.156 HD
ENDBRANCH  13  19
ENDBRANCH  11  12
ENDBRANCH  10  11
BRANCH  10  22
ATOM     22  C   UNL A   1      30.913  26.279  23.486  1.00  0.00     0.014 C 
ATOM     23  C   UNL A   1      30.207  25.946  24.793  1.00  0.00     0.006 C 
ATOM     24  C   UNL A   1      29.702  27.066  23.952  1.00  0.00     0.006 C 
ENDBRANCH  10  22
ENDBRANCH   8  10
ENDBRANCH   7   8
ENDBRANCH   6   7
ENDBRANCH   5   6
ENDBRANCH   4   5
ENDBRANCH   3   4
ENDBRANCH   2   3
ENDBRANCH   1   2
BRANCH   1  25
ATOM     25  C   UNL A   1      38.583  29.572  28.695  1.00  0.00     0.188 C 
BRANCH  25  26
ATOM     26  C   UNL A   1      39.468  29.329  27.470  1.00  0.00     0.188 C 
BRANCH  26  27
ATOM     27  O   UNL A   1      40.365  28.237  27.629  1.00  0.00    -0.376 OA
BRANCH  27  28
ATOM     28  C   UNL A   1      41.509  28.387  28.463  1.00  0.00     0.202 C 
BRANCH  28  29
ATOM     29  C   UNL A   1      42.895  27.833  28.082  1.00  0.00     0.261 C 
BRANCH  29  30
ATOM     30  O   UNL A   1      44.045  28.620  28.378  1.00  0.00    -0.460 OA
BRANCH  30  31
ATOM     31  C   UNL A   1      44.999  28.105  29.167  1.00  0.00     0.338 C 
ATOM     32  O   UNL A   1      45.995  27.489  28.827  1.00  0.00    -0.246 OA
BRANCH  31  33
ATOM     33  C   UNL A   1      44.715  28.648  30.507  1.00  0.00     0.060 A 
ATOM     34  C   UNL A   1      44.138  27.801  31.460  1.00  0.00     0.016 A 
ATOM     35  C   UNL A   1      45.118  29.945  30.847  1.00  0.00     0.016 A 
ATOM     36  C   UNL A   1      43.950  28.252  32.759  1.00  0.00     0.010 A 
ATOM     37  C   UNL A   1      44.892  30.412  32.139  1.00  0.00     0.010 A 
ATOM     38  C   UNL A   1      44.276  29.575  33.083  1.00  0.00    -0.014 A 
BRANCH  38  39
ATOM     39  C   UNL A   1      43.702  30.150  34.313  1.00  0.00     0.031 A 
ATOM     40  C   UNL A   1      42.359  30.810  34.189  1.00  0.00     0.074 A 
ATOM     41  C   UNL A   1      44.324  30.030  35.497  1.00  0.00     0.049 A 
ATOM     42  N   UNL A   1      41.633  31.395  35.101  1.00  0.00    -0.248 NA
ATOM     43  C   UNL A   1      41.748  30.805  32.846  1.00  0.00     0.031 C 
ATOM     44  C   UNL A   1      45.604  29.357  35.716  1.00  0.00     0.029 A 
ATOM     45  N   UNL A   1      43.958  30.474  36.740  1.00  0.00    -0.354 N 
ATOM     46  C   UNL A   1      40.489  31.830  34.443  1.00  0.00     0.074 A 
ATOM     47  C   UNL A   1      40.625  31.473  33.052  1.00  0.00     0.031 C 
ATOM     48  C   UNL A   1      45.923  29.443  37.019  1.00  0.00     0.029 A 
ATOM     49  C   UNL A   1      44.887  30.206  37.714  1.00  0.00     0.049 A 
ATOM     50  H   UNL A   1      43.110  30.942  36.917  1.00  0.00     0.167 HD
ATOM     51  C   UNL A   1      39.415  32.465  34.963  1.00  0.00     0.037 A 
ATOM     52  C   UNL A   1      44.901  30.564  39.014  1.00  0.00     0.037 A 
ATOM     53  C   UNL A   1      39.310  32.822  36.352  1.00  0.00     0.049 A 
ATOM     54  C   UNL A   1      43.728  31.343  39.555  1.00  0.00     0.074 A 
ATOM     55  C   UNL A   1      38.275  33.471  36.998  1.00  0.00     0.029 A 
ATOM     56  N   UNL A   1      40.287  32.567  37.305  1.00  0.00    -0.354 N 
ATOM     57  N   UNL A   1      42.642  31.740  38.932  1.00  0.00    -0.248 NA
ATOM     58  C   UNL A   1      43.777  31.719  40.974  1.00  0.00     0.031 C 
ATOM     59  C   UNL A   1      38.654  33.662  38.330  1.00  0.00     0.029 A 
ATOM     60  C   UNL A   1      39.891  33.069  38.532  1.00  0.00     0.049 A 
ATOM     61  H   UNL A   1      41.136  32.098  37.134  1.00  0.00     0.167 HD
ATOM     62  C   UNL A   1      41.863  32.382  39.889  1.00  0.00     0.074 A 
ATOM     63  C   UNL A   1      42.602  32.313  41.135  1.00  0.00     0.031 C 
ATOM     64  C   UNL A   1      40.647  32.970  39.757  1.00  0.00     0.037 A 
BRANCH  51  65
ATOM     65  C   UNL A   1      38.306  32.848  34.023  1.00  0.00     0.058 A 
ATOM     66  C   UNL A   1      37.343  31.921  33.589  1.00  0.00     0.135 A 
ATOM     67  C   UNL A   1      38.199  34.167  33.554  1.00  0.00     0.135 A 
ATOM     68  F   UNL A   1      37.414  30.639  33.981  1.00  0.00    -0.206 F 
ATOM     69  C   UNL A   1      36.328  32.284  32.711  1.00  0.00     0.059 A 
ATOM     70  C   UNL A   1      37.174  34.560  32.700  1.00  0.00     0.059 A 
ATOM     71  F   UNL A   1      39.101  35.091  33.923  1.00  0.00    -0.206 F 
ATOM     72  C   UNL A   1      36.249  33.608  32.276  1.00  0.00     0.060 A 
BRANCH  72  73
ATOM     73  S   UNL A   1      34.914  34.067  31.151  1.00  0.00     0.124 S 
ATOM     74  O   UNL A   1      35.622  34.164  29.879  1.00  0.00    -0.237 OA
ATOM     75  O   UNL A   1      33.997  32.938  31.281  1.00  0.00    -0.237 OA
ATOM     76  O   UNL A   1      34.428  35.332  31.696  1.00  0.00    -0.744 OA
ENDBRANCH  72  73
ENDBRANCH  51  65
BRANCH  52  77
ATOM     77  C   UNL A   1      46.057  30.204  39.877  1.00  0.00     0.058 A 
ATOM     78  C   UNL A   1      46.085  29.003  40.599  1.00  0.00     0.135 A 
ATOM     79  C   UNL A   1      47.168  31.057  39.992  1.00  0.00     0.135 A 
ATOM     80  F   UNL A   1      45.047  28.156  40.533  1.00  0.00    -0.206 F 
ATOM     81  C   UNL A   1      47.161  28.664  41.415  1.00  0.00     0.059 A 
ATOM     82  C   UNL A   1      48.269  30.728  40.776  1.00  0.00     0.059 A 
ATOM     83  F   UNL A   1      47.200  32.215  39.315  1.00  0.00    -0.206 F 
ATOM     84  C   UNL A   1      48.252  29.533  41.493  1.00  0.00     0.060 A 
BRANCH  84  85
ATOM     85  S   UNL A   1      49.663  29.060  42.515  1.00  0.00     0.124 S 
ATOM     86  O   UNL A   1      49.148  29.300  43.859  1.00  0.00    -0.237 OA
ATOM     87  O   UNL A   1      49.854  27.662  42.143  1.00  0.00    -0.237 OA
ATOM     88  O   UNL A   1      50.718  29.968  42.073  1.00  0.00    -0.744 OA
ENDBRANCH  84  85
ENDBRANCH  52  77
BRANCH  64  89
ATOM     89  C   UNL A   1      40.012  33.538  40.997  1.00  0.00     0.058 A 
ATOM     90  C   UNL A   1      40.075  34.905  41.303  1.00  0.00     0.135 A 
ATOM     91  C   UNL A   1      39.267  32.705  41.848  1.00  0.00     0.135 A 
ATOM     92  F   UNL A   1      40.777  35.743  40.524  1.00  0.00    -0.206 F 
ATOM     93  C   UNL A   1      39.438  35.425  42.425  1.00  0.00     0.059 A 
ATOM     94  C   UNL A   1      38.594  33.208  42.955  1.00  0.00     0.059 A 
ATOM     95  F   UNL A   1      39.165  31.392  41.591  1.00  0.00    -0.206 F 
ATOM     96  C   UNL A   1      38.695  34.569  43.241  1.00  0.00     0.060 A 
BRANCH  96  97
ATOM     97  S   UNL A   1      37.838  35.265  44.669  1.00  0.00     0.124 S 
ATOM     98  O   UNL A   1      36.463  35.328  44.184  1.00  0.00    -0.237 OA
ATOM     99  O   UNL A   1      38.102  34.272  45.704  1.00  0.00    -0.237 OA
ATOM    100  O   UNL A   1      38.494  36.555  44.863  1.00  0.00    -0.744 OA
ENDBRANCH  96  97
ENDBRANCH  64  89
ENDBRANCH  38  39
ENDBRANCH  31  33
ENDBRANCH  30  31
ENDBRANCH  29  30
ENDBRANCH  28  29
ENDBRANCH  27  28
ENDBRANCH  26  27
ENDBRANCH  25  26
ENDBRANCH   1  25
TORSDOF 27
ENDMDL
