MODEL 1
REMARK VINA RESULT:      -9.1      0.000      0.000
REMARK SMILES CCOc1cc(NC(=O)c2c(C(=O)OCCOCCOCCOCCOC(=O)c3ccc(-c4c5nc(c(-c6c(F)cc(S(=O)(=O)[O-])cc6F)c6ccc([nH]6)c(-c6c(F)cc(S(=O)(=O)[O-])cc6F)c6nc(c(-c7c(F)cc(S(=O)(=O)[O-])cc7F)c7ccc4[nH]7)C=C6)C=C5)cc3)cnn2C)ccc1OC(F)F
REMARK SMILES IDX 19 1 18 2 17 3 16 4 15 5 14 6 12 7 13 8 11 9 10 10 97 11
REMARK SMILES IDX 95 12 96 13 98 14 8 15 7 16 9 18 6 19 4 20 5 21 101 22
REMARK SMILES IDX 100 23 99 24 3 25 2 26 1 27 102 28 103 29 104 30 105 31
REMARK SMILES IDX 20 32 21 33 22 34 23 35 24 36 25 37 26 38 27 39 28 40 29 41
REMARK SMILES IDX 30 42 94 43 31 44 93 45 32 46 33 47 34 48 87 49 35 50 92 51
REMARK SMILES IDX 86 52 88 53 36 54 91 55 85 56 84 57 37 59 71 60 50 61 70 62
REMARK SMILES IDX 51 63 54 64 69 65 89 66 52 67 53 68 68 70 90 71 55 72 38 73
REMARK SMILES IDX 39 74 48 75 40 76 41 77 47 78 49 79 42 80 43 81 44 82 45 83
REMARK SMILES IDX 46 84 72 85 73 86 82 87 74 88 75 89 81 90 83 91 76 92 77 93
REMARK SMILES IDX 78 94 79 95 80 96 56 97 57 98 66 99 58 100 59 101 65 102
REMARK SMILES IDX 67 103 60 104 61 105 62 106 63 107 64 108
REMARK H PARENT 7 17 88 58 54 69
REMARK Flexibility Score: inf
ROOT
ATOM      1  C   UNL A   1      33.757  34.253  30.021  1.00  0.00     0.188 C 
ENDROOT
BRANCH   1   2
ATOM      2  C   UNL A   1      34.527  33.521  28.910  1.00  0.00     0.188 C 
BRANCH   2   3
ATOM      3  O   UNL A   1      33.705  32.819  27.982  1.00  0.00    -0.376 OA
BRANCH   3   4
ATOM      4  C   UNL A   1      33.957  31.424  27.857  1.00  0.00     0.202 C 
BRANCH   4   5
ATOM      5  C   UNL A   1      32.892  30.664  27.059  1.00  0.00     0.261 C 
BRANCH   5   6
ATOM      6  O   UNL A   1      33.072  29.239  27.053  1.00  0.00    -0.460 OA
BRANCH   6   7
ATOM      7  C   UNL A   1      31.952  28.472  27.002  1.00  0.00     0.342 C 
ATOM      8  O   UNL A   1      31.123  28.398  27.889  1.00  0.00    -0.246 OA
BRANCH   7   9
ATOM      9  C   UNL A   1      31.761  27.855  25.699  1.00  0.00     0.111 A 
ATOM     10  C   UNL A   1      31.172  26.634  25.373  1.00  0.00     0.140 A 
ATOM     11  N   UNL A   1      31.084  26.654  24.004  1.00  0.00    -0.262 N 
ATOM     12  C   UNL A   1      32.156  28.405  24.464  1.00  0.00     0.151 A 
ATOM     13  N   UNL A   1      31.809  27.639  23.430  1.00  0.00    -0.180 NA
ATOM     14  C   UNL A   1      30.223  25.866  23.153  1.00  0.00     0.174 C 
BRANCH  10  15
ATOM     15  C   UNL A   1      30.536  25.703  26.265  1.00  0.00     0.274 C 
ATOM     16  N   UNL A   1      31.007  24.437  26.504  1.00  0.00    -0.321 N 
ATOM     17  H   UNL A   1      30.361  23.911  27.028  1.00  0.00     0.170 HD
ATOM     18  O   UNL A   1      29.471  25.994  26.814  1.00  0.00    -0.267 OA
BRANCH  16  19
ATOM     19  C   UNL A   1      32.157  23.683  26.208  1.00  0.00     0.045 A 
ATOM     20  C   UNL A   1      33.814  22.569  24.800  1.00  0.00     0.163 A 
ATOM     21  C   UNL A   1      32.648  23.360  24.942  1.00  0.00     0.076 A 
ATOM     22  C   UNL A   1      34.544  22.173  25.927  1.00  0.00     0.168 A 
ATOM     23  C   UNL A   1      34.063  22.520  27.188  1.00  0.00     0.053 A 
ATOM     24  C   UNL A   1      32.882  23.250  27.326  1.00  0.00     0.030 A 
BRANCH  20  25
ATOM     25  O   UNL A   1      34.301  22.279  23.552  1.00  0.00    -0.490 OA
BRANCH  25  26
ATOM     26  C   UNL A   1      33.406  22.637  22.492  1.00  0.00     0.226 C 
ATOM     27  C   UNL A   1      32.393  21.516  22.316  1.00  0.00     0.049 C 
ENDBRANCH  25  26
ENDBRANCH  20  25
BRANCH  22  28
ATOM     28  O   UNL A   1      35.749  21.533  25.974  1.00  0.00    -0.431 OA
BRANCH  28  29
ATOM     29  C   UNL A   1      36.931  22.235  25.625  1.00  0.00     0.542 C 
ATOM     30  F   UNL A   1      36.825  23.548  25.937  1.00  0.00    -0.167 F 
ATOM     31  F   UNL A   1      38.005  21.705  26.251  1.00  0.00    -0.167 F 
ENDBRANCH  28  29
ENDBRANCH  22  28
ENDBRANCH  16  19
ENDBRANCH  10  15
ENDBRANCH   7   9
ENDBRANCH   6   7
ENDBRANCH   5   6
ENDBRANCH   4   5
ENDBRANCH   3   4
ENDBRANCH   2   3
ENDBRANCH   1   2
BRANCH   1  32
ATOM     32  O   UNL A   1      33.960  33.815  31.351  1.00  0.00    -0.377 OA
BRANCH  32  33
ATOM     33  C   UNL A   1      34.413  34.736  32.339  1.00  0.00     0.188 C 
BRANCH  33  34
ATOM     34  C   UNL A   1      35.261  34.288  33.548  1.00  0.00     0.188 C 
BRANCH  34  35
ATOM     35  O   UNL A   1      36.532  33.738  33.220  1.00  0.00    -0.376 OA
BRANCH  35  36
ATOM     36  C   UNL A   1      36.515  32.466  32.583  1.00  0.00     0.202 C 
BRANCH  36  37
ATOM     37  C   UNL A   1      37.149  32.482  31.190  1.00  0.00     0.261 C 
BRANCH  37  38
ATOM     38  O   UNL A   1      36.592  31.527  30.274  1.00  0.00    -0.460 OA
BRANCH  38  39
ATOM     39  C   UNL A   1      36.679  30.226  30.625  1.00  0.00     0.338 C 
ATOM     40  O   UNL A   1      35.815  29.538  31.139  1.00  0.00    -0.246 OA
BRANCH  39  41
ATOM     41  C   UNL A   1      37.966  29.712  30.126  1.00  0.00     0.060 A 
ATOM     42  C   UNL A   1      38.861  29.132  31.033  1.00  0.00     0.016 A 
ATOM     43  C   UNL A   1      38.284  29.814  28.769  1.00  0.00     0.016 A 
ATOM     44  C   UNL A   1      40.104  28.688  30.586  1.00  0.00     0.010 A 
ATOM     45  C   UNL A   1      39.534  29.382  28.327  1.00  0.00     0.010 A 
ATOM     46  C   UNL A   1      40.460  28.850  29.240  1.00  0.00    -0.014 A 
BRANCH  46  47
ATOM     47  C   UNL A   1      41.862  28.647  28.813  1.00  0.00     0.031 A 
ATOM     48  C   UNL A   1      42.271  27.279  28.344  1.00  0.00     0.074 A 
ATOM     49  C   UNL A   1      42.755  29.649  28.858  1.00  0.00     0.049 A 
ATOM     50  N   UNL A   1      43.445  26.849  27.965  1.00  0.00    -0.248 NA
ATOM     51  C   UNL A   1      41.211  26.256  28.306  1.00  0.00     0.031 C 
ATOM     52  C   UNL A   1      42.470  31.019  29.281  1.00  0.00     0.029 A 
ATOM     53  N   UNL A   1      44.093  29.659  28.557  1.00  0.00    -0.354 N 
ATOM     54  C   UNL A   1      43.266  25.509  27.642  1.00  0.00     0.074 A 
ATOM     55  C   UNL A   1      41.879  25.189  27.898  1.00  0.00     0.031 C 
ATOM     56  C   UNL A   1      43.608  31.736  29.227  1.00  0.00     0.029 A 
ATOM     57  C   UNL A   1      44.700  30.869  28.787  1.00  0.00     0.049 A 
ATOM     58  H   UNL A   1      44.572  28.873  28.207  1.00  0.00     0.167 HD
ATOM     59  C   UNL A   1      44.176  24.626  27.166  1.00  0.00     0.037 A 
ATOM     60  C   UNL A   1      45.994  31.227  28.672  1.00  0.00     0.037 A 
ATOM     61  C   UNL A   1      45.557  24.942  26.930  1.00  0.00     0.049 A 
ATOM     62  C   UNL A   1      47.002  30.213  28.194  1.00  0.00     0.074 A 
ATOM     63  C   UNL A   1      46.557  24.123  26.434  1.00  0.00     0.029 A 
ATOM     64  N   UNL A   1      46.139  26.175  27.186  1.00  0.00    -0.354 N 
ATOM     65  N   UNL A   1      46.815  28.960  27.853  1.00  0.00    -0.248 NA
ATOM     66  C   UNL A   1      48.397  30.663  28.082  1.00  0.00     0.031 C 
ATOM     67  C   UNL A   1      47.753  24.852  26.427  1.00  0.00     0.029 A 
ATOM     68  C   UNL A   1      47.488  26.135  26.879  1.00  0.00     0.049 A 
ATOM     69  H   UNL A   1      45.662  26.963  27.533  1.00  0.00     0.167 HD
ATOM     70  C   UNL A   1      48.061  28.479  27.465  1.00  0.00     0.074 A 
ATOM     71  C   UNL A   1      48.994  29.578  27.607  1.00  0.00     0.031 C 
ATOM     72  C   UNL A   1      48.402  27.241  27.027  1.00  0.00     0.037 A 
BRANCH  59  73
ATOM     73  C   UNL A   1      43.695  23.228  26.902  1.00  0.00     0.058 A 
ATOM     74  C   UNL A   1      43.374  22.352  27.951  1.00  0.00     0.135 A 
ATOM     75  C   UNL A   1      43.568  22.755  25.587  1.00  0.00     0.135 A 
ATOM     76  F   UNL A   1      43.501  22.749  29.228  1.00  0.00    -0.206 F 
ATOM     77  C   UNL A   1      42.976  21.042  27.706  1.00  0.00     0.059 A 
ATOM     78  C   UNL A   1      43.150  21.456  25.319  1.00  0.00     0.059 A 
ATOM     79  F   UNL A   1      43.869  23.552  24.549  1.00  0.00    -0.206 F 
ATOM     80  C   UNL A   1      42.874  20.601  26.385  1.00  0.00     0.060 A 
BRANCH  80  81
ATOM     81  S   UNL A   1      42.382  18.891  26.079  1.00  0.00     0.124 S 
ATOM     82  O   UNL A   1      43.242  18.540  24.954  1.00  0.00    -0.237 OA
ATOM     83  O   UNL A   1      42.698  18.240  27.345  1.00  0.00    -0.237 OA
ATOM     84  O   UNL A   1      40.958  19.000  25.772  1.00  0.00    -0.744 OA
ENDBRANCH  80  81
ENDBRANCH  59  73
BRANCH  60  85
ATOM     85  C   UNL A   1      46.411  32.610  29.019  1.00  0.00     0.058 A 
ATOM     86  C   UNL A   1      46.436  33.622  28.047  1.00  0.00     0.135 A 
ATOM     87  C   UNL A   1      46.775  32.951  30.330  1.00  0.00     0.135 A 
ATOM     88  F   UNL A   1      46.108  33.340  26.778  1.00  0.00    -0.206 F 
ATOM     89  C   UNL A   1      46.813  34.922  28.362  1.00  0.00     0.059 A 
ATOM     90  C   UNL A   1      47.136  34.249  30.674  1.00  0.00     0.059 A 
ATOM     91  F   UNL A   1      46.758  32.019  31.296  1.00  0.00    -0.206 F 
ATOM     92  C   UNL A   1      47.158  35.228  29.681  1.00  0.00     0.060 A 
BRANCH  92  93
ATOM     93  S   UNL A   1      47.587  36.934  30.093  1.00  0.00     0.124 S 
ATOM     94  O   UNL A   1      48.184  36.775  31.414  1.00  0.00    -0.237 OA
ATOM     95  O   UNL A   1      48.504  37.290  29.016  1.00  0.00    -0.237 OA
ATOM     96  O   UNL A   1      46.298  37.619  30.061  1.00  0.00    -0.744 OA
ENDBRANCH  92  93
ENDBRANCH  60  85
BRANCH  72  97
ATOM     97  C   UNL A   1      49.838  27.011  26.645  1.00  0.00     0.058 A 
ATOM     98  C   UNL A   1      50.793  26.607  27.589  1.00  0.00     0.135 A 
ATOM     99  C   UNL A   1      50.246  27.135  25.307  1.00  0.00     0.135 A 
ATOM    100  F   UNL A   1      50.455  26.479  28.881  1.00  0.00    -0.206 F 
ATOM    101  C   UNL A   1      52.111  26.348  27.222  1.00  0.00     0.059 A 
ATOM    102  C   UNL A   1      51.551  26.860  24.914  1.00  0.00     0.059 A 
ATOM    103  F   UNL A   1      49.365  27.508  24.364  1.00  0.00    -0.206 F 
ATOM    104  C   UNL A   1      52.480  26.477  25.881  1.00  0.00     0.060 A 
BRANCH 104 105
ATOM    105  S   UNL A   1      54.181  26.100  25.407  1.00  0.00     0.124 S 
ATOM    106  O   UNL A   1      54.647  27.397  24.930  1.00  0.00    -0.237 OA
ATOM    107  O   UNL A   1      54.764  25.642  26.665  1.00  0.00    -0.237 OA
ATOM    108  O   UNL A   1      54.027  25.071  24.384  1.00  0.00    -0.744 OA
ENDBRANCH 104 105
ENDBRANCH  72  97
ENDBRANCH  46  47
ENDBRANCH  39  41
ENDBRANCH  38  39
ENDBRANCH  37  38
ENDBRANCH  36  37
ENDBRANCH  35  36
ENDBRANCH  34  35
ENDBRANCH  33  34
ENDBRANCH  32  33
ENDBRANCH   1  32
TORSDOF 29
ENDMDL
MODEL 2
REMARK VINA RESULT:      -8.3      3.908      9.924
REMARK SMILES CCOc1cc(NC(=O)c2c(C(=O)OCCOCCOCCOCCOC(=O)c3ccc(-c4c5nc(c(-c6c(F)cc(S(=O)(=O)[O-])cc6F)c6ccc([nH]6)c(-c6c(F)cc(S(=O)(=O)[O-])cc6F)c6nc(c(-c7c(F)cc(S(=O)(=O)[O-])cc7F)c7ccc4[nH]7)C=C6)C=C5)cc3)cnn2C)ccc1OC(F)F
REMARK SMILES IDX 19 1 18 2 17 3 16 4 15 5 14 6 12 7 13 8 11 9 10 10 97 11
REMARK SMILES IDX 95 12 96 13 98 14 8 15 7 16 9 18 6 19 4 20 5 21 101 22
REMARK SMILES IDX 100 23 99 24 3 25 2 26 1 27 102 28 103 29 104 30 105 31
REMARK SMILES IDX 20 32 21 33 22 34 23 35 24 36 25 37 26 38 27 39 28 40 29 41
REMARK SMILES IDX 30 42 94 43 31 44 93 45 32 46 33 47 34 48 87 49 35 50 92 51
REMARK SMILES IDX 86 52 88 53 36 54 91 55 85 56 84 57 37 59 71 60 50 61 70 62
REMARK SMILES IDX 51 63 54 64 69 65 89 66 52 67 53 68 68 70 90 71 55 72 38 73
REMARK SMILES IDX 39 74 48 75 40 76 41 77 47 78 49 79 42 80 43 81 44 82 45 83
REMARK SMILES IDX 46 84 72 85 73 86 82 87 74 88 75 89 81 90 83 91 76 92 77 93
REMARK SMILES IDX 78 94 79 95 80 96 56 97 57 98 66 99 58 100 59 101 65 102
REMARK SMILES IDX 67 103 60 104 61 105 62 106 63 107 64 108
REMARK H PARENT 7 17 88 58 54 69
REMARK Flexibility Score: inf
ROOT
ATOM      1  C   UNL A   1      40.496  25.082  27.687  1.00  0.00     0.188 C 
ENDROOT
BRANCH   1   2
ATOM      2  C   UNL A   1      39.040  24.591  27.640  1.00  0.00     0.188 C 
BRANCH   2   3
ATOM      3  O   UNL A   1      38.597  24.173  26.351  1.00  0.00    -0.376 OA
BRANCH   3   4
ATOM      4  C   UNL A   1      38.820  22.804  26.031  1.00  0.00     0.202 C 
BRANCH   4   5
ATOM      5  C   UNL A   1      37.619  22.109  25.382  1.00  0.00     0.261 C 
BRANCH   5   6
ATOM      6  O   UNL A   1      36.396  22.244  26.122  1.00  0.00    -0.460 OA
BRANCH   6   7
ATOM      7  C   UNL A   1      35.332  21.510  25.702  1.00  0.00     0.342 C 
ATOM      8  O   UNL A   1      35.411  20.453  25.106  1.00  0.00    -0.246 OA
BRANCH   7   9
ATOM      9  C   UNL A   1      34.066  22.046  26.178  1.00  0.00     0.111 A 
ATOM     10  C   UNL A   1      32.907  22.350  25.466  1.00  0.00     0.140 A 
ATOM     11  N   UNL A   1      31.976  22.629  26.434  1.00  0.00    -0.262 N 
ATOM     12  C   UNL A   1      33.763  22.376  27.514  1.00  0.00     0.151 A 
ATOM     13  N   UNL A   1      32.509  22.801  27.663  1.00  0.00    -0.180 NA
ATOM     14  C   UNL A   1      30.536  22.615  26.319  1.00  0.00     0.174 C 
BRANCH  10  15
ATOM     15  C   UNL A   1      32.658  22.134  24.066  1.00  0.00     0.274 C 
ATOM     16  N   UNL A   1      32.322  23.135  23.190  1.00  0.00    -0.321 N 
ATOM     17  H   UNL A   1      32.056  22.769  22.316  1.00  0.00     0.170 HD
ATOM     18  O   UNL A   1      32.671  20.992  23.599  1.00  0.00    -0.267 OA
BRANCH  16  19
ATOM     19  C   UNL A   1      32.254  24.540  23.195  1.00  0.00     0.045 A 
ATOM     20  C   UNL A   1      33.056  26.829  23.496  1.00  0.00     0.163 A 
ATOM     21  C   UNL A   1      33.281  25.432  23.515  1.00  0.00     0.076 A 
ATOM     22  C   UNL A   1      31.825  27.344  23.069  1.00  0.00     0.168 A 
ATOM     23  C   UNL A   1      30.812  26.450  22.726  1.00  0.00     0.053 A 
ATOM     24  C   UNL A   1      31.019  25.072  22.802  1.00  0.00     0.030 A 
BRANCH  20  25
ATOM     25  O   UNL A   1      34.077  27.695  23.789  1.00  0.00    -0.490 OA
BRANCH  25  26
ATOM     26  C   UNL A   1      33.934  28.337  25.061  1.00  0.00     0.226 C 
ATOM     27  C   UNL A   1      33.671  27.269  26.113  1.00  0.00     0.049 C 
ENDBRANCH  25  26
ENDBRANCH  20  25
BRANCH  22  28
ATOM     28  O   UNL A   1      31.479  28.647  22.860  1.00  0.00    -0.431 OA
BRANCH  28  29
ATOM     29  C   UNL A   1      30.651  29.313  23.799  1.00  0.00     0.542 C 
ATOM     30  F   UNL A   1      29.351  29.259  23.425  1.00  0.00    -0.167 F 
ATOM     31  F   UNL A   1      30.792  28.773  25.030  1.00  0.00    -0.167 F 
ENDBRANCH  28  29
ENDBRANCH  22  28
ENDBRANCH  16  19
ENDBRANCH  10  15
ENDBRANCH   7   9
ENDBRANCH   6   7
ENDBRANCH   5   6
ENDBRANCH   4   5
ENDBRANCH   3   4
ENDBRANCH   2   3
ENDBRANCH   1   2
BRANCH   1  32
ATOM     32  O   UNL A   1      40.736  26.352  28.264  1.00  0.00    -0.377 OA
BRANCH  32  33
ATOM     33  C   UNL A   1      39.736  27.362  28.196  1.00  0.00     0.188 C 
BRANCH  33  34
ATOM     34  C   UNL A   1      39.044  27.916  29.459  1.00  0.00     0.188 C 
BRANCH  34  35
ATOM     35  O   UNL A   1      39.291  27.179  30.652  1.00  0.00    -0.376 OA
BRANCH  35  36
ATOM     36  C   UNL A   1      38.444  27.479  31.755  1.00  0.00     0.202 C 
BRANCH  36  37
ATOM     37  C   UNL A   1      37.392  28.544  31.434  1.00  0.00     0.261 C 
BRANCH  37  38
ATOM     38  O   UNL A   1      37.002  29.350  32.555  1.00  0.00    -0.460 OA
BRANCH  38  39
ATOM     39  C   UNL A   1      36.837  30.671  32.327  1.00  0.00     0.338 C 
ATOM     40  O   UNL A   1      35.855  31.348  32.574  1.00  0.00    -0.246 OA
BRANCH  39  41
ATOM     41  C   UNL A   1      38.127  31.212  31.867  1.00  0.00     0.060 A 
ATOM     42  C   UNL A   1      38.196  31.819  30.608  1.00  0.00     0.016 A 
ATOM     43  C   UNL A   1      39.261  31.107  32.676  1.00  0.00     0.016 A 
ATOM     44  C   UNL A   1      39.421  32.290  30.136  1.00  0.00     0.010 A 
ATOM     45  C   UNL A   1      40.487  31.565  32.196  1.00  0.00     0.010 A 
ATOM     46  C   UNL A   1      40.576  32.126  30.912  1.00  0.00    -0.014 A 
BRANCH  46  47
ATOM     47  C   UNL A   1      41.910  32.358  30.314  1.00  0.00     0.031 A 
ATOM     48  C   UNL A   1      42.487  33.744  30.382  1.00  0.00     0.074 A 
ATOM     49  C   UNL A   1      42.585  31.366  29.710  1.00  0.00     0.049 A 
ATOM     50  N   UNL A   1      43.610  34.200  29.896  1.00  0.00    -0.248 NA
ATOM     51  C   UNL A   1      41.681  34.754  31.090  1.00  0.00     0.031 C 
ATOM     52  C   UNL A   1      42.132  29.981  29.596  1.00  0.00     0.029 A 
ATOM     53  N   UNL A   1      43.794  31.381  29.064  1.00  0.00    -0.354 N 
ATOM     54  C   UNL A   1      43.648  35.546  30.238  1.00  0.00     0.074 A 
ATOM     55  C   UNL A   1      42.423  35.841  30.946  1.00  0.00     0.031 C 
ATOM     56  C   UNL A   1      43.049  29.280  28.903  1.00  0.00     0.029 A 
ATOM     57  C   UNL A   1      44.138  30.173  28.509  1.00  0.00     0.049 A 
ATOM     58  H   UNL A   1      44.362  32.184  29.004  1.00  0.00     0.167 HD
ATOM     59  C   UNL A   1      44.622  36.454  29.990  1.00  0.00     0.037 A 
ATOM     60  C   UNL A   1      45.202  29.835  27.755  1.00  0.00     0.037 A 
ATOM     61  C   UNL A   1      45.831  36.162  29.270  1.00  0.00     0.049 A 
ATOM     62  C   UNL A   1      46.248  30.874  27.443  1.00  0.00     0.074 A 
ATOM     63  C   UNL A   1      46.887  37.007  28.980  1.00  0.00     0.029 A 
ATOM     64  N   UNL A   1      46.139  34.929  28.713  1.00  0.00    -0.354 N 
ATOM     65  N   UNL A   1      46.293  32.134  27.806  1.00  0.00    -0.248 NA
ATOM     66  C   UNL A   1      47.389  30.445  26.622  1.00  0.00     0.031 C 
ATOM     67  C   UNL A   1      47.817  36.294  28.214  1.00  0.00     0.029 A 
ATOM     68  C   UNL A   1      47.358  34.995  28.062  1.00  0.00     0.049 A 
ATOM     69  H   UNL A   1      45.573  34.125  28.774  1.00  0.00     0.167 HD
ATOM     70  C   UNL A   1      47.476  32.642  27.278  1.00  0.00     0.074 A 
ATOM     71  C   UNL A   1      48.120  31.551  26.575  1.00  0.00     0.031 C 
ATOM     72  C   UNL A   1      47.985  33.897  27.369  1.00  0.00     0.037 A 
BRANCH  59  73
ATOM     73  C   UNL A   1      44.391  37.853  30.485  1.00  0.00     0.058 A 
ATOM     74  C   UNL A   1      43.753  38.817  29.689  1.00  0.00     0.135 A 
ATOM     75  C   UNL A   1      44.826  38.238  31.763  1.00  0.00     0.135 A 
ATOM     76  F   UNL A   1      43.339  38.505  28.449  1.00  0.00    -0.206 F 
ATOM     77  C   UNL A   1      43.584  40.125  30.129  1.00  0.00     0.059 A 
ATOM     78  C   UNL A   1      44.646  39.535  32.232  1.00  0.00     0.059 A 
ATOM     79  F   UNL A   1      45.447  37.354  32.560  1.00  0.00    -0.206 F 
ATOM     80  C   UNL A   1      44.041  40.476  31.401  1.00  0.00     0.060 A 
BRANCH  80  81
ATOM     81  S   UNL A   1      43.840  42.183  31.952  1.00  0.00     0.124 S 
ATOM     82  O   UNL A   1      42.441  42.189  32.369  1.00  0.00    -0.237 OA
ATOM     83  O   UNL A   1      44.821  42.286  33.026  1.00  0.00    -0.237 OA
ATOM     84  O   UNL A   1      44.141  42.963  30.755  1.00  0.00    -0.744 OA
ENDBRANCH  80  81
ENDBRANCH  59  73
BRANCH  60  85
ATOM     85  C   UNL A   1      45.330  28.447  27.240  1.00  0.00     0.058 A 
ATOM     86  C   UNL A   1      46.245  27.548  27.806  1.00  0.00     0.135 A 
ATOM     87  C   UNL A   1      44.528  27.989  26.184  1.00  0.00     0.135 A 
ATOM     88  F   UNL A   1      47.041  27.945  28.810  1.00  0.00    -0.206 F 
ATOM     89  C   UNL A   1      46.366  26.244  27.340  1.00  0.00     0.059 A 
ATOM     90  C   UNL A   1      44.616  26.683  25.713  1.00  0.00     0.059 A 
ATOM     91  F   UNL A   1      43.632  28.809  25.615  1.00  0.00    -0.206 F 
ATOM     92  C   UNL A   1      45.544  25.819  26.294  1.00  0.00     0.060 A 
BRANCH  92  93
ATOM     93  S   UNL A   1      45.664  24.104  25.737  1.00  0.00     0.124 S 
ATOM     94  O   UNL A   1      44.258  23.752  25.567  1.00  0.00    -0.237 OA
ATOM     95  O   UNL A   1      46.443  24.234  24.510  1.00  0.00    -0.237 OA
ATOM     96  O   UNL A   1      46.351  23.442  26.841  1.00  0.00    -0.744 OA
ENDBRANCH  92  93
ENDBRANCH  60  85
BRANCH  72  97
ATOM     97  C   UNL A   1      49.313  34.155  26.716  1.00  0.00     0.058 A 
ATOM     98  C   UNL A   1      50.520  33.824  27.348  1.00  0.00     0.135 A 
ATOM     99  C   UNL A   1      49.375  34.681  25.415  1.00  0.00     0.135 A 
ATOM    100  F   UNL A   1      50.515  33.322  28.593  1.00  0.00    -0.206 F 
ATOM    101  C   UNL A   1      51.747  34.019  26.720  1.00  0.00     0.059 A 
ATOM    102  C   UNL A   1      50.588  34.865  24.760  1.00  0.00     0.059 A 
ATOM    103  F   UNL A   1      48.247  35.004  24.762  1.00  0.00    -0.206 F 
ATOM    104  C   UNL A   1      51.770  34.541  25.424  1.00  0.00     0.060 A 
BRANCH 104 105
ATOM    105  S   UNL A   1      53.363  34.753  24.601  1.00  0.00     0.124 S 
ATOM    106  O   UNL A   1      53.038  35.751  23.588  1.00  0.00    -0.237 OA
ATOM    107  O   UNL A   1      54.222  35.212  25.689  1.00  0.00    -0.237 OA
ATOM    108  O   UNL A   1      53.664  33.418  24.095  1.00  0.00    -0.744 OA
ENDBRANCH 104 105
ENDBRANCH  72  97
ENDBRANCH  46  47
ENDBRANCH  39  41
ENDBRANCH  38  39
ENDBRANCH  37  38
ENDBRANCH  36  37
ENDBRANCH  35  36
ENDBRANCH  34  35
ENDBRANCH  33  34
ENDBRANCH  32  33
ENDBRANCH   1  32
TORSDOF 29
ENDMDL
MODEL 3
REMARK VINA RESULT:      -8.0      2.978      9.300
REMARK SMILES CCOc1cc(NC(=O)c2c(C(=O)OCCOCCOCCOCCOC(=O)c3ccc(-c4c5nc(c(-c6c(F)cc(S(=O)(=O)[O-])cc6F)c6ccc([nH]6)c(-c6c(F)cc(S(=O)(=O)[O-])cc6F)c6nc(c(-c7c(F)cc(S(=O)(=O)[O-])cc7F)c7ccc4[nH]7)C=C6)C=C5)cc3)cnn2C)ccc1OC(F)F
REMARK SMILES IDX 19 1 18 2 17 3 16 4 15 5 14 6 12 7 13 8 11 9 10 10 97 11
REMARK SMILES IDX 95 12 96 13 98 14 8 15 7 16 9 18 6 19 4 20 5 21 101 22
REMARK SMILES IDX 100 23 99 24 3 25 2 26 1 27 102 28 103 29 104 30 105 31
REMARK SMILES IDX 20 32 21 33 22 34 23 35 24 36 25 37 26 38 27 39 28 40 29 41
REMARK SMILES IDX 30 42 94 43 31 44 93 45 32 46 33 47 34 48 87 49 35 50 92 51
REMARK SMILES IDX 86 52 88 53 36 54 91 55 85 56 84 57 37 59 71 60 50 61 70 62
REMARK SMILES IDX 51 63 54 64 69 65 89 66 52 67 53 68 68 70 90 71 55 72 38 73
REMARK SMILES IDX 39 74 48 75 40 76 41 77 47 78 49 79 42 80 43 81 44 82 45 83
REMARK SMILES IDX 46 84 72 85 73 86 82 87 74 88 75 89 81 90 83 91 76 92 77 93
REMARK SMILES IDX 78 94 79 95 80 96 56 97 57 98 66 99 58 100 59 101 65 102
REMARK SMILES IDX 67 103 60 104 61 105 62 106 63 107 64 108
REMARK H PARENT 7 17 88 58 54 69
REMARK Flexibility Score: inf
ROOT
ATOM      1  C   UNL A   1      40.270  24.916  27.537  1.00  0.00     0.188 C 
ENDROOT
BRANCH   1   2
ATOM      2  C   UNL A   1      38.769  24.691  27.296  1.00  0.00     0.188 C 
BRANCH   2   3
ATOM      3  O   UNL A   1      38.460  23.987  26.096  1.00  0.00    -0.376 OA
BRANCH   3   4
ATOM      4  C   UNL A   1      38.688  22.582  26.122  1.00  0.00     0.202 C 
BRANCH   4   5
ATOM      5  C   UNL A   1      37.546  21.751  25.530  1.00  0.00     0.261 C 
BRANCH   5   6
ATOM      6  O   UNL A   1      36.298  21.891  26.226  1.00  0.00    -0.460 OA
BRANCH   6   7
ATOM      7  C   UNL A   1      35.190  21.385  25.624  1.00  0.00     0.342 C 
ATOM      8  O   UNL A   1      35.196  20.485  24.807  1.00  0.00    -0.246 OA
BRANCH   7   9
ATOM      9  C   UNL A   1      33.960  21.932  26.177  1.00  0.00     0.111 A 
ATOM     10  C   UNL A   1      32.795  22.330  25.524  1.00  0.00     0.140 A 
ATOM     11  N   UNL A   1      31.903  22.572  26.539  1.00  0.00    -0.262 N 
ATOM     12  C   UNL A   1      33.708  22.172  27.541  1.00  0.00     0.151 A 
ATOM     13  N   UNL A   1      32.476  22.632  27.760  1.00  0.00    -0.180 NA
ATOM     14  C   UNL A   1      30.461  22.620  26.467  1.00  0.00     0.174 C 
BRANCH  10  15
ATOM     15  C   UNL A   1      32.499  22.229  24.121  1.00  0.00     0.274 C 
ATOM     16  N   UNL A   1      32.160  23.302  23.336  1.00  0.00    -0.321 N 
ATOM     17  H   UNL A   1      31.859  23.010  22.445  1.00  0.00     0.170 HD
ATOM     18  O   UNL A   1      32.471  21.127  23.567  1.00  0.00    -0.267 OA
BRANCH  16  19
ATOM     19  C   UNL A   1      32.124  24.703  23.450  1.00  0.00     0.045 A 
ATOM     20  C   UNL A   1      32.850  26.918  24.185  1.00  0.00     0.163 A 
ATOM     21  C   UNL A   1      33.028  25.514  24.140  1.00  0.00     0.076 A 
ATOM     22  C   UNL A   1      31.815  27.525  23.464  1.00  0.00     0.168 A 
ATOM     23  C   UNL A   1      30.931  26.713  22.755  1.00  0.00     0.053 A 
ATOM     24  C   UNL A   1      31.075  25.324  22.761  1.00  0.00     0.030 A 
BRANCH  20  25
ATOM     25  O   UNL A   1      33.757  27.706  24.844  1.00  0.00    -0.490 OA
BRANCH  25  26
ATOM     26  C   UNL A   1      33.833  27.435  26.249  1.00  0.00     0.226 C 
ATOM     27  C   UNL A   1      33.602  28.734  27.005  1.00  0.00     0.049 C 
ENDBRANCH  25  26
ENDBRANCH  20  25
BRANCH  22  28
ATOM     28  O   UNL A   1      31.576  28.857  23.283  1.00  0.00    -0.431 OA
BRANCH  28  29
ATOM     29  C   UNL A   1      30.661  29.527  24.135  1.00  0.00     0.542 C 
ATOM     30  F   UNL A   1      31.312  30.211  25.105  1.00  0.00    -0.167 F 
ATOM     31  F   UNL A   1      29.881  30.374  23.427  1.00  0.00    -0.167 F 
ENDBRANCH  28  29
ENDBRANCH  22  28
ENDBRANCH  16  19
ENDBRANCH  10  15
ENDBRANCH   7   9
ENDBRANCH   6   7
ENDBRANCH   5   6
ENDBRANCH   4   5
ENDBRANCH   3   4
ENDBRANCH   2   3
ENDBRANCH   1   2
BRANCH   1  32
ATOM     32  O   UNL A   1      40.707  26.249  27.725  1.00  0.00    -0.377 OA
BRANCH  32  33
ATOM     33  C   UNL A   1      39.766  27.316  27.676  1.00  0.00     0.188 C 
BRANCH  33  34
ATOM     34  C   UNL A   1      39.199  27.967  28.956  1.00  0.00     0.188 C 
BRANCH  34  35
ATOM     35  O   UNL A   1      39.383  27.210  30.147  1.00  0.00    -0.376 OA
BRANCH  35  36
ATOM     36  C   UNL A   1      39.066  27.876  31.363  1.00  0.00     0.202 C 
BRANCH  36  37
ATOM     37  C   UNL A   1      38.737  29.359  31.169  1.00  0.00     0.261 C 
BRANCH  37  38
ATOM     38  O   UNL A   1      39.114  30.199  32.269  1.00  0.00    -0.460 OA
BRANCH  38  39
ATOM     39  C   UNL A   1      39.573  31.433  31.963  1.00  0.00     0.338 C 
ATOM     40  O   UNL A   1      39.011  32.498  32.147  1.00  0.00    -0.246 OA
BRANCH  39  41
ATOM     41  C   UNL A   1      40.966  31.293  31.506  1.00  0.00     0.060 A 
ATOM     42  C   UNL A   1      41.322  31.806  30.253  1.00  0.00     0.016 A 
ATOM     43  C   UNL A   1      41.908  30.649  32.312  1.00  0.00     0.016 A 
ATOM     44  C   UNL A   1      42.624  31.636  29.784  1.00  0.00     0.010 A 
ATOM     45  C   UNL A   1      43.205  30.468  31.835  1.00  0.00     0.010 A 
ATOM     46  C   UNL A   1      43.556  30.930  30.556  1.00  0.00    -0.014 A 
BRANCH  46  47
ATOM     47  C   UNL A   1      44.840  30.501  29.958  1.00  0.00     0.031 A 
ATOM     48  C   UNL A   1      46.026  31.415  30.090  1.00  0.00     0.074 A 
ATOM     49  C   UNL A   1      44.946  29.335  29.299  1.00  0.00     0.049 A 
ATOM     50  N   UNL A   1      47.236  31.278  29.616  1.00  0.00    -0.248 NA
ATOM     51  C   UNL A   1      45.813  32.656  30.855  1.00  0.00     0.031 C 
ATOM     52  C   UNL A   1      43.870  28.363  29.120  1.00  0.00     0.029 A 
ATOM     53  N   UNL A   1      46.015  28.782  28.643  1.00  0.00    -0.354 N 
ATOM     54  C   UNL A   1      47.929  32.411  30.025  1.00  0.00     0.074 A 
ATOM     55  C   UNL A   1      46.998  33.240  30.759  1.00  0.00     0.031 C 
ATOM     56  C   UNL A   1      44.331  27.335  28.384  1.00  0.00     0.029 A 
ATOM     57  C   UNL A   1      45.726  27.590  28.025  1.00  0.00     0.049 A 
ATOM     58  H   UNL A   1      46.907  29.200  28.617  1.00  0.00     0.167 HD
ATOM     59  C   UNL A   1      49.228  32.729  29.814  1.00  0.00     0.037 A 
ATOM     60  C   UNL A   1      46.496  26.806  27.245  1.00  0.00     0.037 A 
ATOM     61  C   UNL A   1      50.146  31.913  29.069  1.00  0.00     0.049 A 
ATOM     62  C   UNL A   1      47.924  27.206  26.976  1.00  0.00     0.074 A 
ATOM     63  C   UNL A   1      51.487  32.137  28.811  1.00  0.00     0.029 A 
ATOM     64  N   UNL A   1      49.813  30.717  28.448  1.00  0.00    -0.354 N 
ATOM     65  N   UNL A   1      48.580  28.259  27.401  1.00  0.00    -0.248 NA
ATOM     66  C   UNL A   1      48.717  26.308  26.124  1.00  0.00     0.031 C 
ATOM     67  C   UNL A   1      51.955  31.095  28.002  1.00  0.00     0.029 A 
ATOM     68  C   UNL A   1      50.916  30.202  27.790  1.00  0.00     0.049 A 
ATOM     69  H   UNL A   1      48.923  30.297  28.474  1.00  0.00     0.167 HD
ATOM     70  C   UNL A   1      49.868  28.141  26.887  1.00  0.00     0.074 A 
ATOM     71  C   UNL A   1      49.900  26.909  26.125  1.00  0.00     0.031 C 
ATOM     72  C   UNL A   1      50.929  28.973  27.036  1.00  0.00     0.037 A 
BRANCH  59  73
ATOM     73  C   UNL A   1      49.711  34.033  30.381  1.00  0.00     0.058 A 
ATOM     74  C   UNL A   1      50.251  34.116  31.674  1.00  0.00     0.135 A 
ATOM     75  C   UNL A   1      49.620  35.214  29.628  1.00  0.00     0.135 A 
ATOM     76  F   UNL A   1      50.338  33.018  32.443  1.00  0.00    -0.206 F 
ATOM     77  C   UNL A   1      50.652  35.332  32.216  1.00  0.00     0.059 A 
ATOM     78  C   UNL A   1      50.037  36.438  30.142  1.00  0.00     0.059 A 
ATOM     79  F   UNL A   1      49.106  35.189  28.389  1.00  0.00    -0.206 F 
ATOM     80  C   UNL A   1      50.534  36.490  31.444  1.00  0.00     0.060 A 
BRANCH  80  81
ATOM     81  S   UNL A   1      51.035  38.067  32.166  1.00  0.00     0.124 S 
ATOM     82  O   UNL A   1      50.801  37.822  33.586  1.00  0.00    -0.237 OA
ATOM     83  O   UNL A   1      52.433  38.168  31.764  1.00  0.00    -0.237 OA
ATOM     84  O   UNL A   1      50.133  39.028  31.538  1.00  0.00    -0.744 OA
ENDBRANCH  80  81
ENDBRANCH  59  73
BRANCH  60  85
ATOM     85  C   UNL A   1      45.929  25.564  26.660  1.00  0.00     0.058 A 
ATOM     86  C   UNL A   1      45.189  25.598  25.469  1.00  0.00     0.135 A 
ATOM     87  C   UNL A   1      46.132  24.317  27.271  1.00  0.00     0.135 A 
ATOM     88  F   UNL A   1      44.959  26.768  24.856  1.00  0.00    -0.206 F 
ATOM     89  C   UNL A   1      44.664  24.440  24.906  1.00  0.00     0.059 A 
ATOM     90  C   UNL A   1      45.634  23.142  26.717  1.00  0.00     0.059 A 
ATOM     91  F   UNL A   1      46.841  24.232  28.407  1.00  0.00    -0.206 F 
ATOM     92  C   UNL A   1      44.895  23.215  25.536  1.00  0.00     0.060 A 
BRANCH  92  93
ATOM     93  S   UNL A   1      44.262  21.709  24.765  1.00  0.00     0.124 S 
ATOM     94  O   UNL A   1      42.885  21.690  25.246  1.00  0.00    -0.237 OA
ATOM     95  O   UNL A   1      44.439  21.994  23.344  1.00  0.00    -0.237 OA
ATOM     96  O   UNL A   1      45.133  20.667  25.301  1.00  0.00    -0.744 OA
ENDBRANCH  92  93
ENDBRANCH  60  85
BRANCH  72  97
ATOM     97  C   UNL A   1      52.222  28.571  26.385  1.00  0.00     0.058 A 
ATOM     98  C   UNL A   1      52.575  29.031  25.108  1.00  0.00     0.135 A 
ATOM     99  C   UNL A   1      53.147  27.769  27.074  1.00  0.00     0.135 A 
ATOM    100  F   UNL A   1      51.725  29.796  24.406  1.00  0.00    -0.206 F 
ATOM    101  C   UNL A   1      53.795  28.697  24.527  1.00  0.00     0.059 A 
ATOM    102  C   UNL A   1      54.380  27.441  26.523  1.00  0.00     0.059 A 
ATOM    103  F   UNL A   1      52.860  27.313  28.305  1.00  0.00    -0.206 F 
ATOM    104  C   UNL A   1      54.692  27.900  25.244  1.00  0.00     0.060 A 
BRANCH 104 105
ATOM    105  S   UNL A   1      56.289  27.505  24.501  1.00  0.00     0.124 S 
ATOM    106  O   UNL A   1      57.062  27.095  25.669  1.00  0.00    -0.237 OA
ATOM    107  O   UNL A   1      55.946  26.440  23.563  1.00  0.00    -0.237 OA
ATOM    108  O   UNL A   1      56.699  28.764  23.887  1.00  0.00    -0.744 OA
ENDBRANCH 104 105
ENDBRANCH  72  97
ENDBRANCH  46  47
ENDBRANCH  39  41
ENDBRANCH  38  39
ENDBRANCH  37  38
ENDBRANCH  36  37
ENDBRANCH  35  36
ENDBRANCH  34  35
ENDBRANCH  33  34
ENDBRANCH  32  33
ENDBRANCH   1  32
TORSDOF 29
ENDMDL
