MODEL 1
REMARK VINA RESULT:      -7.8      0.000      0.000
REMARK SMILES COC[C@H](C)[C@@](C)(O)C(=O)OCCOCCOCCOCCOC(=O)c1ccc(-c2c3nc(c(-c4c(F)cc(S(=O)(=O)[O-])cc4F)c4ccc([nH]4)c(-c4c(F)cc(S(=O)(=O)[O-])cc4F)c4nc(c(-c5c(F)cc(S(=O)(=O)[O-])cc5F)c5ccc2[nH]5)C=C4)C=C3)cc1
REMARK SMILES IDX 17 1 16 2 15 3 14 4 13 5 12 6 11 7 9 8 10 9 6 10 7 11 4 12
REMARK SMILES IDX 5 13 3 14 2 15 1 16 8 17 18 19 19 20 20 21 21 22 22 23 23 24
REMARK SMILES IDX 24 25 25 26 26 27 27 28 91 29 28 30 90 31 29 32 30 33 31 34
REMARK SMILES IDX 84 35 32 36 89 37 83 38 85 39 33 40 88 41 82 42 81 43 34 45
REMARK SMILES IDX 68 46 47 47 67 48 48 49 51 50 66 51 86 52 49 53 50 54 65 56
REMARK SMILES IDX 87 57 52 58 35 59 36 60 45 61 37 62 38 63 44 64 46 65 39 66
REMARK SMILES IDX 40 67 41 68 42 69 43 70 69 71 70 72 79 73 71 74 72 75 78 76
REMARK SMILES IDX 80 77 73 78 74 79 75 80 76 81 77 82 53 83 54 84 63 85 55 86
REMARK SMILES IDX 56 87 62 88 64 89 57 90 58 91 59 92 60 93 61 94
REMARK H PARENT 8 18 85 44 51 55
REMARK Flexibility Score: inf
ROOT
ATOM      1  O   UNL A   1      34.104  32.011  27.257  1.00  0.00    -0.377 OA
ENDROOT
BRANCH   1   2
ATOM      2  C   UNL A   1      33.472  30.752  27.376  1.00  0.00     0.188 C 
BRANCH   2   3
ATOM      3  C   UNL A   1      32.587  30.413  26.161  1.00  0.00     0.188 C 
BRANCH   3   4
ATOM      4  O   UNL A   1      32.643  29.075  25.702  1.00  0.00    -0.376 OA
BRANCH   4   5
ATOM      5  C   UNL A   1      33.873  28.494  25.290  1.00  0.00     0.202 C 
BRANCH   5   6
ATOM      6  C   UNL A   1      34.078  27.498  24.122  1.00  0.00     0.261 C 
BRANCH   6   7
ATOM      7  O   UNL A   1      33.003  26.627  23.755  1.00  0.00    -0.461 OA
BRANCH   7   8
ATOM      8  C   UNL A   1      33.174  25.832  22.672  1.00  0.00     0.338 C 
ATOM      9  O   UNL A   1      33.795  26.175  21.673  1.00  0.00    -0.249 OA
BRANCH   8  10
ATOM     10  C   UNL A   1      32.432  24.455  22.847  1.00  0.00     0.163 C 
ATOM     11  C   UNL A   1      32.901  23.624  21.641  1.00  0.00     0.055 C 
BRANCH  10  12
ATOM     12  C   UNL A   1      32.758  23.746  24.206  1.00  0.00     0.055 C 
ATOM     13  C   UNL A   1      31.780  22.627  24.572  1.00  0.00     0.014 C 
BRANCH  12  14
ATOM     14  C   UNL A   1      34.252  23.339  24.359  1.00  0.00     0.166 C 
BRANCH  14  15
ATOM     15  O   UNL A   1      34.777  23.528  25.671  1.00  0.00    -0.384 OA
ATOM     16  C   UNL A   1      36.084  24.079  25.684  1.00  0.00     0.194 C 
ENDBRANCH  14  15
ENDBRANCH  12  14
ENDBRANCH  10  12
BRANCH  10  17
ATOM     17  O   UNL A   1      31.002  24.493  22.750  1.00  0.00    -0.378 OA
ATOM     18  H   UNL A   1      30.638  24.956  23.521  1.00  0.00     0.212 HD
ENDBRANCH  10  17
ENDBRANCH   8  10
ENDBRANCH   7   8
ENDBRANCH   6   7
ENDBRANCH   5   6
ENDBRANCH   4   5
ENDBRANCH   3   4
ENDBRANCH   2   3
ENDBRANCH   1   2
BRANCH   1  19
ATOM     19  C   UNL A   1      33.894  32.930  28.315  1.00  0.00     0.188 C 
BRANCH  19  20
ATOM     20  C   UNL A   1      32.983  34.155  28.088  1.00  0.00     0.188 C 
BRANCH  20  21
ATOM     21  O   UNL A   1      32.598  34.842  29.275  1.00  0.00    -0.376 OA
BRANCH  21  22
ATOM     22  C   UNL A   1      33.605  35.317  30.153  1.00  0.00     0.202 C 
BRANCH  22  23
ATOM     23  C   UNL A   1      33.624  34.739  31.577  1.00  0.00     0.261 C 
BRANCH  23  24
ATOM     24  O   UNL A   1      34.036  33.370  31.702  1.00  0.00    -0.460 OA
BRANCH  24  25
ATOM     25  C   UNL A   1      34.817  33.043  32.753  1.00  0.00     0.338 C 
ATOM     26  O   UNL A   1      34.512  33.080  33.933  1.00  0.00    -0.246 OA
BRANCH  25  27
ATOM     27  C   UNL A   1      36.049  32.426  32.216  1.00  0.00     0.060 A 
ATOM     28  C   UNL A   1      36.836  31.636  33.066  1.00  0.00     0.016 A 
ATOM     29  C   UNL A   1      36.399  32.585  30.872  1.00  0.00     0.016 A 
ATOM     30  C   UNL A   1      37.991  31.025  32.580  1.00  0.00     0.010 A 
ATOM     31  C   UNL A   1      37.574  31.998  30.396  1.00  0.00     0.010 A 
ATOM     32  C   UNL A   1      38.391  31.244  31.256  1.00  0.00    -0.014 A 
BRANCH  32  33
ATOM     33  C   UNL A   1      39.769  30.883  30.841  1.00  0.00     0.031 A 
ATOM     34  C   UNL A   1      40.848  31.915  31.027  1.00  0.00     0.074 A 
ATOM     35  C   UNL A   1      40.062  29.673  30.335  1.00  0.00     0.049 A 
ATOM     36  N   UNL A   1      42.113  31.864  30.701  1.00  0.00    -0.248 NA
ATOM     37  C   UNL A   1      40.442  33.178  31.667  1.00  0.00     0.031 C 
ATOM     38  C   UNL A   1      39.113  28.578  30.151  1.00  0.00     0.029 A 
ATOM     39  N   UNL A   1      41.253  29.168  29.875  1.00  0.00    -0.354 N 
ATOM     40  C   UNL A   1      42.649  33.086  31.089  1.00  0.00     0.074 A 
ATOM     41  C   UNL A   1      41.569  33.870  31.645  1.00  0.00     0.031 C 
ATOM     42  C   UNL A   1      39.756  27.532  29.599  1.00  0.00     0.029 A 
ATOM     43  C   UNL A   1      41.153  27.896  29.363  1.00  0.00     0.049 A 
ATOM     44  H   UNL A   1      42.100  29.669  29.908  1.00  0.00     0.167 HD
ATOM     45  C   UNL A   1      43.930  33.514  30.997  1.00  0.00     0.037 A 
ATOM     46  C   UNL A   1      42.078  27.128  28.751  1.00  0.00     0.037 A 
ATOM     47  C   UNL A   1      44.999  32.730  30.437  1.00  0.00     0.049 A 
ATOM     48  C   UNL A   1      43.483  27.657  28.586  1.00  0.00     0.074 A 
ATOM     49  C   UNL A   1      46.335  33.066  30.309  1.00  0.00     0.029 A 
ATOM     50  N   UNL A   1      44.853  31.460  29.899  1.00  0.00    -0.354 N 
ATOM     51  N   UNL A   1      43.986  28.804  28.978  1.00  0.00    -0.248 NA
ATOM     52  C   UNL A   1      44.447  26.785  27.898  1.00  0.00     0.031 C 
ATOM     53  C   UNL A   1      46.984  32.024  29.640  1.00  0.00     0.029 A 
ATOM     54  C   UNL A   1      46.066  31.010  29.409  1.00  0.00     0.049 A 
ATOM     55  H   UNL A   1      44.008  30.954  29.869  1.00  0.00     0.167 HD
ATOM     56  C   UNL A   1      45.330  28.778  28.612  1.00  0.00     0.074 A 
ATOM     57  C   UNL A   1      45.562  27.497  27.978  1.00  0.00     0.031 C 
ATOM     58  C   UNL A   1      46.284  29.727  28.786  1.00  0.00     0.037 A 
BRANCH  45  59
ATOM     59  C   UNL A   1      44.236  34.904  31.483  1.00  0.00     0.058 A 
ATOM     60  C   UNL A   1      44.652  35.156  32.800  1.00  0.00     0.135 A 
ATOM     61  C   UNL A   1      44.132  35.999  30.610  1.00  0.00     0.135 A 
ATOM     62  F   UNL A   1      44.747  34.150  33.684  1.00  0.00    -0.206 F 
ATOM     63  C   UNL A   1      44.930  36.446  33.241  1.00  0.00     0.059 A 
ATOM     64  C   UNL A   1      44.434  37.293  31.020  1.00  0.00     0.059 A 
ATOM     65  F   UNL A   1      43.731  35.816  29.342  1.00  0.00    -0.206 F 
ATOM     66  C   UNL A   1      44.820  37.508  32.342  1.00  0.00     0.060 A 
BRANCH  66  67
ATOM     67  S   UNL A   1      45.192  39.175  32.928  1.00  0.00     0.124 S 
ATOM     68  O   UNL A   1      46.649  39.193  32.847  1.00  0.00    -0.237 OA
ATOM     69  O   UNL A   1      44.493  40.008  31.955  1.00  0.00    -0.237 OA
ATOM     70  O   UNL A   1      44.639  39.193  34.278  1.00  0.00    -0.744 OA
ENDBRANCH  66  67
ENDBRANCH  45  59
BRANCH  46  71
ATOM     71  C   UNL A   1      41.708  25.784  28.230  1.00  0.00     0.058 A 
ATOM     72  C   UNL A   1      42.173  24.611  28.843  1.00  0.00     0.135 A 
ATOM     73  C   UNL A   1      40.887  25.645  27.098  1.00  0.00     0.135 A 
ATOM     74  F   UNL A   1      42.974  24.689  29.917  1.00  0.00    -0.206 F 
ATOM     75  C   UNL A   1      41.851  23.351  28.348  1.00  0.00     0.059 A 
ATOM     76  C   UNL A   1      40.527  24.395  26.602  1.00  0.00     0.059 A 
ATOM     77  F   UNL A   1      40.411  26.733  26.474  1.00  0.00    -0.206 F 
ATOM     78  C   UNL A   1      41.022  23.253  27.229  1.00  0.00     0.060 A 
BRANCH  78  79
ATOM     79  S   UNL A   1      40.570  21.612  26.627  1.00  0.00     0.124 S 
ATOM     80  O   UNL A   1      40.636  20.819  27.849  1.00  0.00    -0.237 OA
ATOM     81  O   UNL A   1      39.233  21.842  26.087  1.00  0.00    -0.237 OA
ATOM     82  O   UNL A   1      41.599  21.324  25.632  1.00  0.00    -0.744 OA
ENDBRANCH  78  79
ENDBRANCH  46  71
BRANCH  58  83
ATOM     83  C   UNL A   1      47.681  29.409  28.321  1.00  0.00     0.058 A 
ATOM     84  C   UNL A   1      48.635  28.836  29.176  1.00  0.00     0.135 A 
ATOM     85  C   UNL A   1      48.050  29.624  26.982  1.00  0.00     0.135 A 
ATOM     86  F   UNL A   1      48.340  28.612  30.466  1.00  0.00    -0.206 F 
ATOM     87  C   UNL A   1      49.913  28.512  28.728  1.00  0.00     0.059 A 
ATOM     88  C   UNL A   1      49.310  29.277  26.505  1.00  0.00     0.059 A 
ATOM     89  F   UNL A   1      47.173  30.157  26.117  1.00  0.00    -0.206 F 
ATOM     90  C   UNL A   1      50.240  28.733  27.389  1.00  0.00     0.060 A 
BRANCH  90  91
ATOM     91  S   UNL A   1      51.888  28.276  26.814  1.00  0.00     0.124 S 
ATOM     92  O   UNL A   1      52.694  29.381  27.321  1.00  0.00    -0.237 OA
ATOM     93  O   UNL A   1      52.098  26.986  27.465  1.00  0.00    -0.237 OA
ATOM     94  O   UNL A   1      51.740  28.221  25.362  1.00  0.00    -0.744 OA
ENDBRANCH  90  91
ENDBRANCH  58  83
ENDBRANCH  32  33
ENDBRANCH  25  27
ENDBRANCH  24  25
ENDBRANCH  23  24
ENDBRANCH  22  23
ENDBRANCH  21  22
ENDBRANCH  20  21
ENDBRANCH  19  20
ENDBRANCH   1  19
TORSDOF 27
ENDMDL
MODEL 2
REMARK VINA RESULT:      -7.2      8.491     13.712
REMARK SMILES COC[C@H](C)[C@@](C)(O)C(=O)OCCOCCOCCOCCOC(=O)c1ccc(-c2c3nc(c(-c4c(F)cc(S(=O)(=O)[O-])cc4F)c4ccc([nH]4)c(-c4c(F)cc(S(=O)(=O)[O-])cc4F)c4nc(c(-c5c(F)cc(S(=O)(=O)[O-])cc5F)c5ccc2[nH]5)C=C4)C=C3)cc1
REMARK SMILES IDX 17 1 16 2 15 3 14 4 13 5 12 6 11 7 9 8 10 9 6 10 7 11 4 12
REMARK SMILES IDX 5 13 3 14 2 15 1 16 8 17 18 19 19 20 20 21 21 22 22 23 23 24
REMARK SMILES IDX 24 25 25 26 26 27 27 28 91 29 28 30 90 31 29 32 30 33 31 34
REMARK SMILES IDX 84 35 32 36 89 37 83 38 85 39 33 40 88 41 82 42 81 43 34 45
REMARK SMILES IDX 68 46 47 47 67 48 48 49 51 50 66 51 86 52 49 53 50 54 65 56
REMARK SMILES IDX 87 57 52 58 35 59 36 60 45 61 37 62 38 63 44 64 46 65 39 66
REMARK SMILES IDX 40 67 41 68 42 69 43 70 69 71 70 72 79 73 71 74 72 75 78 76
REMARK SMILES IDX 80 77 73 78 74 79 75 80 76 81 77 82 53 83 54 84 63 85 55 86
REMARK SMILES IDX 56 87 62 88 64 89 57 90 58 91 59 92 60 93 61 94
REMARK H PARENT 8 18 85 44 51 55
REMARK Flexibility Score: inf
ROOT
ATOM      1  O   UNL A   1      46.230  42.255  21.862  1.00  0.00    -0.377 OA
ENDROOT
BRANCH   1   2
ATOM      2  C   UNL A   1      45.613  42.810  20.717  1.00  0.00     0.188 C 
BRANCH   2   3
ATOM      3  C   UNL A   1      44.120  43.117  20.937  1.00  0.00     0.188 C 
BRANCH   3   4
ATOM      4  O   UNL A   1      43.380  43.478  19.785  1.00  0.00    -0.376 OA
BRANCH   4   5
ATOM      5  C   UNL A   1      41.977  43.265  19.720  1.00  0.00     0.202 C 
BRANCH   5   6
ATOM      6  C   UNL A   1      40.974  43.993  18.791  1.00  0.00     0.261 C 
BRANCH   6   7
ATOM      7  O   UNL A   1      41.263  45.329  18.368  1.00  0.00    -0.461 OA
BRANCH   7   8
ATOM      8  C   UNL A   1      41.916  45.494  17.194  1.00  0.00     0.338 C 
ATOM      9  O   UNL A   1      41.490  45.084  16.121  1.00  0.00    -0.249 OA
BRANCH   8  10
ATOM     10  C   UNL A   1      43.298  46.217  17.401  1.00  0.00     0.163 C 
ATOM     11  C   UNL A   1      44.319  45.255  16.771  1.00  0.00     0.055 C 
BRANCH  10  12
ATOM     12  C   UNL A   1      43.355  47.640  16.745  1.00  0.00     0.055 C 
ATOM     13  C   UNL A   1      41.980  48.227  16.419  1.00  0.00     0.014 C 
BRANCH  12  14
ATOM     14  C   UNL A   1      44.296  48.635  17.483  1.00  0.00     0.166 C 
BRANCH  14  15
ATOM     15  O   UNL A   1      44.155  49.991  17.066  1.00  0.00    -0.384 OA
ATOM     16  C   UNL A   1      45.207  50.832  17.511  1.00  0.00     0.194 C 
ENDBRANCH  14  15
ENDBRANCH  12  14
ENDBRANCH  10  12
BRANCH  10  17
ATOM     17  O   UNL A   1      43.723  46.388  18.759  1.00  0.00    -0.378 OA
ATOM     18  H   UNL A   1      43.133  47.014  19.206  1.00  0.00     0.212 HD
ENDBRANCH  10  17
ENDBRANCH   8  10
ENDBRANCH   7   8
ENDBRANCH   6   7
ENDBRANCH   5   6
ENDBRANCH   4   5
ENDBRANCH   3   4
ENDBRANCH   2   3
ENDBRANCH   1   2
BRANCH   1  19
ATOM     19  C   UNL A   1      47.500  42.776  22.213  1.00  0.00     0.188 C 
BRANCH  19  20
ATOM     20  C   UNL A   1      47.614  43.780  23.381  1.00  0.00     0.188 C 
BRANCH  20  21
ATOM     21  O   UNL A   1      46.569  43.695  24.345  1.00  0.00    -0.376 OA
BRANCH  21  22
ATOM     22  C   UNL A   1      45.482  44.602  24.263  1.00  0.00     0.202 C 
BRANCH  22  23
ATOM     23  C   UNL A   1      44.069  43.999  24.211  1.00  0.00     0.261 C 
BRANCH  23  24
ATOM     24  O   UNL A   1      43.770  42.994  25.189  1.00  0.00    -0.460 OA
BRANCH  24  25
ATOM     25  C   UNL A   1      43.072  41.911  24.784  1.00  0.00     0.338 C 
ATOM     26  O   UNL A   1      42.619  41.706  23.671  1.00  0.00    -0.246 OA
BRANCH  25  27
ATOM     27  C   UNL A   1      43.132  40.911  25.871  1.00  0.00     0.060 A 
ATOM     28  C   UNL A   1      41.963  40.620  26.587  1.00  0.00     0.016 A 
ATOM     29  C   UNL A   1      44.321  40.230  26.150  1.00  0.00     0.016 A 
ATOM     30  C   UNL A   1      41.985  39.665  27.604  1.00  0.00     0.010 A 
ATOM     31  C   UNL A   1      44.349  39.298  27.190  1.00  0.00     0.010 A 
ATOM     32  C   UNL A   1      43.190  39.037  27.942  1.00  0.00    -0.014 A 
BRANCH  32  33
ATOM     33  C   UNL A   1      43.290  38.290  29.220  1.00  0.00     0.031 A 
ATOM     34  C   UNL A   1      43.772  39.039  30.432  1.00  0.00     0.074 A 
ATOM     35  C   UNL A   1      42.943  36.994  29.312  1.00  0.00     0.049 A 
ATOM     36  N   UNL A   1      43.992  38.605  31.645  1.00  0.00    -0.248 NA
ATOM     37  C   UNL A   1      44.046  40.474  30.247  1.00  0.00     0.031 C 
ATOM     38  C   UNL A   1      42.419  36.177  28.221  1.00  0.00     0.029 A 
ATOM     39  N   UNL A   1      42.990  36.136  30.384  1.00  0.00    -0.354 N 
ATOM     40  C   UNL A   1      44.436  39.709  32.364  1.00  0.00     0.074 A 
ATOM     41  C   UNL A   1      44.484  40.825  31.445  1.00  0.00     0.031 C 
ATOM     42  C   UNL A   1      42.208  34.928  28.674  1.00  0.00     0.029 A 
ATOM     43  C   UNL A   1      42.612  34.851  30.079  1.00  0.00     0.049 A 
ATOM     44  H   UNL A   1      43.268  36.416  31.285  1.00  0.00     0.167 HD
ATOM     45  C   UNL A   1      44.766  39.788  33.674  1.00  0.00     0.037 A 
ATOM     46  C   UNL A   1      42.618  33.737  30.840  1.00  0.00     0.037 A 
ATOM     47  C   UNL A   1      44.721  38.671  34.581  1.00  0.00     0.049 A 
ATOM     48  C   UNL A   1      43.067  33.831  32.279  1.00  0.00     0.074 A 
ATOM     49  C   UNL A   1      45.022  38.648  35.930  1.00  0.00     0.029 A 
ATOM     50  N   UNL A   1      44.365  37.378  34.228  1.00  0.00    -0.354 N 
ATOM     51  N   UNL A   1      43.461  34.884  32.955  1.00  0.00    -0.248 NA
ATOM     52  C   UNL A   1      43.069  32.585  33.059  1.00  0.00     0.031 C 
ATOM     53  C   UNL A   1      44.906  37.329  36.379  1.00  0.00     0.029 A 
ATOM     54  C   UNL A   1      44.468  36.542  35.326  1.00  0.00     0.049 A 
ATOM     55  H   UNL A   1      44.081  37.096  33.328  1.00  0.00     0.167 HD
ATOM     56  C   UNL A   1      43.728  34.434  34.246  1.00  0.00     0.074 A 
ATOM     57  C   UNL A   1      43.439  33.014  34.257  1.00  0.00     0.031 C 
ATOM     58  C   UNL A   1      44.170  35.130  35.323  1.00  0.00     0.037 A 
BRANCH  45  59
ATOM     59  C   UNL A   1      45.236  41.119  34.194  1.00  0.00     0.058 A 
ATOM     60  C   UNL A   1      44.348  42.058  34.742  1.00  0.00     0.135 A 
ATOM     61  C   UNL A   1      46.600  41.449  34.164  1.00  0.00     0.135 A 
ATOM     62  F   UNL A   1      43.030  41.805  34.775  1.00  0.00    -0.206 F 
ATOM     63  C   UNL A   1      44.793  43.287  35.219  1.00  0.00     0.059 A 
ATOM     64  C   UNL A   1      47.072  42.659  34.663  1.00  0.00     0.059 A 
ATOM     65  F   UNL A   1      47.492  40.591  33.644  1.00  0.00    -0.206 F 
ATOM     66  C   UNL A   1      46.157  43.577  35.176  1.00  0.00     0.060 A 
BRANCH  66  67
ATOM     67  S   UNL A   1      46.719  45.174  35.806  1.00  0.00     0.124 S 
ATOM     68  O   UNL A   1      46.457  45.032  37.235  1.00  0.00    -0.237 OA
ATOM     69  O   UNL A   1      48.125  45.183  35.417  1.00  0.00    -0.237 OA
ATOM     70  O   UNL A   1      45.872  46.134  35.106  1.00  0.00    -0.744 OA
ENDBRANCH  66  67
ENDBRANCH  45  59
BRANCH  46  71
ATOM     71  C   UNL A   1      42.204  32.431  30.259  1.00  0.00     0.058 A 
ATOM     72  C   UNL A   1      40.887  31.963  30.383  1.00  0.00     0.135 A 
ATOM     73  C   UNL A   1      43.122  31.618  29.573  1.00  0.00     0.135 A 
ATOM     74  F   UNL A   1      39.976  32.693  31.043  1.00  0.00    -0.206 F 
ATOM     75  C   UNL A   1      40.498  30.732  29.863  1.00  0.00     0.059 A 
ATOM     76  C   UNL A   1      42.748  30.397  29.019  1.00  0.00     0.059 A 
ATOM     77  F   UNL A   1      44.393  32.018  29.421  1.00  0.00    -0.206 F 
ATOM     78  C   UNL A   1      41.435  29.958  29.177  1.00  0.00     0.060 A 
BRANCH  78  79
ATOM     79  S   UNL A   1      40.905  28.387  28.462  1.00  0.00     0.124 S 
ATOM     80  O   UNL A   1      42.132  27.921  27.826  1.00  0.00    -0.237 OA
ATOM     81  O   UNL A   1      40.476  27.644  29.644  1.00  0.00    -0.237 OA
ATOM     82  O   UNL A   1      39.832  28.777  27.553  1.00  0.00    -0.744 OA
ENDBRANCH  78  79
ENDBRANCH  46  71
BRANCH  58  83
ATOM     83  C   UNL A   1      44.335  34.383  36.621  1.00  0.00     0.058 A 
ATOM     84  C   UNL A   1      43.301  34.303  37.567  1.00  0.00     0.135 A 
ATOM     85  C   UNL A   1      45.524  33.686  36.893  1.00  0.00     0.135 A 
ATOM     86  F   UNL A   1      42.145  34.952  37.362  1.00  0.00    -0.206 F 
ATOM     87  C   UNL A   1      43.449  33.580  38.748  1.00  0.00     0.059 A 
ATOM     88  C   UNL A   1      45.682  32.930  38.050  1.00  0.00     0.059 A 
ATOM     89  F   UNL A   1      46.541  33.717  36.016  1.00  0.00    -0.206 F 
ATOM     90  C   UNL A   1      44.643  32.893  38.978  1.00  0.00     0.060 A 
BRANCH  90  91
ATOM     91  S   UNL A   1      44.809  31.932  40.497  1.00  0.00     0.124 S 
ATOM     92  O   UNL A   1      44.417  32.908  41.508  1.00  0.00    -0.237 OA
ATOM     93  O   UNL A   1      43.870  30.836  40.275  1.00  0.00    -0.237 OA
ATOM     94  O   UNL A   1      46.219  31.550  40.506  1.00  0.00    -0.744 OA
ENDBRANCH  90  91
ENDBRANCH  58  83
ENDBRANCH  32  33
ENDBRANCH  25  27
ENDBRANCH  24  25
ENDBRANCH  23  24
ENDBRANCH  22  23
ENDBRANCH  21  22
ENDBRANCH  20  21
ENDBRANCH  19  20
ENDBRANCH   1  19
TORSDOF 27
ENDMDL
MODEL 3
REMARK VINA RESULT:      -7.1      5.418     12.421
REMARK SMILES COC[C@H](C)[C@@](C)(O)C(=O)OCCOCCOCCOCCOC(=O)c1ccc(-c2c3nc(c(-c4c(F)cc(S(=O)(=O)[O-])cc4F)c4ccc([nH]4)c(-c4c(F)cc(S(=O)(=O)[O-])cc4F)c4nc(c(-c5c(F)cc(S(=O)(=O)[O-])cc5F)c5ccc2[nH]5)C=C4)C=C3)cc1
REMARK SMILES IDX 17 1 16 2 15 3 14 4 13 5 12 6 11 7 9 8 10 9 6 10 7 11 4 12
REMARK SMILES IDX 5 13 3 14 2 15 1 16 8 17 18 19 19 20 20 21 21 22 22 23 23 24
REMARK SMILES IDX 24 25 25 26 26 27 27 28 91 29 28 30 90 31 29 32 30 33 31 34
REMARK SMILES IDX 84 35 32 36 89 37 83 38 85 39 33 40 88 41 82 42 81 43 34 45
REMARK SMILES IDX 68 46 47 47 67 48 48 49 51 50 66 51 86 52 49 53 50 54 65 56
REMARK SMILES IDX 87 57 52 58 35 59 36 60 45 61 37 62 38 63 44 64 46 65 39 66
REMARK SMILES IDX 40 67 41 68 42 69 43 70 69 71 70 72 79 73 71 74 72 75 78 76
REMARK SMILES IDX 80 77 73 78 74 79 75 80 76 81 77 82 53 83 54 84 63 85 55 86
REMARK SMILES IDX 56 87 62 88 64 89 57 90 58 91 59 92 60 93 61 94
REMARK H PARENT 8 18 85 44 51 55
REMARK Flexibility Score: inf
ROOT
ATOM      1  O   UNL A   1      47.232  25.801  26.440  1.00  0.00    -0.377 OA
ENDROOT
BRANCH   1   2
ATOM      2  C   UNL A   1      46.798  26.506  25.293  1.00  0.00     0.188 C 
BRANCH   2   3
ATOM      3  C   UNL A   1      45.315  26.912  25.371  1.00  0.00     0.188 C 
BRANCH   3   4
ATOM      4  O   UNL A   1      45.008  27.994  26.231  1.00  0.00    -0.376 OA
BRANCH   4   5
ATOM      5  C   UNL A   1      46.037  28.719  26.890  1.00  0.00     0.202 C 
BRANCH   5   6
ATOM      6  C   UNL A   1      45.850  29.881  27.897  1.00  0.00     0.261 C 
BRANCH   6   7
ATOM      7  O   UNL A   1      45.091  29.652  29.089  1.00  0.00    -0.461 OA
BRANCH   7   8
ATOM      8  C   UNL A   1      45.115  30.608  30.047  1.00  0.00     0.338 C 
ATOM      9  O   UNL A   1      45.651  30.458  31.138  1.00  0.00    -0.249 OA
BRANCH   8  10
ATOM     10  C   UNL A   1      44.322  31.892  29.598  1.00  0.00     0.163 C 
ATOM     11  C   UNL A   1      42.985  31.339  29.076  1.00  0.00     0.055 C 
BRANCH  10  12
ATOM     12  C   UNL A   1      44.113  32.925  30.758  1.00  0.00     0.055 C 
ATOM     13  C   UNL A   1      44.032  34.378  30.286  1.00  0.00     0.014 C 
BRANCH  12  14
ATOM     14  C   UNL A   1      42.983  32.531  31.753  1.00  0.00     0.166 C 
BRANCH  14  15
ATOM     15  O   UNL A   1      43.373  32.565  33.123  1.00  0.00    -0.384 OA
ATOM     16  C   UNL A   1      44.536  33.343  33.362  1.00  0.00     0.194 C 
ENDBRANCH  14  15
ENDBRANCH  12  14
ENDBRANCH  10  12
BRANCH  10  17
ATOM     17  O   UNL A   1      44.883  32.628  28.504  1.00  0.00    -0.378 OA
ATOM     18  H   UNL A   1      44.241  32.666  27.777  1.00  0.00     0.212 HD
ENDBRANCH  10  17
ENDBRANCH   8  10
ENDBRANCH   7   8
ENDBRANCH   6   7
ENDBRANCH   5   6
ENDBRANCH   4   5
ENDBRANCH   3   4
ENDBRANCH   2   3
ENDBRANCH   1   2
BRANCH   1  19
ATOM     19  C   UNL A   1      47.218  24.386  26.358  1.00  0.00     0.188 C 
BRANCH  19  20
ATOM     20  C   UNL A   1      46.052  23.678  25.636  1.00  0.00     0.188 C 
BRANCH  20  21
ATOM     21  O   UNL A   1      45.227  22.878  26.476  1.00  0.00    -0.376 OA
BRANCH  21  22
ATOM     22  C   UNL A   1      44.031  23.434  26.997  1.00  0.00     0.202 C 
BRANCH  22  23
ATOM     23  C   UNL A   1      42.742  23.208  26.191  1.00  0.00     0.261 C 
BRANCH  23  24
ATOM     24  O   UNL A   1      41.562  23.856  26.684  1.00  0.00    -0.460 OA
BRANCH  24  25
ATOM     25  C   UNL A   1      41.322  25.120  26.273  1.00  0.00     0.338 C 
ATOM     26  O   UNL A   1      41.003  25.478  25.152  1.00  0.00    -0.246 OA
BRANCH  25  27
ATOM     27  C   UNL A   1      41.304  25.982  27.474  1.00  0.00     0.060 A 
ATOM     28  C   UNL A   1      40.230  25.874  28.369  1.00  0.00     0.016 A 
ATOM     29  C   UNL A   1      42.362  26.855  27.742  1.00  0.00     0.016 A 
ATOM     30  C   UNL A   1      40.198  26.659  29.521  1.00  0.00     0.010 A 
ATOM     31  C   UNL A   1      42.312  27.664  28.879  1.00  0.00     0.010 A 
ATOM     32  C   UNL A   1      41.215  27.593  29.755  1.00  0.00    -0.014 A 
BRANCH  32  33
ATOM     33  C   UNL A   1      41.015  28.647  30.779  1.00  0.00     0.031 A 
ATOM     34  C   UNL A   1      41.901  28.617  31.996  1.00  0.00     0.074 A 
ATOM     35  C   UNL A   1      40.095  29.616  30.629  1.00  0.00     0.049 A 
ATOM     36  N   UNL A   1      41.893  29.391  33.049  1.00  0.00    -0.248 NA
ATOM     37  C   UNL A   1      42.933  27.568  32.026  1.00  0.00     0.031 C 
ATOM     38  C   UNL A   1      39.213  29.776  29.476  1.00  0.00     0.029 A 
ATOM     39  N   UNL A   1      39.747  30.648  31.466  1.00  0.00    -0.354 N 
ATOM     40  C   UNL A   1      42.912  28.917  33.868  1.00  0.00     0.074 A 
ATOM     41  C   UNL A   1      43.495  27.772  33.206  1.00  0.00     0.031 C 
ATOM     42  C   UNL A   1      38.411  30.836  29.685  1.00  0.00     0.029 A 
ATOM     43  C   UNL A   1      38.702  31.408  31.000  1.00  0.00     0.049 A 
ATOM     44  H   UNL A   1      40.203  30.826  32.320  1.00  0.00     0.167 HD
ATOM     45  C   UNL A   1      43.328  29.399  35.062  1.00  0.00     0.037 A 
ATOM     46  C   UNL A   1      38.041  32.430  31.582  1.00  0.00     0.037 A 
ATOM     47  C   UNL A   1      42.738  30.537  35.718  1.00  0.00     0.049 A 
ATOM     48  C   UNL A   1      38.471  32.901  32.951  1.00  0.00     0.074 A 
ATOM     49  C   UNL A   1      43.094  31.114  36.923  1.00  0.00     0.029 A 
ATOM     50  N   UNL A   1      41.660  31.260  35.231  1.00  0.00    -0.354 N 
ATOM     51  N   UNL A   1      39.450  32.463  33.707  1.00  0.00    -0.248 NA
ATOM     52  C   UNL A   1      37.706  34.008  33.546  1.00  0.00     0.031 C 
ATOM     53  C   UNL A   1      42.194  32.149  37.194  1.00  0.00     0.029 A 
ATOM     54  C   UNL A   1      41.318  32.260  36.125  1.00  0.00     0.049 A 
ATOM     55  H   UNL A   1      41.205  31.088  34.375  1.00  0.00     0.167 HD
ATOM     56  C   UNL A   1      39.438  33.259  34.849  1.00  0.00     0.074 A 
ATOM     57  C   UNL A   1      38.361  34.212  34.680  1.00  0.00     0.031 C 
ATOM     58  C   UNL A   1      40.245  33.207  35.939  1.00  0.00     0.037 A 
BRANCH  45  59
ATOM     59  C   UNL A   1      44.454  28.676  35.750  1.00  0.00     0.058 A 
ATOM     60  C   UNL A   1      45.800  28.984  35.494  1.00  0.00     0.135 A 
ATOM     61  C   UNL A   1      44.180  27.676  36.696  1.00  0.00     0.135 A 
ATOM     62  F   UNL A   1      46.120  29.915  34.582  1.00  0.00    -0.206 F 
ATOM     63  C   UNL A   1      46.834  28.307  36.134  1.00  0.00     0.059 A 
ATOM     64  C   UNL A   1      45.198  27.008  37.371  1.00  0.00     0.059 A 
ATOM     65  F   UNL A   1      42.911  27.337  36.974  1.00  0.00    -0.206 F 
ATOM     66  C   UNL A   1      46.522  27.323  37.072  1.00  0.00     0.060 A 
BRANCH  66  67
ATOM     67  S   UNL A   1      47.876  26.460  37.898  1.00  0.00     0.124 S 
ATOM     68  O   UNL A   1      48.075  25.316  37.015  1.00  0.00    -0.237 OA
ATOM     69  O   UNL A   1      48.936  27.463  37.885  1.00  0.00    -0.237 OA
ATOM     70  O   UNL A   1      47.329  26.149  39.215  1.00  0.00    -0.744 OA
ENDBRANCH  66  67
ENDBRANCH  45  59
BRANCH  46  71
ATOM     71  C   UNL A   1      36.891  33.070  30.886  1.00  0.00     0.058 A 
ATOM     72  C   UNL A   1      37.090  34.028  29.881  1.00  0.00     0.135 A 
ATOM     73  C   UNL A   1      35.566  32.743  31.221  1.00  0.00     0.135 A 
ATOM     74  F   UNL A   1      38.334  34.390  29.536  1.00  0.00    -0.206 F 
ATOM     75  C   UNL A   1      36.020  34.649  29.242  1.00  0.00     0.059 A 
ATOM     76  C   UNL A   1      34.481  33.328  30.575  1.00  0.00     0.059 A 
ATOM     77  F   UNL A   1      35.318  31.829  32.172  1.00  0.00    -0.206 F 
ATOM     78  C   UNL A   1      34.717  34.287  29.593  1.00  0.00     0.060 A 
BRANCH  78  79
ATOM     79  S   UNL A   1      33.339  35.062  28.721  1.00  0.00     0.124 S 
ATOM     80  O   UNL A   1      34.027  36.046  27.895  1.00  0.00    -0.237 OA
ATOM     81  O   UNL A   1      32.752  33.930  28.011  1.00  0.00    -0.237 OA
ATOM     82  O   UNL A   1      32.522  35.606  29.802  1.00  0.00    -0.744 OA
ENDBRANCH  78  79
ENDBRANCH  46  71
BRANCH  58  83
ATOM     83  C   UNL A   1      40.028  34.232  37.022  1.00  0.00     0.058 A 
ATOM     84  C   UNL A   1      40.578  35.520  36.945  1.00  0.00     0.135 A 
ATOM     85  C   UNL A   1      39.204  33.938  38.122  1.00  0.00     0.135 A 
ATOM     86  F   UNL A   1      41.376  35.856  35.919  1.00  0.00    -0.206 F 
ATOM     87  C   UNL A   1      40.341  36.473  37.933  1.00  0.00     0.059 A 
ATOM     88  C   UNL A   1      38.927  34.883  39.103  1.00  0.00     0.059 A 
ATOM     89  F   UNL A   1      38.641  32.724  38.238  1.00  0.00    -0.206 F 
ATOM     90  C   UNL A   1      39.511  36.146  39.007  1.00  0.00     0.060 A 
BRANCH  90  91
ATOM     91  S   UNL A   1      39.185  37.400  40.262  1.00  0.00     0.124 S 
ATOM     92  O   UNL A   1      40.526  37.915  40.521  1.00  0.00    -0.237 OA
ATOM     93  O   UNL A   1      38.280  38.310  39.565  1.00  0.00    -0.237 OA
ATOM     94  O   UNL A   1      38.583  36.642  41.355  1.00  0.00    -0.744 OA
ENDBRANCH  90  91
ENDBRANCH  58  83
ENDBRANCH  32  33
ENDBRANCH  25  27
ENDBRANCH  24  25
ENDBRANCH  23  24
ENDBRANCH  22  23
ENDBRANCH  21  22
ENDBRANCH  20  21
ENDBRANCH  19  20
ENDBRANCH   1  19
TORSDOF 27
ENDMDL
