MODEL 1
REMARK VINA RESULT:     -10.7      0.000      0.000
REMARK SMILES Cc1cc2c(c(C)c1Cl)C=C(C(=O)OCCOCCOCCOCCOC(=O)c1ccc(-c3c4nc(c(-c5c(F)cc(S(=O)(=O)[O-])cc5F)c5ccc([nH]5)c(-c5c(F)cc(S(=O)(=O)[O-])cc5F)c5nc(c(-c6c(F)cc(S(=O)(=O)[O-])cc6F)c6ccc3[nH]6)C=C5)C=C4)cc1)[C@@H](C(F)(F)F)O2
REMARK SMILES IDX 21 1 20 2 19 3 18 4 17 5 16 6 15 7 14 8 12 9 13 10 11 11
REMARK SMILES IDX 1 12 2 13 3 14 8 15 4 16 6 17 9 18 5 19 100 20 7 21 10 22
REMARK SMILES IDX 95 23 96 24 97 25 98 26 99 27 22 28 23 29 24 30 25 31 26 32
REMARK SMILES IDX 27 33 28 34 29 35 30 36 94 37 31 38 93 39 32 40 33 41 34 42
REMARK SMILES IDX 87 43 35 44 92 45 86 46 88 47 36 48 91 49 85 50 84 51 37 53
REMARK SMILES IDX 71 54 50 55 70 56 51 57 54 58 69 59 89 60 52 61 53 62 68 64
REMARK SMILES IDX 90 65 55 66 38 67 39 68 48 69 40 70 41 71 47 72 49 73 42 74
REMARK SMILES IDX 43 75 44 76 45 77 46 78 72 79 73 80 82 81 74 82 75 83 81 84
REMARK SMILES IDX 83 85 76 86 77 87 78 88 79 89 80 90 56 91 57 92 66 93 58 94
REMARK SMILES IDX 59 95 65 96 67 97 60 98 61 99 62 100 63 101 64 102
REMARK H PARENT 88 52 54 63
REMARK Flexibility Score: inf
ROOT
ATOM      1  C   UNL A   1      43.661  19.269  25.206  1.00  0.00     0.188 C 
ENDROOT
BRANCH   1   2
ATOM      2  O   UNL A   1      42.239  19.331  25.345  1.00  0.00    -0.377 OA
BRANCH   2   3
ATOM      3  C   UNL A   1      41.708  20.063  26.435  1.00  0.00     0.188 C 
BRANCH   3   4
ATOM      4  C   UNL A   1      40.169  20.135  26.427  1.00  0.00     0.188 C 
BRANCH   4   5
ATOM      5  O   UNL A   1      39.666  21.450  26.582  1.00  0.00    -0.376 OA
BRANCH   5   6
ATOM      6  C   UNL A   1      38.647  21.953  25.731  1.00  0.00     0.202 C 
BRANCH   6   7
ATOM      7  C   UNL A   1      37.831  23.229  26.019  1.00  0.00     0.261 C 
BRANCH   7   8
ATOM      8  O   UNL A   1      36.748  23.529  25.135  1.00  0.00    -0.460 OA
BRANCH   8   9
ATOM      9  C   UNL A   1      35.499  23.458  25.623  1.00  0.00     0.338 C 
ATOM     10  O   UNL A   1      35.133  22.862  26.621  1.00  0.00    -0.246 OA
BRANCH   9  11
ATOM     11  C   UNL A   1      34.666  24.400  24.843  1.00  0.00     0.087 C 
ATOM     12  C   UNL A   1      30.512  28.875  22.758  1.00  0.00     0.046 C 
ATOM     13  C   UNL A   1      31.667  28.158  23.402  1.00  0.00    -0.028 A 
ATOM     14  C   UNL A   1      32.103  26.957  22.828  1.00  0.00     0.052 A 
ATOM     15  C   UNL A   1      32.265  28.593  24.603  1.00  0.00     0.047 A 
ATOM     16  C   UNL A   1      33.050  26.161  23.466  1.00  0.00     0.128 A 
ATOM     17  C   UNL A   1      33.265  27.820  25.239  1.00  0.00    -0.021 A 
ATOM     18  Cl  UNL A   1      31.711  30.076  25.320  1.00  0.00    -0.084 Cl
ATOM     19  C   UNL A   1      33.595  26.556  24.691  1.00  0.00     0.022 A 
ATOM     20  O   UNL A   1      33.359  25.002  22.816  1.00  0.00    -0.475 OA
ATOM     21  C   UNL A   1      33.987  28.310  26.473  1.00  0.00     0.047 C 
ATOM     22  C   UNL A   1      34.427  25.592  25.406  1.00  0.00     0.027 C 
ATOM     23  C   UNL A   1      34.213  24.020  23.461  1.00  0.00     0.316 C 
BRANCH  23  24
ATOM     24  C   UNL A   1      33.483  22.671  23.438  1.00  0.00     0.430 C 
ATOM     25  F   UNL A   1      34.307  21.660  23.805  1.00  0.00    -0.167 F 
ATOM     26  F   UNL A   1      32.429  22.647  24.284  1.00  0.00    -0.167 F 
ATOM     27  F   UNL A   1      33.016  22.383  22.200  1.00  0.00    -0.167 F 
ENDBRANCH  23  24
ENDBRANCH   9  11
ENDBRANCH   8   9
ENDBRANCH   7   8
ENDBRANCH   6   7
ENDBRANCH   5   6
ENDBRANCH   4   5
ENDBRANCH   3   4
ENDBRANCH   2   3
ENDBRANCH   1   2
BRANCH   1  28
ATOM     28  C   UNL A   1      44.548  20.538  25.249  1.00  0.00     0.188 C 
BRANCH  28  29
ATOM     29  O   UNL A   1      44.169  21.554  24.327  1.00  0.00    -0.376 OA
BRANCH  29  30
ATOM     30  C   UNL A   1      44.128  22.891  24.797  1.00  0.00     0.202 C 
BRANCH  30  31
ATOM     31  C   UNL A   1      43.139  23.164  25.938  1.00  0.00     0.261 C 
BRANCH  31  32
ATOM     32  O   UNL A   1      43.261  24.446  26.572  1.00  0.00    -0.460 OA
BRANCH  32  33
ATOM     33  C   UNL A   1      42.601  25.482  26.011  1.00  0.00     0.338 C 
ATOM     34  O   UNL A   1      42.278  25.601  24.841  1.00  0.00    -0.246 OA
BRANCH  33  35
ATOM     35  C   UNL A   1      42.157  26.369  27.106  1.00  0.00     0.060 A 
ATOM     36  C   UNL A   1      42.706  27.653  27.208  1.00  0.00     0.016 A 
ATOM     37  C   UNL A   1      41.188  25.936  28.014  1.00  0.00     0.016 A 
ATOM     38  C   UNL A   1      42.305  28.500  28.242  1.00  0.00     0.010 A 
ATOM     39  C   UNL A   1      40.807  26.776  29.063  1.00  0.00     0.010 A 
ATOM     40  C   UNL A   1      41.389  28.048  29.201  1.00  0.00    -0.014 A 
BRANCH  40  41
ATOM     41  C   UNL A   1      41.207  28.811  30.459  1.00  0.00     0.031 A 
ATOM     42  C   UNL A   1      40.105  29.836  30.505  1.00  0.00     0.074 A 
ATOM     43  C   UNL A   1      41.969  28.581  31.542  1.00  0.00     0.049 A 
ATOM     44  N   UNL A   1      39.773  30.655  31.468  1.00  0.00    -0.248 NA
ATOM     45  C   UNL A   1      39.261  29.948  29.302  1.00  0.00     0.031 C 
ATOM     46  C   UNL A   1      43.027  27.577  31.637  1.00  0.00     0.029 A 
ATOM     47  N   UNL A   1      41.967  29.184  32.776  1.00  0.00    -0.354 N 
ATOM     48  C   UNL A   1      38.681  31.371  30.992  1.00  0.00     0.074 A 
ATOM     49  C   UNL A   1      38.428  30.921  29.643  1.00  0.00     0.031 C 
ATOM     50  C   UNL A   1      43.575  27.634  32.865  1.00  0.00     0.029 A 
ATOM     51  C   UNL A   1      42.929  28.700  33.631  1.00  0.00     0.049 A 
ATOM     52  H   UNL A   1      41.334  29.896  33.027  1.00  0.00     0.167 HD
ATOM     53  C   UNL A   1      37.943  32.308  31.631  1.00  0.00     0.037 A 
ATOM     54  C   UNL A   1      43.260  29.089  34.881  1.00  0.00     0.037 A 
ATOM     55  C   UNL A   1      38.202  32.758  32.972  1.00  0.00     0.049 A 
ATOM     56  C   UNL A   1      42.489  30.213  35.531  1.00  0.00     0.074 A 
ATOM     57  C   UNL A   1      37.518  33.714  33.703  1.00  0.00     0.029 A 
ATOM     58  N   UNL A   1      39.222  32.286  33.783  1.00  0.00    -0.354 N 
ATOM     59  N   UNL A   1      41.458  30.882  35.071  1.00  0.00    -0.248 NA
ATOM     60  C   UNL A   1      42.929  30.638  36.869  1.00  0.00     0.031 C 
ATOM     61  C   UNL A   1      38.155  33.855  34.939  1.00  0.00     0.029 A 
ATOM     62  C   UNL A   1      39.201  32.947  35.000  1.00  0.00     0.049 A 
ATOM     63  H   UNL A   1      39.866  31.585  33.532  1.00  0.00     0.167 HD
ATOM     64  C   UNL A   1      41.110  31.785  36.074  1.00  0.00     0.074 A 
ATOM     65  C   UNL A   1      42.030  31.567  37.169  1.00  0.00     0.031 C 
ATOM     66  C   UNL A   1      40.118  32.710  36.087  1.00  0.00     0.037 A 
BRANCH  53  67
ATOM     67  C   UNL A   1      36.787  32.916  30.889  1.00  0.00     0.058 A 
ATOM     68  C   UNL A   1      35.460  32.583  31.203  1.00  0.00     0.135 A 
ATOM     69  C   UNL A   1      37.005  33.892  29.904  1.00  0.00     0.135 A 
ATOM     70  F   UNL A   1      35.198  31.636  32.119  1.00  0.00    -0.206 F 
ATOM     71  C   UNL A   1      34.388  33.195  30.564  1.00  0.00     0.059 A 
ATOM     72  C   UNL A   1      35.946  34.537  29.270  1.00  0.00     0.059 A 
ATOM     73  F   UNL A   1      38.254  34.238  29.560  1.00  0.00    -0.206 F 
ATOM     74  C   UNL A   1      34.642  34.178  29.606  1.00  0.00     0.060 A 
BRANCH  74  75
ATOM     75  S   UNL A   1      33.234  34.992  28.820  1.00  0.00     0.124 S 
ATOM     76  O   UNL A   1      33.884  36.109  28.141  1.00  0.00    -0.237 OA
ATOM     77  O   UNL A   1      32.715  33.938  27.954  1.00  0.00    -0.237 OA
ATOM     78  O   UNL A   1      32.378  35.355  29.945  1.00  0.00    -0.744 OA
ENDBRANCH  74  75
ENDBRANCH  53  67
BRANCH  54  79
ATOM     79  C   UNL A   1      44.375  28.421  35.608  1.00  0.00     0.058 A 
ATOM     80  C   UNL A   1      45.686  28.917  35.534  1.00  0.00     0.135 A 
ATOM     81  C   UNL A   1      44.161  27.261  36.368  1.00  0.00     0.135 A 
ATOM     82  F   UNL A   1      45.947  30.015  34.808  1.00  0.00    -0.206 F 
ATOM     83  C   UNL A   1      46.745  28.281  36.173  1.00  0.00     0.059 A 
ATOM     84  C   UNL A   1      45.200  26.622  37.039  1.00  0.00     0.059 A 
ATOM     85  F   UNL A   1      42.927  26.744  36.475  1.00  0.00    -0.206 F 
ATOM     86  C   UNL A   1      46.491  27.134  36.927  1.00  0.00     0.060 A 
BRANCH  86  87
ATOM     87  S   UNL A   1      47.871  26.337  37.778  1.00  0.00     0.124 S 
ATOM     88  O   UNL A   1      47.617  24.929  37.497  1.00  0.00    -0.237 OA
ATOM     89  O   UNL A   1      49.023  26.926  37.103  1.00  0.00    -0.237 OA
ATOM     90  O   UNL A   1      47.690  26.745  39.168  1.00  0.00    -0.744 OA
ENDBRANCH  86  87
ENDBRANCH  54  79
BRANCH  66  91
ATOM     91  C   UNL A   1      39.946  33.543  37.328  1.00  0.00     0.058 A 
ATOM     92  C   UNL A   1      40.652  34.741  37.513  1.00  0.00     0.135 A 
ATOM     93  C   UNL A   1      38.996  33.185  38.300  1.00  0.00     0.135 A 
ATOM     94  F   UNL A   1      41.573  35.129  36.616  1.00  0.00    -0.206 F 
ATOM     95  C   UNL A   1      40.434  35.547  38.626  1.00  0.00     0.059 A 
ATOM     96  C   UNL A   1      38.741  33.991  39.405  1.00  0.00     0.059 A 
ATOM     97  F   UNL A   1      38.283  32.056  38.164  1.00  0.00    -0.206 F 
ATOM     98  C   UNL A   1      39.471  35.167  39.562  1.00  0.00     0.060 A 
BRANCH  98  99
ATOM     99  S   UNL A   1      39.168  36.252  40.974  1.00  0.00     0.124 S 
ATOM    100  O   UNL A   1      39.131  37.563  40.336  1.00  0.00    -0.237 OA
ATOM    101  O   UNL A   1      37.892  35.755  41.479  1.00  0.00    -0.237 OA
ATOM    102  O   UNL A   1      40.316  36.010  41.843  1.00  0.00    -0.744 OA
ENDBRANCH  98  99
ENDBRANCH  66  91
ENDBRANCH  40  41
ENDBRANCH  33  35
ENDBRANCH  32  33
ENDBRANCH  31  32
ENDBRANCH  30  31
ENDBRANCH  29  30
ENDBRANCH  28  29
ENDBRANCH   1  28
TORSDOF 24
ENDMDL
MODEL 2
REMARK VINA RESULT:     -10.4      4.750      9.907
REMARK SMILES Cc1cc2c(c(C)c1Cl)C=C(C(=O)OCCOCCOCCOCCOC(=O)c1ccc(-c3c4nc(c(-c5c(F)cc(S(=O)(=O)[O-])cc5F)c5ccc([nH]5)c(-c5c(F)cc(S(=O)(=O)[O-])cc5F)c5nc(c(-c6c(F)cc(S(=O)(=O)[O-])cc6F)c6ccc3[nH]6)C=C5)C=C4)cc1)[C@@H](C(F)(F)F)O2
REMARK SMILES IDX 21 1 20 2 19 3 18 4 17 5 16 6 15 7 14 8 12 9 13 10 11 11
REMARK SMILES IDX 1 12 2 13 3 14 8 15 4 16 6 17 9 18 5 19 100 20 7 21 10 22
REMARK SMILES IDX 95 23 96 24 97 25 98 26 99 27 22 28 23 29 24 30 25 31 26 32
REMARK SMILES IDX 27 33 28 34 29 35 30 36 94 37 31 38 93 39 32 40 33 41 34 42
REMARK SMILES IDX 87 43 35 44 92 45 86 46 88 47 36 48 91 49 85 50 84 51 37 53
REMARK SMILES IDX 71 54 50 55 70 56 51 57 54 58 69 59 89 60 52 61 53 62 68 64
REMARK SMILES IDX 90 65 55 66 38 67 39 68 48 69 40 70 41 71 47 72 49 73 42 74
REMARK SMILES IDX 43 75 44 76 45 77 46 78 72 79 73 80 82 81 74 82 75 83 81 84
REMARK SMILES IDX 83 85 76 86 77 87 78 88 79 89 80 90 56 91 57 92 66 93 58 94
REMARK SMILES IDX 59 95 65 96 67 97 60 98 61 99 62 100 63 101 64 102
REMARK H PARENT 88 52 54 63
REMARK Flexibility Score: inf
ROOT
ATOM      1  C   UNL A   1      30.663  24.561  25.786  1.00  0.00     0.188 C 
ENDROOT
BRANCH   1   2
ATOM      2  O   UNL A   1      30.957  23.908  27.023  1.00  0.00    -0.377 OA
BRANCH   2   3
ATOM      3  C   UNL A   1      31.567  22.630  26.974  1.00  0.00     0.188 C 
BRANCH   3   4
ATOM      4  C   UNL A   1      31.810  22.127  25.539  1.00  0.00     0.188 C 
BRANCH   4   5
ATOM      5  O   UNL A   1      31.722  20.719  25.413  1.00  0.00    -0.376 OA
BRANCH   5   6
ATOM      6  C   UNL A   1      32.885  19.921  25.251  1.00  0.00     0.202 C 
BRANCH   6   7
ATOM      7  C   UNL A   1      34.295  20.343  25.708  1.00  0.00     0.261 C 
BRANCH   7   8
ATOM      8  O   UNL A   1      35.382  20.070  24.820  1.00  0.00    -0.460 OA
BRANCH   8   9
ATOM      9  C   UNL A   1      36.352  20.992  24.712  1.00  0.00     0.338 C 
ATOM     10  O   UNL A   1      37.539  20.792  24.529  1.00  0.00    -0.246 OA
BRANCH   9  11
ATOM     11  C   UNL A   1      35.696  22.318  24.654  1.00  0.00     0.087 C 
ATOM     12  C   UNL A   1      33.037  27.948  22.961  1.00  0.00     0.046 C 
ATOM     13  C   UNL A   1      33.328  26.486  23.166  1.00  0.00    -0.028 A 
ATOM     14  C   UNL A   1      34.068  26.112  24.295  1.00  0.00     0.052 A 
ATOM     15  C   UNL A   1      32.970  25.495  22.230  1.00  0.00     0.047 A 
ATOM     16  C   UNL A   1      34.514  24.803  24.456  1.00  0.00     0.128 A 
ATOM     17  C   UNL A   1      33.373  24.150  22.404  1.00  0.00    -0.021 A 
ATOM     18  Cl  UNL A   1      32.065  25.967  20.822  1.00  0.00    -0.084 Cl
ATOM     19  C   UNL A   1      34.219  23.832  23.495  1.00  0.00     0.022 A 
ATOM     20  O   UNL A   1      35.253  24.582  25.582  1.00  0.00    -0.475 OA
ATOM     21  C   UNL A   1      32.922  23.054  21.465  1.00  0.00     0.047 C 
ATOM     22  C   UNL A   1      34.879  22.535  23.614  1.00  0.00     0.027 C 
ATOM     23  C   UNL A   1      35.904  23.298  25.775  1.00  0.00     0.316 C 
BRANCH  23  24
ATOM     24  C   UNL A   1      37.390  23.559  26.053  1.00  0.00     0.430 C 
ATOM     25  F   UNL A   1      37.556  24.619  26.880  1.00  0.00    -0.167 F 
ATOM     26  F   UNL A   1      37.991  22.501  26.642  1.00  0.00    -0.167 F 
ATOM     27  F   UNL A   1      38.066  23.826  24.911  1.00  0.00    -0.167 F 
ENDBRANCH  23  24
ENDBRANCH   9  11
ENDBRANCH   8   9
ENDBRANCH   7   8
ENDBRANCH   6   7
ENDBRANCH   5   6
ENDBRANCH   4   5
ENDBRANCH   3   4
ENDBRANCH   2   3
ENDBRANCH   1   2
BRANCH   1  28
ATOM     28  C   UNL A   1      30.392  26.084  25.703  1.00  0.00     0.188 C 
BRANCH  28  29
ATOM     29  O   UNL A   1      30.836  26.824  26.836  1.00  0.00    -0.376 OA
BRANCH  29  30
ATOM     30  C   UNL A   1      32.230  27.032  26.984  1.00  0.00     0.202 C 
BRANCH  30  31
ATOM     31  C   UNL A   1      32.667  28.489  27.184  1.00  0.00     0.261 C 
BRANCH  31  32
ATOM     32  O   UNL A   1      34.078  28.700  27.336  1.00  0.00    -0.460 OA
BRANCH  32  33
ATOM     33  C   UNL A   1      34.480  29.902  27.804  1.00  0.00     0.338 C 
ATOM     34  O   UNL A   1      33.775  30.860  28.069  1.00  0.00    -0.246 OA
BRANCH  33  35
ATOM     35  C   UNL A   1      35.916  29.790  28.131  1.00  0.00     0.060 A 
ATOM     36  C   UNL A   1      36.862  29.959  27.112  1.00  0.00     0.016 A 
ATOM     37  C   UNL A   1      36.324  29.541  29.444  1.00  0.00     0.016 A 
ATOM     38  C   UNL A   1      38.223  29.848  27.401  1.00  0.00     0.010 A 
ATOM     39  C   UNL A   1      37.685  29.404  29.726  1.00  0.00     0.010 A 
ATOM     40  C   UNL A   1      38.638  29.525  28.700  1.00  0.00    -0.014 A 
BRANCH  40  41
ATOM     41  C   UNL A   1      40.036  29.095  28.938  1.00  0.00     0.031 A 
ATOM     42  C   UNL A   1      40.977  30.087  29.569  1.00  0.00     0.074 A 
ATOM     43  C   UNL A   1      40.457  27.854  28.638  1.00  0.00     0.049 A 
ATOM     44  N   UNL A   1      42.250  29.968  29.839  1.00  0.00    -0.248 NA
ATOM     45  C   UNL A   1      40.400  31.389  29.951  1.00  0.00     0.031 C 
ATOM     46  C   UNL A   1      39.626  26.790  28.077  1.00  0.00     0.029 A 
ATOM     47  N   UNL A   1      41.697  27.279  28.766  1.00  0.00    -0.354 N 
ATOM     48  C   UNL A   1      42.623  31.170  30.429  1.00  0.00     0.074 A 
ATOM     49  C   UNL A   1      41.456  32.021  30.441  1.00  0.00     0.031 C 
ATOM     50  C   UNL A   1      40.382  25.690  27.907  1.00  0.00     0.029 A 
ATOM     51  C   UNL A   1      41.756  25.981  28.315  1.00  0.00     0.049 A 
ATOM     52  H   UNL A   1      42.473  27.751  29.146  1.00  0.00     0.167 HD
ATOM     53  C   UNL A   1      43.828  31.526  30.930  1.00  0.00     0.037 A 
ATOM     54  C   UNL A   1      42.805  25.136  28.226  1.00  0.00     0.037 A 
ATOM     55  C   UNL A   1      44.990  30.678  30.909  1.00  0.00     0.049 A 
ATOM     56  C   UNL A   1      44.165  25.597  28.694  1.00  0.00     0.074 A 
ATOM     57  C   UNL A   1      46.261  30.954  31.381  1.00  0.00     0.029 A 
ATOM     58  N   UNL A   1      45.024  29.394  30.390  1.00  0.00    -0.354 N 
ATOM     59  N   UNL A   1      44.505  26.737  29.249  1.00  0.00    -0.248 NA
ATOM     60  C   UNL A   1      45.285  24.659  28.519  1.00  0.00     0.031 C 
ATOM     61  C   UNL A   1      47.077  29.853  31.102  1.00  0.00     0.029 A 
ATOM     62  C   UNL A   1      46.300  28.870  30.509  1.00  0.00     0.049 A 
ATOM     63  H   UNL A   1      44.254  28.923  29.995  1.00  0.00     0.167 HD
ATOM     64  C   UNL A   1      45.869  26.640  29.515  1.00  0.00     0.074 A 
ATOM     65  C   UNL A   1      46.288  25.327  29.073  1.00  0.00     0.031 C 
ATOM     66  C   UNL A   1      46.699  27.555  30.075  1.00  0.00     0.037 A 
BRANCH  53  67
ATOM     67  C   UNL A   1      43.958  32.892  31.540  1.00  0.00     0.058 A 
ATOM     68  C   UNL A   1      43.762  33.101  32.915  1.00  0.00     0.135 A 
ATOM     69  C   UNL A   1      44.351  33.990  30.758  1.00  0.00     0.135 A 
ATOM     70  F   UNL A   1      43.360  32.090  33.702  1.00  0.00    -0.206 F 
ATOM     71  C   UNL A   1      43.948  34.352  33.492  1.00  0.00     0.059 A 
ATOM     72  C   UNL A   1      44.568  35.245  31.320  1.00  0.00     0.059 A 
ATOM     73  F   UNL A   1      44.541  33.845  29.438  1.00  0.00    -0.206 F 
ATOM     74  C   UNL A   1      44.361  35.415  32.687  1.00  0.00     0.060 A 
BRANCH  74  75
ATOM     75  S   UNL A   1      44.639  37.020  33.466  1.00  0.00     0.124 S 
ATOM     76  O   UNL A   1      45.351  36.637  34.681  1.00  0.00    -0.237 OA
ATOM     77  O   UNL A   1      45.432  37.717  32.459  1.00  0.00    -0.237 OA
ATOM     78  O   UNL A   1      43.290  37.539  33.669  1.00  0.00    -0.744 OA
ENDBRANCH  74  75
ENDBRANCH  53  67
BRANCH  54  79
ATOM     79  C   UNL A   1      42.624  23.767  27.669  1.00  0.00     0.058 A 
ATOM     80  C   UNL A   1      42.401  22.667  28.512  1.00  0.00     0.135 A 
ATOM     81  C   UNL A   1      42.696  23.524  26.288  1.00  0.00     0.135 A 
ATOM     82  F   UNL A   1      42.339  22.843  29.840  1.00  0.00    -0.206 F 
ATOM     83  C   UNL A   1      42.272  21.376  28.010  1.00  0.00     0.059 A 
ATOM     84  C   UNL A   1      42.542  22.245  25.760  1.00  0.00     0.059 A 
ATOM     85  F   UNL A   1      42.905  24.539  25.436  1.00  0.00    -0.206 F 
ATOM     86  C   UNL A   1      42.340  21.175  26.630  1.00  0.00     0.060 A 
BRANCH  86  87
ATOM     87  S   UNL A   1      42.137  19.498  25.991  1.00  0.00     0.124 S 
ATOM     88  O   UNL A   1      42.611  18.696  27.113  1.00  0.00    -0.237 OA
ATOM     89  O   UNL A   1      40.703  19.446  25.728  1.00  0.00    -0.237 OA
ATOM     90  O   UNL A   1      42.987  19.485  24.804  1.00  0.00    -0.744 OA
ENDBRANCH  86  87
ENDBRANCH  54  79
BRANCH  66  91
ATOM     91  C   UNL A   1      48.141  27.172  30.274  1.00  0.00     0.058 A 
ATOM     92  C   UNL A   1      49.134  27.541  29.355  1.00  0.00     0.135 A 
ATOM     93  C   UNL A   1      48.545  26.506  31.444  1.00  0.00     0.135 A 
ATOM     94  F   UNL A   1      48.803  28.176  28.219  1.00  0.00    -0.206 F 
ATOM     95  C   UNL A   1      50.476  27.251  29.581  1.00  0.00     0.059 A 
ATOM     96  C   UNL A   1      49.884  26.232  31.704  1.00  0.00     0.059 A 
ATOM     97  F   UNL A   1      47.637  26.142  32.363  1.00  0.00    -0.206 F 
ATOM     98  C   UNL A   1      50.842  26.603  30.762  1.00  0.00     0.060 A 
BRANCH  98  99
ATOM     99  S   UNL A   1      52.593  26.279  31.060  1.00  0.00     0.124 S 
ATOM    100  O   UNL A   1      53.083  26.037  29.707  1.00  0.00    -0.237 OA
ATOM    101  O   UNL A   1      53.037  27.522  31.683  1.00  0.00    -0.237 OA
ATOM    102  O   UNL A   1      52.580  25.113  31.939  1.00  0.00    -0.744 OA
ENDBRANCH  98  99
ENDBRANCH  66  91
ENDBRANCH  40  41
ENDBRANCH  33  35
ENDBRANCH  32  33
ENDBRANCH  31  32
ENDBRANCH  30  31
ENDBRANCH  29  30
ENDBRANCH  28  29
ENDBRANCH   1  28
TORSDOF 24
ENDMDL
MODEL 3
REMARK VINA RESULT:     -10.2      0.655      7.963
REMARK SMILES Cc1cc2c(c(C)c1Cl)C=C(C(=O)OCCOCCOCCOCCOC(=O)c1ccc(-c3c4nc(c(-c5c(F)cc(S(=O)(=O)[O-])cc5F)c5ccc([nH]5)c(-c5c(F)cc(S(=O)(=O)[O-])cc5F)c5nc(c(-c6c(F)cc(S(=O)(=O)[O-])cc6F)c6ccc3[nH]6)C=C5)C=C4)cc1)[C@@H](C(F)(F)F)O2
REMARK SMILES IDX 21 1 20 2 19 3 18 4 17 5 16 6 15 7 14 8 12 9 13 10 11 11
REMARK SMILES IDX 1 12 2 13 3 14 8 15 4 16 6 17 9 18 5 19 100 20 7 21 10 22
REMARK SMILES IDX 95 23 96 24 97 25 98 26 99 27 22 28 23 29 24 30 25 31 26 32
REMARK SMILES IDX 27 33 28 34 29 35 30 36 94 37 31 38 93 39 32 40 33 41 34 42
REMARK SMILES IDX 87 43 35 44 92 45 86 46 88 47 36 48 91 49 85 50 84 51 37 53
REMARK SMILES IDX 71 54 50 55 70 56 51 57 54 58 69 59 89 60 52 61 53 62 68 64
REMARK SMILES IDX 90 65 55 66 38 67 39 68 48 69 40 70 41 71 47 72 49 73 42 74
REMARK SMILES IDX 43 75 44 76 45 77 46 78 72 79 73 80 82 81 74 82 75 83 81 84
REMARK SMILES IDX 83 85 76 86 77 87 78 88 79 89 80 90 56 91 57 92 66 93 58 94
REMARK SMILES IDX 59 95 65 96 67 97 60 98 61 99 62 100 63 101 64 102
REMARK H PARENT 88 52 54 63
REMARK Flexibility Score: inf
ROOT
ATOM      1  C   UNL A   1      43.665  20.179  25.552  1.00  0.00     0.188 C 
ENDROOT
BRANCH   1   2
ATOM      2  O   UNL A   1      42.318  20.611  25.351  1.00  0.00    -0.377 OA
BRANCH   2   3
ATOM      3  C   UNL A   1      41.480  20.734  26.488  1.00  0.00     0.188 C 
BRANCH   3   4
ATOM      4  C   UNL A   1      39.981  20.616  26.154  1.00  0.00     0.188 C 
BRANCH   4   5
ATOM      5  O   UNL A   1      39.339  21.868  25.995  1.00  0.00    -0.376 OA
BRANCH   5   6
ATOM      6  C   UNL A   1      37.930  21.960  25.853  1.00  0.00     0.202 C 
BRANCH   6   7
ATOM      7  C   UNL A   1      37.219  22.448  24.575  1.00  0.00     0.261 C 
BRANCH   7   8
ATOM      8  O   UNL A   1      36.541  23.705  24.640  1.00  0.00    -0.460 OA
BRANCH   8   9
ATOM      9  C   UNL A   1      35.366  23.754  25.288  1.00  0.00     0.338 C 
ATOM     10  O   UNL A   1      35.077  23.193  26.329  1.00  0.00    -0.246 OA
BRANCH   9  11
ATOM     11  C   UNL A   1      34.534  24.778  24.616  1.00  0.00     0.087 C 
ATOM     12  C   UNL A   1      30.379  29.453  23.032  1.00  0.00     0.046 C 
ATOM     13  C   UNL A   1      31.534  28.669  23.596  1.00  0.00    -0.028 A 
ATOM     14  C   UNL A   1      31.973  27.541  22.892  1.00  0.00     0.052 A 
ATOM     15  C   UNL A   1      32.127  28.967  24.840  1.00  0.00     0.047 A 
ATOM     16  C   UNL A   1      32.920  26.680  23.440  1.00  0.00     0.128 A 
ATOM     17  C   UNL A   1      33.126  28.130  25.388  1.00  0.00    -0.021 A 
ATOM     18  Cl  UNL A   1      31.568  30.360  25.717  1.00  0.00    -0.084 Cl
ATOM     19  C   UNL A   1      33.460  26.935  24.703  1.00  0.00     0.022 A 
ATOM     20  O   UNL A   1      33.232  25.601  22.664  1.00  0.00    -0.475 OA
ATOM     21  C   UNL A   1      33.844  28.478  26.672  1.00  0.00     0.047 C 
ATOM     22  C   UNL A   1      34.291  25.898  25.308  1.00  0.00     0.027 C 
ATOM     23  C   UNL A   1      34.085  24.554  23.198  1.00  0.00     0.316 C 
BRANCH  23  24
ATOM     24  C   UNL A   1      33.357  23.215  23.021  1.00  0.00     0.430 C 
ATOM     25  F   UNL A   1      34.088  22.190  23.522  1.00  0.00    -0.167 F 
ATOM     26  F   UNL A   1      32.164  23.197  23.655  1.00  0.00    -0.167 F 
ATOM     27  F   UNL A   1      33.127  22.948  21.714  1.00  0.00    -0.167 F 
ENDBRANCH  23  24
ENDBRANCH   9  11
ENDBRANCH   8   9
ENDBRANCH   7   8
ENDBRANCH   6   7
ENDBRANCH   5   6
ENDBRANCH   4   5
ENDBRANCH   3   4
ENDBRANCH   2   3
ENDBRANCH   1   2
BRANCH   1  28
ATOM     28  C   UNL A   1      44.877  21.007  25.059  1.00  0.00     0.188 C 
BRANCH  28  29
ATOM     29  O   UNL A   1      45.517  21.776  26.071  1.00  0.00    -0.376 OA
BRANCH  29  30
ATOM     30  C   UNL A   1      44.757  22.786  26.713  1.00  0.00     0.202 C 
BRANCH  30  31
ATOM     31  C   UNL A   1      43.932  23.687  25.785  1.00  0.00     0.261 C 
BRANCH  31  32
ATOM     32  O   UNL A   1      42.667  24.122  26.304  1.00  0.00    -0.460 OA
BRANCH  32  33
ATOM     33  C   UNL A   1      42.256  25.367  25.978  1.00  0.00     0.338 C 
ATOM     34  O   UNL A   1      41.902  25.761  24.880  1.00  0.00    -0.246 OA
BRANCH  33  35
ATOM     35  C   UNL A   1      42.121  26.130  27.236  1.00  0.00     0.060 A 
ATOM     36  C   UNL A   1      41.087  25.806  28.122  1.00  0.00     0.016 A 
ATOM     37  C   UNL A   1      43.028  27.148  27.544  1.00  0.00     0.016 A 
ATOM     38  C   UNL A   1      40.939  26.523  29.311  1.00  0.00     0.010 A 
ATOM     39  C   UNL A   1      42.863  27.881  28.722  1.00  0.00     0.010 A 
ATOM     40  C   UNL A   1      41.798  27.593  29.593  1.00  0.00    -0.014 A 
BRANCH  40  41
ATOM     41  C   UNL A   1      41.453  28.545  30.676  1.00  0.00     0.031 A 
ATOM     42  C   UNL A   1      42.290  28.517  31.928  1.00  0.00     0.074 A 
ATOM     43  C   UNL A   1      40.453  29.433  30.546  1.00  0.00     0.049 A 
ATOM     44  N   UNL A   1      42.165  29.215  33.025  1.00  0.00    -0.248 NA
ATOM     45  C   UNL A   1      43.425  27.576  31.938  1.00  0.00     0.031 C 
ATOM     46  C   UNL A   1      39.610  29.593  29.362  1.00  0.00     0.029 A 
ATOM     47  N   UNL A   1      39.975  30.371  31.428  1.00  0.00    -0.354 N 
ATOM     48  C   UNL A   1      43.206  28.806  33.851  1.00  0.00     0.074 A 
ATOM     49  C   UNL A   1      43.930  27.772  33.148  1.00  0.00     0.031 C 
ATOM     50  C   UNL A   1      38.716  30.572  29.592  1.00  0.00     0.029 A 
ATOM     51  C   UNL A   1      38.900  31.084  30.950  1.00  0.00     0.049 A 
ATOM     52  H   UNL A   1      40.366  30.521  32.319  1.00  0.00     0.167 HD
ATOM     53  C   UNL A   1      43.538  29.264  35.080  1.00  0.00     0.037 A 
ATOM     54  C   UNL A   1      38.144  32.027  31.551  1.00  0.00     0.037 A 
ATOM     55  C   UNL A   1      42.811  30.289  35.779  1.00  0.00     0.049 A 
ATOM     56  C   UNL A   1      38.471  32.444  32.965  1.00  0.00     0.074 A 
ATOM     57  C   UNL A   1      43.062  30.813  37.035  1.00  0.00     0.029 A 
ATOM     58  N   UNL A   1      41.693  30.944  35.287  1.00  0.00    -0.354 N 
ATOM     59  N   UNL A   1      39.457  32.050  33.735  1.00  0.00    -0.248 NA
ATOM     60  C   UNL A   1      37.579  33.431  33.593  1.00  0.00     0.031 C 
ATOM     61  C   UNL A   1      42.066  31.751  37.322  1.00  0.00     0.029 A 
ATOM     62  C   UNL A   1      41.229  31.852  36.222  1.00  0.00     0.049 A 
ATOM     63  H   UNL A   1      41.290  30.787  34.402  1.00  0.00     0.167 HD
ATOM     64  C   UNL A   1      39.321  32.761  34.925  1.00  0.00     0.074 A 
ATOM     65  C   UNL A   1      38.166  33.619  34.768  1.00  0.00     0.031 C 
ATOM     66  C   UNL A   1      40.083  32.709  36.046  1.00  0.00     0.037 A 
BRANCH  53  67
ATOM     67  C   UNL A   1      44.738  28.661  35.753  1.00  0.00     0.058 A 
ATOM     68  C   UNL A   1      46.003  29.263  35.670  1.00  0.00     0.135 A 
ATOM     69  C   UNL A   1      44.608  27.509  36.545  1.00  0.00     0.135 A 
ATOM     70  F   UNL A   1      46.187  30.351  34.905  1.00  0.00    -0.206 F 
ATOM     71  C   UNL A   1      47.100  28.743  36.348  1.00  0.00     0.059 A 
ATOM     72  C   UNL A   1      45.687  26.986  37.253  1.00  0.00     0.059 A 
ATOM     73  F   UNL A   1      43.423  26.889  36.648  1.00  0.00    -0.206 F 
ATOM     74  C   UNL A   1      46.929  27.609  37.145  1.00  0.00     0.060 A 
BRANCH  74  75
ATOM     75  S   UNL A   1      48.356  26.976  38.051  1.00  0.00     0.124 S 
ATOM     76  O   UNL A   1      47.804  25.772  38.665  1.00  0.00    -0.237 OA
ATOM     77  O   UNL A   1      49.326  26.757  36.983  1.00  0.00    -0.237 OA
ATOM     78  O   UNL A   1      48.680  28.058  38.977  1.00  0.00    -0.744 OA
ENDBRANCH  74  75
ENDBRANCH  53  67
BRANCH  54  79
ATOM     79  C   UNL A   1      36.998  32.646  30.829  1.00  0.00     0.058 A 
ATOM     80  C   UNL A   1      37.146  33.861  30.142  1.00  0.00     0.135 A 
ATOM     81  C   UNL A   1      35.726  32.051  30.830  1.00  0.00     0.135 A 
ATOM     82  F   UNL A   1      38.337  34.478  30.123  1.00  0.00    -0.206 F 
ATOM     83  C   UNL A   1      36.075  34.473  29.498  1.00  0.00     0.059 A 
ATOM     84  C   UNL A   1      34.645  32.630  30.169  1.00  0.00     0.059 A 
ATOM     85  F   UNL A   1      35.528  30.888  31.468  1.00  0.00    -0.206 F 
ATOM     86  C   UNL A   1      34.828  33.846  29.515  1.00  0.00     0.060 A 
BRANCH  86  87
ATOM     87  S   UNL A   1      33.455  34.636  28.646  1.00  0.00     0.124 S 
ATOM     88  O   UNL A   1      34.148  35.646  27.855  1.00  0.00    -0.237 OA
ATOM     89  O   UNL A   1      32.886  33.518  27.899  1.00  0.00    -0.237 OA
ATOM     90  O   UNL A   1      32.621  35.147  29.730  1.00  0.00    -0.744 OA
ENDBRANCH  86  87
ENDBRANCH  54  79
BRANCH  66  91
ATOM     91  C   UNL A   1      39.721  33.620  37.188  1.00  0.00     0.058 A 
ATOM     92  C   UNL A   1      38.858  33.207  38.214  1.00  0.00     0.135 A 
ATOM     93  C   UNL A   1      40.318  34.888  37.303  1.00  0.00     0.135 A 
ATOM     94  F   UNL A   1      38.260  32.007  38.152  1.00  0.00    -0.206 F 
ATOM     95  C   UNL A   1      38.587  34.025  39.307  1.00  0.00     0.059 A 
ATOM     96  C   UNL A   1      40.084  35.709  38.402  1.00  0.00     0.059 A 
ATOM     97  F   UNL A   1      41.162  35.327  36.357  1.00  0.00    -0.206 F 
ATOM     98  C   UNL A   1      39.210  35.270  39.396  1.00  0.00     0.060 A 
BRANCH  98  99
ATOM     99  S   UNL A   1      38.883  36.295  40.846  1.00  0.00     0.124 S 
ATOM    100  O   UNL A   1      40.200  36.347  41.473  1.00  0.00    -0.237 OA
ATOM    101  O   UNL A   1      38.416  37.541  40.247  1.00  0.00    -0.237 OA
ATOM    102  O   UNL A   1      37.870  35.539  41.577  1.00  0.00    -0.744 OA
ENDBRANCH  98  99
ENDBRANCH  66  91
ENDBRANCH  40  41
ENDBRANCH  33  35
ENDBRANCH  32  33
ENDBRANCH  31  32
ENDBRANCH  30  31
ENDBRANCH  29  30
ENDBRANCH  28  29
ENDBRANCH   1  28
TORSDOF 24
ENDMDL
