MODEL 1
REMARK VINA RESULT:      -7.7      0.000      0.000
REMARK SMILES CC(C)CC[C@H](C(=O)OCCOCCOCCOCCOC(=O)c1ccc(-c2c3nc(c(-c4c(F)cc(S(=O)(=O)[O-])cc4F)c4ccc([nH]4)c(-c4c(F)cc(S(=O)(=O)[O-])cc4F)c4nc(c(-c5c(F)cc(S(=O)(=O)[O-])cc5F)c5ccc2[nH]5)C=C4)C=C3)cc1)c1ccc(F)cc1
REMARK SMILES IDX 15 1 14 2 13 3 12 4 11 5 10 6 9 7 7 8 8 9 6 10 5 11 4 12
REMARK SMILES IDX 2 13 1 14 3 15 90 16 91 17 96 18 92 19 95 20 93 21 94 22
REMARK SMILES IDX 16 23 17 24 18 25 19 26 20 27 21 28 22 29 23 30 24 31 25 32
REMARK SMILES IDX 89 33 26 34 88 35 27 36 28 37 29 38 82 39 30 40 87 41 81 42
REMARK SMILES IDX 83 43 31 44 86 45 80 46 79 47 32 49 66 50 45 51 65 52 46 53
REMARK SMILES IDX 49 54 64 55 84 56 47 57 48 58 63 60 85 61 50 62 33 63 34 64
REMARK SMILES IDX 43 65 35 66 36 67 42 68 44 69 37 70 38 71 39 72 40 73 41 74
REMARK SMILES IDX 67 75 68 76 77 77 69 78 70 79 76 80 78 81 71 82 72 83 73 84
REMARK SMILES IDX 74 85 75 86 51 87 52 88 61 89 53 90 54 91 60 92 62 93 55 94
REMARK SMILES IDX 56 95 57 96 58 97 59 98
REMARK H PARENT 83 48 49 59
REMARK Flexibility Score: inf
ROOT
ATOM      1  O   UNL A   1      46.479  29.875  25.284  1.00  0.00    -0.377 OA
ENDROOT
BRANCH   1   2
ATOM      2  C   UNL A   1      45.953  30.431  26.471  1.00  0.00     0.188 C 
BRANCH   2   3
ATOM      3  C   UNL A   1      45.526  31.911  26.357  1.00  0.00     0.188 C 
BRANCH   3   4
ATOM      4  O   UNL A   1      44.227  32.262  25.917  1.00  0.00    -0.376 OA
BRANCH   4   5
ATOM      5  C   UNL A   1      44.006  33.353  25.038  1.00  0.00     0.202 C 
BRANCH   5   6
ATOM      6  C   UNL A   1      43.872  34.813  25.483  1.00  0.00     0.261 C 
BRANCH   6   7
ATOM      7  O   UNL A   1      42.585  35.264  25.916  1.00  0.00    -0.463 OA
BRANCH   7   8
ATOM      8  C   UNL A   1      42.574  36.244  26.862  1.00  0.00     0.313 C 
ATOM      9  O   UNL A   1      41.761  37.161  26.888  1.00  0.00    -0.252 OA
BRANCH   8  10
ATOM     10  C   UNL A   1      43.719  36.048  27.865  1.00  0.00     0.129 C 
BRANCH  10  11
ATOM     11  C   UNL A   1      44.295  37.410  28.354  1.00  0.00     0.020 C 
BRANCH  11  12
ATOM     12  C   UNL A   1      43.625  38.147  29.536  1.00  0.00     0.004 C 
BRANCH  12  13
ATOM     13  C   UNL A   1      43.992  39.635  29.729  1.00  0.00    -0.017 C 
ATOM     14  C   UNL A   1      43.314  40.291  30.926  1.00  0.00     0.007 C 
ATOM     15  C   UNL A   1      45.503  39.847  29.727  1.00  0.00     0.007 C 
ENDBRANCH  12  13
ENDBRANCH  11  12
ENDBRANCH  10  11
BRANCH  10  16
ATOM     16  C   UNL A   1      43.283  35.035  28.947  1.00  0.00    -0.034 A 
ATOM     17  C   UNL A   1      44.256  34.175  29.507  1.00  0.00     0.007 A 
ATOM     18  C   UNL A   1      41.956  34.846  29.351  1.00  0.00     0.007 A 
ATOM     19  C   UNL A   1      43.905  33.062  30.269  1.00  0.00     0.039 A 
ATOM     20  C   UNL A   1      41.602  33.744  30.140  1.00  0.00     0.039 A 
ATOM     21  C   UNL A   1      42.572  32.841  30.555  1.00  0.00     0.123 A 
ATOM     22  F   UNL A   1      42.215  31.746  31.237  1.00  0.00    -0.207 F 
ENDBRANCH  10  16
ENDBRANCH   8  10
ENDBRANCH   7   8
ENDBRANCH   6   7
ENDBRANCH   5   6
ENDBRANCH   4   5
ENDBRANCH   3   4
ENDBRANCH   2   3
ENDBRANCH   1   2
BRANCH   1  23
ATOM     23  C   UNL A   1      46.813  28.493  25.299  1.00  0.00     0.188 C 
BRANCH  23  24
ATOM     24  C   UNL A   1      45.685  27.440  25.221  1.00  0.00     0.188 C 
BRANCH  24  25
ATOM     25  O   UNL A   1      46.019  26.269  24.490  1.00  0.00    -0.376 OA
BRANCH  25  26
ATOM     26  C   UNL A   1      46.053  25.013  25.146  1.00  0.00     0.202 C 
BRANCH  26  27
ATOM     27  C   UNL A   1      44.800  24.123  25.096  1.00  0.00     0.261 C 
BRANCH  27  28
ATOM     28  O   UNL A   1      43.536  24.794  25.005  1.00  0.00    -0.460 OA
BRANCH  28  29
ATOM     29  C   UNL A   1      42.495  24.269  25.682  1.00  0.00     0.338 C 
ATOM     30  O   UNL A   1      42.127  23.105  25.674  1.00  0.00    -0.246 OA
BRANCH  29  31
ATOM     31  C   UNL A   1      42.003  25.303  26.616  1.00  0.00     0.060 A 
ATOM     32  C   UNL A   1      42.476  26.616  26.485  1.00  0.00     0.016 A 
ATOM     33  C   UNL A   1      41.078  24.979  27.611  1.00  0.00     0.016 A 
ATOM     34  C   UNL A   1      42.062  27.599  27.382  1.00  0.00     0.010 A 
ATOM     35  C   UNL A   1      40.687  25.957  28.527  1.00  0.00     0.010 A 
ATOM     36  C   UNL A   1      41.214  27.258  28.442  1.00  0.00    -0.014 A 
BRANCH  36  37
ATOM     37  C   UNL A   1      41.089  28.188  29.588  1.00  0.00     0.031 A 
ATOM     38  C   UNL A   1      42.074  28.045  30.718  1.00  0.00     0.074 A 
ATOM     39  C   UNL A   1      40.163  29.161  29.607  1.00  0.00     0.049 A 
ATOM     40  N   UNL A   1      42.159  28.715  31.837  1.00  0.00    -0.248 NA
ATOM     41  C   UNL A   1      43.101  27.000  30.563  1.00  0.00     0.031 C 
ATOM     42  C   UNL A   1      39.192  29.428  28.548  1.00  0.00     0.029 A 
ATOM     43  N   UNL A   1      39.889  30.107  30.563  1.00  0.00    -0.354 N 
ATOM     44  C   UNL A   1      43.242  28.170  32.519  1.00  0.00     0.074 A 
ATOM     45  C   UNL A   1      43.759  27.092  31.707  1.00  0.00     0.031 C 
ATOM     46  C   UNL A   1      38.419  30.464  28.918  1.00  0.00     0.029 A 
ATOM     47  C   UNL A   1      38.820  30.911  30.252  1.00  0.00     0.049 A 
ATOM     48  H   UNL A   1      40.410  30.200  31.393  1.00  0.00     0.167 HD
ATOM     49  C   UNL A   1      43.765  28.543  33.711  1.00  0.00     0.037 A 
ATOM     50  C   UNL A   1      38.224  31.881  30.973  1.00  0.00     0.037 A 
ATOM     51  C   UNL A   1      43.238  29.614  34.515  1.00  0.00     0.049 A 
ATOM     52  C   UNL A   1      38.776  32.230  32.333  1.00  0.00     0.074 A 
ATOM     53  C   UNL A   1      43.695  30.078  35.736  1.00  0.00     0.029 A 
ATOM     54  N   UNL A   1      42.131  30.383  34.184  1.00  0.00    -0.354 N 
ATOM     55  N   UNL A   1      39.807  31.718  32.963  1.00  0.00    -0.248 NA
ATOM     56  C   UNL A   1      38.086  33.293  33.077  1.00  0.00     0.031 C 
ATOM     57  C   UNL A   1      42.829  31.087  36.170  1.00  0.00     0.029 A 
ATOM     58  C   UNL A   1      41.874  31.301  35.188  1.00  0.00     0.049 A 
ATOM     59  H   UNL A   1      41.607  30.291  33.356  1.00  0.00     0.167 HD
ATOM     60  C   UNL A   1      39.911  32.421  34.161  1.00  0.00     0.074 A 
ATOM     61  C   UNL A   1      38.844  33.401  34.159  1.00  0.00     0.031 C 
ATOM     62  C   UNL A   1      40.807  32.272  35.170  1.00  0.00     0.037 A 
BRANCH  49  63
ATOM     63  C   UNL A   1      44.941  27.761  34.229  1.00  0.00     0.058 A 
ATOM     64  C   UNL A   1      44.786  26.519  34.865  1.00  0.00     0.135 A 
ATOM     65  C   UNL A   1      46.246  28.255  34.069  1.00  0.00     0.135 A 
ATOM     66  F   UNL A   1      43.561  26.009  35.068  1.00  0.00    -0.206 F 
ATOM     67  C   UNL A   1      45.881  25.807  35.348  1.00  0.00     0.059 A 
ATOM     68  C   UNL A   1      47.357  27.545  34.515  1.00  0.00     0.059 A 
ATOM     69  F   UNL A   1      46.452  29.440  33.475  1.00  0.00    -0.206 F 
ATOM     70  C   UNL A   1      47.163  26.329  35.165  1.00  0.00     0.060 A 
BRANCH  70  71
ATOM     71  S   UNL A   1      48.572  25.390  35.792  1.00  0.00     0.124 S 
ATOM     72  O   UNL A   1      47.943  24.122  36.147  1.00  0.00    -0.237 OA
ATOM     73  O   UNL A   1      49.461  25.355  34.635  1.00  0.00    -0.237 OA
ATOM     74  O   UNL A   1      49.042  26.193  36.917  1.00  0.00    -0.744 OA
ENDBRANCH  70  71
ENDBRANCH  49  63
BRANCH  50  75
ATOM     75  C   UNL A   1      37.031  32.589  30.431  1.00  0.00     0.058 A 
ATOM     76  C   UNL A   1      35.734  32.257  30.850  1.00  0.00     0.135 A 
ATOM     77  C   UNL A   1      37.166  33.612  29.479  1.00  0.00     0.135 A 
ATOM     78  F   UNL A   1      35.551  31.277  31.748  1.00  0.00    -0.206 F 
ATOM     79  C   UNL A   1      34.613  32.900  30.336  1.00  0.00     0.059 A 
ATOM     80  C   UNL A   1      36.063  34.291  28.971  1.00  0.00     0.059 A 
ATOM     81  F   UNL A   1      38.384  33.975  29.049  1.00  0.00    -0.206 F 
ATOM     82  C   UNL A   1      34.789  33.921  29.399  1.00  0.00     0.060 A 
BRANCH  82  83
ATOM     83  S   UNL A   1      33.330  34.787  28.779  1.00  0.00     0.124 S 
ATOM     84  O   UNL A   1      33.920  35.996  28.218  1.00  0.00    -0.237 OA
ATOM     85  O   UNL A   1      32.797  33.829  27.814  1.00  0.00    -0.237 OA
ATOM     86  O   UNL A   1      32.518  34.975  29.977  1.00  0.00    -0.744 OA
ENDBRANCH  82  83
ENDBRANCH  50  75
BRANCH  62  87
ATOM     87  C   UNL A   1      40.703  33.221  36.336  1.00  0.00     0.058 A 
ATOM     88  C   UNL A   1      41.464  34.398  36.409  1.00  0.00     0.135 A 
ATOM     89  C   UNL A   1      39.799  32.961  37.380  1.00  0.00     0.135 A 
ATOM     90  F   UNL A   1      42.344  34.695  35.441  1.00  0.00    -0.206 F 
ATOM     91  C   UNL A   1      41.366  35.261  37.497  1.00  0.00     0.059 A 
ATOM     92  C   UNL A   1      39.657  33.829  38.459  1.00  0.00     0.059 A 
ATOM     93  F   UNL A   1      39.031  31.860  37.355  1.00  0.00    -0.206 F 
ATOM     94  C   UNL A   1      40.460  34.967  38.518  1.00  0.00     0.060 A 
BRANCH  94  95
ATOM     95  S   UNL A   1      40.337  36.098  39.918  1.00  0.00     0.124 S 
ATOM     96  O   UNL A   1      40.816  35.261  41.014  1.00  0.00    -0.237 OA
ATOM     97  O   UNL A   1      41.223  37.187  39.519  1.00  0.00    -0.237 OA
ATOM     98  O   UNL A   1      38.918  36.435  39.961  1.00  0.00    -0.744 OA
ENDBRANCH  94  95
ENDBRANCH  62  87
ENDBRANCH  36  37
ENDBRANCH  29  31
ENDBRANCH  28  29
ENDBRANCH  27  28
ENDBRANCH  26  27
ENDBRANCH  25  26
ENDBRANCH  24  25
ENDBRANCH  23  24
ENDBRANCH   1  23
TORSDOF 27
ENDMDL
MODEL 2
REMARK VINA RESULT:      -7.2      2.077      8.663
REMARK SMILES CC(C)CC[C@H](C(=O)OCCOCCOCCOCCOC(=O)c1ccc(-c2c3nc(c(-c4c(F)cc(S(=O)(=O)[O-])cc4F)c4ccc([nH]4)c(-c4c(F)cc(S(=O)(=O)[O-])cc4F)c4nc(c(-c5c(F)cc(S(=O)(=O)[O-])cc5F)c5ccc2[nH]5)C=C4)C=C3)cc1)c1ccc(F)cc1
REMARK SMILES IDX 15 1 14 2 13 3 12 4 11 5 10 6 9 7 7 8 8 9 6 10 5 11 4 12
REMARK SMILES IDX 2 13 1 14 3 15 90 16 91 17 96 18 92 19 95 20 93 21 94 22
REMARK SMILES IDX 16 23 17 24 18 25 19 26 20 27 21 28 22 29 23 30 24 31 25 32
REMARK SMILES IDX 89 33 26 34 88 35 27 36 28 37 29 38 82 39 30 40 87 41 81 42
REMARK SMILES IDX 83 43 31 44 86 45 80 46 79 47 32 49 66 50 45 51 65 52 46 53
REMARK SMILES IDX 49 54 64 55 84 56 47 57 48 58 63 60 85 61 50 62 33 63 34 64
REMARK SMILES IDX 43 65 35 66 36 67 42 68 44 69 37 70 38 71 39 72 40 73 41 74
REMARK SMILES IDX 67 75 68 76 77 77 69 78 70 79 76 80 78 81 71 82 72 83 73 84
REMARK SMILES IDX 74 85 75 86 51 87 52 88 61 89 53 90 54 91 60 92 62 93 55 94
REMARK SMILES IDX 56 95 57 96 58 97 59 98
REMARK H PARENT 83 48 49 59
REMARK Flexibility Score: inf
ROOT
ATOM      1  O   UNL A   1      46.902  24.063  25.630  1.00  0.00    -0.377 OA
ENDROOT
BRANCH   1   2
ATOM      2  C   UNL A   1      46.339  25.347  25.458  1.00  0.00     0.188 C 
BRANCH   2   3
ATOM      3  C   UNL A   1      47.205  26.508  25.995  1.00  0.00     0.188 C 
BRANCH   3   4
ATOM      4  O   UNL A   1      46.901  27.853  25.671  1.00  0.00    -0.376 OA
BRANCH   4   5
ATOM      5  C   UNL A   1      46.458  28.775  26.654  1.00  0.00     0.202 C 
BRANCH   5   6
ATOM      6  C   UNL A   1      47.385  29.597  27.555  1.00  0.00     0.261 C 
BRANCH   6   7
ATOM      7  O   UNL A   1      46.919  29.932  28.865  1.00  0.00    -0.463 OA
BRANCH   7   8
ATOM      8  C   UNL A   1      46.354  31.162  29.010  1.00  0.00     0.313 C 
ATOM      9  O   UNL A   1      46.994  32.197  29.154  1.00  0.00    -0.252 OA
BRANCH   8  10
ATOM     10  C   UNL A   1      44.822  31.065  28.986  1.00  0.00     0.129 C 
BRANCH  10  11
ATOM     11  C   UNL A   1      44.230  30.948  30.422  1.00  0.00     0.020 C 
BRANCH  11  12
ATOM     12  C   UNL A   1      44.863  31.751  31.581  1.00  0.00     0.004 C 
BRANCH  12  13
ATOM     13  C   UNL A   1      43.892  32.387  32.602  1.00  0.00    -0.017 C 
ATOM     14  C   UNL A   1      44.555  32.811  33.907  1.00  0.00     0.007 C 
ATOM     15  C   UNL A   1      43.069  33.507  31.974  1.00  0.00     0.007 C 
ENDBRANCH  12  13
ENDBRANCH  11  12
ENDBRANCH  10  11
BRANCH  10  16
ATOM     16  C   UNL A   1      44.254  32.177  28.076  1.00  0.00    -0.034 A 
ATOM     17  C   UNL A   1      44.264  31.982  26.675  1.00  0.00     0.007 A 
ATOM     18  C   UNL A   1      43.807  33.419  28.544  1.00  0.00     0.007 A 
ATOM     19  C   UNL A   1      44.035  33.028  25.784  1.00  0.00     0.039 A 
ATOM     20  C   UNL A   1      43.550  34.466  27.650  1.00  0.00     0.039 A 
ATOM     21  C   UNL A   1      43.707  34.273  26.284  1.00  0.00     0.123 A 
ATOM     22  F   UNL A   1      43.540  35.301  25.442  1.00  0.00    -0.207 F 
ENDBRANCH  10  16
ENDBRANCH   8  10
ENDBRANCH   7   8
ENDBRANCH   6   7
ENDBRANCH   5   6
ENDBRANCH   4   5
ENDBRANCH   3   4
ENDBRANCH   2   3
ENDBRANCH   1   2
BRANCH   1  23
ATOM     23  C   UNL A   1      46.296  22.983  24.930  1.00  0.00     0.188 C 
BRANCH  23  24
ATOM     24  C   UNL A   1      44.863  23.147  24.377  1.00  0.00     0.188 C 
BRANCH  24  25
ATOM     25  O   UNL A   1      43.848  22.571  25.185  1.00  0.00    -0.376 OA
BRANCH  25  26
ATOM     26  C   UNL A   1      43.823  22.828  26.578  1.00  0.00     0.202 C 
BRANCH  26  27
ATOM     27  C   UNL A   1      42.560  23.458  27.188  1.00  0.00     0.261 C 
BRANCH  27  28
ATOM     28  O   UNL A   1      41.718  24.203  26.298  1.00  0.00    -0.460 OA
BRANCH  28  29
ATOM     29  C   UNL A   1      42.139  25.424  25.908  1.00  0.00     0.338 C 
ATOM     30  O   UNL A   1      42.606  25.725  24.821  1.00  0.00    -0.246 OA
BRANCH  29  31
ATOM     31  C   UNL A   1      41.731  26.390  26.949  1.00  0.00     0.060 A 
ATOM     32  C   UNL A   1      42.494  27.552  27.131  1.00  0.00     0.016 A 
ATOM     33  C   UNL A   1      40.601  26.153  27.736  1.00  0.00     0.016 A 
ATOM     34  C   UNL A   1      42.157  28.457  28.136  1.00  0.00     0.010 A 
ATOM     35  C   UNL A   1      40.282  27.045  28.761  1.00  0.00     0.010 A 
ATOM     36  C   UNL A   1      41.086  28.175  28.993  1.00  0.00    -0.014 A 
BRANCH  36  37
ATOM     37  C   UNL A   1      40.973  28.920  30.268  1.00  0.00     0.031 A 
ATOM     38  C   UNL A   1      39.887  29.957  30.381  1.00  0.00     0.074 A 
ATOM     39  C   UNL A   1      41.774  28.653  31.313  1.00  0.00     0.049 A 
ATOM     40  N   UNL A   1      39.598  30.754  31.375  1.00  0.00    -0.248 NA
ATOM     41  C   UNL A   1      39.010  30.116  29.207  1.00  0.00     0.031 C 
ATOM     42  C   UNL A   1      42.824  27.636  31.338  1.00  0.00     0.029 A 
ATOM     43  N   UNL A   1      41.827  29.224  32.559  1.00  0.00    -0.354 N 
ATOM     44  C   UNL A   1      38.514  31.512  30.946  1.00  0.00     0.074 A 
ATOM     45  C   UNL A   1      38.219  31.104  29.590  1.00  0.00     0.031 C 
ATOM     46  C   UNL A   1      43.427  27.663  32.540  1.00  0.00     0.029 A 
ATOM     47  C   UNL A   1      42.827  28.719  33.355  1.00  0.00     0.049 A 
ATOM     48  H   UNL A   1      41.208  29.929  32.855  1.00  0.00     0.167 HD
ATOM     49  C   UNL A   1      37.818  32.454  31.625  1.00  0.00     0.037 A 
ATOM     50  C   UNL A   1      43.223  29.085  34.590  1.00  0.00     0.037 A 
ATOM     51  C   UNL A   1      38.125  32.856  32.973  1.00  0.00     0.049 A 
ATOM     52  C   UNL A   1      42.482  30.191  35.302  1.00  0.00     0.074 A 
ATOM     53  C   UNL A   1      37.481  33.798  33.756  1.00  0.00     0.029 A 
ATOM     54  N   UNL A   1      39.168  32.348  33.734  1.00  0.00    -0.354 N 
ATOM     55  N   UNL A   1      41.450  30.891  34.893  1.00  0.00    -0.248 NA
ATOM     56  C   UNL A   1      42.957  30.551  36.644  1.00  0.00     0.031 C 
ATOM     57  C   UNL A   1      38.172  33.901  34.969  1.00  0.00     0.029 A 
ATOM     58  C   UNL A   1      39.202  32.974  34.969  1.00  0.00     0.049 A 
ATOM     59  H   UNL A   1      39.791  31.645  33.440  1.00  0.00     0.167 HD
ATOM     60  C   UNL A   1      41.130  31.749  35.942  1.00  0.00     0.074 A 
ATOM     61  C   UNL A   1      42.073  31.469  37.006  1.00  0.00     0.031 C 
ATOM     62  C   UNL A   1      40.147  32.682  36.019  1.00  0.00     0.037 A 
BRANCH  49  63
ATOM     63  C   UNL A   1      36.687  33.137  30.906  1.00  0.00     0.058 A 
ATOM     64  C   UNL A   1      35.344  32.801  31.144  1.00  0.00     0.135 A 
ATOM     65  C   UNL A   1      36.951  34.157  29.978  1.00  0.00     0.135 A 
ATOM     66  F   UNL A   1      35.034  31.818  32.003  1.00  0.00    -0.206 F 
ATOM     67  C   UNL A   1      34.305  33.433  30.467  1.00  0.00     0.059 A 
ATOM     68  C   UNL A   1      35.926  34.824  29.314  1.00  0.00     0.059 A 
ATOM     69  F   UNL A   1      38.215  34.513  29.706  1.00  0.00    -0.206 F 
ATOM     70  C   UNL A   1      34.607  34.446  29.555  1.00  0.00     0.060 A 
BRANCH  70  71
ATOM     71  S   UNL A   1      33.247  35.260  28.690  1.00  0.00     0.124 S 
ATOM     72  O   UNL A   1      33.968  36.148  27.784  1.00  0.00    -0.237 OA
ATOM     73  O   UNL A   1      32.561  34.134  28.063  1.00  0.00    -0.237 OA
ATOM     74  O   UNL A   1      32.510  35.922  29.762  1.00  0.00    -0.744 OA
ENDBRANCH  70  71
ENDBRANCH  49  63
BRANCH  50  75
ATOM     75  C   UNL A   1      44.381  28.408  35.235  1.00  0.00     0.058 A 
ATOM     76  C   UNL A   1      44.198  27.339  36.125  1.00  0.00     0.135 A 
ATOM     77  C   UNL A   1      45.698  28.819  34.975  1.00  0.00     0.135 A 
ATOM     78  F   UNL A   1      42.958  26.917  36.418  1.00  0.00    -0.206 F 
ATOM     79  C   UNL A   1      45.273  26.713  36.746  1.00  0.00     0.059 A 
ATOM     80  C   UNL A   1      46.792  28.190  35.560  1.00  0.00     0.059 A 
ATOM     81  F   UNL A   1      45.932  29.831  34.124  1.00  0.00    -0.206 F 
ATOM     82  C   UNL A   1      46.569  27.143  36.452  1.00  0.00     0.060 A 
BRANCH  82  83
ATOM     83  S   UNL A   1      47.960  26.287  37.222  1.00  0.00     0.124 S 
ATOM     84  O   UNL A   1      48.180  25.185  36.293  1.00  0.00    -0.237 OA
ATOM     85  O   UNL A   1      48.986  27.326  37.235  1.00  0.00    -0.237 OA
ATOM     86  O   UNL A   1      47.440  25.914  38.534  1.00  0.00    -0.744 OA
ENDBRANCH  82  83
ENDBRANCH  50  75
BRANCH  62  87
ATOM     87  C   UNL A   1      40.009  33.437  37.316  1.00  0.00     0.058 A 
ATOM     88  C   UNL A   1      39.105  33.042  38.315  1.00  0.00     0.135 A 
ATOM     89  C   UNL A   1      40.820  34.556  37.573  1.00  0.00     0.135 A 
ATOM     90  F   UNL A   1      38.305  31.982  38.123  1.00  0.00    -0.206 F 
ATOM     91  C   UNL A   1      38.980  33.754  39.505  1.00  0.00     0.059 A 
ATOM     92  C   UNL A   1      40.738  35.260  38.770  1.00  0.00     0.059 A 
ATOM     93  F   UNL A   1      41.714  34.969  36.661  1.00  0.00    -0.206 F 
ATOM     94  C   UNL A   1      39.800  34.863  39.723  1.00  0.00     0.060 A 
BRANCH  94  95
ATOM     95  S   UNL A   1      39.632  35.773  41.272  1.00  0.00     0.124 S 
ATOM     96  O   UNL A   1      38.705  36.834  40.890  1.00  0.00    -0.237 OA
ATOM     97  O   UNL A   1      39.097  34.758  42.174  1.00  0.00    -0.237 OA
ATOM     98  O   UNL A   1      40.995  36.207  41.562  1.00  0.00    -0.744 OA
ENDBRANCH  94  95
ENDBRANCH  62  87
ENDBRANCH  36  37
ENDBRANCH  29  31
ENDBRANCH  28  29
ENDBRANCH  27  28
ENDBRANCH  26  27
ENDBRANCH  25  26
ENDBRANCH  24  25
ENDBRANCH  23  24
ENDBRANCH   1  23
TORSDOF 27
ENDMDL
MODEL 3
REMARK VINA RESULT:      -7.0      3.739     12.162
REMARK SMILES CC(C)CC[C@H](C(=O)OCCOCCOCCOCCOC(=O)c1ccc(-c2c3nc(c(-c4c(F)cc(S(=O)(=O)[O-])cc4F)c4ccc([nH]4)c(-c4c(F)cc(S(=O)(=O)[O-])cc4F)c4nc(c(-c5c(F)cc(S(=O)(=O)[O-])cc5F)c5ccc2[nH]5)C=C4)C=C3)cc1)c1ccc(F)cc1
REMARK SMILES IDX 15 1 14 2 13 3 12 4 11 5 10 6 9 7 7 8 8 9 6 10 5 11 4 12
REMARK SMILES IDX 2 13 1 14 3 15 90 16 91 17 96 18 92 19 95 20 93 21 94 22
REMARK SMILES IDX 16 23 17 24 18 25 19 26 20 27 21 28 22 29 23 30 24 31 25 32
REMARK SMILES IDX 89 33 26 34 88 35 27 36 28 37 29 38 82 39 30 40 87 41 81 42
REMARK SMILES IDX 83 43 31 44 86 45 80 46 79 47 32 49 66 50 45 51 65 52 46 53
REMARK SMILES IDX 49 54 64 55 84 56 47 57 48 58 63 60 85 61 50 62 33 63 34 64
REMARK SMILES IDX 43 65 35 66 36 67 42 68 44 69 37 70 38 71 39 72 40 73 41 74
REMARK SMILES IDX 67 75 68 76 77 77 69 78 70 79 76 80 78 81 71 82 72 83 73 84
REMARK SMILES IDX 74 85 75 86 51 87 52 88 61 89 53 90 54 91 60 92 62 93 55 94
REMARK SMILES IDX 56 95 57 96 58 97 59 98
REMARK H PARENT 83 48 49 59
REMARK Flexibility Score: inf
ROOT
ATOM      1  O   UNL A   1      36.077  33.355  30.730  1.00  0.00    -0.377 OA
ENDROOT
BRANCH   1   2
ATOM      2  C   UNL A   1      36.420  33.653  29.393  1.00  0.00     0.188 C 
BRANCH   2   3
ATOM      3  C   UNL A   1      35.217  33.896  28.456  1.00  0.00     0.188 C 
BRANCH   3   4
ATOM      4  O   UNL A   1      34.722  32.862  27.625  1.00  0.00    -0.376 OA
BRANCH   4   5
ATOM      5  C   UNL A   1      34.343  31.599  28.149  1.00  0.00     0.202 C 
BRANCH   5   6
ATOM      6  C   UNL A   1      35.173  30.319  28.015  1.00  0.00     0.261 C 
BRANCH   6   7
ATOM      7  O   UNL A   1      36.580  30.454  27.794  1.00  0.00    -0.463 OA
BRANCH   7   8
ATOM      8  C   UNL A   1      37.396  29.883  28.723  1.00  0.00     0.313 C 
ATOM      9  O   UNL A   1      36.992  29.283  29.712  1.00  0.00    -0.252 OA
BRANCH   8  10
ATOM     10  C   UNL A   1      38.872  30.112  28.368  1.00  0.00     0.129 C 
BRANCH  10  11
ATOM     11  C   UNL A   1      39.657  30.748  29.553  1.00  0.00     0.020 C 
BRANCH  11  12
ATOM     12  C   UNL A   1      39.727  30.012  30.911  1.00  0.00     0.004 C 
BRANCH  12  13
ATOM     13  C   UNL A   1      40.042  28.500  30.870  1.00  0.00    -0.017 C 
ATOM     14  C   UNL A   1      41.530  28.179  30.796  1.00  0.00     0.007 C 
ATOM     15  C   UNL A   1      39.338  27.748  31.994  1.00  0.00     0.007 C 
ENDBRANCH  12  13
ENDBRANCH  11  12
ENDBRANCH  10  11
BRANCH  10  16
ATOM     16  C   UNL A   1      39.453  28.823  27.746  1.00  0.00    -0.034 A 
ATOM     17  C   UNL A   1      38.913  27.575  28.134  1.00  0.00     0.007 A 
ATOM     18  C   UNL A   1      40.553  28.799  26.879  1.00  0.00     0.007 A 
ATOM     19  C   UNL A   1      39.551  26.372  27.842  1.00  0.00     0.039 A 
ATOM     20  C   UNL A   1      41.182  27.590  26.560  1.00  0.00     0.039 A 
ATOM     21  C   UNL A   1      40.702  26.394  27.077  1.00  0.00     0.123 A 
ATOM     22  F   UNL A   1      41.358  25.252  26.836  1.00  0.00    -0.207 F 
ENDBRANCH  10  16
ENDBRANCH   8  10
ENDBRANCH   7   8
ENDBRANCH   6   7
ENDBRANCH   5   6
ENDBRANCH   4   5
ENDBRANCH   3   4
ENDBRANCH   2   3
ENDBRANCH   1   2
BRANCH   1  23
ATOM     23  C   UNL A   1      37.009  32.600  31.494  1.00  0.00     0.188 C 
BRANCH  23  24
ATOM     24  C   UNL A   1      38.318  33.270  31.970  1.00  0.00     0.188 C 
BRANCH  24  25
ATOM     25  O   UNL A   1      38.138  34.515  32.629  1.00  0.00    -0.376 OA
BRANCH  25  26
ATOM     26  C   UNL A   1      38.477  34.644  33.999  1.00  0.00     0.202 C 
BRANCH  26  27
ATOM     27  C   UNL A   1      37.544  34.018  35.048  1.00  0.00     0.261 C 
BRANCH  27  28
ATOM     28  O   UNL A   1      38.112  33.750  36.338  1.00  0.00    -0.460 OA
BRANCH  28  29
ATOM     29  C   UNL A   1      38.053  32.485  36.801  1.00  0.00     0.338 C 
ATOM     30  O   UNL A   1      37.169  31.996  37.487  1.00  0.00    -0.246 OA
BRANCH  29  31
ATOM     31  C   UNL A   1      39.136  31.720  36.150  1.00  0.00     0.060 A 
ATOM     32  C   UNL A   1      40.461  31.951  36.544  1.00  0.00     0.016 A 
ATOM     33  C   UNL A   1      38.844  30.777  35.161  1.00  0.00     0.016 A 
ATOM     34  C   UNL A   1      41.504  31.275  35.914  1.00  0.00     0.010 A 
ATOM     35  C   UNL A   1      39.891  30.122  34.510  1.00  0.00     0.010 A 
ATOM     36  C   UNL A   1      41.225  30.404  34.853  1.00  0.00    -0.014 A 
BRANCH  36  37
ATOM     37  C   UNL A   1      42.328  29.996  33.952  1.00  0.00     0.031 A 
ATOM     38  C   UNL A   1      42.755  30.965  32.882  1.00  0.00     0.074 A 
ATOM     39  C   UNL A   1      42.965  28.823  34.106  1.00  0.00     0.049 A 
ATOM     40  N   UNL A   1      43.671  30.835  31.959  1.00  0.00    -0.248 NA
ATOM     41  C   UNL A   1      42.047  32.257  32.849  1.00  0.00     0.031 C 
ATOM     42  C   UNL A   1      42.673  27.830  35.137  1.00  0.00     0.029 A 
ATOM     43  N   UNL A   1      43.992  28.270  33.385  1.00  0.00    -0.354 N 
ATOM     44  C   UNL A   1      43.646  32.022  31.235  1.00  0.00     0.074 A 
ATOM     45  C   UNL A   1      42.601  32.845  31.801  1.00  0.00     0.031 C 
ATOM     46  C   UNL A   1      43.498  26.780  34.975  1.00  0.00     0.029 A 
ATOM     47  C   UNL A   1      44.352  27.014  33.810  1.00  0.00     0.049 A 
ATOM     48  H   UNL A   1      44.431  28.730  32.633  1.00  0.00     0.167 HD
ATOM     49  C   UNL A   1      44.432  32.397  30.198  1.00  0.00     0.037 A 
ATOM     50  C   UNL A   1      45.252  26.149  33.303  1.00  0.00     0.037 A 
ATOM     51  C   UNL A   1      45.465  31.567  29.638  1.00  0.00     0.049 A 
ATOM     52  C   UNL A   1      46.065  26.557  32.099  1.00  0.00     0.074 A 
ATOM     53  C   UNL A   1      46.323  31.851  28.590  1.00  0.00     0.029 A 
ATOM     54  N   UNL A   1      45.776  30.286  30.073  1.00  0.00    -0.354 N 
ATOM     55  N   UNL A   1      46.042  27.686  31.429  1.00  0.00    -0.248 NA
ATOM     56  C   UNL A   1      47.029  25.574  31.585  1.00  0.00     0.031 C 
ATOM     57  C   UNL A   1      47.111  30.720  28.353  1.00  0.00     0.029 A 
ATOM     58  C   UNL A   1      46.794  29.756  29.298  1.00  0.00     0.049 A 
ATOM     59  H   UNL A   1      45.337  29.822  30.823  1.00  0.00     0.167 HD
ATOM     60  C   UNL A   1      47.013  27.562  30.439  1.00  0.00     0.074 A 
ATOM     61  C   UNL A   1      47.610  26.253  30.607  1.00  0.00     0.031 C 
ATOM     62  C   UNL A   1      47.379  28.450  29.479  1.00  0.00     0.037 A 
BRANCH  49  63
ATOM     63  C   UNL A   1      44.174  33.745  29.583  1.00  0.00     0.058 A 
ATOM     64  C   UNL A   1      44.608  34.935  30.190  1.00  0.00     0.135 A 
ATOM     65  C   UNL A   1      43.500  33.847  28.355  1.00  0.00     0.135 A 
ATOM     66  F   UNL A   1      45.236  34.900  31.376  1.00  0.00    -0.206 F 
ATOM     67  C   UNL A   1      44.357  36.179  29.617  1.00  0.00     0.059 A 
ATOM     68  C   UNL A   1      43.267  35.077  27.748  1.00  0.00     0.059 A 
ATOM     69  F   UNL A   1      43.057  32.743  27.734  1.00  0.00    -0.206 F 
ATOM     70  C   UNL A   1      43.688  36.238  28.393  1.00  0.00     0.060 A 
BRANCH  70  71
ATOM     71  S   UNL A   1      43.376  37.858  27.660  1.00  0.00     0.124 S 
ATOM     72  O   UNL A   1      44.695  38.201  27.138  1.00  0.00    -0.237 OA
ATOM     73  O   UNL A   1      42.357  37.556  26.660  1.00  0.00    -0.237 OA
ATOM     74  O   UNL A   1      42.922  38.662  28.791  1.00  0.00    -0.744 OA
ENDBRANCH  70  71
ENDBRANCH  49  63
BRANCH  50  75
ATOM     75  C   UNL A   1      45.430  24.807  33.923  1.00  0.00     0.058 A 
ATOM     76  C   UNL A   1      46.257  24.625  35.041  1.00  0.00     0.135 A 
ATOM     77  C   UNL A   1      44.777  23.677  33.405  1.00  0.00     0.135 A 
ATOM     78  F   UNL A   1      46.914  25.672  35.566  1.00  0.00    -0.206 F 
ATOM     79  C   UNL A   1      46.444  23.372  35.615  1.00  0.00     0.059 A 
ATOM     80  C   UNL A   1      44.924  22.419  33.979  1.00  0.00     0.059 A 
ATOM     81  F   UNL A   1      43.968  23.796  32.341  1.00  0.00    -0.206 F 
ATOM     82  C   UNL A   1      45.767  22.274  35.079  1.00  0.00     0.060 A 
BRANCH  82  83
ATOM     83  S   UNL A   1      45.975  20.662  35.866  1.00  0.00     0.124 S 
ATOM     84  O   UNL A   1      45.005  19.851  35.139  1.00  0.00    -0.237 OA
ATOM     85  O   UNL A   1      47.380  20.372  35.597  1.00  0.00    -0.237 OA
ATOM     86  O   UNL A   1      45.655  20.928  37.265  1.00  0.00    -0.744 OA
ENDBRANCH  82  83
ENDBRANCH  50  75
BRANCH  62  87
ATOM     87  C   UNL A   1      48.510  28.055  28.565  1.00  0.00     0.058 A 
ATOM     88  C   UNL A   1      48.286  27.398  27.345  1.00  0.00     0.135 A 
ATOM     89  C   UNL A   1      49.837  28.372  28.902  1.00  0.00     0.135 A 
ATOM     90  F   UNL A   1      47.039  27.069  26.972  1.00  0.00    -0.206 F 
ATOM     91  C   UNL A   1      49.340  27.030  26.513  1.00  0.00     0.059 A 
ATOM     92  C   UNL A   1      50.903  28.047  28.069  1.00  0.00     0.059 A 
ATOM     93  F   UNL A   1      50.109  29.017  30.048  1.00  0.00    -0.206 F 
ATOM     94  C   UNL A   1      50.645  27.358  26.884  1.00  0.00     0.060 A 
BRANCH  94  95
ATOM     95  S   UNL A   1      52.002  26.881  25.794  1.00  0.00     0.124 S 
ATOM     96  O   UNL A   1      52.534  25.710  26.484  1.00  0.00    -0.237 OA
ATOM     97  O   UNL A   1      51.312  26.616  24.535  1.00  0.00    -0.237 OA
ATOM     98  O   UNL A   1      52.868  28.055  25.793  1.00  0.00    -0.744 OA
ENDBRANCH  94  95
ENDBRANCH  62  87
ENDBRANCH  36  37
ENDBRANCH  29  31
ENDBRANCH  28  29
ENDBRANCH  27  28
ENDBRANCH  26  27
ENDBRANCH  25  26
ENDBRANCH  24  25
ENDBRANCH  23  24
ENDBRANCH   1  23
TORSDOF 27
ENDMDL
