MODEL 1
REMARK VINA RESULT:     -10.9      0.000      0.000
REMARK SMILES Cc1cc(F)cc(-n2nc(C(=O)OCCOCCOCCOCCOC(=O)c3ccc(-c4c5nc(c(-c6c(F)cc(S(=O)(=O)[O-])cc6F)c6ccc([nH]6)c(-c6c(F)cc(S(=O)(=O)[O-])cc6F)c6nc(c(-c7c(F)cc(S(=O)(=O)[O-])cc7F)c7ccc4[nH]7)C=C6)C=C5)cc3)c3c2CC[C@H](C)C3)c1
REMARK SMILES IDX 20 1 19 2 18 3 17 4 16 5 15 6 14 7 13 8 11 9 12 10 10 11
REMARK SMILES IDX 8 12 9 13 95 14 94 15 96 16 100 17 97 18 98 19 99 20 7 21
REMARK SMILES IDX 1 22 2 23 3 24 101 25 4 26 5 27 6 28 21 29 22 30 23 31 24 32
REMARK SMILES IDX 25 33 26 34 27 35 28 36 29 37 93 38 30 39 92 40 31 41 32 42
REMARK SMILES IDX 33 43 86 44 34 45 91 46 85 47 87 48 35 49 90 50 84 51 83 52
REMARK SMILES IDX 36 54 70 55 49 56 69 57 50 58 53 59 68 60 88 61 51 62 52 63
REMARK SMILES IDX 67 65 89 66 54 67 37 68 38 69 47 70 39 71 40 72 46 73 48 74
REMARK SMILES IDX 41 75 42 76 43 77 44 78 45 79 71 80 72 81 81 82 73 83 74 84
REMARK SMILES IDX 80 85 82 86 75 87 76 88 77 89 78 90 79 91 55 92 56 93 65 94
REMARK SMILES IDX 57 95 58 96 64 97 66 98 59 99 60 100 61 101 62 102 63 103
REMARK H PARENT 87 53 53 64
REMARK Flexibility Score: inf
ROOT
ATOM      1  C   UNL A   1      42.680  18.375  26.172  1.00  0.00     0.188 C 
ENDROOT
BRANCH   1   2
ATOM      2  O   UNL A   1      42.148  19.248  27.171  1.00  0.00    -0.377 OA
BRANCH   2   3
ATOM      3  C   UNL A   1      41.725  20.526  26.732  1.00  0.00     0.188 C 
BRANCH   3   4
ATOM      4  C   UNL A   1      41.320  21.493  27.871  1.00  0.00     0.188 C 
BRANCH   4   5
ATOM      5  O   UNL A   1      40.247  22.420  27.741  1.00  0.00    -0.376 OA
BRANCH   5   6
ATOM      6  C   UNL A   1      39.919  23.064  26.522  1.00  0.00     0.202 C 
BRANCH   6   7
ATOM      7  C   UNL A   1      38.582  23.779  26.309  1.00  0.00     0.261 C 
BRANCH   7   8
ATOM      8  O   UNL A   1      37.431  22.946  26.330  1.00  0.00    -0.458 OA
BRANCH   8   9
ATOM      9  C   UNL A   1      36.944  22.549  25.121  1.00  0.00     0.359 C 
ATOM     10  O   UNL A   1      37.561  21.855  24.318  1.00  0.00    -0.244 OA
BRANCH   9  11
ATOM     11  C   UNL A   1      35.557  23.008  24.942  1.00  0.00     0.174 A 
ATOM     12  N   UNL A   1      33.864  24.322  24.819  1.00  0.00    -0.237 N 
ATOM     13  N   UNL A   1      35.217  24.312  24.896  1.00  0.00    -0.160 NA
ATOM     14  C   UNL A   1      33.345  23.050  24.805  1.00  0.00     0.048 A 
ATOM     15  C   UNL A   1      34.420  22.194  24.718  1.00  0.00     0.009 A 
ATOM     16  C   UNL A   1      31.918  22.632  24.760  1.00  0.00     0.057 C 
ATOM     17  C   UNL A   1      34.299  20.723  24.520  1.00  0.00     0.043 C 
ATOM     18  C   UNL A   1      31.829  21.109  25.026  1.00  0.00     0.010 C 
ATOM     19  C   UNL A   1      32.849  20.316  24.175  1.00  0.00    -0.009 C 
ATOM     20  C   UNL A   1      32.692  18.806  24.348  1.00  0.00     0.008 C 
BRANCH  12  21
ATOM     21  C   UNL A   1      33.170  25.547  24.872  1.00  0.00     0.068 A 
ATOM     22  C   UNL A   1      31.937  28.084  27.446  1.00  0.00     0.044 C 
ATOM     23  C   UNL A   1      32.195  27.365  26.153  1.00  0.00    -0.046 A 
ATOM     24  C   UNL A   1      31.739  27.927  24.953  1.00  0.00     0.042 A 
ATOM     25  C   UNL A   1      32.881  26.140  26.112  1.00  0.00     0.032 A 
ATOM     26  C   UNL A   1      32.003  27.300  23.739  1.00  0.00     0.125 A 
ATOM     27  F   UNL A   1      31.534  27.837  22.605  1.00  0.00    -0.207 F 
ATOM     28  C   UNL A   1      32.739  26.126  23.679  1.00  0.00     0.067 A 
ENDBRANCH  12  21
ENDBRANCH   9  11
ENDBRANCH   8   9
ENDBRANCH   7   8
ENDBRANCH   6   7
ENDBRANCH   5   6
ENDBRANCH   4   5
ENDBRANCH   3   4
ENDBRANCH   2   3
ENDBRANCH   1   2
BRANCH   1  29
ATOM     29  C   UNL A   1      44.063  18.680  25.535  1.00  0.00     0.188 C 
BRANCH  29  30
ATOM     30  O   UNL A   1      44.012  19.340  24.279  1.00  0.00    -0.376 OA
BRANCH  30  31
ATOM     31  C   UNL A   1      44.922  20.357  23.900  1.00  0.00     0.202 C 
BRANCH  31  32
ATOM     32  C   UNL A   1      46.176  20.538  24.744  1.00  0.00     0.261 C 
BRANCH  32  33
ATOM     33  O   UNL A   1      46.146  21.710  25.530  1.00  0.00    -0.460 OA
BRANCH  33  34
ATOM     34  C   UNL A   1      45.556  22.761  24.942  1.00  0.00     0.338 C 
ATOM     35  O   UNL A   1      45.927  23.346  23.926  1.00  0.00    -0.246 OA
BRANCH  34  36
ATOM     36  C   UNL A   1      44.455  23.193  25.797  1.00  0.00     0.060 A 
ATOM     37  C   UNL A   1      43.522  24.037  25.195  1.00  0.00     0.016 A 
ATOM     38  C   UNL A   1      44.665  23.148  27.184  1.00  0.00     0.016 A 
ATOM     39  C   UNL A   1      43.054  25.081  25.947  1.00  0.00     0.010 A 
ATOM     40  C   UNL A   1      44.235  24.214  27.918  1.00  0.00     0.010 A 
ATOM     41  C   UNL A   1      43.532  25.213  27.253  1.00  0.00    -0.014 A 
BRANCH  41  42
ATOM     42  C   UNL A   1      43.242  26.431  27.958  1.00  0.00     0.031 A 
ATOM     43  C   UNL A   1      44.285  27.446  27.741  1.00  0.00     0.074 A 
ATOM     44  C   UNL A   1      42.084  26.612  28.614  1.00  0.00     0.049 A 
ATOM     45  N   UNL A   1      45.214  27.799  28.562  1.00  0.00    -0.248 NA
ATOM     46  C   UNL A   1      44.479  27.928  26.363  1.00  0.00     0.031 C 
ATOM     47  C   UNL A   1      40.887  25.767  28.616  1.00  0.00     0.029 A 
ATOM     48  N   UNL A   1      41.701  27.686  29.346  1.00  0.00    -0.354 N 
ATOM     49  C   UNL A   1      45.942  28.759  27.874  1.00  0.00     0.074 A 
ATOM     50  C   UNL A   1      45.634  28.578  26.482  1.00  0.00     0.031 C 
ATOM     51  C   UNL A   1      39.848  26.475  29.118  1.00  0.00     0.029 A 
ATOM     52  C   UNL A   1      40.333  27.768  29.572  1.00  0.00     0.049 A 
ATOM     53  H   UNL A   1      42.339  28.352  29.688  1.00  0.00     0.167 HD
ATOM     54  C   UNL A   1      46.473  29.830  28.522  1.00  0.00     0.037 A 
ATOM     55  C   UNL A   1      39.688  28.889  29.988  1.00  0.00     0.037 A 
ATOM     56  C   UNL A   1      46.529  29.603  29.946  1.00  0.00     0.049 A 
ATOM     57  C   UNL A   1      40.725  29.778  30.599  1.00  0.00     0.074 A 
ATOM     58  C   UNL A   1      47.101  28.625  30.741  1.00  0.00     0.029 A 
ATOM     59  N   UNL A   1      45.585  30.220  30.734  1.00  0.00    -0.354 N 
ATOM     60  N   UNL A   1      41.367  29.487  31.701  1.00  0.00    -0.248 NA
ATOM     61  C   UNL A   1      41.403  30.727  29.724  1.00  0.00     0.031 C 
ATOM     62  C   UNL A   1      46.150  28.386  31.776  1.00  0.00     0.029 A 
ATOM     63  C   UNL A   1      45.090  29.276  31.600  1.00  0.00     0.049 A 
ATOM     64  H   UNL A   1      45.313  31.166  30.685  1.00  0.00     0.167 HD
ATOM     65  C   UNL A   1      42.681  29.880  31.471  1.00  0.00     0.074 A 
ATOM     66  C   UNL A   1      42.627  30.697  30.260  1.00  0.00     0.031 C 
ATOM     67  C   UNL A   1      43.732  29.270  32.099  1.00  0.00     0.037 A 
BRANCH  54  68
ATOM     68  C   UNL A   1      46.563  31.202  27.906  1.00  0.00     0.058 A 
ATOM     69  C   UNL A   1      47.790  31.889  27.951  1.00  0.00     0.135 A 
ATOM     70  C   UNL A   1      45.447  31.976  27.508  1.00  0.00     0.135 A 
ATOM     71  F   UNL A   1      48.913  31.255  28.329  1.00  0.00    -0.206 F 
ATOM     72  C   UNL A   1      47.888  33.254  27.688  1.00  0.00     0.059 A 
ATOM     73  C   UNL A   1      45.533  33.319  27.177  1.00  0.00     0.059 A 
ATOM     74  F   UNL A   1      44.195  31.505  27.516  1.00  0.00    -0.206 F 
ATOM     75  C   UNL A   1      46.750  33.961  27.314  1.00  0.00     0.060 A 
BRANCH  75  76
ATOM     76  S   UNL A   1      46.843  35.741  27.079  1.00  0.00     0.124 S 
ATOM     77  O   UNL A   1      45.562  36.014  26.441  1.00  0.00    -0.237 OA
ATOM     78  O   UNL A   1      46.994  36.217  28.451  1.00  0.00    -0.237 OA
ATOM     79  O   UNL A   1      48.021  35.906  26.232  1.00  0.00    -0.744 OA
ENDBRANCH  75  76
ENDBRANCH  54  68
BRANCH  55  80
ATOM     80  C   UNL A   1      38.359  29.386  29.532  1.00  0.00     0.058 A 
ATOM     81  C   UNL A   1      37.331  29.660  30.453  1.00  0.00     0.135 A 
ATOM     82  C   UNL A   1      38.150  29.859  28.220  1.00  0.00     0.135 A 
ATOM     83  F   UNL A   1      37.449  29.268  31.730  1.00  0.00    -0.206 F 
ATOM     84  C   UNL A   1      36.192  30.400  30.108  1.00  0.00     0.059 A 
ATOM     85  C   UNL A   1      37.018  30.584  27.848  1.00  0.00     0.059 A 
ATOM     86  F   UNL A   1      39.083  29.715  27.268  1.00  0.00    -0.206 F 
ATOM     87  C   UNL A   1      36.055  30.876  28.804  1.00  0.00     0.060 A 
BRANCH  87  88
ATOM     88  S   UNL A   1      34.685  31.982  28.391  1.00  0.00     0.124 S 
ATOM     89  O   UNL A   1      34.300  32.489  29.704  1.00  0.00    -0.237 OA
ATOM     90  O   UNL A   1      35.323  32.943  27.497  1.00  0.00    -0.237 OA
ATOM     91  O   UNL A   1      33.713  31.095  27.756  1.00  0.00    -0.744 OA
ENDBRANCH  87  88
ENDBRANCH  55  80
BRANCH  67  92
ATOM     92  C   UNL A   1      43.443  28.337  33.249  1.00  0.00     0.058 A 
ATOM     93  C   UNL A   1      43.392  26.935  33.142  1.00  0.00     0.135 A 
ATOM     94  C   UNL A   1      43.392  28.878  34.543  1.00  0.00     0.135 A 
ATOM     95  F   UNL A   1      43.548  26.329  31.957  1.00  0.00    -0.206 F 
ATOM     96  C   UNL A   1      43.255  26.114  34.265  1.00  0.00     0.059 A 
ATOM     97  C   UNL A   1      43.289  28.079  35.677  1.00  0.00     0.059 A 
ATOM     98  F   UNL A   1      43.503  30.206  34.720  1.00  0.00    -0.206 F 
ATOM     99  C   UNL A   1      43.208  26.697  35.531  1.00  0.00     0.060 A 
BRANCH  99 100
ATOM    100  S   UNL A   1      43.110  25.633  36.987  1.00  0.00     0.124 S 
ATOM    101  O   UNL A   1      44.209  24.701  36.760  1.00  0.00    -0.237 OA
ATOM    102  O   UNL A   1      43.296  26.578  38.084  1.00  0.00    -0.237 OA
ATOM    103  O   UNL A   1      41.772  25.053  36.898  1.00  0.00    -0.744 OA
ENDBRANCH  99 100
ENDBRANCH  67  92
ENDBRANCH  41  42
ENDBRANCH  34  36
ENDBRANCH  33  34
ENDBRANCH  32  33
ENDBRANCH  31  32
ENDBRANCH  30  31
ENDBRANCH  29  30
ENDBRANCH   1  29
TORSDOF 24
ENDMDL
MODEL 2
REMARK VINA RESULT:     -10.9      2.404      4.112
REMARK SMILES Cc1cc(F)cc(-n2nc(C(=O)OCCOCCOCCOCCOC(=O)c3ccc(-c4c5nc(c(-c6c(F)cc(S(=O)(=O)[O-])cc6F)c6ccc([nH]6)c(-c6c(F)cc(S(=O)(=O)[O-])cc6F)c6nc(c(-c7c(F)cc(S(=O)(=O)[O-])cc7F)c7ccc4[nH]7)C=C6)C=C5)cc3)c3c2CC[C@H](C)C3)c1
REMARK SMILES IDX 20 1 19 2 18 3 17 4 16 5 15 6 14 7 13 8 11 9 12 10 10 11
REMARK SMILES IDX 8 12 9 13 95 14 94 15 96 16 100 17 97 18 98 19 99 20 7 21
REMARK SMILES IDX 1 22 2 23 3 24 101 25 4 26 5 27 6 28 21 29 22 30 23 31 24 32
REMARK SMILES IDX 25 33 26 34 27 35 28 36 29 37 93 38 30 39 92 40 31 41 32 42
REMARK SMILES IDX 33 43 86 44 34 45 91 46 85 47 87 48 35 49 90 50 84 51 83 52
REMARK SMILES IDX 36 54 70 55 49 56 69 57 50 58 53 59 68 60 88 61 51 62 52 63
REMARK SMILES IDX 67 65 89 66 54 67 37 68 38 69 47 70 39 71 40 72 46 73 48 74
REMARK SMILES IDX 41 75 42 76 43 77 44 78 45 79 71 80 72 81 81 82 73 83 74 84
REMARK SMILES IDX 80 85 82 86 75 87 76 88 77 89 78 90 79 91 55 92 56 93 65 94
REMARK SMILES IDX 57 95 58 96 64 97 66 98 59 99 60 100 61 101 62 102 63 103
REMARK H PARENT 87 53 53 64
REMARK Flexibility Score: inf
ROOT
ATOM      1  C   UNL A   1      38.782  22.605  26.174  1.00  0.00     0.188 C 
ENDROOT
BRANCH   1   2
ATOM      2  O   UNL A   1      37.417  22.785  25.787  1.00  0.00    -0.377 OA
BRANCH   2   3
ATOM      3  C   UNL A   1      36.737  21.634  25.319  1.00  0.00     0.188 C 
BRANCH   3   4
ATOM      4  C   UNL A   1      35.576  21.932  24.340  1.00  0.00     0.188 C 
BRANCH   4   5
ATOM      5  O   UNL A   1      34.208  21.810  24.717  1.00  0.00    -0.376 OA
BRANCH   5   6
ATOM      6  C   UNL A   1      33.452  22.879  25.260  1.00  0.00     0.202 C 
BRANCH   6   7
ATOM      7  C   UNL A   1      32.946  24.041  24.401  1.00  0.00     0.261 C 
BRANCH   7   8
ATOM      8  O   UNL A   1      33.939  24.957  23.963  1.00  0.00    -0.458 OA
BRANCH   8   9
ATOM      9  C   UNL A   1      33.589  25.798  22.950  1.00  0.00     0.359 C 
ATOM     10  O   UNL A   1      33.963  25.675  21.787  1.00  0.00    -0.244 OA
BRANCH   9  11
ATOM     11  C   UNL A   1      32.650  26.826  23.426  1.00  0.00     0.174 A 
ATOM     12  N   UNL A   1      30.921  28.094  23.519  1.00  0.00    -0.237 N 
ATOM     13  N   UNL A   1      31.432  27.015  22.879  1.00  0.00    -0.160 NA
ATOM     14  C   UNL A   1      31.788  28.584  24.465  1.00  0.00     0.048 A 
ATOM     15  C   UNL A   1      32.832  27.689  24.534  1.00  0.00     0.009 A 
ATOM     16  C   UNL A   1      31.620  29.766  25.352  1.00  0.00     0.057 C 
ATOM     17  C   UNL A   1      33.921  27.757  25.547  1.00  0.00     0.043 C 
ATOM     18  C   UNL A   1      32.969  30.068  26.052  1.00  0.00     0.010 C 
ATOM     19  C   UNL A   1      33.605  28.791  26.651  1.00  0.00    -0.009 C 
ATOM     20  C   UNL A   1      34.877  29.096  27.438  1.00  0.00     0.008 C 
BRANCH  12  21
ATOM     21  C   UNL A   1      29.689  28.636  23.102  1.00  0.00     0.068 A 
ATOM     22  C   UNL A   1      28.343  31.453  20.903  1.00  0.00     0.044 C 
ATOM     23  C   UNL A   1      28.428  30.297  21.857  1.00  0.00    -0.046 A 
ATOM     24  C   UNL A   1      27.246  29.726  22.349  1.00  0.00     0.042 A 
ATOM     25  C   UNL A   1      29.662  29.770  22.273  1.00  0.00     0.032 A 
ATOM     26  C   UNL A   1      27.299  28.626  23.201  1.00  0.00     0.125 A 
ATOM     27  F   UNL A   1      26.160  28.114  23.685  1.00  0.00    -0.207 F 
ATOM     28  C   UNL A   1      28.508  28.054  23.565  1.00  0.00     0.067 A 
ENDBRANCH  12  21
ENDBRANCH   9  11
ENDBRANCH   8   9
ENDBRANCH   7   8
ENDBRANCH   6   7
ENDBRANCH   5   6
ENDBRANCH   4   5
ENDBRANCH   3   4
ENDBRANCH   2   3
ENDBRANCH   1   2
BRANCH   1  29
ATOM     29  C   UNL A   1      39.415  21.187  26.137  1.00  0.00     0.188 C 
BRANCH  29  30
ATOM     30  O   UNL A   1      40.403  20.945  27.126  1.00  0.00    -0.376 OA
BRANCH  30  31
ATOM     31  C   UNL A   1      41.743  20.607  26.819  1.00  0.00     0.202 C 
BRANCH  31  32
ATOM     32  C   UNL A   1      42.480  21.475  25.808  1.00  0.00     0.261 C 
BRANCH  32  33
ATOM     33  O   UNL A   1      42.970  22.674  26.366  1.00  0.00    -0.460 OA
BRANCH  33  34
ATOM     34  C   UNL A   1      42.700  23.776  25.650  1.00  0.00     0.338 C 
ATOM     35  O   UNL A   1      43.260  24.145  24.619  1.00  0.00    -0.246 OA
BRANCH  34  36
ATOM     36  C   UNL A   1      41.703  24.552  26.380  1.00  0.00     0.060 A 
ATOM     37  C   UNL A   1      41.306  25.742  25.774  1.00  0.00     0.016 A 
ATOM     38  C   UNL A   1      41.601  24.325  27.762  1.00  0.00     0.016 A 
ATOM     39  C   UNL A   1      41.135  26.829  26.589  1.00  0.00     0.010 A 
ATOM     40  C   UNL A   1      41.477  25.416  28.570  1.00  0.00     0.010 A 
ATOM     41  C   UNL A   1      41.358  26.660  27.958  1.00  0.00    -0.014 A 
BRANCH  41  42
ATOM     42  C   UNL A   1      41.424  27.837  28.781  1.00  0.00     0.031 A 
ATOM     43  C   UNL A   1      42.539  28.712  28.387  1.00  0.00     0.074 A 
ATOM     44  C   UNL A   1      40.483  28.114  29.698  1.00  0.00     0.049 A 
ATOM     45  N   UNL A   1      43.669  28.857  28.988  1.00  0.00    -0.248 NA
ATOM     46  C   UNL A   1      42.495  29.289  27.032  1.00  0.00     0.031 C 
ATOM     47  C   UNL A   1      39.200  27.446  29.929  1.00  0.00     0.029 A 
ATOM     48  N   UNL A   1      40.443  29.158  30.560  1.00  0.00    -0.354 N 
ATOM     49  C   UNL A   1      44.368  29.766  28.207  1.00  0.00     0.074 A 
ATOM     50  C   UNL A   1      43.735  29.759  26.917  1.00  0.00     0.031 C 
ATOM     51  C   UNL A   1      38.420  28.242  30.699  1.00  0.00     0.029 A 
ATOM     52  C   UNL A   1      39.189  29.408  31.103  1.00  0.00     0.049 A 
ATOM     53  H   UNL A   1      41.237  29.696  30.783  1.00  0.00     0.167 HD
ATOM     54  C   UNL A   1      45.189  30.689  28.775  1.00  0.00     0.037 A 
ATOM     55  C   UNL A   1      38.834  30.564  31.721  1.00  0.00     0.037 A 
ATOM     56  C   UNL A   1      45.523  30.326  30.131  1.00  0.00     0.049 A 
ATOM     57  C   UNL A   1      40.107  31.241  32.125  1.00  0.00     0.074 A 
ATOM     58  C   UNL A   1      46.096  29.210  30.713  1.00  0.00     0.029 A 
ATOM     59  N   UNL A   1      44.883  30.992  31.152  1.00  0.00    -0.354 N 
ATOM     60  N   UNL A   1      40.924  30.764  33.029  1.00  0.00    -0.248 NA
ATOM     61  C   UNL A   1      40.713  32.164  31.174  1.00  0.00     0.031 C 
ATOM     62  C   UNL A   1      45.373  29.010  31.925  1.00  0.00     0.029 A 
ATOM     63  C   UNL A   1      44.452  30.050  32.052  1.00  0.00     0.049 A 
ATOM     64  H   UNL A   1      44.759  31.967  31.222  1.00  0.00     0.167 HD
ATOM     65  C   UNL A   1      42.198  30.991  32.522  1.00  0.00     0.074 A 
ATOM     66  C   UNL A   1      42.005  31.915  31.407  1.00  0.00     0.031 C 
ATOM     67  C   UNL A   1      43.254  30.186  32.853  1.00  0.00     0.037 A 
BRANCH  54  68
ATOM     68  C   UNL A   1      45.353  32.087  28.236  1.00  0.00     0.058 A 
ATOM     69  C   UNL A   1      46.647  32.555  27.943  1.00  0.00     0.135 A 
ATOM     70  C   UNL A   1      44.336  33.071  28.239  1.00  0.00     0.135 A 
ATOM     71  F   UNL A   1      47.690  31.710  27.927  1.00  0.00    -0.206 F 
ATOM     72  C   UNL A   1      46.919  33.906  27.737  1.00  0.00     0.059 A 
ATOM     73  C   UNL A   1      44.573  34.409  27.970  1.00  0.00     0.059 A 
ATOM     74  F   UNL A   1      43.074  32.811  28.601  1.00  0.00    -0.206 F 
ATOM     75  C   UNL A   1      45.875  34.826  27.766  1.00  0.00     0.060 A 
BRANCH  75  76
ATOM     76  S   UNL A   1      46.229  36.581  27.610  1.00  0.00     0.124 S 
ATOM     77  O   UNL A   1      46.354  36.722  26.164  1.00  0.00    -0.237 OA
ATOM     78  O   UNL A   1      45.044  37.181  28.215  1.00  0.00    -0.237 OA
ATOM     79  O   UNL A   1      47.464  36.744  28.371  1.00  0.00    -0.744 OA
ENDBRANCH  75  76
ENDBRANCH  54  68
BRANCH  55  80
ATOM     80  C   UNL A   1      37.532  31.280  31.617  1.00  0.00     0.058 A 
ATOM     81  C   UNL A   1      36.725  31.490  32.751  1.00  0.00     0.135 A 
ATOM     82  C   UNL A   1      37.171  32.008  30.464  1.00  0.00     0.135 A 
ATOM     83  F   UNL A   1      37.003  30.858  33.901  1.00  0.00    -0.206 F 
ATOM     84  C   UNL A   1      35.661  32.402  32.756  1.00  0.00     0.059 A 
ATOM     85  C   UNL A   1      36.108  32.909  30.439  1.00  0.00     0.059 A 
ATOM     86  F   UNL A   1      37.898  31.941  29.339  1.00  0.00    -0.206 F 
ATOM     87  C   UNL A   1      35.373  33.123  31.597  1.00  0.00     0.060 A 
BRANCH  87  88
ATOM     88  S   UNL A   1      34.124  34.431  31.640  1.00  0.00     0.124 S 
ATOM     89  O   UNL A   1      34.931  35.608  31.943  1.00  0.00    -0.237 OA
ATOM     90  O   UNL A   1      33.565  34.369  30.294  1.00  0.00    -0.237 OA
ATOM     91  O   UNL A   1      33.222  34.002  32.707  1.00  0.00    -0.744 OA
ENDBRANCH  87  88
ENDBRANCH  55  80
BRANCH  67  92
ATOM     92  C   UNL A   1      43.085  29.199  33.982  1.00  0.00     0.058 A 
ATOM     93  C   UNL A   1      43.150  29.533  35.346  1.00  0.00     0.135 A 
ATOM     94  C   UNL A   1      42.663  27.898  33.665  1.00  0.00     0.135 A 
ATOM     95  F   UNL A   1      43.433  30.785  35.735  1.00  0.00    -0.206 F 
ATOM     96  C   UNL A   1      42.852  28.607  36.349  1.00  0.00     0.059 A 
ATOM     97  C   UNL A   1      42.329  26.969  34.645  1.00  0.00     0.059 A 
ATOM     98  F   UNL A   1      42.515  27.535  32.380  1.00  0.00    -0.206 F 
ATOM     99  C   UNL A   1      42.438  27.325  35.987  1.00  0.00     0.060 A 
BRANCH  99 100
ATOM    100  S   UNL A   1      41.976  26.151  37.279  1.00  0.00     0.124 S 
ATOM    101  O   UNL A   1      43.015  26.371  38.278  1.00  0.00    -0.237 OA
ATOM    102  O   UNL A   1      40.636  26.596  37.648  1.00  0.00    -0.237 OA
ATOM    103  O   UNL A   1      42.027  24.858  36.600  1.00  0.00    -0.744 OA
ENDBRANCH  99 100
ENDBRANCH  67  92
ENDBRANCH  41  42
ENDBRANCH  34  36
ENDBRANCH  33  34
ENDBRANCH  32  33
ENDBRANCH  31  32
ENDBRANCH  30  31
ENDBRANCH  29  30
ENDBRANCH   1  29
TORSDOF 24
ENDMDL
MODEL 3
REMARK VINA RESULT:     -10.7      2.011      3.174
REMARK SMILES Cc1cc(F)cc(-n2nc(C(=O)OCCOCCOCCOCCOC(=O)c3ccc(-c4c5nc(c(-c6c(F)cc(S(=O)(=O)[O-])cc6F)c6ccc([nH]6)c(-c6c(F)cc(S(=O)(=O)[O-])cc6F)c6nc(c(-c7c(F)cc(S(=O)(=O)[O-])cc7F)c7ccc4[nH]7)C=C6)C=C5)cc3)c3c2CC[C@H](C)C3)c1
REMARK SMILES IDX 20 1 19 2 18 3 17 4 16 5 15 6 14 7 13 8 11 9 12 10 10 11
REMARK SMILES IDX 8 12 9 13 95 14 94 15 96 16 100 17 97 18 98 19 99 20 7 21
REMARK SMILES IDX 1 22 2 23 3 24 101 25 4 26 5 27 6 28 21 29 22 30 23 31 24 32
REMARK SMILES IDX 25 33 26 34 27 35 28 36 29 37 93 38 30 39 92 40 31 41 32 42
REMARK SMILES IDX 33 43 86 44 34 45 91 46 85 47 87 48 35 49 90 50 84 51 83 52
REMARK SMILES IDX 36 54 70 55 49 56 69 57 50 58 53 59 68 60 88 61 51 62 52 63
REMARK SMILES IDX 67 65 89 66 54 67 37 68 38 69 47 70 39 71 40 72 46 73 48 74
REMARK SMILES IDX 41 75 42 76 43 77 44 78 45 79 71 80 72 81 81 82 73 83 74 84
REMARK SMILES IDX 80 85 82 86 75 87 76 88 77 89 78 90 79 91 55 92 56 93 65 94
REMARK SMILES IDX 57 95 58 96 64 97 66 98 59 99 60 100 61 101 62 102 63 103
REMARK H PARENT 87 53 53 64
REMARK Flexibility Score: inf
ROOT
ATOM      1  C   UNL A   1      39.859  21.805  26.162  1.00  0.00     0.188 C 
ENDROOT
BRANCH   1   2
ATOM      2  O   UNL A   1      38.598  21.265  25.759  1.00  0.00    -0.377 OA
BRANCH   2   3
ATOM      3  C   UNL A   1      37.662  22.182  25.221  1.00  0.00     0.188 C 
BRANCH   3   4
ATOM      4  C   UNL A   1      36.431  22.443  26.122  1.00  0.00     0.188 C 
BRANCH   4   5
ATOM      5  O   UNL A   1      35.204  21.739  25.963  1.00  0.00    -0.376 OA
BRANCH   5   6
ATOM      6  C   UNL A   1      34.292  21.515  27.024  1.00  0.00     0.202 C 
BRANCH   6   7
ATOM      7  C   UNL A   1      33.253  22.559  27.443  1.00  0.00     0.261 C 
BRANCH   7   8
ATOM      8  O   UNL A   1      31.988  22.455  26.805  1.00  0.00    -0.458 OA
BRANCH   8   9
ATOM      9  C   UNL A   1      31.201  23.567  26.825  1.00  0.00     0.359 C 
ATOM     10  O   UNL A   1      30.073  23.609  27.306  1.00  0.00    -0.244 OA
BRANCH   9  11
ATOM     11  C   UNL A   1      31.915  24.721  26.256  1.00  0.00     0.174 A 
ATOM     12  N   UNL A   1      32.736  26.695  26.066  1.00  0.00    -0.237 N 
ATOM     13  N   UNL A   1      32.150  25.852  26.950  1.00  0.00    -0.160 NA
ATOM     14  C   UNL A   1      32.885  26.114  24.830  1.00  0.00     0.048 A 
ATOM     15  C   UNL A   1      32.515  24.796  24.975  1.00  0.00     0.009 A 
ATOM     16  C   UNL A   1      33.447  26.709  23.588  1.00  0.00     0.057 C 
ATOM     17  C   UNL A   1      32.673  23.765  23.912  1.00  0.00     0.043 C 
ATOM     18  C   UNL A   1      33.162  25.759  22.398  1.00  0.00     0.010 C 
ATOM     19  C   UNL A   1      33.522  24.292  22.733  1.00  0.00    -0.009 C 
ATOM     20  C   UNL A   1      33.349  23.368  21.531  1.00  0.00     0.008 C 
BRANCH  12  21
ATOM     21  C   UNL A   1      33.010  28.024  26.443  1.00  0.00     0.068 A 
ATOM     22  C   UNL A   1      35.935  30.164  27.647  1.00  0.00     0.044 C 
ATOM     23  C   UNL A   1      34.559  29.712  27.251  1.00  0.00    -0.046 A 
ATOM     24  C   UNL A   1      33.507  30.637  27.248  1.00  0.00     0.042 A 
ATOM     25  C   UNL A   1      34.295  28.381  26.885  1.00  0.00     0.032 A 
ATOM     26  C   UNL A   1      32.233  30.251  26.843  1.00  0.00     0.125 A 
ATOM     27  F   UNL A   1      31.233  31.142  26.875  1.00  0.00    -0.207 F 
ATOM     28  C   UNL A   1      31.974  28.958  26.414  1.00  0.00     0.067 A 
ENDBRANCH  12  21
ENDBRANCH   9  11
ENDBRANCH   8   9
ENDBRANCH   7   8
ENDBRANCH   6   7
ENDBRANCH   5   6
ENDBRANCH   4   5
ENDBRANCH   3   4
ENDBRANCH   2   3
ENDBRANCH   1   2
BRANCH   1  29
ATOM     29  C   UNL A   1      40.619  21.179  27.363  1.00  0.00     0.188 C 
BRANCH  29  30
ATOM     30  O   UNL A   1      42.016  21.016  27.171  1.00  0.00    -0.376 OA
BRANCH  30  31
ATOM     31  C   UNL A   1      42.596  20.720  25.914  1.00  0.00     0.202 C 
BRANCH  31  32
ATOM     32  C   UNL A   1      43.597  21.715  25.342  1.00  0.00     0.261 C 
BRANCH  32  33
ATOM     33  O   UNL A   1      42.979  22.809  24.699  1.00  0.00    -0.460 OA
BRANCH  33  34
ATOM     34  C   UNL A   1      43.422  24.012  25.094  1.00  0.00     0.338 C 
ATOM     35  O   UNL A   1      44.477  24.555  24.770  1.00  0.00    -0.246 OA
BRANCH  34  36
ATOM     36  C   UNL A   1      42.494  24.525  26.095  1.00  0.00     0.060 A 
ATOM     37  C   UNL A   1      41.665  25.563  25.671  1.00  0.00     0.016 A 
ATOM     38  C   UNL A   1      42.822  24.309  27.443  1.00  0.00     0.016 A 
ATOM     39  C   UNL A   1      41.451  26.588  26.553  1.00  0.00     0.010 A 
ATOM     40  C   UNL A   1      42.648  25.350  28.306  1.00  0.00     0.010 A 
ATOM     41  C   UNL A   1      42.064  26.510  27.806  1.00  0.00    -0.014 A 
BRANCH  41  42
ATOM     42  C   UNL A   1      42.050  27.682  28.638  1.00  0.00     0.031 A 
ATOM     43  C   UNL A   1      43.170  28.583  28.325  1.00  0.00     0.074 A 
ATOM     44  C   UNL A   1      41.043  27.934  29.490  1.00  0.00     0.049 A 
ATOM     45  N   UNL A   1      44.255  28.747  29.002  1.00  0.00    -0.248 NA
ATOM     46  C   UNL A   1      43.207  29.167  26.973  1.00  0.00     0.031 C 
ATOM     47  C   UNL A   1      39.762  27.239  29.630  1.00  0.00     0.029 A 
ATOM     48  N   UNL A   1      40.923  28.973  30.353  1.00  0.00    -0.354 N 
ATOM     49  C   UNL A   1      44.985  29.675  28.275  1.00  0.00     0.074 A 
ATOM     50  C   UNL A   1      44.442  29.664  26.945  1.00  0.00     0.031 C 
ATOM     51  C   UNL A   1      38.916  28.015  30.350  1.00  0.00     0.029 A 
ATOM     52  C   UNL A   1      39.631  29.193  30.810  1.00  0.00     0.049 A 
ATOM     53  H   UNL A   1      41.689  29.524  30.632  1.00  0.00     0.167 HD
ATOM     54  C   UNL A   1      45.747  30.610  28.902  1.00  0.00     0.037 A 
ATOM     55  C   UNL A   1      39.211  30.337  31.409  1.00  0.00     0.037 A 
ATOM     56  C   UNL A   1      45.995  30.245  30.276  1.00  0.00     0.049 A 
ATOM     57  C   UNL A   1      40.439  31.037  31.902  1.00  0.00     0.074 A 
ATOM     58  C   UNL A   1      46.551  29.137  30.889  1.00  0.00     0.029 A 
ATOM     59  N   UNL A   1      45.275  30.892  31.254  1.00  0.00    -0.354 N 
ATOM     60  N   UNL A   1      41.203  30.571  32.857  1.00  0.00    -0.248 NA
ATOM     61  C   UNL A   1      41.089  31.979  30.999  1.00  0.00     0.031 C 
ATOM     62  C   UNL A   1      45.752  28.915  32.049  1.00  0.00     0.029 A 
ATOM     63  C   UNL A   1      44.803  29.935  32.118  1.00  0.00     0.049 A 
ATOM     64  H   UNL A   1      45.126  31.864  31.321  1.00  0.00     0.167 HD
ATOM     65  C   UNL A   1      42.504  30.828  32.439  1.00  0.00     0.074 A 
ATOM     66  C   UNL A   1      42.367  31.755  31.318  1.00  0.00     0.031 C 
ATOM     67  C   UNL A   1      43.551  30.042  32.836  1.00  0.00     0.037 A 
BRANCH  54  68
ATOM     68  C   UNL A   1      45.918  32.015  28.383  1.00  0.00     0.058 A 
ATOM     69  C   UNL A   1      47.217  32.542  28.262  1.00  0.00     0.135 A 
ATOM     70  C   UNL A   1      44.866  32.951  28.244  1.00  0.00     0.135 A 
ATOM     71  F   UNL A   1      48.290  31.745  28.390  1.00  0.00    -0.206 F 
ATOM     72  C   UNL A   1      47.453  33.904  28.087  1.00  0.00     0.059 A 
ATOM     73  C   UNL A   1      45.076  34.300  28.003  1.00  0.00     0.059 A 
ATOM     74  F   UNL A   1      43.580  32.635  28.436  1.00  0.00    -0.206 F 
ATOM     75  C   UNL A   1      46.374  34.776  27.971  1.00  0.00     0.060 A 
BRANCH  75  76
ATOM     76  S   UNL A   1      46.666  36.545  27.855  1.00  0.00     0.124 S 
ATOM     77  O   UNL A   1      46.572  36.944  29.254  1.00  0.00    -0.237 OA
ATOM     78  O   UNL A   1      47.998  36.591  27.261  1.00  0.00    -0.237 OA
ATOM     79  O   UNL A   1      45.585  37.008  26.990  1.00  0.00    -0.744 OA
ENDBRANCH  75  76
ENDBRANCH  54  68
BRANCH  55  80
ATOM     80  C   UNL A   1      37.904  31.028  31.221  1.00  0.00     0.058 A 
ATOM     81  C   UNL A   1      36.874  30.905  32.171  1.00  0.00     0.135 A 
ATOM     82  C   UNL A   1      37.726  32.034  30.248  1.00  0.00     0.135 A 
ATOM     83  F   UNL A   1      36.964  29.990  33.148  1.00  0.00    -0.206 F 
ATOM     84  C   UNL A   1      35.762  31.759  32.187  1.00  0.00     0.059 A 
ATOM     85  C   UNL A   1      36.622  32.885  30.234  1.00  0.00     0.059 A 
ATOM     86  F   UNL A   1      38.666  32.290  29.327  1.00  0.00    -0.206 F 
ATOM     87  C   UNL A   1      35.656  32.762  31.223  1.00  0.00     0.060 A 
BRANCH  87  88
ATOM     88  S   UNL A   1      34.327  33.982  31.339  1.00  0.00     0.124 S 
ATOM     89  O   UNL A   1      33.580  33.504  32.498  1.00  0.00    -0.237 OA
ATOM     90  O   UNL A   1      35.065  35.226  31.524  1.00  0.00    -0.237 OA
ATOM     91  O   UNL A   1      33.637  33.854  30.058  1.00  0.00    -0.744 OA
ENDBRANCH  87  88
ENDBRANCH  55  80
BRANCH  67  92
ATOM     92  C   UNL A   1      43.326  29.045  33.947  1.00  0.00     0.058 A 
ATOM     93  C   UNL A   1      43.425  29.345  35.317  1.00  0.00     0.135 A 
ATOM     94  C   UNL A   1      42.816  27.782  33.607  1.00  0.00     0.135 A 
ATOM     95  F   UNL A   1      43.793  30.566  35.729  1.00  0.00    -0.206 F 
ATOM     96  C   UNL A   1      43.074  28.419  36.303  1.00  0.00     0.059 A 
ATOM     97  C   UNL A   1      42.430  26.855  34.570  1.00  0.00     0.059 A 
ATOM     98  F   UNL A   1      42.634  27.456  32.316  1.00  0.00    -0.206 F 
ATOM     99  C   UNL A   1      42.573  27.175  35.918  1.00  0.00     0.060 A 
BRANCH  99 100
ATOM    100  S   UNL A   1      42.045  26.007  37.190  1.00  0.00     0.124 S 
ATOM    101  O   UNL A   1      42.314  24.722  36.556  1.00  0.00    -0.237 OA
ATOM    102  O   UNL A   1      42.909  26.351  38.316  1.00  0.00    -0.237 OA
ATOM    103  O   UNL A   1      40.633  26.326  37.382  1.00  0.00    -0.744 OA
ENDBRANCH  99 100
ENDBRANCH  67  92
ENDBRANCH  41  42
ENDBRANCH  34  36
ENDBRANCH  33  34
ENDBRANCH  32  33
ENDBRANCH  31  32
ENDBRANCH  30  31
ENDBRANCH  29  30
ENDBRANCH   1  29
TORSDOF 24
ENDMDL
