MODEL 1
REMARK VINA RESULT:      -8.7      0.000      0.000
REMARK SMILES CC(=O)N[C@@H](C(=O)N(CC(=O)OCCOCCOCCOCCOC(=O)c1ccc(-c2c3nc(c(-c4c(F)cc(S(=O)(=O)[O-])cc4F)c4ccc([nH]4)c(-c4c(F)cc(S(=O)(=O)[O-])cc4F)c4nc(c(-c5c(F)cc(S(=O)(=O)[O-])cc5F)c5ccc2[nH]5)C=C4)C=C3)cc1)C(C)(C)C)C(C)C
REMARK SMILES IDX 17 1 16 2 15 3 14 4 13 5 12 6 10 7 11 8 9 9 8 10 6 11 7 12
REMARK SMILES IDX 5 13 4 14 1 15 2 16 3 17 97 19 98 20 99 21 93 22 94 23 95 24
REMARK SMILES IDX 96 25 18 26 19 27 20 28 21 29 22 30 23 31 24 32 25 33 26 34
REMARK SMILES IDX 27 35 28 36 92 37 29 38 91 39 30 40 31 41 32 42 85 43 33 44
REMARK SMILES IDX 90 45 84 46 86 47 34 48 89 49 83 50 82 51 35 53 69 54 48 55
REMARK SMILES IDX 68 56 49 57 52 58 67 59 87 60 50 61 51 62 66 64 88 65 53 66
REMARK SMILES IDX 36 67 37 68 46 69 38 70 39 71 45 72 47 73 40 74 41 75 42 76
REMARK SMILES IDX 43 77 44 78 70 79 71 80 80 81 72 82 73 83 79 84 81 85 74 86
REMARK SMILES IDX 75 87 76 88 77 89 78 90 54 91 55 92 64 93 56 94 57 95 63 96
REMARK SMILES IDX 65 97 58 98 59 99 60 100 61 101 62 102
REMARK H PARENT 4 18 86 52 52 63
REMARK Flexibility Score: inf
ROOT
ATOM      1  C   UNL A   1      37.810  22.530  25.633  1.00  0.00     0.188 C 
ENDROOT
BRANCH   1   2
ATOM      2  C   UNL A   1      36.421  21.923  25.897  1.00  0.00     0.188 C 
BRANCH   2   3
ATOM      3  O   UNL A   1      36.001  20.749  25.210  1.00  0.00    -0.376 OA
BRANCH   3   4
ATOM      4  C   UNL A   1      34.652  20.646  24.775  1.00  0.00     0.202 C 
BRANCH   4   5
ATOM      5  C   UNL A   1      33.913  21.955  24.428  1.00  0.00     0.261 C 
BRANCH   5   6
ATOM      6  O   UNL A   1      34.124  22.484  23.093  1.00  0.00    -0.462 OA
BRANCH   6   7
ATOM      7  C   UNL A   1      33.233  23.400  22.639  1.00  0.00     0.325 C 
ATOM      8  O   UNL A   1      33.421  24.116  21.658  1.00  0.00    -0.250 OA
BRANCH   7   9
ATOM      9  C   UNL A   1      31.878  23.480  23.410  1.00  0.00     0.242 C 
BRANCH   9  10
ATOM     10  N   UNL A   1      31.436  24.531  24.374  1.00  0.00    -0.325 N 
BRANCH  10  11
ATOM     11  C   UNL A   1      31.062  25.820  23.941  1.00  0.00     0.246 C 
ATOM     12  O   UNL A   1      29.971  26.014  23.399  1.00  0.00    -0.272 OA
BRANCH  11  13
ATOM     13  C   UNL A   1      32.062  27.007  24.082  1.00  0.00     0.174 C 
BRANCH  13  14
ATOM     14  N   UNL A   1      31.539  27.897  25.115  1.00  0.00    -0.344 N 
ATOM     15  C   UNL A   1      33.611  28.091  26.446  1.00  0.00     0.114 C 
ATOM     16  C   UNL A   1      32.168  28.432  26.199  1.00  0.00     0.217 C 
ATOM     17  O   UNL A   1      31.534  29.142  26.975  1.00  0.00    -0.275 OA
ATOM     18  H   UNL A   1      30.592  28.148  25.014  1.00  0.00     0.164 HD
ENDBRANCH  13  14
BRANCH  13  19
ATOM     19  C   UNL A   1      32.228  27.746  22.717  1.00  0.00     0.015 C 
ATOM     20  C   UNL A   1      31.381  29.018  22.619  1.00  0.00     0.010 C 
ATOM     21  C   UNL A   1      33.696  28.128  22.456  1.00  0.00     0.010 C 
ENDBRANCH  13  19
ENDBRANCH  11  13
ENDBRANCH  10  11
BRANCH  10  22
ATOM     22  C   UNL A   1      31.142  24.194  25.832  1.00  0.00     0.035 C 
ATOM     23  C   UNL A   1      32.360  24.489  26.748  1.00  0.00     0.034 C 
ATOM     24  C   UNL A   1      29.957  25.060  26.343  1.00  0.00     0.034 C 
ATOM     25  C   UNL A   1      30.675  22.738  26.082  1.00  0.00     0.034 C 
ENDBRANCH  10  22
ENDBRANCH   9  10
ENDBRANCH   7   9
ENDBRANCH   6   7
ENDBRANCH   5   6
ENDBRANCH   4   5
ENDBRANCH   3   4
ENDBRANCH   2   3
ENDBRANCH   1   2
BRANCH   1  26
ATOM     26  O   UNL A   1      38.843  21.925  26.378  1.00  0.00    -0.377 OA
BRANCH  26  27
ATOM     27  C   UNL A   1      39.983  22.729  26.594  1.00  0.00     0.188 C 
BRANCH  27  28
ATOM     28  C   UNL A   1      40.983  22.143  27.606  1.00  0.00     0.188 C 
BRANCH  28  29
ATOM     29  O   UNL A   1      42.266  21.930  27.037  1.00  0.00    -0.376 OA
BRANCH  29  30
ATOM     30  C   UNL A   1      42.537  22.200  25.677  1.00  0.00     0.202 C 
BRANCH  30  31
ATOM     31  C   UNL A   1      43.136  23.522  25.157  1.00  0.00     0.261 C 
BRANCH  31  32
ATOM     32  O   UNL A   1      42.639  24.746  25.693  1.00  0.00    -0.460 OA
BRANCH  32  33
ATOM     33  C   UNL A   1      43.562  25.651  26.086  1.00  0.00     0.338 C 
ATOM     34  O   UNL A   1      44.611  25.911  25.516  1.00  0.00    -0.246 OA
BRANCH  33  35
ATOM     35  C   UNL A   1      43.004  26.438  27.205  1.00  0.00     0.060 A 
ATOM     36  C   UNL A   1      43.484  27.740  27.395  1.00  0.00     0.016 A 
ATOM     37  C   UNL A   1      42.017  25.919  28.047  1.00  0.00     0.016 A 
ATOM     38  C   UNL A   1      42.984  28.529  28.429  1.00  0.00     0.010 A 
ATOM     39  C   UNL A   1      41.550  26.695  29.115  1.00  0.00     0.010 A 
ATOM     40  C   UNL A   1      42.050  27.995  29.323  1.00  0.00    -0.014 A 
BRANCH  40  41
ATOM     41  C   UNL A   1      41.760  28.726  30.578  1.00  0.00     0.031 A 
ATOM     42  C   UNL A   1      40.585  29.665  30.595  1.00  0.00     0.074 A 
ATOM     43  C   UNL A   1      42.496  28.532  31.688  1.00  0.00     0.049 A 
ATOM     44  N   UNL A   1      40.153  30.436  31.557  1.00  0.00    -0.248 NA
ATOM     45  C   UNL A   1      39.788  29.740  29.359  1.00  0.00     0.031 C 
ATOM     46  C   UNL A   1      43.625  27.610  31.804  1.00  0.00     0.029 A 
ATOM     47  N   UNL A   1      42.407  29.113  32.929  1.00  0.00    -0.354 N 
ATOM     48  C   UNL A   1      39.044  31.097  31.040  1.00  0.00     0.074 A 
ATOM     49  C   UNL A   1      38.876  30.647  29.677  1.00  0.00     0.031 C 
ATOM     50  C   UNL A   1      44.143  27.710  33.041  1.00  0.00     0.029 A 
ATOM     51  C   UNL A   1      43.404  28.724  33.793  1.00  0.00     0.049 A 
ATOM     52  H   UNL A   1      41.697  29.749  33.177  1.00  0.00     0.167 HD
ATOM     53  C   UNL A   1      38.242  31.998  31.652  1.00  0.00     0.037 A 
ATOM     54  C   UNL A   1      43.702  29.163  35.032  1.00  0.00     0.037 A 
ATOM     55  C   UNL A   1      38.418  32.437  33.010  1.00  0.00     0.049 A 
ATOM     56  C   UNL A   1      42.829  30.220  35.668  1.00  0.00     0.074 A 
ATOM     57  C   UNL A   1      37.636  33.323  33.732  1.00  0.00     0.029 A 
ATOM     58  N   UNL A   1      39.450  32.040  33.846  1.00  0.00    -0.354 N 
ATOM     59  N   UNL A   1      41.759  30.808  35.185  1.00  0.00    -0.248 NA
ATOM     60  C   UNL A   1      43.204  30.675  37.014  1.00  0.00     0.031 C 
ATOM     61  C   UNL A   1      38.234  33.512  34.981  1.00  0.00     0.029 A 
ATOM     62  C   UNL A   1      39.350  32.693  35.063  1.00  0.00     0.049 A 
ATOM     63  H   UNL A   1      40.151  31.391  33.608  1.00  0.00     0.167 HD
ATOM     64  C   UNL A   1      41.319  31.678  36.179  1.00  0.00     0.074 A 
ATOM     65  C   UNL A   1      42.229  31.529  37.295  1.00  0.00     0.031 C 
ATOM     66  C   UNL A   1      40.259  32.526  36.170  1.00  0.00     0.037 A 
BRANCH  53  67
ATOM     67  C   UNL A   1      37.122  32.602  30.852  1.00  0.00     0.058 A 
ATOM     68  C   UNL A   1      35.823  32.071  30.870  1.00  0.00     0.135 A 
ATOM     69  C   UNL A   1      37.342  33.772  30.108  1.00  0.00     0.135 A 
ATOM     70  F   UNL A   1      35.563  30.941  31.546  1.00  0.00    -0.206 F 
ATOM     71  C   UNL A   1      34.782  32.678  30.175  1.00  0.00     0.059 A 
ATOM     72  C   UNL A   1      36.311  34.410  29.426  1.00  0.00     0.059 A 
ATOM     73  F   UNL A   1      38.569  34.314  30.048  1.00  0.00    -0.206 F 
ATOM     74  C   UNL A   1      35.035  33.852  29.463  1.00  0.00     0.060 A 
BRANCH  74  75
ATOM     75  S   UNL A   1      33.663  34.650  28.603  1.00  0.00     0.124 S 
ATOM     76  O   UNL A   1      34.317  35.828  28.040  1.00  0.00    -0.237 OA
ATOM     77  O   UNL A   1      33.261  33.628  27.643  1.00  0.00    -0.237 OA
ATOM     78  O   UNL A   1      32.702  34.919  29.669  1.00  0.00    -0.744 OA
ENDBRANCH  74  75
ENDBRANCH  53  67
BRANCH  54  79
ATOM     79  C   UNL A   1      44.904  28.646  35.744  1.00  0.00     0.058 A 
ATOM     80  C   UNL A   1      46.162  29.249  35.594  1.00  0.00     0.135 A 
ATOM     81  C   UNL A   1      44.821  27.510  36.566  1.00  0.00     0.135 A 
ATOM     82  F   UNL A   1      46.299  30.328  34.809  1.00  0.00    -0.206 F 
ATOM     83  C   UNL A   1      47.298  28.729  36.207  1.00  0.00     0.059 A 
ATOM     84  C   UNL A   1      45.937  26.991  37.215  1.00  0.00     0.059 A 
ATOM     85  F   UNL A   1      43.641  26.897  36.751  1.00  0.00    -0.206 F 
ATOM     86  C   UNL A   1      47.175  27.597  37.016  1.00  0.00     0.060 A 
BRANCH  86  87
ATOM     87  S   UNL A   1      48.653  26.938  37.817  1.00  0.00     0.124 S 
ATOM     88  O   UNL A   1      49.116  28.093  38.576  1.00  0.00    -0.237 OA
ATOM     89  O   UNL A   1      48.109  25.834  38.603  1.00  0.00    -0.237 OA
ATOM     90  O   UNL A   1      49.497  26.543  36.693  1.00  0.00    -0.744 OA
ENDBRANCH  86  87
ENDBRANCH  54  79
BRANCH  66  91
ATOM     91  C   UNL A   1      39.998  33.335  37.412  1.00  0.00     0.058 A 
ATOM     92  C   UNL A   1      40.733  34.491  37.711  1.00  0.00     0.135 A 
ATOM     93  C   UNL A   1      38.947  32.984  38.278  1.00  0.00     0.135 A 
ATOM     94  F   UNL A   1      41.748  34.870  36.919  1.00  0.00    -0.206 F 
ATOM     95  C   UNL A   1      40.453  35.260  38.836  1.00  0.00     0.059 A 
ATOM     96  C   UNL A   1      38.629  33.756  39.392  1.00  0.00     0.059 A 
ATOM     97  F   UNL A   1      38.203  31.894  38.033  1.00  0.00    -0.206 F 
ATOM     98  C   UNL A   1      39.395  34.886  39.668  1.00  0.00     0.060 A 
BRANCH  98  99
ATOM     99  S   UNL A   1      39.018  35.916  41.102  1.00  0.00     0.124 S 
ATOM    100  O   UNL A   1      38.406  37.083  40.474  1.00  0.00    -0.237 OA
ATOM    101  O   UNL A   1      38.117  35.064  41.871  1.00  0.00    -0.237 OA
ATOM    102  O   UNL A   1      40.325  36.146  41.710  1.00  0.00    -0.744 OA
ENDBRANCH  98  99
ENDBRANCH  66  91
ENDBRANCH  40  41
ENDBRANCH  33  35
ENDBRANCH  32  33
ENDBRANCH  31  32
ENDBRANCH  30  31
ENDBRANCH  29  30
ENDBRANCH  28  29
ENDBRANCH  27  28
ENDBRANCH  26  27
ENDBRANCH   1  26
TORSDOF 29
ENDMDL
MODEL 2
REMARK VINA RESULT:      -8.1      3.636      4.665
REMARK SMILES CC(=O)N[C@@H](C(=O)N(CC(=O)OCCOCCOCCOCCOC(=O)c1ccc(-c2c3nc(c(-c4c(F)cc(S(=O)(=O)[O-])cc4F)c4ccc([nH]4)c(-c4c(F)cc(S(=O)(=O)[O-])cc4F)c4nc(c(-c5c(F)cc(S(=O)(=O)[O-])cc5F)c5ccc2[nH]5)C=C4)C=C3)cc1)C(C)(C)C)C(C)C
REMARK SMILES IDX 17 1 16 2 15 3 14 4 13 5 12 6 10 7 11 8 9 9 8 10 6 11 7 12
REMARK SMILES IDX 5 13 4 14 1 15 2 16 3 17 97 19 98 20 99 21 93 22 94 23 95 24
REMARK SMILES IDX 96 25 18 26 19 27 20 28 21 29 22 30 23 31 24 32 25 33 26 34
REMARK SMILES IDX 27 35 28 36 92 37 29 38 91 39 30 40 31 41 32 42 85 43 33 44
REMARK SMILES IDX 90 45 84 46 86 47 34 48 89 49 83 50 82 51 35 53 69 54 48 55
REMARK SMILES IDX 68 56 49 57 52 58 67 59 87 60 50 61 51 62 66 64 88 65 53 66
REMARK SMILES IDX 36 67 37 68 46 69 38 70 39 71 45 72 47 73 40 74 41 75 42 76
REMARK SMILES IDX 43 77 44 78 70 79 71 80 80 81 72 82 73 83 79 84 81 85 74 86
REMARK SMILES IDX 75 87 76 88 77 89 78 90 54 91 55 92 64 93 56 94 57 95 63 96
REMARK SMILES IDX 65 97 58 98 59 99 60 100 61 101 62 102
REMARK H PARENT 4 18 86 52 52 63
REMARK Flexibility Score: inf
ROOT
ATOM      1  C   UNL A   1      32.552  22.116  25.695  1.00  0.00     0.188 C 
ENDROOT
BRANCH   1   2
ATOM      2  C   UNL A   1      31.777  21.706  24.431  1.00  0.00     0.188 C 
BRANCH   2   3
ATOM      3  O   UNL A   1      32.464  21.442  23.212  1.00  0.00    -0.376 OA
BRANCH   3   4
ATOM      4  C   UNL A   1      32.916  22.531  22.420  1.00  0.00     0.202 C 
BRANCH   4   5
ATOM      5  C   UNL A   1      33.320  23.826  23.155  1.00  0.00     0.261 C 
BRANCH   5   6
ATOM      6  O   UNL A   1      33.960  24.854  22.353  1.00  0.00    -0.462 OA
BRANCH   6   7
ATOM      7  C   UNL A   1      33.161  25.800  21.801  1.00  0.00     0.325 C 
ATOM      8  O   UNL A   1      33.340  26.288  20.687  1.00  0.00    -0.250 OA
BRANCH   7   9
ATOM      9  C   UNL A   1      31.922  26.231  22.647  1.00  0.00     0.242 C 
BRANCH   9  10
ATOM     10  N   UNL A   1      31.783  27.436  23.516  1.00  0.00    -0.325 N 
BRANCH  10  11
ATOM     11  C   UNL A   1      32.870  27.942  24.256  1.00  0.00     0.246 C 
ATOM     12  O   UNL A   1      33.899  28.323  23.691  1.00  0.00    -0.272 OA
BRANCH  11  13
ATOM     13  C   UNL A   1      32.809  27.961  25.814  1.00  0.00     0.174 C 
BRANCH  13  14
ATOM     14  N   UNL A   1      33.909  28.798  26.284  1.00  0.00    -0.344 N 
ATOM     15  C   UNL A   1      32.538  30.604  27.266  1.00  0.00     0.114 C 
ATOM     16  C   UNL A   1      33.873  29.988  26.947  1.00  0.00     0.217 C 
ATOM     17  O   UNL A   1      34.925  30.554  27.229  1.00  0.00    -0.275 OA
ATOM     18  H   UNL A   1      34.812  28.452  26.093  1.00  0.00     0.164 HD
ENDBRANCH  13  14
BRANCH  13  19
ATOM     19  C   UNL A   1      32.907  26.511  26.382  1.00  0.00     0.015 C 
ATOM     20  C   UNL A   1      31.610  25.713  26.212  1.00  0.00     0.010 C 
ATOM     21  C   UNL A   1      34.045  25.718  25.717  1.00  0.00     0.010 C 
ENDBRANCH  13  19
ENDBRANCH  11  13
ENDBRANCH  10  11
BRANCH  10  22
ATOM     22  C   UNL A   1      30.534  28.311  23.463  1.00  0.00     0.035 C 
ATOM     23  C   UNL A   1      30.710  29.616  24.284  1.00  0.00     0.034 C 
ATOM     24  C   UNL A   1      30.244  28.723  21.993  1.00  0.00     0.034 C 
ATOM     25  C   UNL A   1      29.229  27.611  23.919  1.00  0.00     0.034 C 
ENDBRANCH  10  22
ENDBRANCH   9  10
ENDBRANCH   7   9
ENDBRANCH   6   7
ENDBRANCH   5   6
ENDBRANCH   4   5
ENDBRANCH   3   4
ENDBRANCH   2   3
ENDBRANCH   1   2
BRANCH   1  26
ATOM     26  O   UNL A   1      33.266  21.055  26.289  1.00  0.00    -0.377 OA
BRANCH  26  27
ATOM     27  C   UNL A   1      34.671  21.185  26.270  1.00  0.00     0.188 C 
BRANCH  27  28
ATOM     28  C   UNL A   1      35.347  20.526  25.055  1.00  0.00     0.188 C 
BRANCH  28  29
ATOM     29  O   UNL A   1      36.081  21.456  24.274  1.00  0.00    -0.376 OA
BRANCH  29  30
ATOM     30  C   UNL A   1      37.484  21.581  24.378  1.00  0.00     0.202 C 
BRANCH  30  31
ATOM     31  C   UNL A   1      38.262  21.549  25.708  1.00  0.00     0.261 C 
BRANCH  31  32
ATOM     32  O   UNL A   1      38.993  22.711  26.090  1.00  0.00    -0.460 OA
BRANCH  32  33
ATOM     33  C   UNL A   1      38.295  23.867  26.159  1.00  0.00     0.338 C 
ATOM     34  O   UNL A   1      37.135  24.034  25.815  1.00  0.00    -0.246 OA
BRANCH  33  35
ATOM     35  C   UNL A   1      39.090  24.853  26.919  1.00  0.00     0.060 A 
ATOM     36  C   UNL A   1      38.857  24.965  28.295  1.00  0.00     0.016 A 
ATOM     37  C   UNL A   1      40.060  25.648  26.300  1.00  0.00     0.016 A 
ATOM     38  C   UNL A   1      39.586  25.873  29.060  1.00  0.00     0.010 A 
ATOM     39  C   UNL A   1      40.758  26.593  27.061  1.00  0.00     0.010 A 
ATOM     40  C   UNL A   1      40.506  26.724  28.440  1.00  0.00    -0.014 A 
BRANCH  40  41
ATOM     41  C   UNL A   1      41.043  27.876  29.202  1.00  0.00     0.031 A 
ATOM     42  C   UNL A   1      40.135  29.050  29.444  1.00  0.00     0.074 A 
ATOM     43  C   UNL A   1      42.292  27.864  29.702  1.00  0.00     0.049 A 
ATOM     44  N   UNL A   1      40.382  30.180  30.051  1.00  0.00    -0.248 NA
ATOM     45  C   UNL A   1      38.758  28.928  28.935  1.00  0.00     0.031 C 
ATOM     46  C   UNL A   1      43.245  26.762  29.575  1.00  0.00     0.029 A 
ATOM     47  N   UNL A   1      42.978  28.820  30.411  1.00  0.00    -0.354 N 
ATOM     48  C   UNL A   1      39.200  30.909  29.986  1.00  0.00     0.074 A 
ATOM     49  C   UNL A   1      38.239  30.101  29.270  1.00  0.00     0.031 C 
ATOM     50  C   UNL A   1      44.402  27.117  30.160  1.00  0.00     0.029 A 
ATOM     51  C   UNL A   1      44.284  28.481  30.675  1.00  0.00     0.049 A 
ATOM     52  H   UNL A   1      42.572  29.669  30.702  1.00  0.00     0.167 HD
ATOM     53  C   UNL A   1      38.945  32.142  30.479  1.00  0.00     0.037 A 
ATOM     54  C   UNL A   1      45.275  29.203  31.235  1.00  0.00     0.037 A 
ATOM     55  C   UNL A   1      39.909  32.937  31.192  1.00  0.00     0.049 A 
ATOM     56  C   UNL A   1      44.981  30.604  31.718  1.00  0.00     0.074 A 
ATOM     57  C   UNL A   1      39.736  34.186  31.761  1.00  0.00     0.029 A 
ATOM     58  N   UNL A   1      41.227  32.571  31.420  1.00  0.00    -0.354 N 
ATOM     59  N   UNL A   1      43.848  31.268  31.687  1.00  0.00    -0.248 NA
ATOM     60  C   UNL A   1      46.098  31.356  32.309  1.00  0.00     0.031 C 
ATOM     61  C   UNL A   1      40.967  34.604  32.275  1.00  0.00     0.029 A 
ATOM     62  C   UNL A   1      41.890  33.587  32.086  1.00  0.00     0.049 A 
ATOM     63  H   UNL A   1      41.631  31.715  31.147  1.00  0.00     0.167 HD
ATOM     64  C   UNL A   1      44.111  32.501  32.280  1.00  0.00     0.074 A 
ATOM     65  C   UNL A   1      45.504  32.485  32.673  1.00  0.00     0.031 C 
ATOM     66  C   UNL A   1      43.277  33.552  32.480  1.00  0.00     0.037 A 
BRANCH  53  67
ATOM     67  C   UNL A   1      37.584  32.730  30.237  1.00  0.00     0.058 A 
ATOM     68  C   UNL A   1      36.500  32.479  31.093  1.00  0.00     0.135 A 
ATOM     69  C   UNL A   1      37.381  33.614  29.164  1.00  0.00     0.135 A 
ATOM     70  F   UNL A   1      36.632  31.623  32.118  1.00  0.00    -0.206 F 
ATOM     71  C   UNL A   1      35.262  33.081  30.891  1.00  0.00     0.059 A 
ATOM     72  C   UNL A   1      36.160  34.247  28.959  1.00  0.00     0.059 A 
ATOM     73  F   UNL A   1      38.382  33.879  28.310  1.00  0.00    -0.206 F 
ATOM     74  C   UNL A   1      35.105  33.970  29.826  1.00  0.00     0.060 A 
BRANCH  74  75
ATOM     75  S   UNL A   1      33.505  34.776  29.606  1.00  0.00     0.124 S 
ATOM     76  O   UNL A   1      33.898  36.046  29.003  1.00  0.00    -0.237 OA
ATOM     77  O   UNL A   1      32.806  33.845  28.727  1.00  0.00    -0.237 OA
ATOM     78  O   UNL A   1      32.978  34.866  30.965  1.00  0.00    -0.744 OA
ENDBRANCH  74  75
ENDBRANCH  53  67
BRANCH  54  79
ATOM     79  C   UNL A   1      46.652  28.643  31.333  1.00  0.00     0.058 A 
ATOM     80  C   UNL A   1      47.576  28.782  30.287  1.00  0.00     0.135 A 
ATOM     81  C   UNL A   1      47.057  27.922  32.468  1.00  0.00     0.135 A 
ATOM     82  F   UNL A   1      47.235  29.449  29.174  1.00  0.00    -0.206 F 
ATOM     83  C   UNL A   1      48.841  28.203  30.350  1.00  0.00     0.059 A 
ATOM     84  C   UNL A   1      48.327  27.362  32.567  1.00  0.00     0.059 A 
ATOM     85  F   UNL A   1      46.215  27.763  33.501  1.00  0.00    -0.206 F 
ATOM     86  C   UNL A   1      49.207  27.493  31.495  1.00  0.00     0.060 A 
BRANCH  86  87
ATOM     87  S   UNL A   1      50.854  26.758  31.572  1.00  0.00     0.124 S 
ATOM     88  O   UNL A   1      51.540  27.668  32.481  1.00  0.00    -0.237 OA
ATOM     89  O   UNL A   1      50.570  25.425  32.097  1.00  0.00    -0.237 OA
ATOM     90  O   UNL A   1      51.304  26.796  30.183  1.00  0.00    -0.744 OA
ENDBRANCH  86  87
ENDBRANCH  54  79
BRANCH  66  91
ATOM     91  C   UNL A   1      43.830  34.762  33.185  1.00  0.00     0.058 A 
ATOM     92  C   UNL A   1      44.423  35.822  32.482  1.00  0.00     0.135 A 
ATOM     93  C   UNL A   1      43.701  34.891  34.579  1.00  0.00     0.135 A 
ATOM     94  F   UNL A   1      44.574  35.749  31.151  1.00  0.00    -0.206 F 
ATOM     95  C   UNL A   1      44.888  36.957  33.137  1.00  0.00     0.059 A 
ATOM     96  C   UNL A   1      44.130  36.032  35.250  1.00  0.00     0.059 A 
ATOM     97  F   UNL A   1      43.130  33.913  35.299  1.00  0.00    -0.206 F 
ATOM     98  C   UNL A   1      44.732  37.056  34.522  1.00  0.00     0.060 A 
BRANCH  98  99
ATOM     99  S   UNL A   1      45.304  38.553  35.352  1.00  0.00     0.124 S 
ATOM    100  O   UNL A   1      44.047  39.256  35.592  1.00  0.00    -0.237 OA
ATOM    101  O   UNL A   1      45.968  38.019  36.537  1.00  0.00    -0.237 OA
ATOM    102  O   UNL A   1      46.189  39.171  34.369  1.00  0.00    -0.744 OA
ENDBRANCH  98  99
ENDBRANCH  66  91
ENDBRANCH  40  41
ENDBRANCH  33  35
ENDBRANCH  32  33
ENDBRANCH  31  32
ENDBRANCH  30  31
ENDBRANCH  29  30
ENDBRANCH  28  29
ENDBRANCH  27  28
ENDBRANCH  26  27
ENDBRANCH   1  26
TORSDOF 29
ENDMDL
MODEL 3
REMARK VINA RESULT:      -8.0      3.035      4.279
REMARK SMILES CC(=O)N[C@@H](C(=O)N(CC(=O)OCCOCCOCCOCCOC(=O)c1ccc(-c2c3nc(c(-c4c(F)cc(S(=O)(=O)[O-])cc4F)c4ccc([nH]4)c(-c4c(F)cc(S(=O)(=O)[O-])cc4F)c4nc(c(-c5c(F)cc(S(=O)(=O)[O-])cc5F)c5ccc2[nH]5)C=C4)C=C3)cc1)C(C)(C)C)C(C)C
REMARK SMILES IDX 17 1 16 2 15 3 14 4 13 5 12 6 10 7 11 8 9 9 8 10 6 11 7 12
REMARK SMILES IDX 5 13 4 14 1 15 2 16 3 17 97 19 98 20 99 21 93 22 94 23 95 24
REMARK SMILES IDX 96 25 18 26 19 27 20 28 21 29 22 30 23 31 24 32 25 33 26 34
REMARK SMILES IDX 27 35 28 36 92 37 29 38 91 39 30 40 31 41 32 42 85 43 33 44
REMARK SMILES IDX 90 45 84 46 86 47 34 48 89 49 83 50 82 51 35 53 69 54 48 55
REMARK SMILES IDX 68 56 49 57 52 58 67 59 87 60 50 61 51 62 66 64 88 65 53 66
REMARK SMILES IDX 36 67 37 68 46 69 38 70 39 71 45 72 47 73 40 74 41 75 42 76
REMARK SMILES IDX 43 77 44 78 70 79 71 80 80 81 72 82 73 83 79 84 81 85 74 86
REMARK SMILES IDX 75 87 76 88 77 89 78 90 54 91 55 92 64 93 56 94 57 95 63 96
REMARK SMILES IDX 65 97 58 98 59 99 60 100 61 101 62 102
REMARK H PARENT 4 18 86 52 52 63
REMARK Flexibility Score: inf
ROOT
ATOM      1  C   UNL A   1      32.540  22.190  25.806  1.00  0.00     0.188 C 
ENDROOT
BRANCH   1   2
ATOM      2  C   UNL A   1      31.779  21.837  24.518  1.00  0.00     0.188 C 
BRANCH   2   3
ATOM      3  O   UNL A   1      32.481  21.600  23.302  1.00  0.00    -0.376 OA
BRANCH   3   4
ATOM      4  C   UNL A   1      32.982  22.706  22.564  1.00  0.00     0.202 C 
BRANCH   4   5
ATOM      5  C   UNL A   1      33.626  23.860  23.359  1.00  0.00     0.261 C 
BRANCH   5   6
ATOM      6  O   UNL A   1      34.270  24.904  22.581  1.00  0.00    -0.462 OA
BRANCH   6   7
ATOM      7  C   UNL A   1      33.602  26.076  22.440  1.00  0.00     0.325 C 
ATOM      8  O   UNL A   1      33.583  26.736  21.403  1.00  0.00    -0.250 OA
BRANCH   7   9
ATOM      9  C   UNL A   1      32.780  26.551  23.678  1.00  0.00     0.242 C 
BRANCH   9  10
ATOM     10  N   UNL A   1      31.386  27.085  23.700  1.00  0.00    -0.325 N 
BRANCH  10  11
ATOM     11  C   UNL A   1      31.078  28.366  23.200  1.00  0.00     0.246 C 
ATOM     12  O   UNL A   1      31.320  28.664  22.026  1.00  0.00    -0.272 OA
BRANCH  11  13
ATOM     13  C   UNL A   1      30.488  29.451  24.151  1.00  0.00     0.174 C 
BRANCH  13  14
ATOM     14  N   UNL A   1      30.048  30.568  23.319  1.00  0.00    -0.344 N 
ATOM     15  C   UNL A   1      27.633  30.400  23.812  1.00  0.00     0.114 C 
ATOM     16  C   UNL A   1      28.794  31.061  23.121  1.00  0.00     0.217 C 
ATOM     17  O   UNL A   1      28.630  32.001  22.347  1.00  0.00    -0.275 OA
ATOM     18  H   UNL A   1      30.765  31.035  22.830  1.00  0.00     0.164 HD
ENDBRANCH  13  14
BRANCH  13  19
ATOM     19  C   UNL A   1      31.555  29.898  25.198  1.00  0.00     0.015 C 
ATOM     20  C   UNL A   1      31.197  31.216  25.891  1.00  0.00     0.010 C 
ATOM     21  C   UNL A   1      31.765  28.829  26.285  1.00  0.00     0.010 C 
ENDBRANCH  13  19
ENDBRANCH  11  13
ENDBRANCH  10  11
BRANCH  10  22
ATOM     22  C   UNL A   1      30.200  26.188  24.041  1.00  0.00     0.035 C 
ATOM     23  C   UNL A   1      30.057  25.981  25.572  1.00  0.00     0.034 C 
ATOM     24  C   UNL A   1      28.884  26.842  23.536  1.00  0.00     0.034 C 
ATOM     25  C   UNL A   1      30.215  24.800  23.352  1.00  0.00     0.034 C 
ENDBRANCH  10  22
ENDBRANCH   9  10
ENDBRANCH   7   9
ENDBRANCH   6   7
ENDBRANCH   5   6
ENDBRANCH   4   5
ENDBRANCH   3   4
ENDBRANCH   2   3
ENDBRANCH   1   2
BRANCH   1  26
ATOM     26  O   UNL A   1      33.236  21.100  26.369  1.00  0.00    -0.377 OA
BRANCH  26  27
ATOM     27  C   UNL A   1      34.643  21.218  26.374  1.00  0.00     0.188 C 
BRANCH  27  28
ATOM     28  C   UNL A   1      35.335  20.559  25.169  1.00  0.00     0.188 C 
BRANCH  28  29
ATOM     29  O   UNL A   1      36.029  21.499  24.362  1.00  0.00    -0.376 OA
BRANCH  29  30
ATOM     30  C   UNL A   1      37.427  21.675  24.452  1.00  0.00     0.202 C 
BRANCH  30  31
ATOM     31  C   UNL A   1      38.211  21.745  25.778  1.00  0.00     0.261 C 
BRANCH  31  32
ATOM     32  O   UNL A   1      38.958  22.926  26.059  1.00  0.00    -0.460 OA
BRANCH  32  33
ATOM     33  C   UNL A   1      38.258  24.080  26.128  1.00  0.00     0.338 C 
ATOM     34  O   UNL A   1      37.132  24.272  25.696  1.00  0.00    -0.246 OA
BRANCH  33  35
ATOM     35  C   UNL A   1      38.986  25.022  27.004  1.00  0.00     0.060 A 
ATOM     36  C   UNL A   1      38.626  25.073  28.356  1.00  0.00     0.016 A 
ATOM     37  C   UNL A   1      40.015  25.831  26.515  1.00  0.00     0.016 A 
ATOM     38  C   UNL A   1      39.287  25.936  29.226  1.00  0.00     0.010 A 
ATOM     39  C   UNL A   1      40.646  26.733  27.381  1.00  0.00     0.010 A 
ATOM     40  C   UNL A   1      40.268  26.804  28.735  1.00  0.00    -0.014 A 
BRANCH  40  41
ATOM     41  C   UNL A   1      40.740  27.913  29.597  1.00  0.00     0.031 A 
ATOM     42  C   UNL A   1      39.852  29.116  29.751  1.00  0.00     0.074 A 
ATOM     43  C   UNL A   1      41.909  27.837  30.259  1.00  0.00     0.049 A 
ATOM     44  N   UNL A   1      40.057  30.220  30.419  1.00  0.00    -0.248 NA
ATOM     45  C   UNL A   1      38.552  29.065  29.059  1.00  0.00     0.031 C 
ATOM     46  C   UNL A   1      42.828  26.700  30.226  1.00  0.00     0.029 A 
ATOM     47  N   UNL A   1      42.528  28.746  31.081  1.00  0.00    -0.354 N 
ATOM     48  C   UNL A   1      38.923  30.998  30.219  1.00  0.00     0.074 A 
ATOM     49  C   UNL A   1      38.038  30.249  29.357  1.00  0.00     0.031 C 
ATOM     50  C   UNL A   1      43.909  26.993  30.971  1.00  0.00     0.029 A 
ATOM     51  C   UNL A   1      43.773  28.347  31.506  1.00  0.00     0.049 A 
ATOM     52  H   UNL A   1      42.119  29.603  31.341  1.00  0.00     0.167 HD
ATOM     53  C   UNL A   1      38.650  32.228  30.711  1.00  0.00     0.037 A 
ATOM     54  C   UNL A   1      44.706  29.014  32.216  1.00  0.00     0.037 A 
ATOM     55  C   UNL A   1      39.539  32.965  31.570  1.00  0.00     0.049 A 
ATOM     56  C   UNL A   1      44.403  30.413  32.697  1.00  0.00     0.074 A 
ATOM     57  C   UNL A   1      39.337  34.206  32.149  1.00  0.00     0.029 A 
ATOM     58  N   UNL A   1      40.800  32.539  31.961  1.00  0.00    -0.354 N 
ATOM     59  N   UNL A   1      43.310  31.123  32.536  1.00  0.00    -0.248 NA
ATOM     60  C   UNL A   1      45.457  31.103  33.454  1.00  0.00     0.031 C 
ATOM     61  C   UNL A   1      40.503  34.559  32.835  1.00  0.00     0.029 A 
ATOM     62  C   UNL A   1      41.404  33.510  32.740  1.00  0.00     0.049 A 
ATOM     63  H   UNL A   1      41.204  31.675  31.718  1.00  0.00     0.167 HD
ATOM     64  C   UNL A   1      43.537  32.329  33.195  1.00  0.00     0.074 A 
ATOM     65  C   UNL A   1      44.863  32.246  33.770  1.00  0.00     0.031 C 
ATOM     66  C   UNL A   1      42.723  33.408  33.314  1.00  0.00     0.037 A 
BRANCH  53  67
ATOM     67  C   UNL A   1      37.357  32.878  30.308  1.00  0.00     0.058 A 
ATOM     68  C   UNL A   1      37.240  33.641  29.136  1.00  0.00     0.135 A 
ATOM     69  C   UNL A   1      36.199  32.677  31.076  1.00  0.00     0.135 A 
ATOM     70  F   UNL A   1      38.321  33.886  28.377  1.00  0.00    -0.206 F 
ATOM     71  C   UNL A   1      36.022  34.185  28.742  1.00  0.00     0.059 A 
ATOM     72  C   UNL A   1      34.966  33.188  30.688  1.00  0.00     0.059 A 
ATOM     73  F   UNL A   1      36.259  31.963  32.212  1.00  0.00    -0.206 F 
ATOM     74  C   UNL A   1      34.888  33.945  29.521  1.00  0.00     0.060 A 
BRANCH  74  75
ATOM     75  S   UNL A   1      33.307  34.619  28.972  1.00  0.00     0.124 S 
ATOM     76  O   UNL A   1      32.642  34.879  30.245  1.00  0.00    -0.237 OA
ATOM     77  O   UNL A   1      33.718  35.800  28.218  1.00  0.00    -0.237 OA
ATOM     78  O   UNL A   1      32.733  33.539  28.175  1.00  0.00    -0.744 OA
ENDBRANCH  74  75
ENDBRANCH  53  67
BRANCH  54  79
ATOM     79  C   UNL A   1      46.036  28.395  32.479  1.00  0.00     0.058 A 
ATOM     80  C   UNL A   1      47.109  28.555  31.590  1.00  0.00     0.135 A 
ATOM     81  C   UNL A   1      46.246  27.596  33.615  1.00  0.00     0.135 A 
ATOM     82  F   UNL A   1      46.957  29.297  30.482  1.00  0.00    -0.206 F 
ATOM     83  C   UNL A   1      48.332  27.925  31.801  1.00  0.00     0.059 A 
ATOM     84  C   UNL A   1      47.469  26.982  33.865  1.00  0.00     0.059 A 
ATOM     85  F   UNL A   1      45.256  27.413  34.503  1.00  0.00    -0.206 F 
ATOM     86  C   UNL A   1      48.502  27.138  32.942  1.00  0.00     0.060 A 
BRANCH  86  87
ATOM     87  S   UNL A   1      50.096  26.335  33.214  1.00  0.00     0.124 S 
ATOM     88  O   UNL A   1      49.730  25.256  34.123  1.00  0.00    -0.237 OA
ATOM     89  O   UNL A   1      50.470  25.932  31.861  1.00  0.00    -0.237 OA
ATOM     90  O   UNL A   1      50.913  27.398  33.793  1.00  0.00    -0.744 OA
ENDBRANCH  86  87
ENDBRANCH  54  79
BRANCH  66  91
ATOM     91  C   UNL A   1      43.221  34.576  34.122  1.00  0.00     0.058 A 
ATOM     92  C   UNL A   1      43.063  34.634  35.515  1.00  0.00     0.135 A 
ATOM     93  C   UNL A   1      43.929  35.620  33.500  1.00  0.00     0.135 A 
ATOM     94  F   UNL A   1      42.393  33.666  36.160  1.00  0.00    -0.206 F 
ATOM     95  C   UNL A   1      43.568  35.695  36.261  1.00  0.00     0.059 A 
ATOM     96  C   UNL A   1      44.470  36.674  34.230  1.00  0.00     0.059 A 
ATOM     97  F   UNL A   1      44.120  35.608  32.172  1.00  0.00    -0.206 F 
ATOM     98  C   UNL A   1      44.275  36.707  35.609  1.00  0.00     0.060 A 
BRANCH  98  99
ATOM     99  S   UNL A   1      44.960  38.056  36.595  1.00  0.00     0.124 S 
ATOM    100  O   UNL A   1      44.323  37.828  37.889  1.00  0.00    -0.237 OA
ATOM    101  O   UNL A   1      46.393  37.789  36.538  1.00  0.00    -0.237 OA
ATOM    102  O   UNL A   1      44.523  39.254  35.884  1.00  0.00    -0.744 OA
ENDBRANCH  98  99
ENDBRANCH  66  91
ENDBRANCH  40  41
ENDBRANCH  33  35
ENDBRANCH  32  33
ENDBRANCH  31  32
ENDBRANCH  30  31
ENDBRANCH  29  30
ENDBRANCH  28  29
ENDBRANCH  27  28
ENDBRANCH  26  27
ENDBRANCH   1  26
TORSDOF 29
ENDMDL
