MODEL 1
REMARK VINA RESULT:      -9.0      0.000      0.000
REMARK SMILES CCc1cccc(C)c1Nc1ccccc1CC(=O)OCCOCCOCCOCCOC(=O)c1ccc(-c2c3nc(c(-c4c(F)cc(S(=O)(=O)[O-])cc4F)c4ccc([nH]4)c(-c4c(F)cc(S(=O)(=O)[O-])cc4F)c4nc(c(-c5c(F)cc(S(=O)(=O)[O-])cc5F)c5ccc2[nH]5)C=C4)C=C3)cc1
REMARK SMILES IDX 25 1 24 2 23 3 22 4 21 5 20 6 18 7 19 8 17 9 16 10 11 11
REMARK SMILES IDX 12 12 13 13 15 14 14 15 10 16 9 18 3 19 4 20 5 21 7 22 6 23
REMARK SMILES IDX 8 24 2 25 1 26 26 27 27 28 28 29 29 30 30 31 31 32 32 33
REMARK SMILES IDX 33 34 34 35 35 36 36 37 100 38 37 39 99 40 38 41 39 42 40 43
REMARK SMILES IDX 93 44 41 45 98 46 92 47 94 48 42 49 97 50 91 51 90 52 43 54
REMARK SMILES IDX 77 55 56 56 76 57 57 58 60 59 75 60 95 61 58 62 59 63 74 65
REMARK SMILES IDX 96 66 61 67 44 68 45 69 54 70 46 71 47 72 53 73 55 74 48 75
REMARK SMILES IDX 49 76 50 77 51 78 52 79 78 80 79 81 88 82 80 83 81 84 87 85
REMARK SMILES IDX 89 86 82 87 83 88 84 89 85 90 86 91 62 92 63 93 72 94 64 95
REMARK SMILES IDX 65 96 71 97 73 98 66 99 67 100 68 101 69 102 70 103
REMARK H PARENT 10 17 94 53 60 64
REMARK Flexibility Score: inf
ROOT
ATOM      1  C   UNL A   1      44.114  22.980  24.313  1.00  0.00     0.188 C 
ENDROOT
BRANCH   1   2
ATOM      2  C   UNL A   1      42.463  23.346  25.591  1.00  0.00     0.188 C 
BRANCH   2   3
ATOM      3  O   UNL A   1      41.716  25.219  25.189  1.00  0.00    -0.376 OA
BRANCH   3   4
ATOM      4  C   UNL A   1      40.661  26.126  26.257  1.00  0.00     0.202 C 
BRANCH   4   5
ATOM      5  C   UNL A   1      41.275  27.565  27.077  1.00  0.00     0.261 C 
BRANCH   5   6
ATOM      6  O   UNL A   1      40.462  28.318  28.360  1.00  0.00    -0.463 OA
BRANCH   6   7
ATOM      7  C   UNL A   1      39.810  29.532  28.581  1.00  0.00     0.310 C 
ATOM      8  O   UNL A   1      38.818  29.752  27.868  1.00  0.00    -0.252 OA
BRANCH   7   9
ATOM      9  C   UNL A   1      40.067  30.646  29.830  1.00  0.00     0.160 C 
BRANCH   9  10
ATOM     10  C   UNL A   1      39.377  32.079  30.498  1.00  0.00    -0.013 A 
ATOM     11  C   UNL A   1      38.518  33.404  29.886  1.00  0.00     0.042 A 
ATOM     12  C   UNL A   1      38.428  34.537  30.750  1.00  0.00     0.026 A 
ATOM     13  C   UNL A   1      38.772  34.371  32.120  1.00  0.00     0.002 A 
ATOM     14  C   UNL A   1      39.721  32.104  31.875  1.00  0.00     0.006 A 
ATOM     15  C   UNL A   1      39.349  33.193  32.666  1.00  0.00     0.000 A 
BRANCH  11  16
ATOM     16  N   UNL A   1      36.772  33.281  29.338  1.00  0.00    -0.355 N 
ATOM     17  H   UNL A   1      36.585  33.663  28.450  1.00  0.00     0.167 HD
BRANCH  16  18
ATOM     18  C   UNL A   1      35.254  32.523  30.228  1.00  0.00     0.045 A 
ATOM     19  C   UNL A   1      35.289  31.185  29.058  1.00  0.00    -0.024 A 
ATOM     20  C   UNL A   1      36.032  29.707  29.422  1.00  0.00     0.006 A 
ATOM     21  C   UNL A   1      36.768  29.377  30.835  1.00  0.00     0.001 A 
ATOM     22  C   UNL A   1      35.802  32.147  32.066  1.00  0.00    -0.027 A 
ATOM     23  C   UNL A   1      36.752  30.486  32.137  1.00  0.00     0.005 A 
ATOM     24  C   UNL A   1      35.642  33.047  33.309  1.00  0.00     0.046 C 
BRANCH  19  25
ATOM     25  C   UNL A   1      34.740  31.213  27.668  1.00  0.00     0.034 C 
ATOM     26  C   UNL A   1      34.604  29.789  27.163  1.00  0.00     0.009 C 
ENDBRANCH  19  25
ENDBRANCH  16  18
ENDBRANCH  11  16
ENDBRANCH   9  10
ENDBRANCH   7   9
ENDBRANCH   6   7
ENDBRANCH   5   6
ENDBRANCH   4   5
ENDBRANCH   3   4
ENDBRANCH   2   3
ENDBRANCH   1   2
BRANCH   1  27
ATOM     27  O   UNL A   1      45.426  23.818  24.253  1.00  0.00    -0.377 OA
BRANCH  27  28
ATOM     28  C   UNL A   1      45.679  24.980  25.050  1.00  0.00     0.188 C 
BRANCH  28  29
ATOM     29  C   UNL A   1      47.142  25.050  25.392  1.00  0.00     0.188 C 
BRANCH  29  30
ATOM     30  O   UNL A   1      47.590  26.248  24.757  1.00  0.00    -0.376 OA
BRANCH  30  31
ATOM     31  C   UNL A   1      48.872  26.141  24.182  1.00  0.00     0.202 C 
BRANCH  31  32
ATOM     32  C   UNL A   1      49.672  27.371  24.577  1.00  0.00     0.261 C 
BRANCH  32  33
ATOM     33  O   UNL A   1      49.129  27.860  25.830  1.00  0.00    -0.460 OA
BRANCH  33  34
ATOM     34  C   UNL A   1      50.075  28.262  26.732  1.00  0.00     0.338 C 
ATOM     35  O   UNL A   1      50.845  29.184  26.520  1.00  0.00    -0.246 OA
BRANCH  34  36
ATOM     36  C   UNL A   1      50.063  27.419  27.977  1.00  0.00     0.060 A 
ATOM     37  C   UNL A   1      49.497  26.133  27.959  1.00  0.00     0.016 A 
ATOM     38  C   UNL A   1      50.414  27.964  29.207  1.00  0.00     0.016 A 
ATOM     39  C   UNL A   1      49.148  25.468  29.159  1.00  0.00     0.010 A 
ATOM     40  C   UNL A   1      50.037  27.319  30.384  1.00  0.00     0.010 A 
ATOM     41  C   UNL A   1      49.372  26.078  30.396  1.00  0.00    -0.014 A 
BRANCH  41  42
ATOM     42  C   UNL A   1      48.863  25.574  31.711  1.00  0.00     0.031 A 
ATOM     43  C   UNL A   1      49.857  24.906  32.689  1.00  0.00     0.074 A 
ATOM     44  C   UNL A   1      47.655  26.018  32.164  1.00  0.00     0.049 A 
ATOM     45  N   UNL A   1      49.690  24.690  33.959  1.00  0.00    -0.248 NA
ATOM     46  C   UNL A   1      51.207  24.503  32.293  1.00  0.00     0.031 C 
ATOM     47  C   UNL A   1      47.288  26.034  33.568  1.00  0.00     0.029 A 
ATOM     48  N   UNL A   1      46.575  26.706  31.614  1.00  0.00    -0.354 N 
ATOM     49  C   UNL A   1      50.914  24.468  34.586  1.00  0.00     0.074 A 
ATOM     50  C   UNL A   1      51.812  24.281  33.472  1.00  0.00     0.031 C 
ATOM     51  C   UNL A   1      46.231  26.820  33.828  1.00  0.00     0.029 A 
ATOM     52  C   UNL A   1      45.544  26.858  32.575  1.00  0.00     0.049 A 
ATOM     53  H   UNL A   1      46.534  27.039  30.688  1.00  0.00     0.167 HD
ATOM     54  C   UNL A   1      51.032  24.598  35.958  1.00  0.00     0.037 A 
ATOM     55  C   UNL A   1      44.377  26.135  32.522  1.00  0.00     0.037 A 
ATOM     56  C   UNL A   1      49.698  24.759  36.609  1.00  0.00     0.049 A 
ATOM     57  C   UNL A   1      44.326  25.063  33.668  1.00  0.00     0.074 A 
ATOM     58  C   UNL A   1      49.153  25.653  37.526  1.00  0.00     0.029 A 
ATOM     59  N   UNL A   1      48.611  23.984  36.190  1.00  0.00    -0.354 N 
ATOM     60  N   UNL A   1      45.399  24.433  34.122  1.00  0.00    -0.248 NA
ATOM     61  C   UNL A   1      43.206  24.895  34.602  1.00  0.00     0.031 C 
ATOM     62  C   UNL A   1      47.729  25.613  37.392  1.00  0.00     0.029 A 
ATOM     63  C   UNL A   1      47.396  24.546  36.565  1.00  0.00     0.049 A 
ATOM     64  H   UNL A   1      48.697  23.141  35.687  1.00  0.00     0.167 HD
ATOM     65  C   UNL A   1      45.212  24.041  35.429  1.00  0.00     0.074 A 
ATOM     66  C   UNL A   1      43.783  24.249  35.638  1.00  0.00     0.031 C 
ATOM     67  C   UNL A   1      46.154  23.796  36.406  1.00  0.00     0.037 A 
BRANCH  54  68
ATOM     68  C   UNL A   1      52.351  24.781  36.788  1.00  0.00     0.058 A 
ATOM     69  C   UNL A   1      52.573  24.024  37.973  1.00  0.00     0.135 A 
ATOM     70  C   UNL A   1      53.390  25.716  36.548  1.00  0.00     0.135 A 
ATOM     71  F   UNL A   1      51.734  23.048  38.344  1.00  0.00    -0.206 F 
ATOM     72  C   UNL A   1      53.665  24.198  38.842  1.00  0.00     0.059 A 
ATOM     73  C   UNL A   1      54.529  25.868  37.376  1.00  0.00     0.059 A 
ATOM     74  F   UNL A   1      53.351  26.555  35.508  1.00  0.00    -0.206 F 
ATOM     75  C   UNL A   1      54.653  25.113  38.534  1.00  0.00     0.060 A 
BRANCH  75  76
ATOM     76  S   UNL A   1      56.099  25.239  39.620  1.00  0.00     0.124 S 
ATOM     77  O   UNL A   1      55.519  25.785  40.845  1.00  0.00    -0.237 OA
ATOM     78  O   UNL A   1      56.554  23.855  39.700  1.00  0.00    -0.237 OA
ATOM     79  O   UNL A   1      56.992  26.143  38.899  1.00  0.00    -0.744 OA
ENDBRANCH  75  76
ENDBRANCH  54  68
BRANCH  55  80
ATOM     80  C   UNL A   1      43.768  26.272  31.158  1.00  0.00     0.058 A 
ATOM     81  C   UNL A   1      43.267  27.572  30.885  1.00  0.00     0.135 A 
ATOM     82  C   UNL A   1      44.389  25.609  30.081  1.00  0.00     0.135 A 
ATOM     83  F   UNL A   1      42.625  28.252  31.850  1.00  0.00    -0.206 F 
ATOM     84  C   UNL A   1      43.621  28.278  29.730  1.00  0.00     0.059 A 
ATOM     85  C   UNL A   1      44.761  26.304  28.918  1.00  0.00     0.059 A 
ATOM     86  F   UNL A   1      44.880  24.373  30.256  1.00  0.00    -0.206 F 
ATOM     87  C   UNL A   1      44.434  27.657  28.787  1.00  0.00     0.060 A 
BRANCH  87  88
ATOM     88  S   UNL A   1      45.287  28.695  27.562  1.00  0.00     0.124 S 
ATOM     89  O   UNL A   1      44.897  30.037  27.973  1.00  0.00    -0.237 OA
ATOM     90  O   UNL A   1      46.689  28.342  27.770  1.00  0.00    -0.237 OA
ATOM     91  O   UNL A   1      44.728  28.224  26.302  1.00  0.00    -0.744 OA
ENDBRANCH  87  88
ENDBRANCH  55  80
BRANCH  67  92
ATOM     92  C   UNL A   1      46.041  22.589  37.311  1.00  0.00     0.058 A 
ATOM     93  C   UNL A   1      46.325  21.305  36.833  1.00  0.00     0.135 A 
ATOM     94  C   UNL A   1      45.961  22.724  38.727  1.00  0.00     0.135 A 
ATOM     95  F   UNL A   1      46.492  21.068  35.524  1.00  0.00    -0.206 F 
ATOM     96  C   UNL A   1      46.496  20.227  37.691  1.00  0.00     0.059 A 
ATOM     97  C   UNL A   1      46.195  21.674  39.600  1.00  0.00     0.059 A 
ATOM     98  F   UNL A   1      45.681  23.893  39.323  1.00  0.00    -0.206 F 
ATOM     99  C   UNL A   1      46.433  20.420  39.068  1.00  0.00     0.060 A 
BRANCH  99 100
ATOM    100  S   UNL A   1      46.643  19.010  40.155  1.00  0.00     0.124 S 
ATOM    101  O   UNL A   1      45.384  18.304  39.938  1.00  0.00    -0.237 OA
ATOM    102  O   UNL A   1      47.833  18.365  39.608  1.00  0.00    -0.237 OA
ATOM    103  O   UNL A   1      46.812  19.614  41.472  1.00  0.00    -0.744 OA
ENDBRANCH  99 100
ENDBRANCH  67  92
ENDBRANCH  41  42
ENDBRANCH  34  36
ENDBRANCH  33  34
ENDBRANCH  32  33
ENDBRANCH  31  32
ENDBRANCH  30  31
ENDBRANCH  29  30
ENDBRANCH  28  29
ENDBRANCH  27  28
ENDBRANCH   1  27
TORSDOF 27
ENDMDL
MODEL 2
REMARK VINA RESULT:      -8.6      4.252      9.945
REMARK SMILES CCc1cccc(C)c1Nc1ccccc1CC(=O)OCCOCCOCCOCCOC(=O)c1ccc(-c2c3nc(c(-c4c(F)cc(S(=O)(=O)[O-])cc4F)c4ccc([nH]4)c(-c4c(F)cc(S(=O)(=O)[O-])cc4F)c4nc(c(-c5c(F)cc(S(=O)(=O)[O-])cc5F)c5ccc2[nH]5)C=C4)C=C3)cc1
REMARK SMILES IDX 25 1 24 2 23 3 22 4 21 5 20 6 18 7 19 8 17 9 16 10 11 11
REMARK SMILES IDX 12 12 13 13 15 14 14 15 10 16 9 18 3 19 4 20 5 21 7 22 6 23
REMARK SMILES IDX 8 24 2 25 1 26 26 27 27 28 28 29 29 30 30 31 31 32 32 33
REMARK SMILES IDX 33 34 34 35 35 36 36 37 100 38 37 39 99 40 38 41 39 42 40 43
REMARK SMILES IDX 93 44 41 45 98 46 92 47 94 48 42 49 97 50 91 51 90 52 43 54
REMARK SMILES IDX 77 55 56 56 76 57 57 58 60 59 75 60 95 61 58 62 59 63 74 65
REMARK SMILES IDX 96 66 61 67 44 68 45 69 54 70 46 71 47 72 53 73 55 74 48 75
REMARK SMILES IDX 49 76 50 77 51 78 52 79 78 80 79 81 88 82 80 83 81 84 87 85
REMARK SMILES IDX 89 86 82 87 83 88 84 89 85 90 86 91 62 92 63 93 72 94 64 95
REMARK SMILES IDX 65 96 71 97 73 98 66 99 67 100 68 101 69 102 70 103
REMARK H PARENT 10 17 94 53 60 64
REMARK Flexibility Score: inf
ROOT
ATOM      1  C   UNL A   1      41.578  28.859  28.364  1.00  0.00     0.188 C 
ENDROOT
BRANCH   1   2
ATOM      2  C   UNL A   1      42.294  29.612  26.516  1.00  0.00     0.188 C 
BRANCH   2   3
ATOM      3  O   UNL A   1      43.297  28.111  25.532  1.00  0.00    -0.376 OA
BRANCH   3   4
ATOM      4  C   UNL A   1      44.670  27.232  26.180  1.00  0.00     0.202 C 
BRANCH   4   5
ATOM      5  C   UNL A   1      45.645  26.222  25.109  1.00  0.00     0.261 C 
BRANCH   5   6
ATOM      6  O   UNL A   1      46.670  26.856  23.917  1.00  0.00    -0.463 OA
BRANCH   6   7
ATOM      7  C   UNL A   1      47.973  27.350  23.852  1.00  0.00     0.310 C 
ATOM      8  O   UNL A   1      48.223  28.317  24.590  1.00  0.00    -0.252 OA
BRANCH   7   9
ATOM      9  C   UNL A   1      49.309  26.678  23.060  1.00  0.00     0.160 C 
BRANCH   9  10
ATOM     10  C   UNL A   1      50.941  27.058  22.645  1.00  0.00    -0.013 A 
ATOM     11  C   UNL A   1      52.367  27.357  23.507  1.00  0.00     0.042 A 
ATOM     12  C   UNL A   1      53.425  27.964  22.765  1.00  0.00     0.026 A 
ATOM     13  C   UNL A   1      53.329  27.982  21.346  1.00  0.00     0.002 A 
ATOM     14  C   UNL A   1      50.988  27.203  21.234  1.00  0.00     0.006 A 
ATOM     15  C   UNL A   1      52.182  27.577  20.613  1.00  0.00     0.000 A 
BRANCH  11  16
ATOM     16  N   UNL A   1      53.299  26.031  24.365  1.00  0.00    -0.355 N 
ATOM     17  H   UNL A   1      54.242  25.940  24.093  1.00  0.00     0.167 HD
BRANCH  16  18
ATOM     18  C   UNL A   1      52.722  24.794  25.709  1.00  0.00     0.045 A 
ATOM     19  C   UNL A   1      54.377  24.791  26.359  1.00  0.00    -0.024 A 
ATOM     20  C   UNL A   1      54.815  25.762  27.675  1.00  0.00     0.006 A 
ATOM     21  C   UNL A   1      53.795  26.765  28.451  1.00  0.00     0.001 A 
ATOM     22  C   UNL A   1      51.331  25.691  26.748  1.00  0.00    -0.027 A 
ATOM     23  C   UNL A   1      52.132  26.837  28.057  1.00  0.00     0.005 A 
ATOM     24  C   UNL A   1      49.804  25.638  26.539  1.00  0.00     0.046 C 
BRANCH  19  25
ATOM     25  C   UNL A   1      55.534  24.012  25.822  1.00  0.00     0.034 C 
ATOM     26  C   UNL A   1      56.238  23.320  26.974  1.00  0.00     0.009 C 
ENDBRANCH  19  25
ENDBRANCH  16  18
ENDBRANCH  11  16
ENDBRANCH   9  10
ENDBRANCH   7   9
ENDBRANCH   6   7
ENDBRANCH   5   6
ENDBRANCH   4   5
ENDBRANCH   3   4
ENDBRANCH   2   3
ENDBRANCH   1   2
BRANCH   1  27
ATOM     27  O   UNL A   1      42.124  27.606  29.112  1.00  0.00    -0.377 OA
BRANCH  27  28
ATOM     28  C   UNL A   1      41.701  26.263  28.853  1.00  0.00     0.188 C 
BRANCH  28  29
ATOM     29  C   UNL A   1      40.890  26.223  27.586  1.00  0.00     0.188 C 
BRANCH  29  30
ATOM     30  O   UNL A   1      39.721  25.485  27.946  1.00  0.00    -0.376 OA
BRANCH  30  31
ATOM     31  C   UNL A   1      39.516  24.331  27.164  1.00  0.00     0.202 C 
BRANCH  31  32
ATOM     32  C   UNL A   1      40.737  24.133  26.282  1.00  0.00     0.261 C 
BRANCH  32  33
ATOM     33  O   UNL A   1      41.224  22.785  26.508  1.00  0.00    -0.460 OA
BRANCH  33  34
ATOM     34  C   UNL A   1      42.570  22.635  26.318  1.00  0.00     0.338 C 
ATOM     35  O   UNL A   1      43.058  22.329  25.243  1.00  0.00    -0.246 OA
BRANCH  34  36
ATOM     36  C   UNL A   1      43.348  22.863  27.584  1.00  0.00     0.060 A 
ATOM     37  C   UNL A   1      42.751  22.632  28.836  1.00  0.00     0.016 A 
ATOM     38  C   UNL A   1      44.584  23.498  27.554  1.00  0.00     0.016 A 
ATOM     39  C   UNL A   1      43.309  23.163  30.023  1.00  0.00     0.010 A 
ATOM     40  C   UNL A   1      45.111  24.047  28.722  1.00  0.00     0.010 A 
ATOM     41  C   UNL A   1      44.479  23.924  29.976  1.00  0.00    -0.014 A 
BRANCH  41  42
ATOM     42  C   UNL A   1      45.048  24.706  31.119  1.00  0.00     0.031 A 
ATOM     43  C   UNL A   1      44.835  24.185  32.559  1.00  0.00     0.074 A 
ATOM     44  C   UNL A   1      46.017  25.634  30.866  1.00  0.00     0.049 A 
ATOM     45  N   UNL A   1      45.486  24.532  33.629  1.00  0.00    -0.248 NA
ATOM     46  C   UNL A   1      43.888  23.116  32.882  1.00  0.00     0.031 C 
ATOM     47  C   UNL A   1      46.980  26.070  31.860  1.00  0.00     0.029 A 
ATOM     48  N   UNL A   1      46.527  26.259  29.729  1.00  0.00    -0.354 N 
ATOM     49  C   UNL A   1      45.322  23.581  34.634  1.00  0.00     0.074 A 
ATOM     50  C   UNL A   1      44.244  22.767  34.129  1.00  0.00     0.031 C 
ATOM     51  C   UNL A   1      48.040  26.697  31.327  1.00  0.00     0.029 A 
ATOM     52  C   UNL A   1      47.528  27.195  30.088  1.00  0.00     0.049 A 
ATOM     53  H   UNL A   1      46.231  26.076  28.808  1.00  0.00     0.167 HD
ATOM     54  C   UNL A   1      46.203  23.530  35.700  1.00  0.00     0.037 A 
ATOM     55  C   UNL A   1      47.316  28.552  30.043  1.00  0.00     0.037 A 
ATOM     56  C   UNL A   1      47.119  24.710  35.709  1.00  0.00     0.049 A 
ATOM     57  C   UNL A   1      47.222  29.157  31.488  1.00  0.00     0.074 A 
ATOM     58  C   UNL A   1      48.496  24.885  35.807  1.00  0.00     0.029 A 
ATOM     59  N   UNL A   1      46.625  25.987  35.423  1.00  0.00    -0.354 N 
ATOM     60  N   UNL A   1      46.700  28.505  32.517  1.00  0.00    -0.248 NA
ATOM     61  C   UNL A   1      47.998  30.311  31.959  1.00  0.00     0.031 C 
ATOM     62  C   UNL A   1      48.820  26.169  35.266  1.00  0.00     0.029 A 
ATOM     63  C   UNL A   1      47.636  26.864  35.046  1.00  0.00     0.049 A 
ATOM     64  H   UNL A   1      45.674  26.236  35.481  1.00  0.00     0.167 HD
ATOM     65  C   UNL A   1      47.249  28.950  33.699  1.00  0.00     0.074 A 
ATOM     66  C   UNL A   1      47.963  30.158  33.302  1.00  0.00     0.031 C 
ATOM     67  C   UNL A   1      47.364  28.291  34.905  1.00  0.00     0.037 A 
BRANCH  54  68
ATOM     68  C   UNL A   1      46.433  22.335  36.690  1.00  0.00     0.058 A 
ATOM     69  C   UNL A   1      45.942  22.396  38.025  1.00  0.00     0.135 A 
ATOM     70  C   UNL A   1      47.181  21.156  36.448  1.00  0.00     0.135 A 
ATOM     71  F   UNL A   1      45.164  23.405  38.436  1.00  0.00    -0.206 F 
ATOM     72  C   UNL A   1      46.195  21.430  39.016  1.00  0.00     0.059 A 
ATOM     73  C   UNL A   1      47.399  20.140  37.411  1.00  0.00     0.059 A 
ATOM     74  F   UNL A   1      47.766  20.926  35.267  1.00  0.00    -0.206 F 
ATOM     75  C   UNL A   1      46.914  20.292  38.702  1.00  0.00     0.060 A 
BRANCH  75  76
ATOM     76  S   UNL A   1      47.134  19.018  39.973  1.00  0.00     0.124 S 
ATOM     77  O   UNL A   1      48.468  18.506  39.673  1.00  0.00    -0.237 OA
ATOM     78  O   UNL A   1      47.016  19.785  41.210  1.00  0.00    -0.237 OA
ATOM     79  O   UNL A   1      46.038  18.086  39.718  1.00  0.00    -0.744 OA
ENDBRANCH  75  76
ENDBRANCH  54  68
BRANCH  55  80
ATOM     80  C   UNL A   1      46.787  28.928  28.690  1.00  0.00     0.058 A 
ATOM     81  C   UNL A   1      45.536  29.597  28.731  1.00  0.00     0.135 A 
ATOM     82  C   UNL A   1      47.701  29.384  27.720  1.00  0.00     0.135 A 
ATOM     83  F   UNL A   1      44.595  29.192  29.602  1.00  0.00    -0.206 F 
ATOM     84  C   UNL A   1      45.321  30.814  28.076  1.00  0.00     0.059 A 
ATOM     85  C   UNL A   1      47.507  30.609  27.059  1.00  0.00     0.059 A 
ATOM     86  F   UNL A   1      48.902  28.796  27.610  1.00  0.00    -0.206 F 
ATOM     87  C   UNL A   1      46.346  31.349  27.302  1.00  0.00     0.060 A 
BRANCH  87  88
ATOM     88  S   UNL A   1      46.271  33.112  26.863  1.00  0.00     0.124 S 
ATOM     89  O   UNL A   1      47.674  33.501  26.920  1.00  0.00    -0.237 OA
ATOM     90  O   UNL A   1      45.667  33.081  25.534  1.00  0.00    -0.237 OA
ATOM     91  O   UNL A   1      45.412  33.662  27.903  1.00  0.00    -0.744 OA
ENDBRANCH  87  88
ENDBRANCH  55  80
BRANCH  67  92
ATOM     92  C   UNL A   1      47.044  28.990  36.208  1.00  0.00     0.058 A 
ATOM     93  C   UNL A   1      45.721  29.150  36.630  1.00  0.00     0.135 A 
ATOM     94  C   UNL A   1      48.047  29.225  37.192  1.00  0.00     0.135 A 
ATOM     95  F   UNL A   1      44.690  28.891  35.812  1.00  0.00    -0.206 F 
ATOM     96  C   UNL A   1      45.409  29.534  37.928  1.00  0.00     0.059 A 
ATOM     97  C   UNL A   1      47.753  29.543  38.508  1.00  0.00     0.059 A 
ATOM     98  F   UNL A   1      49.357  29.123  36.923  1.00  0.00    -0.206 F 
ATOM     99  C   UNL A   1      46.427  29.725  38.858  1.00  0.00     0.060 A 
BRANCH  99 100
ATOM    100  S   UNL A   1      46.001  30.234  40.523  1.00  0.00     0.124 S 
ATOM    101  O   UNL A   1      47.022  29.535  41.296  1.00  0.00    -0.237 OA
ATOM    102  O   UNL A   1      46.141  31.686  40.454  1.00  0.00    -0.237 OA
ATOM    103  O   UNL A   1      44.635  29.749  40.692  1.00  0.00    -0.744 OA
ENDBRANCH  99 100
ENDBRANCH  67  92
ENDBRANCH  41  42
ENDBRANCH  34  36
ENDBRANCH  33  34
ENDBRANCH  32  33
ENDBRANCH  31  32
ENDBRANCH  30  31
ENDBRANCH  29  30
ENDBRANCH  28  29
ENDBRANCH  27  28
ENDBRANCH   1  27
TORSDOF 27
ENDMDL
MODEL 3
REMARK VINA RESULT:      -8.3      8.566     12.739
REMARK SMILES CCc1cccc(C)c1Nc1ccccc1CC(=O)OCCOCCOCCOCCOC(=O)c1ccc(-c2c3nc(c(-c4c(F)cc(S(=O)(=O)[O-])cc4F)c4ccc([nH]4)c(-c4c(F)cc(S(=O)(=O)[O-])cc4F)c4nc(c(-c5c(F)cc(S(=O)(=O)[O-])cc5F)c5ccc2[nH]5)C=C4)C=C3)cc1
REMARK SMILES IDX 25 1 24 2 23 3 22 4 21 5 20 6 18 7 19 8 17 9 16 10 11 11
REMARK SMILES IDX 12 12 13 13 15 14 14 15 10 16 9 18 3 19 4 20 5 21 7 22 6 23
REMARK SMILES IDX 8 24 2 25 1 26 26 27 27 28 28 29 29 30 30 31 31 32 32 33
REMARK SMILES IDX 33 34 34 35 35 36 36 37 100 38 37 39 99 40 38 41 39 42 40 43
REMARK SMILES IDX 93 44 41 45 98 46 92 47 94 48 42 49 97 50 91 51 90 52 43 54
REMARK SMILES IDX 77 55 56 56 76 57 57 58 60 59 75 60 95 61 58 62 59 63 74 65
REMARK SMILES IDX 96 66 61 67 44 68 45 69 54 70 46 71 47 72 53 73 55 74 48 75
REMARK SMILES IDX 49 76 50 77 51 78 52 79 78 80 79 81 88 82 80 83 81 84 87 85
REMARK SMILES IDX 89 86 82 87 83 88 84 89 85 90 86 91 62 92 63 93 72 94 64 95
REMARK SMILES IDX 65 96 71 97 73 98 66 99 67 100 68 101 69 102 70 103
REMARK H PARENT 10 17 94 53 60 64
REMARK Flexibility Score: inf
ROOT
ATOM      1  C   UNL A   1      43.396  40.883  27.849  1.00  0.00     0.188 C 
ENDROOT
BRANCH   1   2
ATOM      2  C   UNL A   1      43.425  41.313  25.773  1.00  0.00     0.188 C 
BRANCH   2   3
ATOM      3  O   UNL A   1      45.184  40.610  24.975  1.00  0.00    -0.376 OA
BRANCH   3   4
ATOM      4  C   UNL A   1      46.771  40.846  25.686  1.00  0.00     0.202 C 
BRANCH   4   5
ATOM      5  C   UNL A   1      47.250  42.452  26.241  1.00  0.00     0.261 C 
BRANCH   5   6
ATOM      6  O   UNL A   1      46.321  43.843  25.964  1.00  0.00    -0.463 OA
BRANCH   6   7
ATOM      7  C   UNL A   1      46.087  44.717  24.902  1.00  0.00     0.310 C 
ATOM      8  O   UNL A   1      47.040  45.445  24.579  1.00  0.00    -0.252 OA
BRANCH   7   9
ATOM      9  C   UNL A   1      44.751  44.769  23.864  1.00  0.00     0.160 C 
BRANCH   9  10
ATOM     10  C   UNL A   1      44.254  44.222  22.305  1.00  0.00    -0.013 A 
ATOM     11  C   UNL A   1      44.390  44.805  20.721  1.00  0.00     0.042 A 
ATOM     12  C   UNL A   1      43.535  44.189  19.757  1.00  0.00     0.026 A 
ATOM     13  C   UNL A   1      42.889  42.971  20.109  1.00  0.00     0.002 A 
ATOM     14  C   UNL A   1      43.501  43.035  22.501  1.00  0.00     0.006 A 
ATOM     15  C   UNL A   1      42.910  42.397  21.408  1.00  0.00     0.000 A 
BRANCH  11  16
ATOM     16  N   UNL A   1      45.974  44.792  19.796  1.00  0.00    -0.355 N 
ATOM     17  H   UNL A   1      46.206  45.641  19.353  1.00  0.00     0.167 HD
BRANCH  16  18
ATOM     18  C   UNL A   1      47.246  43.380  19.557  1.00  0.00     0.045 A 
ATOM     19  C   UNL A   1      48.433  44.595  19.032  1.00  0.00    -0.024 A 
ATOM     20  C   UNL A   1      49.585  45.230  20.100  1.00  0.00     0.006 A 
ATOM     21  C   UNL A   1      49.713  44.804  21.665  1.00  0.00     0.001 A 
ATOM     22  C   UNL A   1      47.503  42.544  21.304  1.00  0.00    -0.027 A 
ATOM     23  C   UNL A   1      48.742  43.570  22.343  1.00  0.00     0.005 A 
ATOM     24  C   UNL A   1      46.774  41.316  21.887  1.00  0.00     0.046 C 
BRANCH  19  25
ATOM     25  C   UNL A   1      48.525  45.209  17.673  1.00  0.00     0.034 C 
ATOM     26  C   UNL A   1      49.931  45.013  17.138  1.00  0.00     0.009 C 
ENDBRANCH  19  25
ENDBRANCH  16  18
ENDBRANCH  11  16
ENDBRANCH   9  10
ENDBRANCH   7   9
ENDBRANCH   6   7
ENDBRANCH   5   6
ENDBRANCH   4   5
ENDBRANCH   3   4
ENDBRANCH   2   3
ENDBRANCH   1   2
BRANCH   1  27
ATOM     27  O   UNL A   1      42.379  39.951  28.574  1.00  0.00    -0.377 OA
BRANCH  27  28
ATOM     28  C   UNL A   1      41.894  38.714  28.040  1.00  0.00     0.188 C 
BRANCH  28  29
ATOM     29  C   UNL A   1      42.664  37.569  28.638  1.00  0.00     0.188 C 
BRANCH  29  30
ATOM     30  O   UNL A   1      43.253  36.921  27.510  1.00  0.00    -0.376 OA
BRANCH  30  31
ATOM     31  C   UNL A   1      44.504  36.332  27.783  1.00  0.00     0.202 C 
BRANCH  31  32
ATOM     32  C   UNL A   1      45.325  36.349  26.504  1.00  0.00     0.261 C 
BRANCH  32  33
ATOM     33  O   UNL A   1      46.580  35.677  26.784  1.00  0.00    -0.460 OA
BRANCH  33  34
ATOM     34  C   UNL A   1      46.751  34.504  26.103  1.00  0.00     0.338 C 
ATOM     35  O   UNL A   1      47.033  34.461  24.917  1.00  0.00    -0.246 OA
BRANCH  34  36
ATOM     36  C   UNL A   1      46.522  33.303  26.977  1.00  0.00     0.060 A 
ATOM     37  C   UNL A   1      45.313  32.591  26.904  1.00  0.00     0.016 A 
ATOM     38  C   UNL A   1      47.401  33.000  28.011  1.00  0.00     0.016 A 
ATOM     39  C   UNL A   1      44.922  31.702  27.933  1.00  0.00     0.010 A 
ATOM     40  C   UNL A   1      46.995  32.148  29.038  1.00  0.00     0.010 A 
ATOM     41  C   UNL A   1      45.743  31.503  29.046  1.00  0.00    -0.014 A 
BRANCH  41  42
ATOM     42  C   UNL A   1      45.353  30.758  30.285  1.00  0.00     0.031 A 
ATOM     43  C   UNL A   1      44.387  31.431  31.287  1.00  0.00     0.074 A 
ATOM     44  C   UNL A   1      45.557  29.410  30.335  1.00  0.00     0.049 A 
ATOM     45  N   UNL A   1      43.704  30.858  32.232  1.00  0.00    -0.248 NA
ATOM     46  C   UNL A   1      44.041  32.852  31.222  1.00  0.00     0.031 C 
ATOM     47  C   UNL A   1      44.800  28.522  31.197  1.00  0.00     0.029 A 
ATOM     48  N   UNL A   1      46.271  28.480  29.581  1.00  0.00    -0.354 N 
ATOM     49  C   UNL A   1      42.652  31.673  32.645  1.00  0.00     0.074 A 
ATOM     50  C   UNL A   1      42.974  32.939  32.032  1.00  0.00     0.031 C 
ATOM     51  C   UNL A   1      44.901  27.231  30.844  1.00  0.00     0.029 A 
ATOM     52  C   UNL A   1      46.148  27.187  30.146  1.00  0.00     0.049 A 
ATOM     53  H   UNL A   1      46.789  28.694  28.771  1.00  0.00     0.167 HD
ATOM     54  C   UNL A   1      41.584  31.140  33.343  1.00  0.00     0.037 A 
ATOM     55  C   UNL A   1      47.179  26.578  30.822  1.00  0.00     0.037 A 
ATOM     56  C   UNL A   1      41.848  29.727  33.750  1.00  0.00     0.049 A 
ATOM     57  C   UNL A   1      46.882  26.513  32.361  1.00  0.00     0.074 A 
ATOM     58  C   UNL A   1      41.153  28.527  33.643  1.00  0.00     0.029 A 
ATOM     59  N   UNL A   1      43.106  29.359  34.240  1.00  0.00    -0.354 N 
ATOM     60  N   UNL A   1      46.213  27.453  33.014  1.00  0.00    -0.248 NA
ATOM     61  C   UNL A   1      46.968  25.294  33.175  1.00  0.00     0.031 C 
ATOM     62  C   UNL A   1      42.094  27.456  33.755  1.00  0.00     0.029 A 
ATOM     63  C   UNL A   1      43.317  27.988  34.151  1.00  0.00     0.049 A 
ATOM     64  H   UNL A   1      43.763  29.995  34.603  1.00  0.00     0.167 HD
ATOM     65  C   UNL A   1      45.593  26.922  34.123  1.00  0.00     0.074 A 
ATOM     66  C   UNL A   1      46.196  25.599  34.241  1.00  0.00     0.031 C 
ATOM     67  C   UNL A   1      44.476  27.374  34.793  1.00  0.00     0.037 A 
BRANCH  54  68
ATOM     68  C   UNL A   1      40.163  31.774  33.542  1.00  0.00     0.058 A 
ATOM     69  C   UNL A   1      39.983  32.888  34.410  1.00  0.00     0.135 A 
ATOM     70  C   UNL A   1      38.937  31.312  33.002  1.00  0.00     0.135 A 
ATOM     71  F   UNL A   1      41.026  33.507  34.977  1.00  0.00    -0.206 F 
ATOM     72  C   UNL A   1      38.737  33.452  34.741  1.00  0.00     0.059 A 
ATOM     73  C   UNL A   1      37.676  31.901  33.273  1.00  0.00     0.059 A 
ATOM     74  F   UNL A   1      38.883  30.247  32.195  1.00  0.00    -0.206 F 
ATOM     75  C   UNL A   1      37.582  32.965  34.158  1.00  0.00     0.060 A 
BRANCH  75  76
ATOM     76  S   UNL A   1      36.006  33.780  34.526  1.00  0.00     0.124 S 
ATOM     77  O   UNL A   1      36.216  35.120  33.984  1.00  0.00    -0.237 OA
ATOM     78  O   UNL A   1      35.047  32.951  33.803  1.00  0.00    -0.237 OA
ATOM     79  O   UNL A   1      35.913  33.706  35.981  1.00  0.00    -0.744 OA
ENDBRANCH  75  76
ENDBRANCH  54  68
BRANCH  55  80
ATOM     80  C   UNL A   1      48.414  26.601  29.970  1.00  0.00     0.058 A 
ATOM     81  C   UNL A   1      48.250  25.969  28.710  1.00  0.00     0.135 A 
ATOM     82  C   UNL A   1      49.209  27.764  29.980  1.00  0.00     0.135 A 
ATOM     83  F   UNL A   1      47.538  24.831  28.625  1.00  0.00    -0.206 F 
ATOM     84  C   UNL A   1      48.590  26.602  27.510  1.00  0.00     0.059 A 
ATOM     85  C   UNL A   1      49.552  28.419  28.786  1.00  0.00     0.059 A 
ATOM     86  F   UNL A   1      49.420  28.414  31.135  1.00  0.00    -0.206 F 
ATOM     87  C   UNL A   1      49.172  27.865  27.560  1.00  0.00     0.060 A 
BRANCH  87  88
ATOM     88  S   UNL A   1      49.163  28.884  26.053  1.00  0.00     0.124 S 
ATOM     89  O   UNL A   1      48.706  27.936  25.046  1.00  0.00    -0.237 OA
ATOM     90  O   UNL A   1      48.230  29.952  26.400  1.00  0.00    -0.237 OA
ATOM     91  O   UNL A   1      50.553  29.308  25.948  1.00  0.00    -0.744 OA
ENDBRANCH  87  88
ENDBRANCH  55  80
BRANCH  67  92
ATOM     92  C   UNL A   1      44.439  27.418  36.305  1.00  0.00     0.058 A 
ATOM     93  C   UNL A   1      44.036  26.301  37.045  1.00  0.00     0.135 A 
ATOM     94  C   UNL A   1      45.098  28.448  37.037  1.00  0.00     0.135 A 
ATOM     95  F   UNL A   1      43.468  25.240  36.455  1.00  0.00    -0.206 F 
ATOM     96  C   UNL A   1      44.250  26.216  38.414  1.00  0.00     0.059 A 
ATOM     97  C   UNL A   1      45.379  28.350  38.390  1.00  0.00     0.059 A 
ATOM     98  F   UNL A   1      45.524  29.580  36.459  1.00  0.00    -0.206 F 
ATOM     99  C   UNL A   1      44.922  27.240  39.076  1.00  0.00     0.060 A 
BRANCH  99 100
ATOM    100  S   UNL A   1      45.173  27.114  40.846  1.00  0.00     0.124 S 
ATOM    101  O   UNL A   1      44.794  28.456  41.276  1.00  0.00    -0.237 OA
ATOM    102  O   UNL A   1      44.251  26.045  41.220  1.00  0.00    -0.237 OA
ATOM    103  O   UNL A   1      46.590  26.786  40.970  1.00  0.00    -0.744 OA
ENDBRANCH  99 100
ENDBRANCH  67  92
ENDBRANCH  41  42
ENDBRANCH  34  36
ENDBRANCH  33  34
ENDBRANCH  32  33
ENDBRANCH  31  32
ENDBRANCH  30  31
ENDBRANCH  29  30
ENDBRANCH  28  29
ENDBRANCH  27  28
ENDBRANCH   1  27
TORSDOF 27
ENDMDL
