MODEL 1
REMARK VINA RESULT:     -10.1      0.000      0.000
REMARK SMILES CC1=C(C)C[C@@H](C(=O)OCCOCCOCCOCCOC(=O)c2ccc(-c3c4nc(c(-c5c(F)cc(S(=O)(=O)[O-])cc5F)c5ccc([nH]5)c(-c5c(F)cc(S(=O)(=O)[O-])cc5F)c5nc(c(-c6c(F)cc(S(=O)(=O)[O-])cc6F)c6ccc3[nH]6)C=C5)C=C4)cc2)[C@@H](C(=O)NCC[NH+]2CCOCC2)C1
REMARK SMILES IDX 14 1 13 2 12 3 11 4 10 5 9 6 7 7 8 8 6 9 1 10 2 11 3 12
REMARK SMILES IDX 102 13 4 14 5 15 90 16 91 17 92 18 93 19 94 21 95 22 96 23
REMARK SMILES IDX 97 24 101 25 98 27 100 28 99 29 15 30 16 31 17 32 18 33
REMARK SMILES IDX 19 34 20 35 21 36 22 37 23 38 24 39 25 40 89 41 26 42 88 43
REMARK SMILES IDX 27 44 28 45 29 46 82 47 30 48 87 49 81 50 83 51 31 52 86 53
REMARK SMILES IDX 80 54 79 55 32 57 66 58 45 59 65 60 46 61 49 62 64 63 84 64
REMARK SMILES IDX 47 65 48 66 63 68 85 69 50 70 33 71 34 72 43 73 35 74 36 75
REMARK SMILES IDX 42 76 44 77 37 78 38 79 39 80 40 81 41 82 67 83 68 84 77 85
REMARK SMILES IDX 69 86 70 87 76 88 78 89 71 90 72 91 73 92 74 93 75 94 51 95
REMARK SMILES IDX 52 96 61 97 53 98 54 99 60 100 62 101 55 102 56 103 57 104
REMARK SMILES IDX 58 105 59 106
REMARK H PARENT 93 20 96 26 83 56 49 67
REMARK Flexibility Score: inf
ROOT
ATOM      1  C   UNL A   1      32.202  28.792  27.151  1.00  0.00     0.188 C 
ENDROOT
BRANCH   1   2
ATOM      2  C   UNL A   1      33.317  27.826  26.730  1.00  0.00     0.188 C 
BRANCH   2   3
ATOM      3  O   UNL A   1      33.240  27.102  25.508  1.00  0.00    -0.376 OA
BRANCH   3   4
ATOM      4  C   UNL A   1      32.945  27.780  24.292  1.00  0.00     0.202 C 
BRANCH   4   5
ATOM      5  C   UNL A   1      33.428  27.092  23.027  1.00  0.00     0.261 C 
BRANCH   5   6
ATOM      6  O   UNL A   1      32.325  26.432  22.386  1.00  0.00    -0.463 OA
BRANCH   6   7
ATOM      7  C   UNL A   1      32.538  25.169  21.982  1.00  0.00     0.310 C 
ATOM      8  O   UNL A   1      33.233  24.852  21.021  1.00  0.00    -0.252 OA
BRANCH   7   9
ATOM      9  C   UNL A   1      31.702  24.147  22.718  1.00  0.00     0.116 C 
ATOM     10  C   UNL A   1      31.036  23.217  26.936  1.00  0.00     0.039 C 
ATOM     11  C   UNL A   1      30.951  23.529  25.472  1.00  0.00    -0.074 C 
ATOM     12  C   UNL A   1      30.581  24.720  24.960  1.00  0.00    -0.073 C 
ATOM     13  C   UNL A   1      31.332  22.428  24.509  1.00  0.00     0.045 C 
ATOM     14  C   UNL A   1      30.083  25.902  25.741  1.00  0.00     0.039 C 
ATOM     15  C   UNL A   1      30.606  24.929  23.469  1.00  0.00     0.046 C 
ATOM     16  C   UNL A   1      32.338  22.948  23.472  1.00  0.00     0.097 C 
BRANCH  16  17
ATOM     17  C   UNL A   1      33.712  23.054  24.145  1.00  0.00     0.224 C 
ATOM     18  O   UNL A   1      34.136  24.020  24.763  1.00  0.00    -0.275 OA
ATOM     19  N   UNL A   1      34.513  21.927  23.968  1.00  0.00    -0.350 N 
ATOM     20  H   UNL A   1      34.903  21.719  23.088  1.00  0.00     0.163 HD
BRANCH  19  21
ATOM     21  C   UNL A   1      34.760  21.062  25.125  1.00  0.00     0.177 C 
BRANCH  21  22
ATOM     22  C   UNL A   1      34.814  19.538  24.862  1.00  0.00     0.283 C 
BRANCH  22  23
ATOM     23  N   UNL A   1      33.668  18.655  25.134  1.00  0.00    -0.330 N 
ATOM     24  C   UNL A   1      33.880  17.216  24.927  1.00  0.00     0.291 C 
ATOM     25  C   UNL A   1      32.457  19.048  24.406  1.00  0.00     0.291 C 
ATOM     26  H   UNL A   1      33.550  18.792  26.138  1.00  0.00     0.348 HD
ATOM     27  C   UNL A   1      33.886  16.774  23.457  1.00  0.00     0.221 C 
ATOM     28  C   UNL A   1      32.609  18.786  22.915  1.00  0.00     0.221 C 
ATOM     29  O   UNL A   1      32.925  17.428  22.627  1.00  0.00    -0.370 OA
ENDBRANCH  22  23
ENDBRANCH  21  22
ENDBRANCH  19  21
ENDBRANCH  16  17
ENDBRANCH   7   9
ENDBRANCH   6   7
ENDBRANCH   5   6
ENDBRANCH   4   5
ENDBRANCH   3   4
ENDBRANCH   2   3
ENDBRANCH   1   2
BRANCH   1  30
ATOM     30  O   UNL A   1      32.383  30.196  27.190  1.00  0.00    -0.377 OA
BRANCH  30  31
ATOM     31  C   UNL A   1      33.639  30.780  26.878  1.00  0.00     0.188 C 
BRANCH  31  32
ATOM     32  C   UNL A   1      34.492  31.319  28.027  1.00  0.00     0.188 C 
BRANCH  32  33
ATOM     33  O   UNL A   1      34.566  32.731  28.026  1.00  0.00    -0.376 OA
BRANCH  33  34
ATOM     34  C   UNL A   1      34.365  33.400  29.259  1.00  0.00     0.202 C 
BRANCH  34  35
ATOM     35  C   UNL A   1      35.363  33.305  30.428  1.00  0.00     0.261 C 
BRANCH  35  36
ATOM     36  O   UNL A   1      35.912  32.011  30.715  1.00  0.00    -0.460 OA
BRANCH  36  37
ATOM     37  C   UNL A   1      36.884  31.868  31.635  1.00  0.00     0.338 C 
ATOM     38  O   UNL A   1      36.904  32.363  32.754  1.00  0.00    -0.246 OA
BRANCH  37  39
ATOM     39  C   UNL A   1      38.005  31.097  31.037  1.00  0.00     0.060 A 
ATOM     40  C   UNL A   1      38.909  30.366  31.817  1.00  0.00     0.016 A 
ATOM     41  C   UNL A   1      38.142  31.091  29.648  1.00  0.00     0.016 A 
ATOM     42  C   UNL A   1      39.966  29.661  31.208  1.00  0.00     0.010 A 
ATOM     43  C   UNL A   1      39.155  30.334  29.041  1.00  0.00     0.010 A 
ATOM     44  C   UNL A   1      40.121  29.657  29.811  1.00  0.00    -0.014 A 
BRANCH  44  45
ATOM     45  C   UNL A   1      41.386  29.169  29.166  1.00  0.00     0.031 A 
ATOM     46  C   UNL A   1      42.530  30.155  29.023  1.00  0.00     0.074 A 
ATOM     47  C   UNL A   1      41.570  27.900  28.734  1.00  0.00     0.049 A 
ATOM     48  N   UNL A   1      43.718  29.991  28.492  1.00  0.00    -0.248 NA
ATOM     49  C   UNL A   1      42.292  31.520  29.525  1.00  0.00     0.031 C 
ATOM     50  C   UNL A   1      40.579  26.825  28.777  1.00  0.00     0.029 A 
ATOM     51  N   UNL A   1      42.677  27.299  28.168  1.00  0.00    -0.354 N 
ATOM     52  C   UNL A   1      44.351  31.225  28.599  1.00  0.00     0.074 A 
ATOM     53  C   UNL A   1      43.389  32.152  29.144  1.00  0.00     0.031 C 
ATOM     54  C   UNL A   1      41.127  25.697  28.283  1.00  0.00     0.029 A 
ATOM     55  C   UNL A   1      42.506  25.964  27.868  1.00  0.00     0.049 A 
ATOM     56  H   UNL A   1      43.516  27.782  27.994  1.00  0.00     0.167 HD
ATOM     57  C   UNL A   1      45.634  31.565  28.332  1.00  0.00     0.037 A 
ATOM     58  C   UNL A   1      43.359  25.061  27.331  1.00  0.00     0.037 A 
ATOM     59  C   UNL A   1      46.625  30.659  27.823  1.00  0.00     0.049 A 
ATOM     60  C   UNL A   1      44.775  25.476  26.982  1.00  0.00     0.074 A 
ATOM     61  C   UNL A   1      47.955  30.914  27.539  1.00  0.00     0.029 A 
ATOM     62  N   UNL A   1      46.400  29.324  27.532  1.00  0.00    -0.354 N 
ATOM     63  N   UNL A   1      45.365  26.637  27.147  1.00  0.00    -0.248 NA
ATOM     64  C   UNL A   1      45.646  24.450  26.383  1.00  0.00     0.031 C 
ATOM     65  C   UNL A   1      48.526  29.741  27.037  1.00  0.00     0.029 A 
ATOM     66  C   UNL A   1      47.566  28.744  27.061  1.00  0.00     0.049 A 
ATOM     67  H   UNL A   1      45.541  28.857  27.644  1.00  0.00     0.167 HD
ATOM     68  C   UNL A   1      46.682  26.462  26.719  1.00  0.00     0.074 A 
ATOM     69  C   UNL A   1      46.806  25.085  26.298  1.00  0.00     0.031 C 
ATOM     70  C   UNL A   1      47.696  27.361  26.679  1.00  0.00     0.037 A 
BRANCH  57  71
ATOM     71  C   UNL A   1      46.046  32.982  28.623  1.00  0.00     0.058 A 
ATOM     72  C   UNL A   1      46.593  33.342  29.867  1.00  0.00     0.135 A 
ATOM     73  C   UNL A   1      45.916  33.985  27.650  1.00  0.00     0.135 A 
ATOM     74  F   UNL A   1      46.718  32.427  30.842  1.00  0.00    -0.206 F 
ATOM     75  C   UNL A   1      46.967  34.651  30.145  1.00  0.00     0.059 A 
ATOM     76  C   UNL A   1      46.316  35.294  27.895  1.00  0.00     0.059 A 
ATOM     77  F   UNL A   1      45.395  33.695  26.447  1.00  0.00    -0.206 F 
ATOM     78  C   UNL A   1      46.828  35.619  29.151  1.00  0.00     0.060 A 
BRANCH  78  79
ATOM     79  S   UNL A   1      47.338  37.309  29.525  1.00  0.00     0.124 S 
ATOM     80  O   UNL A   1      46.145  37.835  30.181  1.00  0.00    -0.237 OA
ATOM     81  O   UNL A   1      48.496  37.098  30.389  1.00  0.00    -0.237 OA
ATOM     82  O   UNL A   1      47.633  37.874  28.212  1.00  0.00    -0.744 OA
ENDBRANCH  78  79
ENDBRANCH  57  71
BRANCH  58  83
ATOM     83  C   UNL A   1      42.938  23.646  27.092  1.00  0.00     0.058 A 
ATOM     84  C   UNL A   1      42.968  22.693  28.126  1.00  0.00     0.135 A 
ATOM     85  C   UNL A   1      42.587  23.192  25.811  1.00  0.00     0.135 A 
ATOM     86  F   UNL A   1      43.317  23.066  29.367  1.00  0.00    -0.206 F 
ATOM     87  C   UNL A   1      42.711  21.345  27.893  1.00  0.00     0.059 A 
ATOM     88  C   UNL A   1      42.294  21.853  25.558  1.00  0.00     0.059 A 
ATOM     89  F   UNL A   1      42.538  24.053  24.783  1.00  0.00    -0.206 F 
ATOM     90  C   UNL A   1      42.378  20.932  26.602  1.00  0.00     0.060 A 
BRANCH  90  91
ATOM     91  S   UNL A   1      42.044  19.180  26.310  1.00  0.00     0.124 S 
ATOM     92  O   UNL A   1      42.220  18.619  27.644  1.00  0.00    -0.237 OA
ATOM     93  O   UNL A   1      40.675  19.209  25.804  1.00  0.00    -0.237 OA
ATOM     94  O   UNL A   1      43.059  18.803  25.329  1.00  0.00    -0.744 OA
ENDBRANCH  90  91
ENDBRANCH  58  83
BRANCH  70  95
ATOM     95  C   UNL A   1      49.054  26.887  26.231  1.00  0.00     0.058 A 
ATOM     96  C   UNL A   1      49.453  26.929  24.886  1.00  0.00     0.135 A 
ATOM     97  C   UNL A   1      49.998  26.448  27.176  1.00  0.00     0.135 A 
ATOM     98  F   UNL A   1      48.595  27.343  23.939  1.00  0.00    -0.206 F 
ATOM     99  C   UNL A   1      50.727  26.527  24.490  1.00  0.00     0.059 A 
ATOM    100  C   UNL A   1      51.287  26.071  26.807  1.00  0.00     0.059 A 
ATOM    101  F   UNL A   1      49.679  26.402  28.479  1.00  0.00    -0.206 F 
ATOM    102  C   UNL A   1      51.637  26.102  25.459  1.00  0.00     0.060 A 
BRANCH 102 103
ATOM    103  S   UNL A   1      53.296  25.615  24.935  1.00  0.00     0.124 S 
ATOM    104  O   UNL A   1      54.131  26.341  25.885  1.00  0.00    -0.237 OA
ATOM    105  O   UNL A   1      53.261  24.165  25.098  1.00  0.00    -0.237 OA
ATOM    106  O   UNL A   1      53.367  26.081  23.553  1.00  0.00    -0.744 OA
ENDBRANCH 102 103
ENDBRANCH  70  95
ENDBRANCH  44  45
ENDBRANCH  37  39
ENDBRANCH  36  37
ENDBRANCH  35  36
ENDBRANCH  34  35
ENDBRANCH  33  34
ENDBRANCH  32  33
ENDBRANCH  31  32
ENDBRANCH  30  31
ENDBRANCH   1  30
TORSDOF 27
ENDMDL
MODEL 2
REMARK VINA RESULT:      -9.4      1.784      2.656
REMARK SMILES CC1=C(C)C[C@@H](C(=O)OCCOCCOCCOCCOC(=O)c2ccc(-c3c4nc(c(-c5c(F)cc(S(=O)(=O)[O-])cc5F)c5ccc([nH]5)c(-c5c(F)cc(S(=O)(=O)[O-])cc5F)c5nc(c(-c6c(F)cc(S(=O)(=O)[O-])cc6F)c6ccc3[nH]6)C=C5)C=C4)cc2)[C@@H](C(=O)NCC[NH+]2CCOCC2)C1
REMARK SMILES IDX 14 1 13 2 12 3 11 4 10 5 9 6 7 7 8 8 6 9 1 10 2 11 3 12
REMARK SMILES IDX 102 13 4 14 5 15 90 16 91 17 92 18 93 19 94 21 95 22 96 23
REMARK SMILES IDX 97 24 101 25 98 27 100 28 99 29 15 30 16 31 17 32 18 33
REMARK SMILES IDX 19 34 20 35 21 36 22 37 23 38 24 39 25 40 89 41 26 42 88 43
REMARK SMILES IDX 27 44 28 45 29 46 82 47 30 48 87 49 81 50 83 51 31 52 86 53
REMARK SMILES IDX 80 54 79 55 32 57 66 58 45 59 65 60 46 61 49 62 64 63 84 64
REMARK SMILES IDX 47 65 48 66 63 68 85 69 50 70 33 71 34 72 43 73 35 74 36 75
REMARK SMILES IDX 42 76 44 77 37 78 38 79 39 80 40 81 41 82 67 83 68 84 77 85
REMARK SMILES IDX 69 86 70 87 76 88 78 89 71 90 72 91 73 92 74 93 75 94 51 95
REMARK SMILES IDX 52 96 61 97 53 98 54 99 60 100 62 101 55 102 56 103 57 104
REMARK SMILES IDX 58 105 59 106
REMARK H PARENT 93 20 96 26 83 56 49 67
REMARK Flexibility Score: inf
ROOT
ATOM      1  C   UNL A   1      31.775  29.985  26.997  1.00  0.00     0.188 C 
ENDROOT
BRANCH   1   2
ATOM      2  C   UNL A   1      32.367  28.578  27.136  1.00  0.00     0.188 C 
BRANCH   2   3
ATOM      3  O   UNL A   1      32.928  27.901  26.017  1.00  0.00    -0.376 OA
BRANCH   3   4
ATOM      4  C   UNL A   1      33.031  28.563  24.760  1.00  0.00     0.202 C 
BRANCH   4   5
ATOM      5  C   UNL A   1      34.192  28.122  23.885  1.00  0.00     0.261 C 
BRANCH   5   6
ATOM      6  O   UNL A   1      33.689  27.435  22.728  1.00  0.00    -0.463 OA
BRANCH   6   7
ATOM      7  C   UNL A   1      33.601  26.098  22.818  1.00  0.00     0.310 C 
ATOM      8  O   UNL A   1      34.563  25.341  22.911  1.00  0.00    -0.252 OA
BRANCH   7   9
ATOM      9  C   UNL A   1      32.200  25.568  22.624  1.00  0.00     0.116 C 
ATOM     10  C   UNL A   1      28.303  26.541  24.348  1.00  0.00     0.039 C 
ATOM     11  C   UNL A   1      29.487  26.228  23.483  1.00  0.00    -0.074 C 
ATOM     12  C   UNL A   1      30.162  27.132  22.746  1.00  0.00    -0.073 C 
ATOM     13  C   UNL A   1      29.964  24.793  23.460  1.00  0.00     0.045 C 
ATOM     14  C   UNL A   1      29.795  28.577  22.565  1.00  0.00     0.039 C 
ATOM     15  C   UNL A   1      31.382  26.702  21.974  1.00  0.00     0.046 C 
ATOM     16  C   UNL A   1      31.476  24.727  23.711  1.00  0.00     0.097 C 
BRANCH  16  17
ATOM     17  C   UNL A   1      31.727  24.955  25.207  1.00  0.00     0.224 C 
ATOM     18  O   UNL A   1      30.868  25.084  26.067  1.00  0.00    -0.275 OA
ATOM     19  N   UNL A   1      33.076  25.050  25.543  1.00  0.00    -0.350 N 
ATOM     20  H   UNL A   1      33.607  25.837  25.282  1.00  0.00     0.163 HD
BRANCH  19  21
ATOM     21  C   UNL A   1      33.683  23.948  26.296  1.00  0.00     0.177 C 
BRANCH  21  22
ATOM     22  C   UNL A   1      35.010  23.372  25.747  1.00  0.00     0.283 C 
BRANCH  22  23
ATOM     23  N   UNL A   1      35.099  22.738  24.421  1.00  0.00    -0.330 N 
ATOM     24  C   UNL A   1      33.977  21.877  24.025  1.00  0.00     0.291 C 
ATOM     25  C   UNL A   1      36.343  21.986  24.228  1.00  0.00     0.291 C 
ATOM     26  H   UNL A   1      35.070  23.556  23.811  1.00  0.00     0.348 HD
ATOM     27  C   UNL A   1      33.961  20.496  24.695  1.00  0.00     0.221 C 
ATOM     28  C   UNL A   1      36.360  20.732  25.090  1.00  0.00     0.221 C 
ATOM     29  O   UNL A   1      35.242  19.885  24.848  1.00  0.00    -0.370 OA
ENDBRANCH  22  23
ENDBRANCH  21  22
ENDBRANCH  19  21
ENDBRANCH  16  17
ENDBRANCH   7   9
ENDBRANCH   6   7
ENDBRANCH   5   6
ENDBRANCH   4   5
ENDBRANCH   3   4
ENDBRANCH   2   3
ENDBRANCH   1   2
BRANCH   1  30
ATOM     30  O   UNL A   1      32.567  31.121  26.700  1.00  0.00    -0.377 OA
BRANCH  30  31
ATOM     31  C   UNL A   1      33.863  31.274  27.259  1.00  0.00     0.188 C 
BRANCH  31  32
ATOM     32  C   UNL A   1      34.000  32.061  28.564  1.00  0.00     0.188 C 
BRANCH  32  33
ATOM     33  O   UNL A   1      34.013  33.458  28.351  1.00  0.00    -0.376 OA
BRANCH  33  34
ATOM     34  C   UNL A   1      33.703  34.293  29.453  1.00  0.00     0.202 C 
BRANCH  34  35
ATOM     35  C   UNL A   1      34.379  34.138  30.829  1.00  0.00     0.261 C 
BRANCH  35  36
ATOM     36  O   UNL A   1      34.361  32.832  31.422  1.00  0.00    -0.460 OA
BRANCH  36  37
ATOM     37  C   UNL A   1      35.207  32.522  32.422  1.00  0.00     0.338 C 
ATOM     38  O   UNL A   1      35.093  32.848  33.596  1.00  0.00    -0.246 OA
BRANCH  37  39
ATOM     39  C   UNL A   1      36.382  31.809  31.858  1.00  0.00     0.060 A 
ATOM     40  C   UNL A   1      37.228  31.022  32.647  1.00  0.00     0.016 A 
ATOM     41  C   UNL A   1      36.631  31.916  30.488  1.00  0.00     0.016 A 
ATOM     42  C   UNL A   1      38.339  30.374  32.071  1.00  0.00     0.010 A 
ATOM     43  C   UNL A   1      37.699  31.216  29.906  1.00  0.00     0.010 A 
ATOM     44  C   UNL A   1      38.607  30.485  30.696  1.00  0.00    -0.014 A 
BRANCH  44  45
ATOM     45  C   UNL A   1      39.926  30.057  30.119  1.00  0.00     0.031 A 
ATOM     46  C   UNL A   1      41.057  31.069  30.119  1.00  0.00     0.074 A 
ATOM     47  C   UNL A   1      40.167  28.820  29.628  1.00  0.00     0.049 A 
ATOM     48  N   UNL A   1      42.283  30.957  29.669  1.00  0.00    -0.248 NA
ATOM     49  C   UNL A   1      40.754  32.397  30.681  1.00  0.00     0.031 C 
ATOM     50  C   UNL A   1      39.199  27.728  29.534  1.00  0.00     0.029 A 
ATOM     51  N   UNL A   1      41.325  28.272  29.111  1.00  0.00    -0.354 N 
ATOM     52  C   UNL A   1      42.881  32.193  29.896  1.00  0.00     0.074 A 
ATOM     53  C   UNL A   1      41.862  33.069  30.421  1.00  0.00     0.031 C 
ATOM     54  C   UNL A   1      39.805  26.641  29.016  1.00  0.00     0.029 A 
ATOM     55  C   UNL A   1      41.204  26.955  28.722  1.00  0.00     0.049 A 
ATOM     56  H   UNL A   1      42.165  28.779  29.028  1.00  0.00     0.167 HD
ATOM     57  C   UNL A   1      44.172  32.569  29.745  1.00  0.00     0.037 A 
ATOM     58  C   UNL A   1      42.113  26.100  28.197  1.00  0.00     0.037 A 
ATOM     59  C   UNL A   1      45.217  31.712  29.259  1.00  0.00     0.049 A 
ATOM     60  C   UNL A   1      43.542  26.559  27.979  1.00  0.00     0.074 A 
ATOM     61  C   UNL A   1      46.558  32.005  29.090  1.00  0.00     0.029 A 
ATOM     62  N   UNL A   1      45.042  30.394  28.874  1.00  0.00    -0.354 N 
ATOM     63  N   UNL A   1      44.094  27.717  28.255  1.00  0.00    -0.248 NA
ATOM     64  C   UNL A   1      44.476  25.585  27.387  1.00  0.00     0.031 C 
ATOM     65  C   UNL A   1      47.189  30.875  28.563  1.00  0.00     0.029 A 
ATOM     66  C   UNL A   1      46.250  29.862  28.457  1.00  0.00     0.049 A 
ATOM     67  H   UNL A   1      44.186  29.907  28.894  1.00  0.00     0.167 HD
ATOM     68  C   UNL A   1      45.442  27.590  27.917  1.00  0.00     0.074 A 
ATOM     69  C   UNL A   1      45.625  26.243  27.426  1.00  0.00     0.031 C 
ATOM     70  C   UNL A   1      46.437  28.507  28.005  1.00  0.00     0.037 A 
BRANCH  57  71
ATOM     71  C   UNL A   1      44.532  33.973  30.148  1.00  0.00     0.058 A 
ATOM     72  C   UNL A   1      44.856  34.289  31.479  1.00  0.00     0.135 A 
ATOM     73  C   UNL A   1      44.576  35.006  29.200  1.00  0.00     0.135 A 
ATOM     74  F   UNL A   1      44.806  33.343  32.431  1.00  0.00    -0.206 F 
ATOM     75  C   UNL A   1      45.179  35.585  31.860  1.00  0.00     0.059 A 
ATOM     76  C   UNL A   1      44.932  36.304  29.553  1.00  0.00     0.059 A 
ATOM     77  F   UNL A   1      44.272  34.759  27.916  1.00  0.00    -0.206 F 
ATOM     78  C   UNL A   1      45.219  36.585  30.888  1.00  0.00     0.060 A 
BRANCH  78  79
ATOM     79  S   UNL A   1      45.661  38.258  31.400  1.00  0.00     0.124 S 
ATOM     80  O   UNL A   1      45.582  38.149  32.853  1.00  0.00    -0.237 OA
ATOM     81  O   UNL A   1      47.004  38.406  30.847  1.00  0.00    -0.237 OA
ATOM     82  O   UNL A   1      44.634  39.087  30.777  1.00  0.00    -0.744 OA
ENDBRANCH  78  79
ENDBRANCH  57  71
BRANCH  58  83
ATOM     83  C   UNL A   1      41.741  24.695  27.845  1.00  0.00     0.058 A 
ATOM     84  C   UNL A   1      42.148  23.613  28.645  1.00  0.00     0.135 A 
ATOM     85  C   UNL A   1      41.054  24.394  26.658  1.00  0.00     0.135 A 
ATOM     86  F   UNL A   1      42.826  23.839  29.781  1.00  0.00    -0.206 F 
ATOM     87  C   UNL A   1      41.928  22.291  28.263  1.00  0.00     0.059 A 
ATOM     88  C   UNL A   1      40.794  23.081  26.270  1.00  0.00     0.059 A 
ATOM     89  F   UNL A   1      40.638  25.384  25.853  1.00  0.00    -0.206 F 
ATOM     90  C   UNL A   1      41.253  22.035  27.070  1.00  0.00     0.060 A 
BRANCH  90  91
ATOM     91  S   UNL A   1      40.971  20.317  26.584  1.00  0.00     0.124 S 
ATOM     92  O   UNL A   1      42.101  20.072  25.696  1.00  0.00    -0.237 OA
ATOM     93  O   UNL A   1      41.006  19.624  27.868  1.00  0.00    -0.237 OA
ATOM     94  O   UNL A   1      39.661  20.360  25.939  1.00  0.00    -0.744 OA
ENDBRANCH  90  91
ENDBRANCH  58  83
BRANCH  70  95
ATOM     95  C   UNL A   1      47.834  28.084  27.632  1.00  0.00     0.058 A 
ATOM     96  C   UNL A   1      48.741  27.586  28.580  1.00  0.00     0.135 A 
ATOM     97  C   UNL A   1      48.247  28.112  26.288  1.00  0.00     0.135 A 
ATOM     98  F   UNL A   1      48.401  27.533  29.878  1.00  0.00    -0.206 F 
ATOM     99  C   UNL A   1      50.016  27.158  28.216  1.00  0.00     0.059 A 
ATOM    100  C   UNL A   1      49.505  27.659  25.896  1.00  0.00     0.059 A 
ATOM    101  F   UNL A   1      47.417  28.562  25.334  1.00  0.00    -0.206 F 
ATOM    102  C   UNL A   1      50.387  27.196  26.870  1.00  0.00     0.060 A 
BRANCH 102 103
ATOM    103  S   UNL A   1      52.031  26.607  26.409  1.00  0.00     0.124 S 
ATOM    104  O   UNL A   1      51.707  25.476  25.546  1.00  0.00    -0.237 OA
ATOM    105  O   UNL A   1      52.603  27.772  25.741  1.00  0.00    -0.237 OA
ATOM    106  O   UNL A   1      52.643  26.265  27.689  1.00  0.00    -0.744 OA
ENDBRANCH 102 103
ENDBRANCH  70  95
ENDBRANCH  44  45
ENDBRANCH  37  39
ENDBRANCH  36  37
ENDBRANCH  35  36
ENDBRANCH  34  35
ENDBRANCH  33  34
ENDBRANCH  32  33
ENDBRANCH  31  32
ENDBRANCH  30  31
ENDBRANCH   1  30
TORSDOF 27
ENDMDL
MODEL 3
REMARK VINA RESULT:      -9.3      1.356      2.024
REMARK SMILES CC1=C(C)C[C@@H](C(=O)OCCOCCOCCOCCOC(=O)c2ccc(-c3c4nc(c(-c5c(F)cc(S(=O)(=O)[O-])cc5F)c5ccc([nH]5)c(-c5c(F)cc(S(=O)(=O)[O-])cc5F)c5nc(c(-c6c(F)cc(S(=O)(=O)[O-])cc6F)c6ccc3[nH]6)C=C5)C=C4)cc2)[C@@H](C(=O)NCC[NH+]2CCOCC2)C1
REMARK SMILES IDX 14 1 13 2 12 3 11 4 10 5 9 6 7 7 8 8 6 9 1 10 2 11 3 12
REMARK SMILES IDX 102 13 4 14 5 15 90 16 91 17 92 18 93 19 94 21 95 22 96 23
REMARK SMILES IDX 97 24 101 25 98 27 100 28 99 29 15 30 16 31 17 32 18 33
REMARK SMILES IDX 19 34 20 35 21 36 22 37 23 38 24 39 25 40 89 41 26 42 88 43
REMARK SMILES IDX 27 44 28 45 29 46 82 47 30 48 87 49 81 50 83 51 31 52 86 53
REMARK SMILES IDX 80 54 79 55 32 57 66 58 45 59 65 60 46 61 49 62 64 63 84 64
REMARK SMILES IDX 47 65 48 66 63 68 85 69 50 70 33 71 34 72 43 73 35 74 36 75
REMARK SMILES IDX 42 76 44 77 37 78 38 79 39 80 40 81 41 82 67 83 68 84 77 85
REMARK SMILES IDX 69 86 70 87 76 88 78 89 71 90 72 91 73 92 74 93 75 94 51 95
REMARK SMILES IDX 52 96 61 97 53 98 54 99 60 100 62 101 55 102 56 103 57 104
REMARK SMILES IDX 58 105 59 106
REMARK H PARENT 93 20 96 26 83 56 49 67
REMARK Flexibility Score: inf
ROOT
ATOM      1  C   UNL A   1      32.141  29.736  27.243  1.00  0.00     0.188 C 
ENDROOT
BRANCH   1   2
ATOM      2  C   UNL A   1      32.806  28.373  27.020  1.00  0.00     0.188 C 
BRANCH   2   3
ATOM      3  O   UNL A   1      33.422  28.049  25.779  1.00  0.00    -0.376 OA
BRANCH   3   4
ATOM      4  C   UNL A   1      33.142  28.824  24.618  1.00  0.00     0.202 C 
BRANCH   4   5
ATOM      5  C   UNL A   1      34.089  28.613  23.448  1.00  0.00     0.261 C 
BRANCH   5   6
ATOM      6  O   UNL A   1      33.423  27.862  22.420  1.00  0.00    -0.463 OA
BRANCH   6   7
ATOM      7  C   UNL A   1      33.513  26.525  22.503  1.00  0.00     0.310 C 
ATOM      8  O   UNL A   1      34.566  25.895  22.483  1.00  0.00    -0.252 OA
BRANCH   7   9
ATOM      9  C   UNL A   1      32.176  25.823  22.455  1.00  0.00     0.116 C 
ATOM     10  C   UNL A   1      28.473  26.148  24.755  1.00  0.00     0.039 C 
ATOM     11  C   UNL A   1      29.552  26.053  23.718  1.00  0.00    -0.074 C 
ATOM     12  C   UNL A   1      29.997  27.085  22.973  1.00  0.00    -0.073 C 
ATOM     13  C   UNL A   1      30.197  24.701  23.515  1.00  0.00     0.045 C 
ATOM     14  C   UNL A   1      29.429  28.475  22.960  1.00  0.00     0.039 C 
ATOM     15  C   UNL A   1      31.138  26.874  22.014  1.00  0.00     0.046 C 
ATOM     16  C   UNL A   1      31.726  24.825  23.557  1.00  0.00     0.097 C 
BRANCH  16  17
ATOM     17  C   UNL A   1      32.157  24.991  25.020  1.00  0.00     0.224 C 
ATOM     18  O   UNL A   1      31.427  24.905  25.997  1.00  0.00    -0.275 OA
ATOM     19  N   UNL A   1      33.507  25.301  25.177  1.00  0.00    -0.350 N 
ATOM     20  H   UNL A   1      33.854  26.186  24.921  1.00  0.00     0.163 HD
BRANCH  19  21
ATOM     21  C   UNL A   1      34.394  24.276  25.734  1.00  0.00     0.177 C 
BRANCH  21  22
ATOM     22  C   UNL A   1      35.755  24.068  25.028  1.00  0.00     0.283 C 
BRANCH  22  23
ATOM     23  N   UNL A   1      35.915  23.142  23.894  1.00  0.00    -0.330 N 
ATOM     24  C   UNL A   1      34.688  22.532  23.362  1.00  0.00     0.291 C 
ATOM     25  C   UNL A   1      36.878  22.069  24.163  1.00  0.00     0.291 C 
ATOM     26  H   UNL A   1      36.264  23.773  23.174  1.00  0.00     0.348 HD
ATOM     27  C   UNL A   1      34.111  21.399  24.221  1.00  0.00     0.221 C 
ATOM     28  C   UNL A   1      36.332  21.091  25.192  1.00  0.00     0.221 C 
ATOM     29  O   UNL A   1      35.083  20.530  24.805  1.00  0.00    -0.370 OA
ENDBRANCH  22  23
ENDBRANCH  21  22
ENDBRANCH  19  21
ENDBRANCH  16  17
ENDBRANCH   7   9
ENDBRANCH   6   7
ENDBRANCH   5   6
ENDBRANCH   4   5
ENDBRANCH   3   4
ENDBRANCH   2   3
ENDBRANCH   1   2
BRANCH   1  30
ATOM     30  O   UNL A   1      32.852  30.957  27.149  1.00  0.00    -0.377 OA
BRANCH  30  31
ATOM     31  C   UNL A   1      34.265  30.992  27.284  1.00  0.00     0.188 C 
BRANCH  31  32
ATOM     32  C   UNL A   1      34.857  31.697  28.506  1.00  0.00     0.188 C 
BRANCH  32  33
ATOM     33  O   UNL A   1      35.322  32.998  28.203  1.00  0.00    -0.376 OA
BRANCH  33  34
ATOM     34  C   UNL A   1      35.319  33.956  29.247  1.00  0.00     0.202 C 
BRANCH  34  35
ATOM     35  C   UNL A   1      36.205  33.823  30.500  1.00  0.00     0.261 C 
BRANCH  35  36
ATOM     36  O   UNL A   1      36.346  32.511  31.066  1.00  0.00    -0.460 OA
BRANCH  36  37
ATOM     37  C   UNL A   1      37.282  32.265  32.001  1.00  0.00     0.338 C 
ATOM     38  O   UNL A   1      37.299  32.703  33.144  1.00  0.00    -0.246 OA
BRANCH  37  39
ATOM     39  C   UNL A   1      38.371  31.458  31.394  1.00  0.00     0.060 A 
ATOM     40  C   UNL A   1      39.317  30.777  32.168  1.00  0.00     0.016 A 
ATOM     41  C   UNL A   1      38.434  31.365  30.002  1.00  0.00     0.016 A 
ATOM     42  C   UNL A   1      40.342  30.034  31.549  1.00  0.00     0.010 A 
ATOM     43  C   UNL A   1      39.415  30.571  29.390  1.00  0.00     0.010 A 
ATOM     44  C   UNL A   1      40.423  29.943  30.148  1.00  0.00    -0.014 A 
BRANCH  44  45
ATOM     45  C   UNL A   1      41.653  29.415  29.468  1.00  0.00     0.031 A 
ATOM     46  C   UNL A   1      42.841  30.349  29.335  1.00  0.00     0.074 A 
ATOM     47  C   UNL A   1      41.769  28.152  28.996  1.00  0.00     0.049 A 
ATOM     48  N   UNL A   1      44.010  30.146  28.780  1.00  0.00    -0.248 NA
ATOM     49  C   UNL A   1      42.676  31.709  29.880  1.00  0.00     0.031 C 
ATOM     50  C   UNL A   1      40.728  27.125  29.025  1.00  0.00     0.029 A 
ATOM     51  N   UNL A   1      42.837  27.516  28.395  1.00  0.00    -0.354 N 
ATOM     52  C   UNL A   1      44.704  31.344  28.913  1.00  0.00     0.074 A 
ATOM     53  C   UNL A   1      43.796  32.299  29.500  1.00  0.00     0.031 C 
ATOM     54  C   UNL A   1      41.214  25.988  28.488  1.00  0.00     0.029 A 
ATOM     55  C   UNL A   1      42.597  26.201  28.059  1.00  0.00     0.049 A 
ATOM     56  H   UNL A   1      43.696  27.964  28.221  1.00  0.00     0.167 HD
ATOM     57  C   UNL A   1      45.998  31.630  28.634  1.00  0.00     0.037 A 
ATOM     58  C   UNL A   1      43.398  25.275  27.482  1.00  0.00     0.037 A 
ATOM     59  C   UNL A   1      46.936  30.694  28.083  1.00  0.00     0.049 A 
ATOM     60  C   UNL A   1      44.826  25.632  27.121  1.00  0.00     0.074 A 
ATOM     61  C   UNL A   1      48.273  30.893  27.784  1.00  0.00     0.029 A 
ATOM     62  N   UNL A   1      46.643  29.381  27.757  1.00  0.00    -0.354 N 
ATOM     63  N   UNL A   1      45.474  26.758  27.310  1.00  0.00    -0.248 NA
ATOM     64  C   UNL A   1      45.638  24.584  26.478  1.00  0.00     0.031 C 
ATOM     65  C   UNL A   1      48.779  29.711  27.239  1.00  0.00     0.029 A 
ATOM     66  C   UNL A   1      47.772  28.760  27.250  1.00  0.00     0.049 A 
ATOM     67  H   UNL A   1      45.764  28.952  27.869  1.00  0.00     0.167 HD
ATOM     68  C   UNL A   1      46.775  26.534  26.856  1.00  0.00     0.074 A 
ATOM     69  C   UNL A   1      46.826  25.166  26.393  1.00  0.00     0.031 C 
ATOM     70  C   UNL A   1      47.830  27.385  26.825  1.00  0.00     0.037 A 
BRANCH  57  71
ATOM     71  C   UNL A   1      46.481  33.017  28.959  1.00  0.00     0.058 A 
ATOM     72  C   UNL A   1      46.420  34.052  28.009  1.00  0.00     0.135 A 
ATOM     73  C   UNL A   1      46.989  33.324  30.230  1.00  0.00     0.135 A 
ATOM     74  F   UNL A   1      45.965  33.808  26.769  1.00  0.00    -0.206 F 
ATOM     75  C   UNL A   1      46.873  35.333  28.299  1.00  0.00     0.059 A 
ATOM     76  C   UNL A   1      47.416  34.608  30.554  1.00  0.00     0.059 A 
ATOM     77  F   UNL A   1      47.073  32.371  31.172  1.00  0.00    -0.206 F 
ATOM     78  C   UNL A   1      47.366  35.601  29.576  1.00  0.00     0.060 A 
BRANCH  78  79
ATOM     79  S   UNL A   1      47.931  37.276  29.940  1.00  0.00     0.124 S 
ATOM     80  O   UNL A   1      46.731  37.871  30.519  1.00  0.00    -0.237 OA
ATOM     81  O   UNL A   1      49.032  37.037  30.868  1.00  0.00    -0.237 OA
ATOM     82  O   UNL A   1      48.319  37.795  28.631  1.00  0.00    -0.744 OA
ENDBRANCH  78  79
ENDBRANCH  57  71
BRANCH  58  83
ATOM     83  C   UNL A   1      42.907  23.889  27.208  1.00  0.00     0.058 A 
ATOM     84  C   UNL A   1      42.904  22.906  28.214  1.00  0.00     0.135 A 
ATOM     85  C   UNL A   1      42.517  23.490  25.920  1.00  0.00     0.135 A 
ATOM     86  F   UNL A   1      43.286  23.225  29.461  1.00  0.00    -0.206 F 
ATOM     87  C   UNL A   1      42.578  21.579  27.946  1.00  0.00     0.059 A 
ATOM     88  C   UNL A   1      42.156  22.174  25.634  1.00  0.00     0.059 A 
ATOM     89  F   UNL A   1      42.496  24.382  24.918  1.00  0.00    -0.206 F 
ATOM     90  C   UNL A   1      42.210  21.221  26.650  1.00  0.00     0.060 A 
BRANCH  90  91
ATOM     91  S   UNL A   1      41.787  19.496  26.312  1.00  0.00     0.124 S 
ATOM     92  O   UNL A   1      42.632  19.205  25.160  1.00  0.00    -0.237 OA
ATOM     93  O   UNL A   1      42.161  18.838  27.560  1.00  0.00    -0.237 OA
ATOM     94  O   UNL A   1      40.353  19.547  26.044  1.00  0.00    -0.744 OA
ENDBRANCH  90  91
ENDBRANCH  58  83
BRANCH  70  95
ATOM     95  C   UNL A   1      49.157  26.860  26.341  1.00  0.00     0.058 A 
ATOM     96  C   UNL A   1      49.619  27.089  25.035  1.00  0.00     0.135 A 
ATOM     97  C   UNL A   1      50.012  26.176  27.223  1.00  0.00     0.135 A 
ATOM     98  F   UNL A   1      48.847  27.739  24.150  1.00  0.00    -0.206 F 
ATOM     99  C   UNL A   1      50.865  26.635  24.613  1.00  0.00     0.059 A 
ATOM    100  C   UNL A   1      51.276  25.740  26.832  1.00  0.00     0.059 A 
ATOM    101  F   UNL A   1      49.632  25.943  28.489  1.00  0.00    -0.206 F 
ATOM    102  C   UNL A   1      51.688  25.964  25.519  1.00  0.00     0.060 A 
BRANCH 102 103
ATOM    103  S   UNL A   1      53.316  25.409  24.967  1.00  0.00     0.124 S 
ATOM    104  O   UNL A   1      54.194  26.364  25.634  1.00  0.00    -0.237 OA
ATOM    105  O   UNL A   1      53.366  24.040  25.470  1.00  0.00    -0.237 OA
ATOM    106  O   UNL A   1      53.243  25.533  23.514  1.00  0.00    -0.744 OA
ENDBRANCH 102 103
ENDBRANCH  70  95
ENDBRANCH  44  45
ENDBRANCH  37  39
ENDBRANCH  36  37
ENDBRANCH  35  36
ENDBRANCH  34  35
ENDBRANCH  33  34
ENDBRANCH  32  33
ENDBRANCH  31  32
ENDBRANCH  30  31
ENDBRANCH   1  30
TORSDOF 27
ENDMDL
