MODEL 1
REMARK VINA RESULT:      -8.0      0.000      0.000
REMARK SMILES O=C(OCCOCCOCCOCCOC(=O)c1cnccc1C(=O)N1CCC(Cc2ccccc2)CC1)c1ccc(-c2c3nc(c(-c4c(F)cc(S(=O)(=O)[O-])cc4F)c4ccc([nH]4)c(-c4c(F)cc(S(=O)(=O)[O-])cc4F)c4nc(c(-c5c(F)cc(S(=O)(=O)[O-])cc5F)c5ccc2[nH]5)C=C4)C=C3)cc1
REMARK SMILES IDX 9 1 8 2 7 3 6 4 5 5 4 6 3 7 2 8 1 9 39 10 40 11 104 12 41 13
REMARK SMILES IDX 103 14 42 15 43 16 44 17 97 18 45 19 102 20 96 21 98 22
REMARK SMILES IDX 46 23 101 24 95 25 94 26 47 28 81 29 60 30 80 31 61 32 64 33
REMARK SMILES IDX 79 34 99 35 62 36 63 37 78 39 100 40 65 41 48 42 49 43 58 44
REMARK SMILES IDX 50 45 51 46 57 47 59 48 52 49 53 50 54 51 55 52 56 53 82 54
REMARK SMILES IDX 83 55 92 56 84 57 85 58 91 59 93 60 86 61 87 62 88 63 89 64
REMARK SMILES IDX 90 65 66 66 67 67 76 68 68 69 69 70 75 71 77 72 70 73 71 74
REMARK SMILES IDX 72 75 73 76 74 77 10 78 11 79 12 80 13 81 14 82 15 83 16 84
REMARK SMILES IDX 17 85 18 86 19 87 23 88 20 89 22 90 21 91 24 92 25 93 26 94
REMARK SMILES IDX 27 95 38 96 28 97 37 98 29 99 30 100 31 101 32 102 36 103
REMARK SMILES IDX 33 104 35 105 34 106
REMARK H PARENT 98 27 64 38
REMARK Flexibility Score: inf
ROOT
ATOM      1  O   UNL A   1      53.186  24.084  42.482  1.00  0.00    -0.377 OA
ENDROOT
BRANCH   1   2
ATOM      2  C   UNL A   1      52.987  24.320  41.083  1.00  0.00     0.188 C 
BRANCH   2   3
ATOM      3  C   UNL A   1      51.815  25.237  40.718  1.00  0.00     0.188 C 
BRANCH   3   4
ATOM      4  O   UNL A   1      50.659  24.456  40.439  1.00  0.00    -0.376 OA
BRANCH   4   5
ATOM      5  C   UNL A   1      49.448  25.151  40.177  1.00  0.00     0.202 C 
BRANCH   5   6
ATOM      6  C   UNL A   1      49.270  25.537  38.714  1.00  0.00     0.261 C 
BRANCH   6   7
ATOM      7  O   UNL A   1      48.164  26.427  38.521  1.00  0.00    -0.460 OA
BRANCH   7   8
ATOM      8  C   UNL A   1      48.153  27.590  37.823  1.00  0.00     0.338 C 
ATOM      9  O   UNL A   1      49.167  28.289  37.857  1.00  0.00    -0.246 OA
BRANCH   8  10
ATOM     10  C   UNL A   1      47.006  28.079  36.990  1.00  0.00     0.060 A 
ATOM     11  C   UNL A   1      47.066  29.075  36.012  1.00  0.00     0.016 A 
ATOM     12  C   UNL A   1      45.782  27.407  37.158  1.00  0.00     0.016 A 
ATOM     13  C   UNL A   1      45.959  29.424  35.251  1.00  0.00     0.010 A 
ATOM     14  C   UNL A   1      44.660  27.747  36.397  1.00  0.00     0.010 A 
ATOM     15  C   UNL A   1      44.745  28.781  35.459  1.00  0.00    -0.014 A 
BRANCH  15  16
ATOM     16  C   UNL A   1      43.547  29.379  34.849  1.00  0.00     0.031 A 
ATOM     17  C   UNL A   1      43.147  28.872  33.497  1.00  0.00     0.074 A 
ATOM     18  C   UNL A   1      42.771  30.219  35.555  1.00  0.00     0.049 A 
ATOM     19  N   UNL A   1      42.188  29.270  32.711  1.00  0.00    -0.248 NA
ATOM     20  C   UNL A   1      43.936  27.745  32.962  1.00  0.00     0.031 C 
ATOM     21  C   UNL A   1      43.012  30.627  36.941  1.00  0.00     0.029 A 
ATOM     22  N   UNL A   1      41.611  30.858  35.216  1.00  0.00    -0.354 N 
ATOM     23  C   UNL A   1      42.279  28.470  31.578  1.00  0.00     0.074 A 
ATOM     24  C   UNL A   1      43.385  27.563  31.774  1.00  0.00     0.031 C 
ATOM     25  C   UNL A   1      42.021  31.446  37.335  1.00  0.00     0.029 A 
ATOM     26  C   UNL A   1      41.122  31.673  36.210  1.00  0.00     0.049 A 
ATOM     27  H   UNL A   1      41.167  30.746  34.344  1.00  0.00     0.167 HD
ATOM     28  C   UNL A   1      41.507  28.508  30.469  1.00  0.00     0.037 A 
ATOM     29  C   UNL A   1      40.088  32.537  36.180  1.00  0.00     0.037 A 
ATOM     30  C   UNL A   1      40.415  29.429  30.320  1.00  0.00     0.049 A 
ATOM     31  C   UNL A   1      39.309  32.644  34.894  1.00  0.00     0.074 A 
ATOM     32  C   UNL A   1      39.597  29.636  29.228  1.00  0.00     0.029 A 
ATOM     33  N   UNL A   1      39.992  30.304  31.315  1.00  0.00    -0.354 N 
ATOM     34  N   UNL A   1      39.456  31.955  33.784  1.00  0.00    -0.248 NA
ATOM     35  C   UNL A   1      38.244  33.650  34.842  1.00  0.00     0.031 C 
ATOM     36  C   UNL A   1      38.708  30.669  29.548  1.00  0.00     0.029 A 
ATOM     37  C   UNL A   1      38.937  31.067  30.858  1.00  0.00     0.049 A 
ATOM     38  H   UNL A   1      40.388  30.368  32.215  1.00  0.00     0.167 HD
ATOM     39  C   UNL A   1      38.492  32.433  32.906  1.00  0.00     0.074 A 
ATOM     40  C   UNL A   1      37.758  33.460  33.623  1.00  0.00     0.031 C 
ATOM     41  C   UNL A   1      38.236  32.071  31.623  1.00  0.00     0.037 A 
BRANCH  28  42
ATOM     42  C   UNL A   1      41.889  27.598  29.336  1.00  0.00     0.058 A 
ATOM     43  C   UNL A   1      41.135  26.463  28.997  1.00  0.00     0.135 A 
ATOM     44  C   UNL A   1      43.068  27.840  28.611  1.00  0.00     0.135 A 
ATOM     45  F   UNL A   1      40.022  26.161  29.682  1.00  0.00    -0.206 F 
ATOM     46  C   UNL A   1      41.553  25.583  28.001  1.00  0.00     0.059 A 
ATOM     47  C   UNL A   1      43.491  26.988  27.596  1.00  0.00     0.059 A 
ATOM     48  F   UNL A   1      43.837  28.900  28.907  1.00  0.00    -0.206 F 
ATOM     49  C   UNL A   1      42.736  25.852  27.310  1.00  0.00     0.060 A 
BRANCH  49  50
ATOM     50  S   UNL A   1      43.279  24.691  26.039  1.00  0.00     0.124 S 
ATOM     51  O   UNL A   1      44.097  23.766  26.819  1.00  0.00    -0.237 OA
ATOM     52  O   UNL A   1      42.015  24.156  25.545  1.00  0.00    -0.237 OA
ATOM     53  O   UNL A   1      44.011  25.533  25.097  1.00  0.00    -0.744 OA
ENDBRANCH  49  50
ENDBRANCH  28  42
BRANCH  29  54
ATOM     54  C   UNL A   1      39.784  33.395  37.358  1.00  0.00     0.058 A 
ATOM     55  C   UNL A   1      38.786  33.051  38.282  1.00  0.00     0.135 A 
ATOM     56  C   UNL A   1      40.495  34.586  37.589  1.00  0.00     0.135 A 
ATOM     57  F   UNL A   1      38.069  31.930  38.107  1.00  0.00    -0.206 F 
ATOM     58  C   UNL A   1      38.495  33.857  39.381  1.00  0.00     0.059 A 
ATOM     59  C   UNL A   1      40.243  35.393  38.695  1.00  0.00     0.059 A 
ATOM     60  F   UNL A   1      41.466  34.966  36.744  1.00  0.00    -0.206 F 
ATOM     61  C   UNL A   1      39.232  35.026  39.580  1.00  0.00     0.060 A 
BRANCH  61  62
ATOM     62  S   UNL A   1      38.877  36.044  41.030  1.00  0.00     0.124 S 
ATOM     63  O   UNL A   1      40.119  35.925  41.785  1.00  0.00    -0.237 OA
ATOM     64  O   UNL A   1      38.614  37.348  40.430  1.00  0.00    -0.237 OA
ATOM     65  O   UNL A   1      37.713  35.389  41.623  1.00  0.00    -0.744 OA
ENDBRANCH  61  62
ENDBRANCH  29  54
BRANCH  41  66
ATOM     66  C   UNL A   1      37.096  32.765  30.938  1.00  0.00     0.058 A 
ATOM     67  C   UNL A   1      37.315  33.751  29.965  1.00  0.00     0.135 A 
ATOM     68  C   UNL A   1      35.774  32.381  31.207  1.00  0.00     0.135 A 
ATOM     69  F   UNL A   1      38.564  34.155  29.679  1.00  0.00    -0.206 F 
ATOM     70  C   UNL A   1      36.257  34.349  29.294  1.00  0.00     0.059 A 
ATOM     71  C   UNL A   1      34.702  32.943  30.527  1.00  0.00     0.059 A 
ATOM     72  F   UNL A   1      35.518  31.430  32.121  1.00  0.00    -0.206 F 
ATOM     73  C   UNL A   1      34.954  33.934  29.579  1.00  0.00     0.060 A 
BRANCH  73  74
ATOM     74  S   UNL A   1      33.590  34.682  28.665  1.00  0.00     0.124 S 
ATOM     75  O   UNL A   1      33.260  33.624  27.716  1.00  0.00    -0.237 OA
ATOM     76  O   UNL A   1      32.606  34.923  29.715  1.00  0.00    -0.237 OA
ATOM     77  O   UNL A   1      34.187  35.882  28.087  1.00  0.00    -0.744 OA
ENDBRANCH  73  74
ENDBRANCH  41  66
ENDBRANCH  15  16
ENDBRANCH   8  10
ENDBRANCH   7   8
ENDBRANCH   6   7
ENDBRANCH   5   6
ENDBRANCH   4   5
ENDBRANCH   3   4
ENDBRANCH   2   3
ENDBRANCH   1   2
BRANCH   1  78
ATOM     78  C   UNL A   1      53.681  22.802  42.864  1.00  0.00     0.188 C 
BRANCH  78  79
ATOM     79  C   UNL A   1      52.703  21.601  42.935  1.00  0.00     0.188 C 
BRANCH  79  80
ATOM     80  O   UNL A   1      52.456  20.991  41.684  1.00  0.00    -0.376 OA
BRANCH  80  81
ATOM     81  C   UNL A   1      51.122  20.627  41.377  1.00  0.00     0.202 C 
BRANCH  81  82
ATOM     82  C   UNL A   1      50.612  19.218  41.704  1.00  0.00     0.261 C 
BRANCH  82  83
ATOM     83  O   UNL A   1      49.218  18.951  41.490  1.00  0.00    -0.460 OA
BRANCH  83  84
ATOM     84  C   UNL A   1      48.415  18.804  42.559  1.00  0.00     0.340 C 
ATOM     85  O   UNL A   1      48.510  19.384  43.632  1.00  0.00    -0.246 OA
BRANCH  84  86
ATOM     86  C   UNL A   1      47.294  17.924  42.221  1.00  0.00     0.091 A 
ATOM     87  C   UNL A   1      47.298  16.718  42.928  1.00  0.00     0.127 A 
ATOM     88  C   UNL A   1      46.193  18.211  41.407  1.00  0.00     0.057 A 
ATOM     89  N   UNL A   1      46.282  15.823  42.939  1.00  0.00    -0.264 NA
ATOM     90  C   UNL A   1      45.140  17.269  41.402  1.00  0.00     0.035 A 
ATOM     91  C   UNL A   1      45.215  16.127  42.182  1.00  0.00     0.112 A 
BRANCH  88  92
ATOM     92  C   UNL A   1      45.879  19.486  40.683  1.00  0.00     0.254 C 
ATOM     93  O   UNL A   1      45.384  20.389  41.369  1.00  0.00    -0.269 OA
ATOM     94  N   UNL A   1      46.180  19.734  39.341  1.00  0.00    -0.339 N 
ATOM     95  C   UNL A   1      46.822  21.031  39.117  1.00  0.00     0.120 C 
ATOM     96  C   UNL A   1      46.086  18.763  38.249  1.00  0.00     0.120 C 
ATOM     97  C   UNL A   1      46.854  21.543  37.686  1.00  0.00     0.025 C 
ATOM     98  C   UNL A   1      46.072  19.365  36.848  1.00  0.00     0.025 C 
ATOM     99  C   UNL A   1      47.171  20.428  36.693  1.00  0.00    -0.003 C 
BRANCH  99 100
ATOM    100  C   UNL A   1      47.251  20.908  35.235  1.00  0.00     0.039 C 
BRANCH 100 101
ATOM    101  C   UNL A   1      46.393  22.106  34.901  1.00  0.00    -0.048 A 
ATOM    102  C   UNL A   1      46.947  23.393  34.951  1.00  0.00     0.004 A 
ATOM    103  C   UNL A   1      45.035  21.968  34.579  1.00  0.00     0.004 A 
ATOM    104  C   UNL A   1      46.162  24.518  34.700  1.00  0.00     0.000 A 
ATOM    105  C   UNL A   1      44.250  23.097  34.327  1.00  0.00     0.000 A 
ATOM    106  C   UNL A   1      44.812  24.371  34.392  1.00  0.00     0.000 A 
ENDBRANCH 100 101
ENDBRANCH  99 100
ENDBRANCH  88  92
ENDBRANCH  84  86
ENDBRANCH  83  84
ENDBRANCH  82  83
ENDBRANCH  81  82
ENDBRANCH  80  81
ENDBRANCH  79  80
ENDBRANCH  78  79
ENDBRANCH   1  78
TORSDOF 26
ENDMDL
MODEL 2
REMARK VINA RESULT:      -7.8      1.060      2.035
REMARK SMILES O=C(OCCOCCOCCOCCOC(=O)c1cnccc1C(=O)N1CCC(Cc2ccccc2)CC1)c1ccc(-c2c3nc(c(-c4c(F)cc(S(=O)(=O)[O-])cc4F)c4ccc([nH]4)c(-c4c(F)cc(S(=O)(=O)[O-])cc4F)c4nc(c(-c5c(F)cc(S(=O)(=O)[O-])cc5F)c5ccc2[nH]5)C=C4)C=C3)cc1
REMARK SMILES IDX 9 1 8 2 7 3 6 4 5 5 4 6 3 7 2 8 1 9 39 10 40 11 104 12 41 13
REMARK SMILES IDX 103 14 42 15 43 16 44 17 97 18 45 19 102 20 96 21 98 22
REMARK SMILES IDX 46 23 101 24 95 25 94 26 47 28 81 29 60 30 80 31 61 32 64 33
REMARK SMILES IDX 79 34 99 35 62 36 63 37 78 39 100 40 65 41 48 42 49 43 58 44
REMARK SMILES IDX 50 45 51 46 57 47 59 48 52 49 53 50 54 51 55 52 56 53 82 54
REMARK SMILES IDX 83 55 92 56 84 57 85 58 91 59 93 60 86 61 87 62 88 63 89 64
REMARK SMILES IDX 90 65 66 66 67 67 76 68 68 69 69 70 75 71 77 72 70 73 71 74
REMARK SMILES IDX 72 75 73 76 74 77 10 78 11 79 12 80 13 81 14 82 15 83 16 84
REMARK SMILES IDX 17 85 18 86 19 87 23 88 20 89 22 90 21 91 24 92 25 93 26 94
REMARK SMILES IDX 27 95 38 96 28 97 37 98 29 99 30 100 31 101 32 102 36 103
REMARK SMILES IDX 33 104 35 105 34 106
REMARK H PARENT 98 27 64 38
REMARK Flexibility Score: inf
ROOT
ATOM      1  O   UNL A   1      52.889  23.703  41.962  1.00  0.00    -0.377 OA
ENDROOT
BRANCH   1   2
ATOM      2  C   UNL A   1      52.736  23.943  40.558  1.00  0.00     0.188 C 
BRANCH   2   3
ATOM      3  C   UNL A   1      51.592  24.881  40.160  1.00  0.00     0.188 C 
BRANCH   3   4
ATOM      4  O   UNL A   1      50.391  24.134  39.994  1.00  0.00    -0.376 OA
BRANCH   4   5
ATOM      5  C   UNL A   1      49.186  24.865  39.817  1.00  0.00     0.202 C 
BRANCH   5   6
ATOM      6  C   UNL A   1      48.975  25.359  38.391  1.00  0.00     0.261 C 
BRANCH   6   7
ATOM      7  O   UNL A   1      47.914  26.317  38.303  1.00  0.00    -0.460 OA
BRANCH   7   8
ATOM      8  C   UNL A   1      47.914  27.487  37.615  1.00  0.00     0.338 C 
ATOM      9  O   UNL A   1      48.936  28.173  37.652  1.00  0.00    -0.246 OA
BRANCH   8  10
ATOM     10  C   UNL A   1      46.770  27.998  36.793  1.00  0.00     0.060 A 
ATOM     11  C   UNL A   1      46.832  29.021  35.843  1.00  0.00     0.016 A 
ATOM     12  C   UNL A   1      45.547  27.319  36.937  1.00  0.00     0.016 A 
ATOM     13  C   UNL A   1      45.728  29.390  35.088  1.00  0.00     0.010 A 
ATOM     14  C   UNL A   1      44.426  27.679  36.181  1.00  0.00     0.010 A 
ATOM     15  C   UNL A   1      44.514  28.739  35.273  1.00  0.00    -0.014 A 
BRANCH  15  16
ATOM     16  C   UNL A   1      43.318  29.352  34.675  1.00  0.00     0.031 A 
ATOM     17  C   UNL A   1      42.889  28.840  33.334  1.00  0.00     0.074 A 
ATOM     18  C   UNL A   1      42.567  30.213  35.385  1.00  0.00     0.049 A 
ATOM     19  N   UNL A   1      41.924  29.247  32.559  1.00  0.00    -0.248 NA
ATOM     20  C   UNL A   1      43.649  27.695  32.799  1.00  0.00     0.031 C 
ATOM     21  C   UNL A   1      42.836  30.630  36.763  1.00  0.00     0.029 A 
ATOM     22  N   UNL A   1      41.413  30.869  35.057  1.00  0.00    -0.354 N 
ATOM     23  C   UNL A   1      41.985  28.436  31.432  1.00  0.00     0.074 A 
ATOM     24  C   UNL A   1      43.077  27.511  31.620  1.00  0.00     0.031 C 
ATOM     25  C   UNL A   1      41.866  31.469  37.164  1.00  0.00     0.029 A 
ATOM     26  C   UNL A   1      40.954  31.702  36.050  1.00  0.00     0.049 A 
ATOM     27  H   UNL A   1      40.954  30.757  34.193  1.00  0.00     0.167 HD
ATOM     28  C   UNL A   1      41.196  28.477  30.335  1.00  0.00     0.037 A 
ATOM     29  C   UNL A   1      39.935  32.583  36.027  1.00  0.00     0.037 A 
ATOM     30  C   UNL A   1      40.118  29.415  30.194  1.00  0.00     0.049 A 
ATOM     31  C   UNL A   1      39.138  32.692  34.753  1.00  0.00     0.074 A 
ATOM     32  C   UNL A   1      39.287  29.626  29.112  1.00  0.00     0.029 A 
ATOM     33  N   UNL A   1      39.726  30.307  31.187  1.00  0.00    -0.354 N 
ATOM     34  N   UNL A   1      39.256  31.990  33.647  1.00  0.00    -0.248 NA
ATOM     35  C   UNL A   1      38.090  33.716  34.707  1.00  0.00     0.031 C 
ATOM     36  C   UNL A   1      38.422  30.678  29.435  1.00  0.00     0.029 A 
ATOM     37  C   UNL A   1      38.678  31.084  30.738  1.00  0.00     0.049 A 
ATOM     38  H   UNL A   1      40.137  30.373  32.079  1.00  0.00     0.167 HD
ATOM     39  C   UNL A   1      38.288  32.477  32.779  1.00  0.00     0.074 A 
ATOM     40  C   UNL A   1      37.582  33.523  33.497  1.00  0.00     0.031 C 
ATOM     41  C   UNL A   1      38.005  32.108  31.504  1.00  0.00     0.037 A 
BRANCH  28  42
ATOM     42  C   UNL A   1      41.545  27.550  29.205  1.00  0.00     0.058 A 
ATOM     43  C   UNL A   1      40.752  26.440  28.871  1.00  0.00     0.135 A 
ATOM     44  C   UNL A   1      42.730  27.748  28.478  1.00  0.00     0.135 A 
ATOM     45  F   UNL A   1      39.630  26.179  29.560  1.00  0.00    -0.206 F 
ATOM     46  C   UNL A   1      41.138  25.542  27.879  1.00  0.00     0.059 A 
ATOM     47  C   UNL A   1      43.123  26.878  27.465  1.00  0.00     0.059 A 
ATOM     48  F   UNL A   1      43.536  28.782  28.768  1.00  0.00    -0.206 F 
ATOM     49  C   UNL A   1      42.328  25.768  27.185  1.00  0.00     0.060 A 
BRANCH  49  50
ATOM     50  S   UNL A   1      42.829  24.583  25.918  1.00  0.00     0.124 S 
ATOM     51  O   UNL A   1      42.633  25.362  24.697  1.00  0.00    -0.237 OA
ATOM     52  O   UNL A   1      44.216  24.310  26.278  1.00  0.00    -0.237 OA
ATOM     53  O   UNL A   1      41.904  23.470  26.106  1.00  0.00    -0.744 OA
ENDBRANCH  49  50
ENDBRANCH  28  42
BRANCH  29  54
ATOM     54  C   UNL A   1      39.664  33.457  37.202  1.00  0.00     0.058 A 
ATOM     55  C   UNL A   1      40.351  34.665  37.395  1.00  0.00     0.135 A 
ATOM     56  C   UNL A   1      38.701  33.102  38.163  1.00  0.00     0.135 A 
ATOM     57  F   UNL A   1      41.288  35.052  36.516  1.00  0.00    -0.206 F 
ATOM     58  C   UNL A   1      40.104  35.480  38.499  1.00  0.00     0.059 A 
ATOM     59  C   UNL A   1      38.416  33.912  39.258  1.00  0.00     0.059 A 
ATOM     60  F   UNL A   1      38.006  31.960  38.030  1.00  0.00    -0.206 F 
ATOM     61  C   UNL A   1      39.131  35.096  39.423  1.00  0.00     0.060 A 
BRANCH  61  62
ATOM     62  S   UNL A   1      38.788  36.179  40.828  1.00  0.00     0.124 S 
ATOM     63  O   UNL A   1      38.458  37.433  40.159  1.00  0.00    -0.237 OA
ATOM     64  O   UNL A   1      37.679  35.491  41.481  1.00  0.00    -0.237 OA
ATOM     65  O   UNL A   1      40.045  36.173  41.572  1.00  0.00    -0.744 OA
ENDBRANCH  61  62
ENDBRANCH  29  54
BRANCH  41  66
ATOM     66  C   UNL A   1      36.868  32.815  30.829  1.00  0.00     0.058 A 
ATOM     67  C   UNL A   1      35.536  32.430  31.039  1.00  0.00     0.135 A 
ATOM     68  C   UNL A   1      37.116  33.936  30.022  1.00  0.00     0.135 A 
ATOM     69  F   UNL A   1      35.252  31.360  31.799  1.00  0.00    -0.206 F 
ATOM     70  C   UNL A   1      34.484  33.125  30.456  1.00  0.00     0.059 A 
ATOM     71  C   UNL A   1      36.079  34.663  29.453  1.00  0.00     0.059 A 
ATOM     72  F   UNL A   1      38.375  34.347  29.804  1.00  0.00    -0.206 F 
ATOM     73  C   UNL A   1      34.767  34.243  29.668  1.00  0.00     0.060 A 
BRANCH  73  74
ATOM     74  S   UNL A   1      33.391  35.167  28.956  1.00  0.00     0.124 S 
ATOM     75  O   UNL A   1      34.093  36.190  28.189  1.00  0.00    -0.237 OA
ATOM     76  O   UNL A   1      32.703  34.147  28.172  1.00  0.00    -0.237 OA
ATOM     77  O   UNL A   1      32.662  35.647  30.126  1.00  0.00    -0.744 OA
ENDBRANCH  73  74
ENDBRANCH  41  66
ENDBRANCH  15  16
ENDBRANCH   8  10
ENDBRANCH   7   8
ENDBRANCH   6   7
ENDBRANCH   5   6
ENDBRANCH   4   5
ENDBRANCH   3   4
ENDBRANCH   2   3
ENDBRANCH   1   2
BRANCH   1  78
ATOM     78  C   UNL A   1      53.432  22.443  42.354  1.00  0.00     0.188 C 
BRANCH  78  79
ATOM     79  C   UNL A   1      52.470  21.274  42.690  1.00  0.00     0.188 C 
BRANCH  79  80
ATOM     80  O   UNL A   1      52.454  20.250  41.716  1.00  0.00    -0.376 OA
BRANCH  80  81
ATOM     81  C   UNL A   1      51.196  19.817  41.231  1.00  0.00     0.202 C 
BRANCH  81  82
ATOM     82  C   UNL A   1      50.430  18.704  41.959  1.00  0.00     0.261 C 
BRANCH  82  83
ATOM     83  O   UNL A   1      49.019  18.605  41.721  1.00  0.00    -0.460 OA
BRANCH  83  84
ATOM     84  C   UNL A   1      48.173  18.815  42.746  1.00  0.00     0.340 C 
ATOM     85  O   UNL A   1      48.375  19.510  43.732  1.00  0.00    -0.246 OA
BRANCH  84  86
ATOM     86  C   UNL A   1      46.881  18.186  42.460  1.00  0.00     0.091 A 
ATOM     87  C   UNL A   1      46.604  17.085  43.276  1.00  0.00     0.127 A 
ATOM     88  C   UNL A   1      45.880  18.638  41.595  1.00  0.00     0.057 A 
ATOM     89  N   UNL A   1      45.409  16.451  43.342  1.00  0.00    -0.264 NA
ATOM     90  C   UNL A   1      44.638  17.966  41.648  1.00  0.00     0.035 A 
ATOM     91  C   UNL A   1      44.445  16.917  42.532  1.00  0.00     0.112 A 
BRANCH  88  92
ATOM     92  C   UNL A   1      45.872  19.875  40.748  1.00  0.00     0.254 C 
ATOM     93  O   UNL A   1      45.447  20.901  41.293  1.00  0.00    -0.269 OA
ATOM     94  N   UNL A   1      46.377  19.952  39.447  1.00  0.00    -0.339 N 
ATOM     95  C   UNL A   1      47.243  21.112  39.226  1.00  0.00     0.120 C 
ATOM     96  C   UNL A   1      46.265  18.913  38.421  1.00  0.00     0.120 C 
ATOM     97  C   UNL A   1      47.539  21.482  37.781  1.00  0.00     0.025 C 
ATOM     98  C   UNL A   1      46.527  19.381  36.994  1.00  0.00     0.025 C 
ATOM     99  C   UNL A   1      47.795  20.246  36.920  1.00  0.00    -0.003 C 
BRANCH  99 100
ATOM    100  C   UNL A   1      48.136  20.576  35.458  1.00  0.00     0.039 C 
BRANCH 100 101
ATOM    101  C   UNL A   1      49.552  21.043  35.215  1.00  0.00    -0.048 A 
ATOM    102  C   UNL A   1      49.852  21.776  34.058  1.00  0.00     0.004 A 
ATOM    103  C   UNL A   1      50.591  20.726  36.101  1.00  0.00     0.004 A 
ATOM    104  C   UNL A   1      51.162  22.172  33.784  1.00  0.00     0.000 A 
ATOM    105  C   UNL A   1      51.902  21.125  35.826  1.00  0.00     0.000 A 
ATOM    106  C   UNL A   1      52.187  21.843  34.666  1.00  0.00     0.000 A 
ENDBRANCH 100 101
ENDBRANCH  99 100
ENDBRANCH  88  92
ENDBRANCH  84  86
ENDBRANCH  83  84
ENDBRANCH  82  83
ENDBRANCH  81  82
ENDBRANCH  80  81
ENDBRANCH  79  80
ENDBRANCH  78  79
ENDBRANCH   1  78
TORSDOF 26
ENDMDL
MODEL 3
REMARK VINA RESULT:      -7.7      7.978     15.480
REMARK SMILES O=C(OCCOCCOCCOCCOC(=O)c1cnccc1C(=O)N1CCC(Cc2ccccc2)CC1)c1ccc(-c2c3nc(c(-c4c(F)cc(S(=O)(=O)[O-])cc4F)c4ccc([nH]4)c(-c4c(F)cc(S(=O)(=O)[O-])cc4F)c4nc(c(-c5c(F)cc(S(=O)(=O)[O-])cc5F)c5ccc2[nH]5)C=C4)C=C3)cc1
REMARK SMILES IDX 9 1 8 2 7 3 6 4 5 5 4 6 3 7 2 8 1 9 39 10 40 11 104 12 41 13
REMARK SMILES IDX 103 14 42 15 43 16 44 17 97 18 45 19 102 20 96 21 98 22
REMARK SMILES IDX 46 23 101 24 95 25 94 26 47 28 81 29 60 30 80 31 61 32 64 33
REMARK SMILES IDX 79 34 99 35 62 36 63 37 78 39 100 40 65 41 48 42 49 43 58 44
REMARK SMILES IDX 50 45 51 46 57 47 59 48 52 49 53 50 54 51 55 52 56 53 82 54
REMARK SMILES IDX 83 55 92 56 84 57 85 58 91 59 93 60 86 61 87 62 88 63 89 64
REMARK SMILES IDX 90 65 66 66 67 67 76 68 68 69 69 70 75 71 77 72 70 73 71 74
REMARK SMILES IDX 72 75 73 76 74 77 10 78 11 79 12 80 13 81 14 82 15 83 16 84
REMARK SMILES IDX 17 85 18 86 19 87 23 88 20 89 22 90 21 91 24 92 25 93 26 94
REMARK SMILES IDX 27 95 38 96 28 97 37 98 29 99 30 100 31 101 32 102 36 103
REMARK SMILES IDX 33 104 35 105 34 106
REMARK H PARENT 98 27 64 38
REMARK Flexibility Score: inf
ROOT
ATOM      1  O   UNL A   1      42.581  27.733  34.162  1.00  0.00    -0.377 OA
ENDROOT
BRANCH   1   2
ATOM      2  C   UNL A   1      41.740  27.852  35.315  1.00  0.00     0.188 C 
BRANCH   2   3
ATOM      3  C   UNL A   1      41.563  29.269  35.872  1.00  0.00     0.188 C 
BRANCH   3   4
ATOM      4  O   UNL A   1      40.187  29.511  36.146  1.00  0.00    -0.376 OA
BRANCH   4   5
ATOM      5  C   UNL A   1      39.699  30.827  35.929  1.00  0.00     0.202 C 
BRANCH   5   6
ATOM      6  C   UNL A   1      38.179  30.911  35.860  1.00  0.00     0.261 C 
BRANCH   6   7
ATOM      7  O   UNL A   1      37.736  31.984  35.019  1.00  0.00    -0.460 OA
BRANCH   7   8
ATOM      8  C   UNL A   1      38.240  33.241  34.952  1.00  0.00     0.338 C 
ATOM      9  O   UNL A   1      37.718  34.107  35.657  1.00  0.00    -0.246 OA
BRANCH   8  10
ATOM     10  C   UNL A   1      39.403  33.655  34.101  1.00  0.00     0.060 A 
ATOM     11  C   UNL A   1      39.369  33.905  32.727  1.00  0.00     0.016 A 
ATOM     12  C   UNL A   1      40.614  33.894  34.775  1.00  0.00     0.016 A 
ATOM     13  C   UNL A   1      40.488  34.337  32.032  1.00  0.00     0.010 A 
ATOM     14  C   UNL A   1      41.750  34.332  34.087  1.00  0.00     0.010 A 
ATOM     15  C   UNL A   1      41.690  34.527  32.703  1.00  0.00    -0.014 A 
BRANCH  15  16
ATOM     16  C   UNL A   1      42.903  34.695  31.888  1.00  0.00     0.031 A 
ATOM     17  C   UNL A   1      43.628  36.002  32.009  1.00  0.00     0.074 A 
ATOM     18  C   UNL A   1      43.411  33.658  31.200  1.00  0.00     0.049 A 
ATOM     19  N   UNL A   1      44.670  36.437  31.359  1.00  0.00    -0.248 NA
ATOM     20  C   UNL A   1      43.109  36.946  33.017  1.00  0.00     0.031 C 
ATOM     21  C   UNL A   1      42.846  32.306  31.172  1.00  0.00     0.029 A 
ATOM     22  N   UNL A   1      44.528  33.569  30.416  1.00  0.00    -0.354 N 
ATOM     23  C   UNL A   1      44.909  37.714  31.852  1.00  0.00     0.074 A 
ATOM     24  C   UNL A   1      43.907  37.988  32.854  1.00  0.00     0.031 C 
ATOM     25  C   UNL A   1      43.628  31.521  30.411  1.00  0.00     0.029 A 
ATOM     26  C   UNL A   1      44.701  32.330  29.846  1.00  0.00     0.049 A 
ATOM     27  H   UNL A   1      45.149  34.320  30.274  1.00  0.00     0.167 HD
ATOM     28  C   UNL A   1      45.878  38.580  31.482  1.00  0.00     0.037 A 
ATOM     29  C   UNL A   1      45.605  31.926  28.932  1.00  0.00     0.037 A 
ATOM     30  C   UNL A   1      46.856  38.261  30.480  1.00  0.00     0.049 A 
ATOM     31  C   UNL A   1      46.609  32.942  28.450  1.00  0.00     0.074 A 
ATOM     32  C   UNL A   1      47.846  39.063  29.947  1.00  0.00     0.029 A 
ATOM     33  N   UNL A   1      46.957  37.022  29.856  1.00  0.00    -0.354 N 
ATOM     34  N   UNL A   1      46.775  34.184  28.846  1.00  0.00    -0.248 NA
ATOM     35  C   UNL A   1      47.530  32.518  27.391  1.00  0.00     0.031 C 
ATOM     36  C   UNL A   1      48.517  38.321  28.968  1.00  0.00     0.029 A 
ATOM     37  C   UNL A   1      47.980  37.040  28.930  1.00  0.00     0.049 A 
ATOM     38  H   UNL A   1      46.383  36.246  30.048  1.00  0.00     0.167 HD
ATOM     39  C   UNL A   1      47.830  34.687  28.095  1.00  0.00     0.074 A 
ATOM     40  C   UNL A   1      48.272  33.606  27.233  1.00  0.00     0.031 C 
ATOM     41  C   UNL A   1      48.384  35.926  28.104  1.00  0.00     0.037 A 
BRANCH  28  42
ATOM     42  C   UNL A   1      45.849  39.948  32.101  1.00  0.00     0.058 A 
ATOM     43  C   UNL A   1      46.532  40.250  33.290  1.00  0.00     0.135 A 
ATOM     44  C   UNL A   1      45.071  40.964  31.520  1.00  0.00     0.135 A 
ATOM     45  F   UNL A   1      47.258  39.307  33.912  1.00  0.00    -0.206 F 
ATOM     46  C   UNL A   1      46.421  41.499  33.897  1.00  0.00     0.059 A 
ATOM     47  C   UNL A   1      44.966  42.226  32.094  1.00  0.00     0.059 A 
ATOM     48  F   UNL A   1      44.381  40.724  30.394  1.00  0.00    -0.206 F 
ATOM     49  C   UNL A   1      45.631  42.479  33.293  1.00  0.00     0.060 A 
BRANCH  49  50
ATOM     50  S   UNL A   1      45.475  44.086  34.102  1.00  0.00     0.124 S 
ATOM     51  O   UNL A   1      44.943  44.908  33.018  1.00  0.00    -0.237 OA
ATOM     52  O   UNL A   1      44.548  43.798  35.191  1.00  0.00    -0.237 OA
ATOM     53  O   UNL A   1      46.842  44.396  34.511  1.00  0.00    -0.744 OA
ENDBRANCH  49  50
ENDBRANCH  28  42
BRANCH  29  54
ATOM     54  C   UNL A   1      45.556  30.544  28.379  1.00  0.00     0.058 A 
ATOM     55  C   UNL A   1      44.740  30.216  27.287  1.00  0.00     0.135 A 
ATOM     56  C   UNL A   1      46.335  29.513  28.935  1.00  0.00     0.135 A 
ATOM     57  F   UNL A   1      43.967  31.156  26.721  1.00  0.00    -0.206 F 
ATOM     58  C   UNL A   1      44.687  28.921  26.773  1.00  0.00     0.059 A 
ATOM     59  C   UNL A   1      46.321  28.219  28.423  1.00  0.00     0.059 A 
ATOM     60  F   UNL A   1      47.141  29.766  29.979  1.00  0.00    -0.206 F 
ATOM     61  C   UNL A   1      45.485  27.930  27.347  1.00  0.00     0.060 A 
BRANCH  61  62
ATOM     62  S   UNL A   1      45.442  26.264  26.649  1.00  0.00     0.124 S 
ATOM     63  O   UNL A   1      44.060  26.173  26.191  1.00  0.00    -0.237 OA
ATOM     64  O   UNL A   1      46.458  26.344  25.604  1.00  0.00    -0.237 OA
ATOM     65  O   UNL A   1      45.788  25.415  27.785  1.00  0.00    -0.744 OA
ENDBRANCH  61  62
ENDBRANCH  29  54
BRANCH  41  66
ATOM     66  C   UNL A   1      49.543  36.158  27.182  1.00  0.00     0.058 A 
ATOM     67  C   UNL A   1      50.869  36.003  27.615  1.00  0.00     0.135 A 
ATOM     68  C   UNL A   1      49.319  36.464  25.831  1.00  0.00     0.135 A 
ATOM     69  F   UNL A   1      51.131  35.716  28.901  1.00  0.00    -0.206 F 
ATOM     70  C   UNL A   1      51.936  36.163  26.741  1.00  0.00     0.059 A 
ATOM     71  C   UNL A   1      50.370  36.600  24.934  1.00  0.00     0.059 A 
ATOM     72  F   UNL A   1      48.066  36.609  25.369  1.00  0.00    -0.206 F 
ATOM     73  C   UNL A   1      51.675  36.457  25.401  1.00  0.00     0.060 A 
BRANCH  73  74
ATOM     74  S   UNL A   1      53.067  36.614  24.265  1.00  0.00     0.124 S 
ATOM     75  O   UNL A   1      54.115  35.901  24.988  1.00  0.00    -0.237 OA
ATOM     76  O   UNL A   1      52.565  35.956  23.063  1.00  0.00    -0.237 OA
ATOM     77  O   UNL A   1      53.252  38.057  24.152  1.00  0.00    -0.744 OA
ENDBRANCH  73  74
ENDBRANCH  41  66
ENDBRANCH  15  16
ENDBRANCH   8  10
ENDBRANCH   7   8
ENDBRANCH   6   7
ENDBRANCH   5   6
ENDBRANCH   4   5
ENDBRANCH   3   4
ENDBRANCH   2   3
ENDBRANCH   1   2
BRANCH   1  78
ATOM     78  C   UNL A   1      42.461  28.742  33.160  1.00  0.00     0.188 C 
BRANCH  78  79
ATOM     79  C   UNL A   1      42.044  28.338  31.722  1.00  0.00     0.188 C 
BRANCH  79  80
ATOM     80  O   UNL A   1      40.687  28.603  31.427  1.00  0.00    -0.376 OA
BRANCH  80  81
ATOM     81  C   UNL A   1      40.140  29.831  31.872  1.00  0.00     0.202 C 
BRANCH  81  82
ATOM     82  C   UNL A   1      38.713  29.881  32.434  1.00  0.00     0.261 C 
BRANCH  82  83
ATOM     83  O   UNL A   1      37.818  30.860  31.886  1.00  0.00    -0.460 OA
BRANCH  83  84
ATOM     84  C   UNL A   1      36.628  30.453  31.408  1.00  0.00     0.340 C 
ATOM     85  O   UNL A   1      36.230  29.301  31.317  1.00  0.00    -0.246 OA
BRANCH  84  86
ATOM     86  C   UNL A   1      35.787  31.617  31.117  1.00  0.00     0.091 A 
ATOM     87  C   UNL A   1      35.546  32.424  32.233  1.00  0.00     0.127 A 
ATOM     88  C   UNL A   1      35.338  32.061  29.869  1.00  0.00     0.057 A 
ATOM     89  N   UNL A   1      34.962  33.645  32.194  1.00  0.00    -0.264 NA
ATOM     90  C   UNL A   1      34.712  33.327  29.829  1.00  0.00     0.035 A 
ATOM     91  C   UNL A   1      34.568  34.077  30.985  1.00  0.00     0.112 A 
BRANCH  88  92
ATOM     92  C   UNL A   1      35.607  31.467  28.519  1.00  0.00     0.254 C 
ATOM     93  O   UNL A   1      36.755  31.615  28.082  1.00  0.00    -0.269 OA
ATOM     94  N   UNL A   1      34.690  30.708  27.787  1.00  0.00    -0.339 N 
ATOM     95  C   UNL A   1      35.256  29.469  27.248  1.00  0.00     0.120 C 
ATOM     96  C   UNL A   1      33.249  30.955  27.700  1.00  0.00     0.120 C 
ATOM     97  C   UNL A   1      34.464  28.771  26.155  1.00  0.00     0.025 C 
ATOM     98  C   UNL A   1      32.541  30.258  26.543  1.00  0.00     0.025 C 
ATOM     99  C   UNL A   1      32.964  28.784  26.445  1.00  0.00    -0.003 C 
BRANCH  99 100
ATOM    100  C   UNL A   1      32.127  28.055  25.382  1.00  0.00     0.039 C 
BRANCH 100 101
ATOM    101  C   UNL A   1      31.873  26.591  25.652  1.00  0.00    -0.048 A 
ATOM    102  C   UNL A   1      30.589  26.165  26.020  1.00  0.00     0.004 A 
ATOM    103  C   UNL A   1      32.904  25.643  25.582  1.00  0.00     0.004 A 
ATOM    104  C   UNL A   1      30.342  24.826  26.326  1.00  0.00     0.000 A 
ATOM    105  C   UNL A   1      32.655  24.303  25.889  1.00  0.00     0.000 A 
ATOM    106  C   UNL A   1      31.376  23.895  26.265  1.00  0.00     0.000 A 
ENDBRANCH 100 101
ENDBRANCH  99 100
ENDBRANCH  88  92
ENDBRANCH  84  86
ENDBRANCH  83  84
ENDBRANCH  82  83
ENDBRANCH  81  82
ENDBRANCH  80  81
ENDBRANCH  79  80
ENDBRANCH  78  79
ENDBRANCH   1  78
TORSDOF 26
ENDMDL
