MODEL 1
REMARK VINA RESULT:      -7.6      0.000      0.000
REMARK SMILES COc1ccc(NC(=O)NCc2ccc(C(=O)OCCOCCOCCOCCOC(=O)c3ccc(-c4c5nc(c(-c6c(F)cc(S(=O)(=O)[O-])cc6F)c6ccc([nH]6)c(-c6c(F)cc(S(=O)(=O)[O-])cc6F)c6nc(c(-c7c(F)cc(S(=O)(=O)[O-])cc7F)c7ccc4[nH]7)C=C6)C=C5)cc3)cc2)c(OC)c1
REMARK SMILES IDX 23 1 22 2 21 3 20 4 19 5 18 6 16 7 17 8 15 9 12 10 13 11
REMARK SMILES IDX 100 12 14 13 99 14 11 15 10 16 7 17 8 18 9 20 6 22 3 23 4 24
REMARK SMILES IDX 104 25 5 26 101 27 2 28 1 29 102 30 103 31 24 32 25 33 26 34
REMARK SMILES IDX 27 35 28 36 29 37 30 38 31 39 32 40 33 41 34 42 98 43 35 44
REMARK SMILES IDX 97 45 36 46 37 47 38 48 91 49 39 50 96 51 90 52 92 53 40 54
REMARK SMILES IDX 95 55 89 56 88 57 41 59 75 60 54 61 74 62 55 63 58 64 73 65
REMARK SMILES IDX 93 66 56 67 57 68 72 70 94 71 59 72 42 73 43 74 52 75 44 76
REMARK SMILES IDX 45 77 51 78 53 79 46 80 47 81 48 82 49 83 50 84 76 85 77 86
REMARK SMILES IDX 86 87 78 88 79 89 85 90 87 91 80 92 81 93 82 94 83 95 84 96
REMARK SMILES IDX 60 97 61 98 70 99 62 100 63 101 69 102 71 103 64 104 65 105
REMARK SMILES IDX 66 106 67 107 68 108
REMARK H PARENT 7 19 10 21 92 58 58 69
REMARK Flexibility Score: inf
ROOT
ATOM      1  C   UNL A   1      35.104  34.611  33.712  1.00  0.00     0.188 C 
ENDROOT
BRANCH   1   2
ATOM      2  C   UNL A   1      36.444  33.855  33.864  1.00  0.00     0.188 C 
BRANCH   2   3
ATOM      3  O   UNL A   1      36.323  32.493  34.229  1.00  0.00    -0.376 OA
BRANCH   3   4
ATOM      4  C   UNL A   1      36.929  31.499  33.423  1.00  0.00     0.202 C 
BRANCH   4   5
ATOM      5  C   UNL A   1      36.288  31.209  32.062  1.00  0.00     0.261 C 
BRANCH   5   6
ATOM      6  O   UNL A   1      36.240  29.824  31.702  1.00  0.00    -0.460 OA
BRANCH   6   7
ATOM      7  C   UNL A   1      37.230  29.024  32.163  1.00  0.00     0.338 C 
ATOM      8  O   UNL A   1      37.304  28.498  33.258  1.00  0.00    -0.246 OA
BRANCH   7   9
ATOM      9  C   UNL A   1      38.108  28.711  31.012  1.00  0.00     0.060 A 
ATOM     10  C   UNL A   1      39.863  28.331  28.864  1.00  0.00    -0.029 A 
ATOM     11  C   UNL A   1      38.703  29.080  28.678  1.00  0.00     0.006 A 
ATOM     12  C   UNL A   1      40.136  27.786  30.138  1.00  0.00     0.006 A 
ATOM     13  C   UNL A   1      37.817  29.257  29.750  1.00  0.00     0.016 A 
ATOM     14  C   UNL A   1      39.274  27.977  31.207  1.00  0.00     0.016 A 
BRANCH  10  15
ATOM     15  C   UNL A   1      40.959  28.132  27.858  1.00  0.00     0.153 C 
BRANCH  15  16
ATOM     16  N   UNL A   1      40.818  27.228  26.754  1.00  0.00    -0.334 N 
ATOM     17  N   UNL A   1      43.106  26.938  26.100  1.00  0.00    -0.305 N 
ATOM     18  C   UNL A   1      41.779  26.672  25.978  1.00  0.00     0.319 C 
ATOM     19  H   UNL A   1      43.627  26.638  25.321  1.00  0.00     0.172 HD
ATOM     20  O   UNL A   1      41.408  25.963  25.036  1.00  0.00    -0.248 OA
ATOM     21  H   UNL A   1      39.893  26.975  26.529  1.00  0.00     0.165 HD
BRANCH  17  22
ATOM     22  C   UNL A   1      43.906  27.548  27.088  1.00  0.00     0.085 A 
ATOM     23  C   UNL A   1      45.946  28.787  28.553  1.00  0.00     0.122 A 
ATOM     24  C   UNL A   1      44.827  29.514  28.148  1.00  0.00     0.049 A 
ATOM     25  C   UNL A   1      45.944  27.403  28.397  1.00  0.00     0.095 A 
ATOM     26  C   UNL A   1      43.790  28.886  27.453  1.00  0.00     0.034 A 
ATOM     27  C   UNL A   1      44.890  26.775  27.720  1.00  0.00     0.146 A 
BRANCH  23  28
ATOM     28  O   UNL A   1      46.951  29.523  29.115  1.00  0.00    -0.497 OA
ATOM     29  C   UNL A   1      46.806  30.940  29.046  1.00  0.00     0.278 C 
ENDBRANCH  23  28
BRANCH  27  30
ATOM     30  O   UNL A   1      44.821  25.408  27.584  1.00  0.00    -0.494 OA
ATOM     31  C   UNL A   1      44.444  24.759  28.802  1.00  0.00     0.278 C 
ENDBRANCH  27  30
ENDBRANCH  17  22
ENDBRANCH  15  16
ENDBRANCH  10  15
ENDBRANCH   7   9
ENDBRANCH   6   7
ENDBRANCH   5   6
ENDBRANCH   4   5
ENDBRANCH   3   4
ENDBRANCH   2   3
ENDBRANCH   1   2
BRANCH   1  32
ATOM     32  O   UNL A   1      35.069  35.915  33.149  1.00  0.00    -0.377 OA
BRANCH  32  33
ATOM     33  C   UNL A   1      33.908  36.730  33.278  1.00  0.00     0.188 C 
BRANCH  33  34
ATOM     34  C   UNL A   1      33.469  37.674  32.135  1.00  0.00     0.188 C 
BRANCH  34  35
ATOM     35  O   UNL A   1      32.635  37.062  31.166  1.00  0.00    -0.376 OA
BRANCH  35  36
ATOM     36  C   UNL A   1      33.226  36.660  29.947  1.00  0.00     0.202 C 
BRANCH  36  37
ATOM     37  C   UNL A   1      33.431  35.156  29.724  1.00  0.00     0.261 C 
BRANCH  37  38
ATOM     38  O   UNL A   1      34.586  34.772  28.966  1.00  0.00    -0.460 OA
BRANCH  38  39
ATOM     39  C   UNL A   1      35.071  33.527  29.165  1.00  0.00     0.338 C 
ATOM     40  O   UNL A   1      34.469  32.474  29.022  1.00  0.00    -0.246 OA
BRANCH  39  41
ATOM     41  C   UNL A   1      36.525  33.647  29.401  1.00  0.00     0.060 A 
ATOM     42  C   UNL A   1      37.409  32.861  28.650  1.00  0.00     0.016 A 
ATOM     43  C   UNL A   1      37.007  34.538  30.363  1.00  0.00     0.016 A 
ATOM     44  C   UNL A   1      38.780  32.930  28.896  1.00  0.00     0.010 A 
ATOM     45  C   UNL A   1      38.378  34.589  30.623  1.00  0.00     0.010 A 
ATOM     46  C   UNL A   1      39.263  33.750  29.923  1.00  0.00    -0.014 A 
BRANCH  46  47
ATOM     47  C   UNL A   1      40.641  33.543  30.435  1.00  0.00     0.031 A 
ATOM     48  C   UNL A   1      41.716  34.475  29.941  1.00  0.00     0.074 A 
ATOM     49  C   UNL A   1      40.929  32.582  31.329  1.00  0.00     0.049 A 
ATOM     50  N   UNL A   1      42.998  34.477  30.196  1.00  0.00    -0.248 NA
ATOM     51  C   UNL A   1      41.283  35.548  29.029  1.00  0.00     0.031 C 
ATOM     52  C   UNL A   1      39.966  31.651  31.912  1.00  0.00     0.029 A 
ATOM     53  N   UNL A   1      42.127  32.229  31.898  1.00  0.00    -0.354 N 
ATOM     54  C   UNL A   1      43.524  35.540  29.470  1.00  0.00     0.074 A 
ATOM     55  C   UNL A   1      42.432  36.137  28.737  1.00  0.00     0.031 C 
ATOM     56  C   UNL A   1      40.616  30.822  32.749  1.00  0.00     0.029 A 
ATOM     57  C   UNL A   1      42.042  31.144  32.737  1.00  0.00     0.049 A 
ATOM     58  H   UNL A   1      42.969  32.709  31.721  1.00  0.00     0.167 HD
ATOM     59  C   UNL A   1      44.801  35.985  29.428  1.00  0.00     0.037 A 
ATOM     60  C   UNL A   1      43.011  30.478  33.398  1.00  0.00     0.037 A 
ATOM     61  C   UNL A   1      45.884  35.384  30.161  1.00  0.00     0.049 A 
ATOM     62  C   UNL A   1      44.439  30.952  33.286  1.00  0.00     0.074 A 
ATOM     63  C   UNL A   1      47.214  35.761  30.195  1.00  0.00     0.029 A 
ATOM     64  N   UNL A   1      45.762  34.274  30.985  1.00  0.00    -0.354 N 
ATOM     65  N   UNL A   1      44.924  31.965  32.606  1.00  0.00    -0.248 NA
ATOM     66  C   UNL A   1      45.451  30.199  34.039  1.00  0.00     0.031 C 
ATOM     67  C   UNL A   1      47.907  34.845  30.992  1.00  0.00     0.029 A 
ATOM     68  C   UNL A   1      46.997  33.940  31.514  1.00  0.00     0.049 A 
ATOM     69  H   UNL A   1      44.921  33.795  31.166  1.00  0.00     0.167 HD
ATOM     70  C   UNL A   1      46.288  31.996  32.885  1.00  0.00     0.074 A 
ATOM     71  C   UNL A   1      46.548  30.902  33.799  1.00  0.00     0.031 C 
ATOM     72  C   UNL A   1      47.238  32.855  32.435  1.00  0.00     0.037 A 
BRANCH  59  73
ATOM     73  C   UNL A   1      45.100  37.159  28.534  1.00  0.00     0.058 A 
ATOM     74  C   UNL A   1      45.629  36.996  27.243  1.00  0.00     0.135 A 
ATOM     75  C   UNL A   1      44.833  38.467  28.971  1.00  0.00     0.135 A 
ATOM     76  F   UNL A   1      45.926  35.771  26.782  1.00  0.00    -0.206 F 
ATOM     77  C   UNL A   1      45.910  38.090  26.430  1.00  0.00     0.059 A 
ATOM     78  C   UNL A   1      45.075  39.573  28.162  1.00  0.00     0.059 A 
ATOM     79  F   UNL A   1      44.334  38.682  30.198  1.00  0.00    -0.206 F 
ATOM     80  C   UNL A   1      45.628  39.373  26.898  1.00  0.00     0.060 A 
BRANCH  80  81
ATOM     81  S   UNL A   1      45.992  40.781  25.827  1.00  0.00     0.124 S 
ATOM     82  O   UNL A   1      47.232  41.280  26.414  1.00  0.00    -0.237 OA
ATOM     83  O   UNL A   1      46.120  40.150  24.518  1.00  0.00    -0.237 OA
ATOM     84  O   UNL A   1      44.828  41.645  25.993  1.00  0.00    -0.744 OA
ENDBRANCH  80  81
ENDBRANCH  59  73
BRANCH  60  85
ATOM     85  C   UNL A   1      42.668  29.287  34.223  1.00  0.00     0.058 A 
ATOM     86  C   UNL A   1      42.633  28.000  33.666  1.00  0.00     0.135 A 
ATOM     87  C   UNL A   1      42.357  29.414  35.587  1.00  0.00     0.135 A 
ATOM     88  F   UNL A   1      42.908  27.826  32.364  1.00  0.00    -0.206 F 
ATOM     89  C   UNL A   1      42.287  26.885  34.423  1.00  0.00     0.059 A 
ATOM     90  C   UNL A   1      42.039  28.310  36.372  1.00  0.00     0.059 A 
ATOM     91  F   UNL A   1      42.383  30.621  36.173  1.00  0.00    -0.206 F 
ATOM     92  C   UNL A   1      41.995  27.050  35.777  1.00  0.00     0.060 A 
BRANCH  92  93
ATOM     93  S   UNL A   1      41.598  25.589  36.762  1.00  0.00     0.124 S 
ATOM     94  O   UNL A   1      40.523  26.090  37.611  1.00  0.00    -0.237 OA
ATOM     95  O   UNL A   1      41.208  24.627  35.736  1.00  0.00    -0.237 OA
ATOM     96  O   UNL A   1      42.854  25.292  37.444  1.00  0.00    -0.744 OA
ENDBRANCH  92  93
ENDBRANCH  60  85
BRANCH  72  97
ATOM     97  C   UNL A   1      48.636  32.694  32.972  1.00  0.00     0.058 A 
ATOM     98  C   UNL A   1      49.601  31.906  32.327  1.00  0.00     0.135 A 
ATOM     99  C   UNL A   1      49.025  33.382  34.134  1.00  0.00     0.135 A 
ATOM    100  F   UNL A   1      49.285  31.227  31.213  1.00  0.00    -0.206 F 
ATOM    101  C   UNL A   1      50.890  31.771  32.837  1.00  0.00     0.059 A 
ATOM    102  C   UNL A   1      50.318  33.291  34.642  1.00  0.00     0.059 A 
ATOM    103  F   UNL A   1      48.149  34.164  34.784  1.00  0.00    -0.206 F 
ATOM    104  C   UNL A   1      51.238  32.468  33.997  1.00  0.00     0.060 A 
BRANCH 104 105
ATOM    105  S   UNL A   1      52.915  32.293  34.642  1.00  0.00     0.124 S 
ATOM    106  O   UNL A   1      53.601  31.673  33.513  1.00  0.00    -0.237 OA
ATOM    107  O   UNL A   1      53.285  33.675  34.928  1.00  0.00    -0.237 OA
ATOM    108  O   UNL A   1      52.741  31.441  35.815  1.00  0.00    -0.744 OA
ENDBRANCH 104 105
ENDBRANCH  72  97
ENDBRANCH  46  47
ENDBRANCH  39  41
ENDBRANCH  38  39
ENDBRANCH  37  38
ENDBRANCH  36  37
ENDBRANCH  35  36
ENDBRANCH  34  35
ENDBRANCH  33  34
ENDBRANCH  32  33
ENDBRANCH   1  32
TORSDOF 28
ENDMDL
MODEL 2
REMARK VINA RESULT:      -7.2      3.853      5.068
REMARK SMILES COc1ccc(NC(=O)NCc2ccc(C(=O)OCCOCCOCCOCCOC(=O)c3ccc(-c4c5nc(c(-c6c(F)cc(S(=O)(=O)[O-])cc6F)c6ccc([nH]6)c(-c6c(F)cc(S(=O)(=O)[O-])cc6F)c6nc(c(-c7c(F)cc(S(=O)(=O)[O-])cc7F)c7ccc4[nH]7)C=C6)C=C5)cc3)cc2)c(OC)c1
REMARK SMILES IDX 23 1 22 2 21 3 20 4 19 5 18 6 16 7 17 8 15 9 12 10 13 11
REMARK SMILES IDX 100 12 14 13 99 14 11 15 10 16 7 17 8 18 9 20 6 22 3 23 4 24
REMARK SMILES IDX 104 25 5 26 101 27 2 28 1 29 102 30 103 31 24 32 25 33 26 34
REMARK SMILES IDX 27 35 28 36 29 37 30 38 31 39 32 40 33 41 34 42 98 43 35 44
REMARK SMILES IDX 97 45 36 46 37 47 38 48 91 49 39 50 96 51 90 52 92 53 40 54
REMARK SMILES IDX 95 55 89 56 88 57 41 59 75 60 54 61 74 62 55 63 58 64 73 65
REMARK SMILES IDX 93 66 56 67 57 68 72 70 94 71 59 72 42 73 43 74 52 75 44 76
REMARK SMILES IDX 45 77 51 78 53 79 46 80 47 81 48 82 49 83 50 84 76 85 77 86
REMARK SMILES IDX 86 87 78 88 79 89 85 90 87 91 80 92 81 93 82 94 83 95 84 96
REMARK SMILES IDX 60 97 61 98 70 99 62 100 63 101 69 102 71 103 64 104 65 105
REMARK SMILES IDX 66 106 67 107 68 108
REMARK H PARENT 7 19 10 21 92 58 58 69
REMARK Flexibility Score: inf
ROOT
ATOM      1  C   UNL A   1      35.374  33.909  32.650  1.00  0.00     0.188 C 
ENDROOT
BRANCH   1   2
ATOM      2  C   UNL A   1      36.491  32.851  32.497  1.00  0.00     0.188 C 
BRANCH   2   3
ATOM      3  O   UNL A   1      36.307  31.675  33.262  1.00  0.00    -0.376 OA
BRANCH   3   4
ATOM      4  C   UNL A   1      37.429  30.880  33.599  1.00  0.00     0.202 C 
BRANCH   4   5
ATOM      5  C   UNL A   1      37.695  29.639  32.742  1.00  0.00     0.261 C 
BRANCH   5   6
ATOM      6  O   UNL A   1      38.688  28.748  33.263  1.00  0.00    -0.460 OA
BRANCH   6   7
ATOM      7  C   UNL A   1      39.854  29.291  33.683  1.00  0.00     0.338 C 
ATOM      8  O   UNL A   1      40.226  29.443  34.832  1.00  0.00    -0.246 OA
BRANCH   7   9
ATOM      9  C   UNL A   1      40.710  29.463  32.486  1.00  0.00     0.060 A 
ATOM     10  C   UNL A   1      42.501  29.692  30.346  1.00  0.00    -0.029 A 
ATOM     11  C   UNL A   1      42.541  30.627  31.378  1.00  0.00     0.006 A 
ATOM     12  C   UNL A   1      41.561  28.638  30.406  1.00  0.00     0.006 A 
ATOM     13  C   UNL A   1      41.634  30.520  32.441  1.00  0.00     0.016 A 
ATOM     14  C   UNL A   1      40.677  28.516  31.466  1.00  0.00     0.016 A 
BRANCH  10  15
ATOM     15  C   UNL A   1      43.459  29.601  29.194  1.00  0.00     0.153 C 
BRANCH  15  16
ATOM     16  N   UNL A   1      43.875  30.762  28.462  1.00  0.00    -0.334 N 
ATOM     17  N   UNL A   1      43.255  30.146  26.230  1.00  0.00    -0.305 N 
ATOM     18  C   UNL A   1      43.764  31.020  27.137  1.00  0.00     0.319 C 
ATOM     19  H   UNL A   1      43.463  30.398  25.302  1.00  0.00     0.172 HD
ATOM     20  O   UNL A   1      44.257  32.075  26.722  1.00  0.00    -0.248 OA
ATOM     21  H   UNL A   1      44.299  31.471  28.998  1.00  0.00     0.165 HD
BRANCH  17  22
ATOM     22  C   UNL A   1      42.499  28.960  26.316  1.00  0.00     0.085 A 
ATOM     23  C   UNL A   1      41.334  26.526  27.065  1.00  0.00     0.122 A 
ATOM     24  C   UNL A   1      40.608  27.712  27.157  1.00  0.00     0.049 A 
ATOM     25  C   UNL A   1      42.563  26.536  26.411  1.00  0.00     0.095 A 
ATOM     26  C   UNL A   1      41.176  28.921  26.746  1.00  0.00     0.034 A 
ATOM     27  C   UNL A   1      43.118  27.748  25.978  1.00  0.00     0.146 A 
BRANCH  23  28
ATOM     28  O   UNL A   1      40.731  25.426  27.608  1.00  0.00    -0.497 OA
ATOM     29  C   UNL A   1      39.400  25.159  27.171  1.00  0.00     0.278 C 
ENDBRANCH  23  28
BRANCH  27  30
ATOM     30  O   UNL A   1      44.306  27.803  25.288  1.00  0.00    -0.494 OA
ATOM     31  C   UNL A   1      45.439  27.614  26.141  1.00  0.00     0.278 C 
ENDBRANCH  27  30
ENDBRANCH  17  22
ENDBRANCH  15  16
ENDBRANCH  10  15
ENDBRANCH   7   9
ENDBRANCH   6   7
ENDBRANCH   5   6
ENDBRANCH   4   5
ENDBRANCH   3   4
ENDBRANCH   2   3
ENDBRANCH   1   2
BRANCH   1  32
ATOM     32  O   UNL A   1      34.837  34.564  31.508  1.00  0.00    -0.377 OA
BRANCH  32  33
ATOM     33  C   UNL A   1      33.708  35.422  31.629  1.00  0.00     0.188 C 
BRANCH  33  34
ATOM     34  C   UNL A   1      32.949  35.920  30.377  1.00  0.00     0.188 C 
BRANCH  34  35
ATOM     35  O   UNL A   1      32.524  34.885  29.507  1.00  0.00    -0.376 OA
BRANCH  35  36
ATOM     36  C   UNL A   1      33.302  34.629  28.356  1.00  0.00     0.202 C 
BRANCH  36  37
ATOM     37  C   UNL A   1      34.143  33.345  28.344  1.00  0.00     0.261 C 
BRANCH  37  38
ATOM     38  O   UNL A   1      35.567  33.512  28.304  1.00  0.00    -0.460 OA
BRANCH  38  39
ATOM     39  C   UNL A   1      36.324  32.415  28.516  1.00  0.00     0.338 C 
ATOM     40  O   UNL A   1      36.091  31.278  28.134  1.00  0.00    -0.246 OA
BRANCH  39  41
ATOM     41  C   UNL A   1      37.593  32.859  29.128  1.00  0.00     0.060 A 
ATOM     42  C   UNL A   1      38.498  31.901  29.605  1.00  0.00     0.016 A 
ATOM     43  C   UNL A   1      37.884  34.222  29.226  1.00  0.00     0.016 A 
ATOM     44  C   UNL A   1      39.678  32.307  30.227  1.00  0.00     0.010 A 
ATOM     45  C   UNL A   1      39.055  34.628  29.870  1.00  0.00     0.010 A 
ATOM     46  C   UNL A   1      39.932  33.672  30.414  1.00  0.00    -0.014 A 
BRANCH  46  47
ATOM     47  C   UNL A   1      40.966  34.094  31.391  1.00  0.00     0.031 A 
ATOM     48  C   UNL A   1      42.330  34.443  30.856  1.00  0.00     0.074 A 
ATOM     49  C   UNL A   1      40.703  34.194  32.705  1.00  0.00     0.049 A 
ATOM     50  N   UNL A   1      43.412  34.792  31.499  1.00  0.00    -0.248 NA
ATOM     51  C   UNL A   1      42.494  34.383  29.393  1.00  0.00     0.031 C 
ATOM     52  C   UNL A   1      39.411  33.927  33.333  1.00  0.00     0.029 A 
ATOM     53  N   UNL A   1      41.521  34.545  33.750  1.00  0.00    -0.354 N 
ATOM     54  C   UNL A   1      44.385  34.983  30.524  1.00  0.00     0.074 A 
ATOM     55  C   UNL A   1      43.777  34.675  29.250  1.00  0.00     0.031 C 
ATOM     56  C   UNL A   1      39.528  34.112  34.661  1.00  0.00     0.029 A 
ATOM     57  C   UNL A   1      40.907  34.479  34.977  1.00  0.00     0.049 A 
ATOM     58  H   UNL A   1      42.459  34.818  33.630  1.00  0.00     0.167 HD
ATOM     59  C   UNL A   1      45.667  35.389  30.675  1.00  0.00     0.037 A 
ATOM     60  C   UNL A   1      41.412  34.673  36.214  1.00  0.00     0.037 A 
ATOM     61  C   UNL A   1      46.266  35.692  31.948  1.00  0.00     0.049 A 
ATOM     62  C   UNL A   1      42.862  35.062  36.364  1.00  0.00     0.074 A 
ATOM     63  C   UNL A   1      47.555  36.118  32.212  1.00  0.00     0.029 A 
ATOM     64  N   UNL A   1      45.618  35.594  33.171  1.00  0.00    -0.354 N 
ATOM     65  N   UNL A   1      43.770  35.251  35.435  1.00  0.00    -0.248 NA
ATOM     66  C   UNL A   1      43.354  35.275  37.732  1.00  0.00     0.031 C 
ATOM     67  C   UNL A   1      47.705  36.222  33.599  1.00  0.00     0.029 A 
ATOM     68  C   UNL A   1      46.488  35.931  34.195  1.00  0.00     0.049 A 
ATOM     69  H   UNL A   1      44.679  35.325  33.293  1.00  0.00     0.167 HD
ATOM     70  C   UNL A   1      44.926  35.646  36.103  1.00  0.00     0.074 A 
ATOM     71  C   UNL A   1      44.599  35.674  37.514  1.00  0.00     0.031 C 
ATOM     72  C   UNL A   1      46.143  35.967  35.596  1.00  0.00     0.037 A 
BRANCH  59  73
ATOM     73  C   UNL A   1      46.514  35.495  29.436  1.00  0.00     0.058 A 
ATOM     74  C   UNL A   1      46.593  36.680  28.686  1.00  0.00     0.135 A 
ATOM     75  C   UNL A   1      47.275  34.396  29.002  1.00  0.00     0.135 A 
ATOM     76  F   UNL A   1      45.870  37.754  29.040  1.00  0.00    -0.206 F 
ATOM     77  C   UNL A   1      47.373  36.763  27.536  1.00  0.00     0.059 A 
ATOM     78  C   UNL A   1      48.087  34.467  27.874  1.00  0.00     0.059 A 
ATOM     79  F   UNL A   1      47.232  33.236  29.675  1.00  0.00    -0.206 F 
ATOM     80  C   UNL A   1      48.116  35.651  27.140  1.00  0.00     0.060 A 
BRANCH  80  81
ATOM     81  S   UNL A   1      49.128  35.777  25.650  1.00  0.00     0.124 S 
ATOM     82  O   UNL A   1      48.752  34.559  24.939  1.00  0.00    -0.237 OA
ATOM     83  O   UNL A   1      48.657  37.026  25.060  1.00  0.00    -0.237 OA
ATOM     84  O   UNL A   1      50.493  35.806  26.165  1.00  0.00    -0.744 OA
ENDBRANCH  80  81
ENDBRANCH  59  73
BRANCH  60  85
ATOM     85  C   UNL A   1      40.543  34.498  37.410  1.00  0.00     0.058 A 
ATOM     86  C   UNL A   1      39.757  35.553  37.900  1.00  0.00     0.135 A 
ATOM     87  C   UNL A   1      40.488  33.273  38.095  1.00  0.00     0.135 A 
ATOM     88  F   UNL A   1      39.785  36.748  37.290  1.00  0.00    -0.206 F 
ATOM     89  C   UNL A   1      38.963  35.406  39.033  1.00  0.00     0.059 A 
ATOM     90  C   UNL A   1      39.678  33.093  39.212  1.00  0.00     0.059 A 
ATOM     91  F   UNL A   1      41.213  32.229  37.664  1.00  0.00    -0.206 F 
ATOM     92  C   UNL A   1      38.927  34.171  39.680  1.00  0.00     0.060 A 
BRANCH  92  93
ATOM     93  S   UNL A   1      37.853  33.978  41.119  1.00  0.00     0.124 S 
ATOM     94  O   UNL A   1      36.739  33.222  40.556  1.00  0.00    -0.237 OA
ATOM     95  O   UNL A   1      38.714  33.252  42.047  1.00  0.00    -0.237 OA
ATOM     96  O   UNL A   1      37.551  35.355  41.500  1.00  0.00    -0.744 OA
ENDBRANCH  92  93
ENDBRANCH  60  85
BRANCH  72  97
ATOM     97  C   UNL A   1      47.199  36.441  36.561  1.00  0.00     0.058 A 
ATOM     98  C   UNL A   1      48.130  35.567  37.142  1.00  0.00     0.135 A 
ATOM     99  C   UNL A   1      47.303  37.807  36.873  1.00  0.00     0.135 A 
ATOM    100  F   UNL A   1      48.079  34.251  36.879  1.00  0.00    -0.206 F 
ATOM    101  C   UNL A   1      49.100  36.023  38.030  1.00  0.00     0.059 A 
ATOM    102  C   UNL A   1      48.287  38.291  37.730  1.00  0.00     0.059 A 
ATOM    103  F   UNL A   1      46.449  38.692  36.334  1.00  0.00    -0.206 F 
ATOM    104  C   UNL A   1      49.170  37.388  38.318  1.00  0.00     0.060 A 
BRANCH 104 105
ATOM    105  S   UNL A   1      50.439  37.968  39.463  1.00  0.00     0.124 S 
ATOM    106  O   UNL A   1      50.594  36.813  40.341  1.00  0.00    -0.237 OA
ATOM    107  O   UNL A   1      51.562  38.242  38.572  1.00  0.00    -0.237 OA
ATOM    108  O   UNL A   1      49.831  39.145  40.077  1.00  0.00    -0.744 OA
ENDBRANCH 104 105
ENDBRANCH  72  97
ENDBRANCH  46  47
ENDBRANCH  39  41
ENDBRANCH  38  39
ENDBRANCH  37  38
ENDBRANCH  36  37
ENDBRANCH  35  36
ENDBRANCH  34  35
ENDBRANCH  33  34
ENDBRANCH  32  33
ENDBRANCH   1  32
TORSDOF 28
ENDMDL
MODEL 3
REMARK VINA RESULT:      -6.6      6.986     10.719
REMARK SMILES COc1ccc(NC(=O)NCc2ccc(C(=O)OCCOCCOCCOCCOC(=O)c3ccc(-c4c5nc(c(-c6c(F)cc(S(=O)(=O)[O-])cc6F)c6ccc([nH]6)c(-c6c(F)cc(S(=O)(=O)[O-])cc6F)c6nc(c(-c7c(F)cc(S(=O)(=O)[O-])cc7F)c7ccc4[nH]7)C=C6)C=C5)cc3)cc2)c(OC)c1
REMARK SMILES IDX 23 1 22 2 21 3 20 4 19 5 18 6 16 7 17 8 15 9 12 10 13 11
REMARK SMILES IDX 100 12 14 13 99 14 11 15 10 16 7 17 8 18 9 20 6 22 3 23 4 24
REMARK SMILES IDX 104 25 5 26 101 27 2 28 1 29 102 30 103 31 24 32 25 33 26 34
REMARK SMILES IDX 27 35 28 36 29 37 30 38 31 39 32 40 33 41 34 42 98 43 35 44
REMARK SMILES IDX 97 45 36 46 37 47 38 48 91 49 39 50 96 51 90 52 92 53 40 54
REMARK SMILES IDX 95 55 89 56 88 57 41 59 75 60 54 61 74 62 55 63 58 64 73 65
REMARK SMILES IDX 93 66 56 67 57 68 72 70 94 71 59 72 42 73 43 74 52 75 44 76
REMARK SMILES IDX 45 77 51 78 53 79 46 80 47 81 48 82 49 83 50 84 76 85 77 86
REMARK SMILES IDX 86 87 78 88 79 89 85 90 87 91 80 92 81 93 82 94 83 95 84 96
REMARK SMILES IDX 60 97 61 98 70 99 62 100 63 101 69 102 71 103 64 104 65 105
REMARK SMILES IDX 66 106 67 107 68 108
REMARK H PARENT 7 19 10 21 92 58 58 69
REMARK Flexibility Score: inf
ROOT
ATOM      1  C   UNL A   1      39.640  29.830  29.517  1.00  0.00     0.188 C 
ENDROOT
BRANCH   1   2
ATOM      2  C   UNL A   1      39.406  29.334  28.072  1.00  0.00     0.188 C 
BRANCH   2   3
ATOM      3  O   UNL A   1      38.062  29.019  27.759  1.00  0.00    -0.376 OA
BRANCH   3   4
ATOM      4  C   UNL A   1      37.161  30.058  27.427  1.00  0.00     0.202 C 
BRANCH   4   5
ATOM      5  C   UNL A   1      35.912  30.213  28.302  1.00  0.00     0.261 C 
BRANCH   5   6
ATOM      6  O   UNL A   1      34.901  29.221  28.091  1.00  0.00    -0.460 OA
BRANCH   6   7
ATOM      7  C   UNL A   1      33.926  29.505  27.197  1.00  0.00     0.338 C 
ATOM      8  O   UNL A   1      33.783  30.533  26.561  1.00  0.00    -0.246 OA
BRANCH   7   9
ATOM      9  C   UNL A   1      33.181  28.248  26.953  1.00  0.00     0.060 A 
ATOM     10  C   UNL A   1      31.676  25.977  26.308  1.00  0.00    -0.029 A 
ATOM     11  C   UNL A   1      31.070  27.032  26.986  1.00  0.00     0.006 A 
ATOM     12  C   UNL A   1      33.040  26.079  25.951  1.00  0.00     0.006 A 
ATOM     13  C   UNL A   1      31.828  28.162  27.322  1.00  0.00     0.016 A 
ATOM     14  C   UNL A   1      33.788  27.204  26.261  1.00  0.00     0.016 A 
BRANCH  10  15
ATOM     15  C   UNL A   1      30.991  24.748  25.787  1.00  0.00     0.153 C 
BRANCH  15  16
ATOM     16  N   UNL A   1      31.671  23.795  24.958  1.00  0.00    -0.334 N 
ATOM     17  N   UNL A   1      31.322  24.742  22.784  1.00  0.00    -0.305 N 
ATOM     18  C   UNL A   1      31.842  23.801  23.614  1.00  0.00     0.319 C 
ATOM     19  H   UNL A   1      31.344  24.469  21.839  1.00  0.00     0.172 HD
ATOM     20  O   UNL A   1      32.417  22.829  23.112  1.00  0.00    -0.248 OA
ATOM     21  H   UNL A   1      32.071  23.030  25.433  1.00  0.00     0.165 HD
BRANCH  17  22
ATOM     22  C   UNL A   1      30.756  26.020  22.968  1.00  0.00     0.085 A 
ATOM     23  C   UNL A   1      29.487  28.500  22.681  1.00  0.00     0.122 A 
ATOM     24  C   UNL A   1      28.852  27.457  23.352  1.00  0.00     0.049 A 
ATOM     25  C   UNL A   1      30.828  28.361  22.334  1.00  0.00     0.095 A 
ATOM     26  C   UNL A   1      29.502  26.232  23.531  1.00  0.00     0.034 A 
ATOM     27  C   UNL A   1      31.483  27.139  22.537  1.00  0.00     0.146 A 
BRANCH  23  28
ATOM     28  O   UNL A   1      28.717  29.606  22.455  1.00  0.00    -0.497 OA
ATOM     29  C   UNL A   1      27.403  29.581  23.008  1.00  0.00     0.278 C 
ENDBRANCH  23  28
BRANCH  27  30
ATOM     30  O   UNL A   1      32.818  26.970  22.255  1.00  0.00    -0.494 OA
ATOM     31  C   UNL A   1      33.623  28.032  22.776  1.00  0.00     0.278 C 
ENDBRANCH  27  30
ENDBRANCH  17  22
ENDBRANCH  15  16
ENDBRANCH  10  15
ENDBRANCH   7   9
ENDBRANCH   6   7
ENDBRANCH   5   6
ENDBRANCH   4   5
ENDBRANCH   3   4
ENDBRANCH   2   3
ENDBRANCH   1   2
BRANCH   1  32
ATOM     32  O   UNL A   1      38.590  29.791  30.474  1.00  0.00    -0.377 OA
BRANCH  32  33
ATOM     33  C   UNL A   1      38.716  30.474  31.717  1.00  0.00     0.188 C 
BRANCH  33  34
ATOM     34  C   UNL A   1      37.479  31.076  32.423  1.00  0.00     0.188 C 
BRANCH  34  35
ATOM     35  O   UNL A   1      36.358  31.256  31.574  1.00  0.00    -0.376 OA
BRANCH  35  36
ATOM     36  C   UNL A   1      36.077  32.564  31.122  1.00  0.00     0.202 C 
BRANCH  36  37
ATOM     37  C   UNL A   1      34.741  33.187  31.551  1.00  0.00     0.261 C 
BRANCH  37  38
ATOM     38  O   UNL A   1      34.668  33.684  32.894  1.00  0.00    -0.460 OA
BRANCH  38  39
ATOM     39  C   UNL A   1      35.434  34.753  33.201  1.00  0.00     0.338 C 
ATOM     40  O   UNL A   1      35.137  35.930  33.066  1.00  0.00    -0.246 OA
BRANCH  39  41
ATOM     41  C   UNL A   1      36.630  34.257  33.913  1.00  0.00     0.060 A 
ATOM     42  C   UNL A   1      36.467  33.439  35.039  1.00  0.00     0.016 A 
ATOM     43  C   UNL A   1      37.907  34.599  33.461  1.00  0.00     0.016 A 
ATOM     44  C   UNL A   1      37.585  33.002  35.748  1.00  0.00     0.010 A 
ATOM     45  C   UNL A   1      39.024  34.179  34.185  1.00  0.00     0.010 A 
ATOM     46  C   UNL A   1      38.864  33.419  35.358  1.00  0.00    -0.014 A 
BRANCH  46  47
ATOM     47  C   UNL A   1      39.997  33.281  36.306  1.00  0.00     0.031 A 
ATOM     48  C   UNL A   1      40.933  32.117  36.111  1.00  0.00     0.074 A 
ATOM     49  C   UNL A   1      40.211  34.170  37.291  1.00  0.00     0.049 A 
ATOM     50  N   UNL A   1      41.963  31.748  36.824  1.00  0.00    -0.248 NA
ATOM     51  C   UNL A   1      40.663  31.248  34.952  1.00  0.00     0.031 C 
ATOM     52  C   UNL A   1      39.402  35.358  37.551  1.00  0.00     0.029 A 
ATOM     53  N   UNL A   1      41.180  34.202  38.263  1.00  0.00    -0.354 N 
ATOM     54  C   UNL A   1      42.456  30.602  36.209  1.00  0.00     0.074 A 
ATOM     55  C   UNL A   1      41.592  30.315  35.088  1.00  0.00     0.031 C 
ATOM     56  C   UNL A   1      39.901  35.997  38.624  1.00  0.00     0.029 A 
ATOM     57  C   UNL A   1      41.045  35.248  39.143  1.00  0.00     0.049 A 
ATOM     58  H   UNL A   1      41.904  33.537  38.324  1.00  0.00     0.167 HD
ATOM     59  C   UNL A   1      43.539  29.861  36.543  1.00  0.00     0.037 A 
ATOM     60  C   UNL A   1      41.751  35.549  40.252  1.00  0.00     0.037 A 
ATOM     61  C   UNL A   1      44.394  30.154  37.663  1.00  0.00     0.049 A 
ATOM     62  C   UNL A   1      42.916  34.672  40.643  1.00  0.00     0.074 A 
ATOM     63  C   UNL A   1      45.522  29.472  38.084  1.00  0.00     0.029 A 
ATOM     64  N   UNL A   1      44.213  31.211  38.543  1.00  0.00    -0.354 N 
ATOM     65  N   UNL A   1      43.381  33.598  40.048  1.00  0.00    -0.248 NA
ATOM     66  C   UNL A   1      43.660  35.056  41.851  1.00  0.00     0.031 C 
ATOM     67  C   UNL A   1      45.988  30.082  39.253  1.00  0.00     0.029 A 
ATOM     68  C   UNL A   1      45.195  31.187  39.519  1.00  0.00     0.049 A 
ATOM     69  H   UNL A   1      43.492  31.879  38.482  1.00  0.00     0.167 HD
ATOM     70  C   UNL A   1      44.495  33.204  40.785  1.00  0.00     0.074 A 
ATOM     71  C   UNL A   1      44.636  34.159  41.865  1.00  0.00     0.031 C 
ATOM     72  C   UNL A   1      45.331  32.154  40.581  1.00  0.00     0.037 A 
BRANCH  59  73
ATOM     73  C   UNL A   1      43.836  28.647  35.705  1.00  0.00     0.058 A 
ATOM     74  C   UNL A   1      44.699  28.698  34.598  1.00  0.00     0.135 A 
ATOM     75  C   UNL A   1      43.262  27.407  36.028  1.00  0.00     0.135 A 
ATOM     76  F   UNL A   1      45.258  29.862  34.229  1.00  0.00    -0.206 F 
ATOM     77  C   UNL A   1      44.959  27.571  33.825  1.00  0.00     0.059 A 
ATOM     78  C   UNL A   1      43.533  26.259  35.289  1.00  0.00     0.059 A 
ATOM     79  F   UNL A   1      42.424  27.300  37.071  1.00  0.00    -0.206 F 
ATOM     80  C   UNL A   1      44.372  26.356  34.180  1.00  0.00     0.060 A 
BRANCH  80  81
ATOM     81  S   UNL A   1      44.725  24.901  33.172  1.00  0.00     0.124 S 
ATOM     82  O   UNL A   1      46.140  24.684  33.458  1.00  0.00    -0.237 OA
ATOM     83  O   UNL A   1      43.807  23.910  33.725  1.00  0.00    -0.237 OA
ATOM     84  O   UNL A   1      44.421  25.344  31.815  1.00  0.00    -0.744 OA
ENDBRANCH  80  81
ENDBRANCH  59  73
BRANCH  60  85
ATOM     85  C   UNL A   1      41.378  36.730  41.078  1.00  0.00     0.058 A 
ATOM     86  C   UNL A   1      41.809  38.021  40.738  1.00  0.00     0.135 A 
ATOM     87  C   UNL A   1      40.588  36.590  42.230  1.00  0.00     0.135 A 
ATOM     88  F   UNL A   1      42.578  38.208  39.654  1.00  0.00    -0.206 F 
ATOM     89  C   UNL A   1      41.488  39.128  41.518  1.00  0.00     0.059 A 
ATOM     90  C   UNL A   1      40.228  37.685  43.010  1.00  0.00     0.059 A 
ATOM     91  F   UNL A   1      40.142  35.379  42.596  1.00  0.00    -0.206 F 
ATOM     92  C   UNL A   1      40.692  38.950  42.651  1.00  0.00     0.060 A 
BRANCH  92  93
ATOM     93  S   UNL A   1      40.238  40.400  43.626  1.00  0.00     0.124 S 
ATOM     94  O   UNL A   1      41.140  41.412  43.088  1.00  0.00    -0.237 OA
ATOM     95  O   UNL A   1      38.826  40.560  43.295  1.00  0.00    -0.237 OA
ATOM     96  O   UNL A   1      40.509  39.980  44.998  1.00  0.00    -0.744 OA
ENDBRANCH  92  93
ENDBRANCH  60  85
BRANCH  72  97
ATOM     97  C   UNL A   1      46.514  32.015  41.503  1.00  0.00     0.058 A 
ATOM     98  C   UNL A   1      46.466  31.247  42.676  1.00  0.00     0.135 A 
ATOM     99  C   UNL A   1      47.734  32.632  41.177  1.00  0.00     0.135 A 
ATOM    100  F   UNL A   1      45.326  30.634  43.036  1.00  0.00    -0.206 F 
ATOM    101  C   UNL A   1      47.570  31.128  43.514  1.00  0.00     0.059 A 
ATOM    102  C   UNL A   1      48.862  32.498  41.981  1.00  0.00     0.059 A 
ATOM    103  F   UNL A   1      47.845  33.366  40.059  1.00  0.00    -0.206 F 
ATOM    104  C   UNL A   1      48.765  31.759  43.158  1.00  0.00     0.060 A 
BRANCH 104 105
ATOM    105  S   UNL A   1      50.193  31.588  44.248  1.00  0.00     0.124 S 
ATOM    106  O   UNL A   1      51.165  32.463  43.600  1.00  0.00    -0.237 OA
ATOM    107  O   UNL A   1      49.670  32.060  45.526  1.00  0.00    -0.237 OA
ATOM    108  O   UNL A   1      50.498  30.161  44.190  1.00  0.00    -0.744 OA
ENDBRANCH 104 105
ENDBRANCH  72  97
ENDBRANCH  46  47
ENDBRANCH  39  41
ENDBRANCH  38  39
ENDBRANCH  37  38
ENDBRANCH  36  37
ENDBRANCH  35  36
ENDBRANCH  34  35
ENDBRANCH  33  34
ENDBRANCH  32  33
ENDBRANCH   1  32
TORSDOF 28
ENDMDL
