MODEL 1
REMARK VINA RESULT:      -7.9      0.000      0.000
REMARK SMILES CC[NH2+][C@]1(C(=O)OCCOCCOCCOCCOC(=O)c2ccc(-c3c4nc(c(-c5c(F)cc(S(=O)(=O)[O-])cc5F)c5ccc([nH]5)c(-c5c(F)cc(S(=O)(=O)[O-])cc5F)c5nc(c(-c6c(F)cc(S(=O)(=O)[O-])cc6F)c6ccc3[nH]6)C=C5)C=C4)cc2)CCC[C@H]1CC[N@H+]1CCC[C@@H](CC)C1
REMARK SMILES IDX 12 1 11 2 10 3 9 4 8 5 7 6 5 7 6 8 4 9 88 10 91 11 89 12
REMARK SMILES IDX 90 13 3 14 2 17 1 18 92 19 93 20 94 21 95 22 101 23 96 25
REMARK SMILES IDX 98 26 97 27 99 28 100 29 13 30 14 31 15 32 16 33 17 34 18 35
REMARK SMILES IDX 19 36 20 37 21 38 22 39 23 40 87 41 24 42 86 43 25 44 26 45
REMARK SMILES IDX 27 46 80 47 28 48 85 49 79 50 81 51 29 52 84 53 78 54 77 55
REMARK SMILES IDX 30 57 64 58 43 59 63 60 44 61 47 62 62 63 82 64 45 65 46 66
REMARK SMILES IDX 61 68 83 69 48 70 31 71 32 72 41 73 33 74 34 75 40 76 42 77
REMARK SMILES IDX 35 78 36 79 37 80 38 81 39 82 65 83 66 84 75 85 67 86 68 87
REMARK SMILES IDX 74 88 76 89 69 90 70 91 71 92 72 93 73 94 49 95 50 96 59 97
REMARK SMILES IDX 51 98 52 99 58 100 60 101 53 102 54 103 55 104 56 105 57 106
REMARK H PARENT 3 15 3 16 94 24 81 56 47 67
REMARK Flexibility Score: inf
ROOT
ATOM      1  C   UNL A   1      42.792  38.231  27.715  1.00  0.00     0.188 C 
ENDROOT
BRANCH   1   2
ATOM      2  C   UNL A   1      44.024  39.117  27.997  1.00  0.00     0.188 C 
BRANCH   2   3
ATOM      3  O   UNL A   1      44.202  40.178  27.062  1.00  0.00    -0.376 OA
BRANCH   3   4
ATOM      4  C   UNL A   1      43.175  40.347  26.093  1.00  0.00     0.202 C 
BRANCH   4   5
ATOM      5  C   UNL A   1      43.129  41.721  25.395  1.00  0.00     0.261 C 
BRANCH   5   6
ATOM      6  O   UNL A   1      43.544  41.738  24.008  1.00  0.00    -0.459 OA
BRANCH   6   7
ATOM      7  C   UNL A   1      43.777  42.962  23.469  1.00  0.00     0.368 C 
ATOM      8  O   UNL A   1      43.349  43.965  24.013  1.00  0.00    -0.245 OA
BRANCH   7   9
ATOM      9  C   UNL A   1      44.567  42.921  22.136  1.00  0.00     0.197 C 
ATOM     10  C   UNL A   1      44.714  44.413  21.733  1.00  0.00     0.081 C 
ATOM     11  C   UNL A   1      46.059  42.459  22.239  1.00  0.00     0.068 C 
ATOM     12  C   UNL A   1      45.876  44.465  20.768  1.00  0.00     0.008 C 
ATOM     13  C   UNL A   1      46.820  43.364  21.230  1.00  0.00     0.011 C 
BRANCH   9  14
ATOM     14  N   UNL A   1      43.812  42.250  21.013  1.00  0.00    -0.332 N 
ATOM     15  H   UNL A   1      44.480  42.059  20.266  1.00  0.00     0.347 HD
ATOM     16  H   UNL A   1      43.388  41.427  21.438  1.00  0.00     0.347 HD
BRANCH  14  17
ATOM     17  C   UNL A   1      42.690  42.989  20.422  1.00  0.00     0.257 C 
ATOM     18  C   UNL A   1      41.425  42.853  21.271  1.00  0.00     0.071 C 
ENDBRANCH  14  17
ENDBRANCH   9  14
BRANCH  11  19
ATOM     19  C   UNL A   1      46.768  42.465  23.620  1.00  0.00     0.072 C 
BRANCH  19  20
ATOM     20  C   UNL A   1      47.778  43.609  23.942  1.00  0.00     0.262 C 
BRANCH  20  21
ATOM     21  N   UNL A   1      47.886  43.980  25.370  1.00  0.00    -0.335 N 
ATOM     22  C   UNL A   1      47.952  45.443  25.484  1.00  0.00     0.262 C 
ATOM     23  C   UNL A   1      46.757  43.439  26.170  1.00  0.00     0.265 C 
ATOM     24  H   UNL A   1      48.739  43.569  25.748  1.00  0.00     0.348 HD
ATOM     25  C   UNL A   1      48.083  45.897  26.932  1.00  0.00     0.062 C 
ATOM     26  C   UNL A   1      46.847  43.845  27.662  1.00  0.00     0.044 C 
ATOM     27  C   UNL A   1      46.930  45.372  27.774  1.00  0.00     0.015 C 
BRANCH  26  28
ATOM     28  C   UNL A   1      45.657  43.336  28.506  1.00  0.00     0.006 C 
ATOM     29  C   UNL A   1      44.880  44.452  29.187  1.00  0.00     0.004 C 
ENDBRANCH  26  28
ENDBRANCH  20  21
ENDBRANCH  19  20
ENDBRANCH  11  19
ENDBRANCH   7   9
ENDBRANCH   6   7
ENDBRANCH   5   6
ENDBRANCH   4   5
ENDBRANCH   3   4
ENDBRANCH   2   3
ENDBRANCH   1   2
BRANCH   1  30
ATOM     30  O   UNL A   1      42.434  37.188  28.614  1.00  0.00    -0.377 OA
BRANCH  30  31
ATOM     31  C   UNL A   1      41.656  36.135  28.082  1.00  0.00     0.188 C 
BRANCH  31  32
ATOM     32  C   UNL A   1      40.989  35.284  29.177  1.00  0.00     0.188 C 
BRANCH  32  33
ATOM     33  O   UNL A   1      39.620  34.971  28.914  1.00  0.00    -0.376 OA
BRANCH  33  34
ATOM     34  C   UNL A   1      38.733  34.917  30.024  1.00  0.00     0.202 C 
BRANCH  34  35
ATOM     35  C   UNL A   1      39.253  34.274  31.322  1.00  0.00     0.261 C 
BRANCH  35  36
ATOM     36  O   UNL A   1      38.449  33.223  31.875  1.00  0.00    -0.460 OA
BRANCH  36  37
ATOM     37  C   UNL A   1      37.853  32.364  31.024  1.00  0.00     0.338 C 
ATOM     38  O   UNL A   1      36.700  32.401  30.632  1.00  0.00    -0.246 OA
BRANCH  37  39
ATOM     39  C   UNL A   1      38.918  31.512  30.450  1.00  0.00     0.060 A 
ATOM     40  C   UNL A   1      39.994  31.161  31.278  1.00  0.00     0.016 A 
ATOM     41  C   UNL A   1      38.812  30.973  29.162  1.00  0.00     0.016 A 
ATOM     42  C   UNL A   1      40.972  30.285  30.812  1.00  0.00     0.010 A 
ATOM     43  C   UNL A   1      39.815  30.129  28.679  1.00  0.00     0.010 A 
ATOM     44  C   UNL A   1      40.914  29.812  29.493  1.00  0.00    -0.014 A 
BRANCH  44  45
ATOM     45  C   UNL A   1      42.157  29.265  28.906  1.00  0.00     0.031 A 
ATOM     46  C   UNL A   1      43.328  30.207  28.813  1.00  0.00     0.074 A 
ATOM     47  C   UNL A   1      42.278  27.975  28.549  1.00  0.00     0.049 A 
ATOM     48  N   UNL A   1      44.567  29.964  28.482  1.00  0.00    -0.248 NA
ATOM     49  C   UNL A   1      43.060  31.615  29.160  1.00  0.00     0.031 C 
ATOM     50  C   UNL A   1      41.219  26.970  28.612  1.00  0.00     0.029 A 
ATOM     51  N   UNL A   1      43.366  27.289  28.069  1.00  0.00    -0.354 N 
ATOM     52  C   UNL A   1      45.231  31.178  28.615  1.00  0.00     0.074 A 
ATOM     53  C   UNL A   1      44.255  32.165  29.013  1.00  0.00     0.031 C 
ATOM     54  C   UNL A   1      41.711  25.793  28.184  1.00  0.00     0.029 A 
ATOM     55  C   UNL A   1      43.117  25.962  27.816  1.00  0.00     0.049 A 
ATOM     56  H   UNL A   1      44.244  27.709  27.921  1.00  0.00     0.167 HD
ATOM     57  C   UNL A   1      46.543  31.447  28.432  1.00  0.00     0.037 A 
ATOM     58  C   UNL A   1      43.937  25.001  27.345  1.00  0.00     0.037 A 
ATOM     59  C   UNL A   1      47.501  30.473  27.992  1.00  0.00     0.049 A 
ATOM     60  C   UNL A   1      45.384  25.339  27.082  1.00  0.00     0.074 A 
ATOM     61  C   UNL A   1      48.853  30.639  27.752  1.00  0.00     0.029 A 
ATOM     62  N   UNL A   1      47.200  29.149  27.704  1.00  0.00    -0.354 N 
ATOM     63  N   UNL A   1      46.011  26.480  27.252  1.00  0.00    -0.248 NA
ATOM     64  C   UNL A   1      46.239  24.256  26.576  1.00  0.00     0.031 C 
ATOM     65  C   UNL A   1      49.361  29.424  27.280  1.00  0.00     0.029 A 
ATOM     66  C   UNL A   1      48.336  28.490  27.271  1.00  0.00     0.049 A 
ATOM     67  H   UNL A   1      46.309  28.740  27.795  1.00  0.00     0.167 HD
ATOM     68  C   UNL A   1      47.338  26.244  26.903  1.00  0.00     0.074 A 
ATOM     69  C   UNL A   1      47.424  24.849  26.521  1.00  0.00     0.031 C 
ATOM     70  C   UNL A   1      48.393  27.098  26.900  1.00  0.00     0.037 A 
BRANCH  57  71
ATOM     71  C   UNL A   1      46.992  32.857  28.682  1.00  0.00     0.058 A 
ATOM     72  C   UNL A   1      47.403  33.281  29.956  1.00  0.00     0.135 A 
ATOM     73  C   UNL A   1      46.997  33.798  27.641  1.00  0.00     0.135 A 
ATOM     74  F   UNL A   1      47.386  32.428  30.992  1.00  0.00    -0.206 F 
ATOM     75  C   UNL A   1      47.786  34.598  30.194  1.00  0.00     0.059 A 
ATOM     76  C   UNL A   1      47.396  35.113  27.853  1.00  0.00     0.059 A 
ATOM     77  F   UNL A   1      46.596  33.446  26.410  1.00  0.00    -0.206 F 
ATOM     78  C   UNL A   1      47.776  35.507  29.135  1.00  0.00     0.060 A 
BRANCH  78  79
ATOM     79  S   UNL A   1      48.276  37.211  29.457  1.00  0.00     0.124 S 
ATOM     80  O   UNL A   1      49.492  37.315  28.656  1.00  0.00    -0.237 OA
ATOM     81  O   UNL A   1      47.129  37.971  28.970  1.00  0.00    -0.237 OA
ATOM     82  O   UNL A   1      48.474  37.240  30.904  1.00  0.00    -0.744 OA
ENDBRANCH  78  79
ENDBRANCH  57  71
BRANCH  58  83
ATOM     83  C   UNL A   1      43.420  23.627  27.099  1.00  0.00     0.058 A 
ATOM     84  C   UNL A   1      43.178  23.156  25.800  1.00  0.00     0.135 A 
ATOM     85  C   UNL A   1      43.143  22.759  28.167  1.00  0.00     0.135 A 
ATOM     86  F   UNL A   1      43.413  23.951  24.745  1.00  0.00    -0.206 F 
ATOM     87  C   UNL A   1      42.668  21.882  25.567  1.00  0.00     0.059 A 
ATOM     88  C   UNL A   1      42.653  21.474  27.960  1.00  0.00     0.059 A 
ATOM     89  F   UNL A   1      43.360  23.158  29.430  1.00  0.00    -0.206 F 
ATOM     90  C   UNL A   1      42.409  21.047  26.656  1.00  0.00     0.060 A 
BRANCH  90  91
ATOM     91  S   UNL A   1      41.794  19.376  26.345  1.00  0.00     0.124 S 
ATOM     92  O   UNL A   1      42.289  18.658  27.513  1.00  0.00    -0.237 OA
ATOM     93  O   UNL A   1      40.350  19.585  26.288  1.00  0.00    -0.237 OA
ATOM     94  O   UNL A   1      42.417  19.021  25.073  1.00  0.00    -0.744 OA
ENDBRANCH  90  91
ENDBRANCH  58  83
BRANCH  70  95
ATOM     95  C   UNL A   1      49.731  26.541  26.503  1.00  0.00     0.058 A 
ATOM     96  C   UNL A   1      50.201  26.620  25.183  1.00  0.00     0.135 A 
ATOM     97  C   UNL A   1      50.570  25.959  27.466  1.00  0.00     0.135 A 
ATOM     98  F   UNL A   1      49.437  27.168  24.225  1.00  0.00    -0.206 F 
ATOM     99  C   UNL A   1      51.443  26.106  24.824  1.00  0.00     0.059 A 
ATOM    100  C   UNL A   1      51.827  25.464  27.136  1.00  0.00     0.059 A 
ATOM    101  F   UNL A   1      50.175  25.876  28.746  1.00  0.00    -0.206 F 
ATOM    102  C   UNL A   1      52.247  25.526  25.807  1.00  0.00     0.060 A 
BRANCH 102 103
ATOM    103  S   UNL A   1      53.860  24.869  25.335  1.00  0.00     0.124 S 
ATOM    104  O   UNL A   1      54.193  25.708  24.189  1.00  0.00    -0.237 OA
ATOM    105  O   UNL A   1      54.657  25.093  26.537  1.00  0.00    -0.237 OA
ATOM    106  O   UNL A   1      53.579  23.469  25.030  1.00  0.00    -0.744 OA
ENDBRANCH 102 103
ENDBRANCH  70  95
ENDBRANCH  44  45
ENDBRANCH  37  39
ENDBRANCH  36  37
ENDBRANCH  35  36
ENDBRANCH  34  35
ENDBRANCH  33  34
ENDBRANCH  32  33
ENDBRANCH  31  32
ENDBRANCH  30  31
ENDBRANCH   1  30
TORSDOF 29
ENDMDL
MODEL 2
REMARK VINA RESULT:      -7.8      7.540     14.607
REMARK SMILES CC[NH2+][C@]1(C(=O)OCCOCCOCCOCCOC(=O)c2ccc(-c3c4nc(c(-c5c(F)cc(S(=O)(=O)[O-])cc5F)c5ccc([nH]5)c(-c5c(F)cc(S(=O)(=O)[O-])cc5F)c5nc(c(-c6c(F)cc(S(=O)(=O)[O-])cc6F)c6ccc3[nH]6)C=C5)C=C4)cc2)CCC[C@H]1CC[N@H+]1CCC[C@@H](CC)C1
REMARK SMILES IDX 12 1 11 2 10 3 9 4 8 5 7 6 5 7 6 8 4 9 88 10 91 11 89 12
REMARK SMILES IDX 90 13 3 14 2 17 1 18 92 19 93 20 94 21 95 22 101 23 96 25
REMARK SMILES IDX 98 26 97 27 99 28 100 29 13 30 14 31 15 32 16 33 17 34 18 35
REMARK SMILES IDX 19 36 20 37 21 38 22 39 23 40 87 41 24 42 86 43 25 44 26 45
REMARK SMILES IDX 27 46 80 47 28 48 85 49 79 50 81 51 29 52 84 53 78 54 77 55
REMARK SMILES IDX 30 57 64 58 43 59 63 60 44 61 47 62 62 63 82 64 45 65 46 66
REMARK SMILES IDX 61 68 83 69 48 70 31 71 32 72 41 73 33 74 34 75 40 76 42 77
REMARK SMILES IDX 35 78 36 79 37 80 38 81 39 82 65 83 66 84 75 85 67 86 68 87
REMARK SMILES IDX 74 88 76 89 69 90 70 91 71 92 72 93 73 94 49 95 50 96 59 97
REMARK SMILES IDX 51 98 52 99 58 100 60 101 53 102 54 103 55 104 56 105 57 106
REMARK H PARENT 3 15 3 16 94 24 81 56 47 67
REMARK Flexibility Score: inf
ROOT
ATOM      1  C   UNL A   1      38.057  33.064  38.231  1.00  0.00     0.188 C 
ENDROOT
BRANCH   1   2
ATOM      2  C   UNL A   1      38.914  33.219  36.956  1.00  0.00     0.188 C 
BRANCH   2   3
ATOM      3  O   UNL A   1      39.738  34.382  36.950  1.00  0.00    -0.376 OA
BRANCH   3   4
ATOM      4  C   UNL A   1      40.061  34.922  35.675  1.00  0.00     0.202 C 
BRANCH   4   5
ATOM      5  C   UNL A   1      39.093  34.563  34.529  1.00  0.00     0.261 C 
BRANCH   5   6
ATOM      6  O   UNL A   1      39.530  33.506  33.643  1.00  0.00    -0.459 OA
BRANCH   6   7
ATOM      7  C   UNL A   1      39.107  33.593  32.355  1.00  0.00     0.368 C 
ATOM      8  O   UNL A   1      39.257  34.627  31.727  1.00  0.00    -0.245 OA
BRANCH   7   9
ATOM      9  C   UNL A   1      38.415  32.307  31.833  1.00  0.00     0.197 C 
ATOM     10  C   UNL A   1      38.912  31.191  32.791  1.00  0.00     0.081 C 
ATOM     11  C   UNL A   1      36.863  32.240  32.025  1.00  0.00     0.068 C 
ATOM     12  C   UNL A   1      37.908  30.068  32.668  1.00  0.00     0.008 C 
ATOM     13  C   UNL A   1      36.579  30.757  32.396  1.00  0.00     0.011 C 
BRANCH   9  14
ATOM     14  N   UNL A   1      38.862  31.908  30.447  1.00  0.00    -0.332 N 
ATOM     15  H   UNL A   1      38.132  31.316  30.049  1.00  0.00     0.347 HD
ATOM     16  H   UNL A   1      39.021  32.789  29.959  1.00  0.00     0.347 HD
BRANCH  14  17
ATOM     17  C   UNL A   1      40.131  31.180  30.334  1.00  0.00     0.257 C 
ATOM     18  C   UNL A   1      40.013  30.000  29.367  1.00  0.00     0.071 C 
ENDBRANCH  14  17
ENDBRANCH   9  14
BRANCH  11  19
ATOM     19  C   UNL A   1      36.175  33.196  33.035  1.00  0.00     0.072 C 
BRANCH  19  20
ATOM     20  C   UNL A   1      34.626  33.132  33.197  1.00  0.00     0.262 C 
BRANCH  20  21
ATOM     21  N   UNL A   1      33.911  34.414  33.008  1.00  0.00    -0.335 N 
ATOM     22  C   UNL A   1      34.585  35.460  33.787  1.00  0.00     0.262 C 
ATOM     23  C   UNL A   1      33.825  34.793  31.575  1.00  0.00     0.265 C 
ATOM     24  H   UNL A   1      32.953  34.303  33.342  1.00  0.00     0.348 HD
ATOM     25  C   UNL A   1      33.889  36.809  33.653  1.00  0.00     0.062 C 
ATOM     26  C   UNL A   1      33.103  36.148  31.369  1.00  0.00     0.044 C 
ATOM     27  C   UNL A   1      33.802  37.234  32.194  1.00  0.00     0.015 C 
BRANCH  26  28
ATOM     28  C   UNL A   1      33.045  36.590  29.890  1.00  0.00     0.006 C 
ATOM     29  C   UNL A   1      33.645  35.572  28.933  1.00  0.00     0.004 C 
ENDBRANCH  26  28
ENDBRANCH  20  21
ENDBRANCH  19  20
ENDBRANCH  11  19
ENDBRANCH   7   9
ENDBRANCH   6   7
ENDBRANCH   5   6
ENDBRANCH   4   5
ENDBRANCH   3   4
ENDBRANCH   2   3
ENDBRANCH   1   2
BRANCH   1  30
ATOM     30  O   UNL A   1      38.496  33.620  39.465  1.00  0.00    -0.377 OA
BRANCH  30  31
ATOM     31  C   UNL A   1      38.624  32.726  40.552  1.00  0.00     0.188 C 
BRANCH  31  32
ATOM     32  C   UNL A   1      38.068  33.308  41.863  1.00  0.00     0.188 C 
BRANCH  32  33
ATOM     33  O   UNL A   1      38.307  32.487  43.009  1.00  0.00    -0.376 OA
BRANCH  33  34
ATOM     34  C   UNL A   1      39.303  32.917  43.929  1.00  0.00     0.202 C 
BRANCH  34  35
ATOM     35  C   UNL A   1      40.774  32.658  43.559  1.00  0.00     0.261 C 
BRANCH  35  36
ATOM     36  O   UNL A   1      41.722  33.635  44.012  1.00  0.00    -0.460 OA
BRANCH  36  37
ATOM     37  C   UNL A   1      41.514  34.925  43.679  1.00  0.00     0.338 C 
ATOM     38  O   UNL A   1      41.172  35.828  44.422  1.00  0.00    -0.246 OA
BRANCH  37  39
ATOM     39  C   UNL A   1      42.021  35.105  42.300  1.00  0.00     0.060 A 
ATOM     40  C   UNL A   1      41.113  35.525  41.318  1.00  0.00     0.016 A 
ATOM     41  C   UNL A   1      43.382  34.976  41.997  1.00  0.00     0.016 A 
ATOM     42  C   UNL A   1      41.562  35.799  40.029  1.00  0.00     0.010 A 
ATOM     43  C   UNL A   1      43.826  35.209  40.692  1.00  0.00     0.010 A 
ATOM     44  C   UNL A   1      42.909  35.587  39.699  1.00  0.00    -0.014 A 
BRANCH  44  45
ATOM     45  C   UNL A   1      43.252  35.460  38.266  1.00  0.00     0.031 A 
ATOM     46  C   UNL A   1      43.138  34.084  37.667  1.00  0.00     0.074 A 
ATOM     47  C   UNL A   1      43.568  36.521  37.503  1.00  0.00     0.049 A 
ATOM     48  N   UNL A   1      43.233  33.708  36.420  1.00  0.00    -0.248 NA
ATOM     49  C   UNL A   1      42.859  32.984  38.609  1.00  0.00     0.031 C 
ATOM     50  C   UNL A   1      43.691  37.900  37.971  1.00  0.00     0.029 A 
ATOM     51  N   UNL A   1      43.833  36.596  36.159  1.00  0.00    -0.354 N 
ATOM     52  C   UNL A   1      42.992  32.339  36.426  1.00  0.00     0.074 A 
ATOM     53  C   UNL A   1      42.790  31.940  37.799  1.00  0.00     0.031 C 
ATOM     54  C   UNL A   1      44.009  38.687  36.927  1.00  0.00     0.029 A 
ATOM     55  C   UNL A   1      44.115  37.867  35.720  1.00  0.00     0.049 A 
ATOM     56  H   UNL A   1      43.822  35.812  35.564  1.00  0.00     0.167 HD
ATOM     57  C   UNL A   1      42.934  31.488  35.377  1.00  0.00     0.037 A 
ATOM     58  C   UNL A   1      44.418  38.308  34.482  1.00  0.00     0.037 A 
ATOM     59  C   UNL A   1      43.181  31.880  34.019  1.00  0.00     0.049 A 
ATOM     60  C   UNL A   1      44.413  37.328  33.334  1.00  0.00     0.074 A 
ATOM     61  C   UNL A   1      43.169  31.098  32.878  1.00  0.00     0.029 A 
ATOM     62  N   UNL A   1      43.505  33.170  33.620  1.00  0.00    -0.354 N 
ATOM     63  N   UNL A   1      44.142  36.044  33.344  1.00  0.00    -0.248 NA
ATOM     64  C   UNL A   1      44.743  37.860  32.005  1.00  0.00     0.031 C 
ATOM     65  C   UNL A   1      43.528  31.907  31.795  1.00  0.00     0.029 A 
ATOM     66  C   UNL A   1      43.715  33.202  32.253  1.00  0.00     0.049 A 
ATOM     67  H   UNL A   1      43.575  33.946  34.221  1.00  0.00     0.167 HD
ATOM     68  C   UNL A   1      44.239  35.620  32.022  1.00  0.00     0.074 A 
ATOM     69  C   UNL A   1      44.585  36.789  31.238  1.00  0.00     0.031 C 
ATOM     70  C   UNL A   1      44.056  34.382  31.499  1.00  0.00     0.037 A 
BRANCH  57  71
ATOM     71  C   UNL A   1      42.619  30.052  35.681  1.00  0.00     0.058 A 
ATOM     72  C   UNL A   1      41.295  29.593  35.767  1.00  0.00     0.135 A 
ATOM     73  C   UNL A   1      43.652  29.129  35.903  1.00  0.00     0.135 A 
ATOM     74  F   UNL A   1      40.270  30.444  35.594  1.00  0.00    -0.206 F 
ATOM     75  C   UNL A   1      41.005  28.270  36.083  1.00  0.00     0.059 A 
ATOM     76  C   UNL A   1      43.384  27.796  36.198  1.00  0.00     0.059 A 
ATOM     77  F   UNL A   1      44.933  29.522  35.849  1.00  0.00    -0.206 F 
ATOM     78  C   UNL A   1      42.057  27.379  36.299  1.00  0.00     0.060 A 
BRANCH  78  79
ATOM     79  S   UNL A   1      41.667  25.665  36.707  1.00  0.00     0.124 S 
ATOM     80  O   UNL A   1      40.571  25.833  37.656  1.00  0.00    -0.237 OA
ATOM     81  O   UNL A   1      41.302  25.109  35.408  1.00  0.00    -0.237 OA
ATOM     82  O   UNL A   1      42.915  25.159  37.273  1.00  0.00    -0.744 OA
ENDBRANCH  78  79
ENDBRANCH  57  71
BRANCH  58  83
ATOM     83  C   UNL A   1      44.741  39.744  34.255  1.00  0.00     0.058 A 
ATOM     84  C   UNL A   1      46.048  40.231  34.393  1.00  0.00     0.135 A 
ATOM     85  C   UNL A   1      43.737  40.663  33.909  1.00  0.00     0.135 A 
ATOM     86  F   UNL A   1      47.042  39.397  34.736  1.00  0.00    -0.206 F 
ATOM     87  C   UNL A   1      46.350  41.578  34.210  1.00  0.00     0.059 A 
ATOM     88  C   UNL A   1      44.016  42.009  33.699  1.00  0.00     0.059 A 
ATOM     89  F   UNL A   1      42.469  40.248  33.760  1.00  0.00    -0.206 F 
ATOM     90  C   UNL A   1      45.326  42.460  33.861  1.00  0.00     0.060 A 
BRANCH  90  91
ATOM     91  S   UNL A   1      45.732  44.198  33.575  1.00  0.00     0.124 S 
ATOM     92  O   UNL A   1      44.712  44.872  34.369  1.00  0.00    -0.237 OA
ATOM     93  O   UNL A   1      47.097  44.282  34.085  1.00  0.00    -0.237 OA
ATOM     94  O   UNL A   1      45.603  44.338  32.128  1.00  0.00    -0.744 OA
ENDBRANCH  90  91
ENDBRANCH  58  83
BRANCH  70  95
ATOM     95  C   UNL A   1      44.195  34.235  30.009  1.00  0.00     0.058 A 
ATOM     96  C   UNL A   1      45.360  33.715  29.424  1.00  0.00     0.135 A 
ATOM     97  C   UNL A   1      43.131  34.580  29.161  1.00  0.00     0.135 A 
ATOM     98  F   UNL A   1      46.406  33.370  30.192  1.00  0.00    -0.206 F 
ATOM     99  C   UNL A   1      45.479  33.578  28.045  1.00  0.00     0.059 A 
ATOM    100  C   UNL A   1      43.217  34.424  27.782  1.00  0.00     0.059 A 
ATOM    101  F   UNL A   1      41.988  35.063  29.672  1.00  0.00    -0.206 F 
ATOM    102  C   UNL A   1      44.403  33.938  27.232  1.00  0.00     0.060 A 
BRANCH 102 103
ATOM    103  S   UNL A   1      44.563  33.750  25.444  1.00  0.00     0.124 S 
ATOM    104  O   UNL A   1      45.681  34.642  25.155  1.00  0.00    -0.237 OA
ATOM    105  O   UNL A   1      44.838  32.323  25.301  1.00  0.00    -0.237 OA
ATOM    106  O   UNL A   1      43.264  34.183  24.940  1.00  0.00    -0.744 OA
ENDBRANCH 102 103
ENDBRANCH  70  95
ENDBRANCH  44  45
ENDBRANCH  37  39
ENDBRANCH  36  37
ENDBRANCH  35  36
ENDBRANCH  34  35
ENDBRANCH  33  34
ENDBRANCH  32  33
ENDBRANCH  31  32
ENDBRANCH  30  31
ENDBRANCH   1  30
TORSDOF 29
ENDMDL
MODEL 3
REMARK VINA RESULT:      -7.4      2.268      8.102
REMARK SMILES CC[NH2+][C@]1(C(=O)OCCOCCOCCOCCOC(=O)c2ccc(-c3c4nc(c(-c5c(F)cc(S(=O)(=O)[O-])cc5F)c5ccc([nH]5)c(-c5c(F)cc(S(=O)(=O)[O-])cc5F)c5nc(c(-c6c(F)cc(S(=O)(=O)[O-])cc6F)c6ccc3[nH]6)C=C5)C=C4)cc2)CCC[C@H]1CC[N@H+]1CCC[C@@H](CC)C1
REMARK SMILES IDX 12 1 11 2 10 3 9 4 8 5 7 6 5 7 6 8 4 9 88 10 91 11 89 12
REMARK SMILES IDX 90 13 3 14 2 17 1 18 92 19 93 20 94 21 95 22 101 23 96 25
REMARK SMILES IDX 98 26 97 27 99 28 100 29 13 30 14 31 15 32 16 33 17 34 18 35
REMARK SMILES IDX 19 36 20 37 21 38 22 39 23 40 87 41 24 42 86 43 25 44 26 45
REMARK SMILES IDX 27 46 80 47 28 48 85 49 79 50 81 51 29 52 84 53 78 54 77 55
REMARK SMILES IDX 30 57 64 58 43 59 63 60 44 61 47 62 62 63 82 64 45 65 46 66
REMARK SMILES IDX 61 68 83 69 48 70 31 71 32 72 41 73 33 74 34 75 40 76 42 77
REMARK SMILES IDX 35 78 36 79 37 80 38 81 39 82 65 83 66 84 75 85 67 86 68 87
REMARK SMILES IDX 74 88 76 89 69 90 70 91 71 92 72 93 73 94 49 95 50 96 59 97
REMARK SMILES IDX 51 98 52 99 58 100 60 101 53 102 54 103 55 104 56 105 57 106
REMARK H PARENT 3 15 3 16 94 24 81 56 47 67
REMARK Flexibility Score: inf
ROOT
ATOM      1  C   UNL A   1      45.505  43.311  27.841  1.00  0.00     0.188 C 
ENDROOT
BRANCH   1   2
ATOM      2  C   UNL A   1      46.820  43.846  27.232  1.00  0.00     0.188 C 
BRANCH   2   3
ATOM      3  O   UNL A   1      46.796  43.959  25.811  1.00  0.00    -0.376 OA
BRANCH   3   4
ATOM      4  C   UNL A   1      46.459  45.235  25.283  1.00  0.00     0.202 C 
BRANCH   4   5
ATOM      5  C   UNL A   1      45.095  45.328  24.570  1.00  0.00     0.261 C 
BRANCH   5   6
ATOM      6  O   UNL A   1      45.122  45.162  23.132  1.00  0.00    -0.459 OA
BRANCH   6   7
ATOM      7  C   UNL A   1      44.508  44.052  22.647  1.00  0.00     0.368 C 
ATOM      8  O   UNL A   1      43.302  43.917  22.759  1.00  0.00    -0.245 OA
BRANCH   7   9
ATOM      9  C   UNL A   1      45.480  43.024  22.012  1.00  0.00     0.197 C 
ATOM     10  C   UNL A   1      46.860  43.734  22.045  1.00  0.00     0.081 C 
ATOM     11  C   UNL A   1      45.753  41.732  22.852  1.00  0.00     0.068 C 
ATOM     12  C   UNL A   1      47.890  42.633  21.933  1.00  0.00     0.008 C 
ATOM     13  C   UNL A   1      47.264  41.437  22.635  1.00  0.00     0.011 C 
BRANCH   9  14
ATOM     14  N   UNL A   1      45.183  42.738  20.559  1.00  0.00    -0.332 N 
ATOM     15  H   UNL A   1      45.234  41.728  20.429  1.00  0.00     0.347 HD
ATOM     16  H   UNL A   1      44.266  43.152  20.393  1.00  0.00     0.347 HD
BRANCH  14  17
ATOM     17  C   UNL A   1      46.062  43.357  19.559  1.00  0.00     0.257 C 
ATOM     18  C   UNL A   1      45.369  44.524  18.854  1.00  0.00     0.071 C 
ENDBRANCH  14  17
ENDBRANCH   9  14
BRANCH  11  19
ATOM     19  C   UNL A   1      45.406  41.715  24.365  1.00  0.00     0.072 C 
BRANCH  19  20
ATOM     20  C   UNL A   1      45.754  40.447  25.202  1.00  0.00     0.262 C 
BRANCH  20  21
ATOM     21  N   UNL A   1      44.874  40.190  26.365  1.00  0.00    -0.335 N 
ATOM     22  C   UNL A   1      43.489  40.517  26.002  1.00  0.00     0.262 C 
ATOM     23  C   UNL A   1      44.980  38.787  26.839  1.00  0.00     0.265 C 
ATOM     24  H   UNL A   1      45.175  40.786  27.136  1.00  0.00     0.348 HD
ATOM     25  C   UNL A   1      42.528  40.292  27.162  1.00  0.00     0.062 C 
ATOM     26  C   UNL A   1      44.043  38.500  28.038  1.00  0.00     0.044 C 
ATOM     27  C   UNL A   1      42.600  38.855  27.659  1.00  0.00     0.015 C 
BRANCH  26  28
ATOM     28  C   UNL A   1      44.097  37.033  28.519  1.00  0.00     0.006 C 
ATOM     29  C   UNL A   1      42.729  36.374  28.597  1.00  0.00     0.004 C 
ENDBRANCH  26  28
ENDBRANCH  20  21
ENDBRANCH  19  20
ENDBRANCH  11  19
ENDBRANCH   7   9
ENDBRANCH   6   7
ENDBRANCH   5   6
ENDBRANCH   4   5
ENDBRANCH   3   4
ENDBRANCH   2   3
ENDBRANCH   1   2
BRANCH   1  30
ATOM     30  O   UNL A   1      45.456  42.011  28.417  1.00  0.00    -0.377 OA
BRANCH  30  31
ATOM     31  C   UNL A   1      46.009  41.872  29.710  1.00  0.00     0.188 C 
BRANCH  31  32
ATOM     32  C   UNL A   1      46.990  40.690  29.808  1.00  0.00     0.188 C 
BRANCH  32  33
ATOM     33  O   UNL A   1      47.519  40.483  31.119  1.00  0.00    -0.376 OA
BRANCH  33  34
ATOM     34  C   UNL A   1      47.047  39.357  31.848  1.00  0.00     0.202 C 
BRANCH  34  35
ATOM     35  C   UNL A   1      46.612  38.120  31.045  1.00  0.00     0.261 C 
BRANCH  35  36
ATOM     36  O   UNL A   1      47.273  36.888  31.369  1.00  0.00    -0.460 OA
BRANCH  36  37
ATOM     37  C   UNL A   1      48.268  36.470  30.563  1.00  0.00     0.338 C 
ATOM     38  O   UNL A   1      49.362  36.987  30.419  1.00  0.00    -0.246 OA
BRANCH  37  39
ATOM     39  C   UNL A   1      47.894  35.124  30.073  1.00  0.00     0.060 A 
ATOM     40  C   UNL A   1      47.182  35.041  28.868  1.00  0.00     0.016 A 
ATOM     41  C   UNL A   1      48.330  33.961  30.719  1.00  0.00     0.016 A 
ATOM     42  C   UNL A   1      46.890  33.795  28.319  1.00  0.00     0.010 A 
ATOM     43  C   UNL A   1      47.999  32.710  30.191  1.00  0.00     0.010 A 
ATOM     44  C   UNL A   1      47.248  32.627  29.008  1.00  0.00    -0.014 A 
BRANCH  44  45
ATOM     45  C   UNL A   1      46.556  31.373  28.639  1.00  0.00     0.031 A 
ATOM     46  C   UNL A   1      47.378  30.338  27.918  1.00  0.00     0.074 A 
ATOM     47  C   UNL A   1      45.284  31.121  28.994  1.00  0.00     0.049 A 
ATOM     48  N   UNL A   1      47.078  29.107  27.607  1.00  0.00    -0.248 NA
ATOM     49  C   UNL A   1      48.734  30.751  27.512  1.00  0.00     0.031 C 
ATOM     50  C   UNL A   1      44.400  32.040  29.707  1.00  0.00     0.029 A 
ATOM     51  N   UNL A   1      44.521  29.996  28.807  1.00  0.00    -0.354 N 
ATOM     52  C   UNL A   1      48.217  28.589  27.000  1.00  0.00     0.074 A 
ATOM     53  C   UNL A   1      49.198  29.648  26.948  1.00  0.00     0.031 C 
ATOM     54  C   UNL A   1      43.210  31.440  29.896  1.00  0.00     0.029 A 
ATOM     55  C   UNL A   1      43.249  30.097  29.316  1.00  0.00     0.049 A 
ATOM     56  H   UNL A   1      44.854  29.189  28.350  1.00  0.00     0.167 HD
ATOM     57  C   UNL A   1      48.432  27.337  26.537  1.00  0.00     0.037 A 
ATOM     58  C   UNL A   1      42.241  29.202  29.314  1.00  0.00     0.037 A 
ATOM     59  C   UNL A   1      47.438  26.302  26.551  1.00  0.00     0.049 A 
ATOM     60  C   UNL A   1      42.481  27.831  28.731  1.00  0.00     0.074 A 
ATOM     61  C   UNL A   1      47.540  25.002  26.089  1.00  0.00     0.029 A 
ATOM     62  N   UNL A   1      46.148  26.458  27.037  1.00  0.00    -0.354 N 
ATOM     63  N   UNL A   1      43.576  27.339  28.199  1.00  0.00    -0.248 NA
ATOM     64  C   UNL A   1      41.353  26.890  28.759  1.00  0.00     0.031 C 
ATOM     65  C   UNL A   1      46.296  24.385  26.258  1.00  0.00     0.029 A 
ATOM     66  C   UNL A   1      45.436  25.284  26.869  1.00  0.00     0.049 A 
ATOM     67  H   UNL A   1      45.792  27.282  27.442  1.00  0.00     0.167 HD
ATOM     68  C   UNL A   1      43.278  26.023  27.857  1.00  0.00     0.074 A 
ATOM     69  C   UNL A   1      41.902  25.794  28.251  1.00  0.00     0.031 C 
ATOM     70  C   UNL A   1      44.067  25.085  27.274  1.00  0.00     0.037 A 
BRANCH  57  71
ATOM     71  C   UNL A   1      49.785  27.049  25.956  1.00  0.00     0.058 A 
ATOM     72  C   UNL A   1      50.036  27.179  24.580  1.00  0.00     0.135 A 
ATOM     73  C   UNL A   1      50.839  26.625  26.780  1.00  0.00     0.135 A 
ATOM     74  F   UNL A   1      49.053  27.551  23.745  1.00  0.00    -0.206 F 
ATOM     75  C   UNL A   1      51.281  26.878  24.038  1.00  0.00     0.059 A 
ATOM     76  C   UNL A   1      52.098  26.340  26.261  1.00  0.00     0.059 A 
ATOM     77  F   UNL A   1      50.644  26.468  28.098  1.00  0.00    -0.206 F 
ATOM     78  C   UNL A   1      52.305  26.457  24.887  1.00  0.00     0.060 A 
BRANCH  78  79
ATOM     79  S   UNL A   1      53.917  26.070  24.172  1.00  0.00     0.124 S 
ATOM     80  O   UNL A   1      54.130  24.709  24.652  1.00  0.00    -0.237 OA
ATOM     81  O   UNL A   1      53.665  26.207  22.740  1.00  0.00    -0.237 OA
ATOM     82  O   UNL A   1      54.796  27.084  24.749  1.00  0.00    -0.744 OA
ENDBRANCH  78  79
ENDBRANCH  57  71
BRANCH  58  83
ATOM     83  C   UNL A   1      40.916  29.562  29.890  1.00  0.00     0.058 A 
ATOM     84  C   UNL A   1      40.720  29.657  31.275  1.00  0.00     0.135 A 
ATOM     85  C   UNL A   1      39.811  29.806  29.058  1.00  0.00     0.135 A 
ATOM     86  F   UNL A   1      41.740  29.420  32.114  1.00  0.00    -0.206 F 
ATOM     87  C   UNL A   1      39.476  29.966  31.818  1.00  0.00     0.059 A 
ATOM     88  C   UNL A   1      38.563  30.138  29.575  1.00  0.00     0.059 A 
ATOM     89  F   UNL A   1      39.945  29.732  27.725  1.00  0.00    -0.206 F 
ATOM     90  C   UNL A   1      38.402  30.207  30.958  1.00  0.00     0.060 A 
BRANCH  90  91
ATOM     91  S   UNL A   1      36.802  30.657  31.667  1.00  0.00     0.124 S 
ATOM     92  O   UNL A   1      37.132  30.782  33.082  1.00  0.00    -0.237 OA
ATOM     93  O   UNL A   1      36.496  31.903  30.970  1.00  0.00    -0.237 OA
ATOM     94  O   UNL A   1      35.949  29.527  31.314  1.00  0.00    -0.744 OA
ENDBRANCH  90  91
ENDBRANCH  58  83
BRANCH  70  95
ATOM     95  C   UNL A   1      43.472  23.721  27.058  1.00  0.00     0.058 A 
ATOM     96  C   UNL A   1      43.001  23.313  25.801  1.00  0.00     0.135 A 
ATOM     97  C   UNL A   1      43.413  22.798  28.113  1.00  0.00     0.135 A 
ATOM     98  F   UNL A   1      43.036  24.158  24.758  1.00  0.00    -0.206 F 
ATOM     99  C   UNL A   1      42.457  22.047  25.607  1.00  0.00     0.059 A 
ATOM    100  C   UNL A   1      42.899  21.518  27.936  1.00  0.00     0.059 A 
ATOM    101  F   UNL A   1      43.869  23.134  29.331  1.00  0.00    -0.206 F 
ATOM    102  C   UNL A   1      42.407  21.159  26.682  1.00  0.00     0.060 A 
BRANCH 102 103
ATOM    103  S   UNL A   1      41.706  19.516  26.420  1.00  0.00     0.124 S 
ATOM    104  O   UNL A   1      42.249  19.172  25.111  1.00  0.00    -0.237 OA
ATOM    105  O   UNL A   1      42.243  18.761  27.548  1.00  0.00    -0.237 OA
ATOM    106  O   UNL A   1      40.266  19.751  26.463  1.00  0.00    -0.744 OA
ENDBRANCH 102 103
ENDBRANCH  70  95
ENDBRANCH  44  45
ENDBRANCH  37  39
ENDBRANCH  36  37
ENDBRANCH  35  36
ENDBRANCH  34  35
ENDBRANCH  33  34
ENDBRANCH  32  33
ENDBRANCH  31  32
ENDBRANCH  30  31
ENDBRANCH   1  30
TORSDOF 29
ENDMDL
