MODEL 1
REMARK VINA RESULT:     -10.2      0.000      0.000
REMARK SMILES CC1(C)S[C@H](c2ccc(-c3ccccc3)o2)[NH2+][C@H]1C(=O)OCCOCCOCCOCCOC(=O)c1ccc(-c2c3nc(c(-c4c(F)cc(S(=O)(=O)[O-])cc4F)c4ccc([nH]4)c(-c4c(F)cc(S(=O)(=O)[O-])cc4F)c4nc(c(-c5c(F)cc(S(=O)(=O)[O-])cc5F)c5ccc2[nH]5)C=C4)C=C3)cc1
REMARK SMILES IDX 28 1 27 2 26 3 25 4 24 5 23 6 22 7 21 8 19 9 20 10 18 11
REMARK SMILES IDX 1 12 2 13 3 14 4 15 5 16 17 17 6 20 7 21 16 22 8 23 9 24
REMARK SMILES IDX 10 25 11 26 15 27 12 28 14 29 13 30 29 31 30 32 31 33 32 34
REMARK SMILES IDX 33 35 34 36 35 37 36 38 37 39 101 40 38 41 100 42 39 43
REMARK SMILES IDX 40 44 41 45 94 46 42 47 99 48 93 49 95 50 43 51 98 52 92 53
REMARK SMILES IDX 91 54 44 56 78 57 57 58 77 59 58 60 61 61 76 62 96 63 59 64
REMARK SMILES IDX 60 65 75 67 97 68 62 69 45 70 46 71 55 72 47 73 48 74 54 75
REMARK SMILES IDX 56 76 49 77 50 78 51 79 52 80 53 81 79 82 80 83 89 84 81 85
REMARK SMILES IDX 82 86 88 87 90 88 83 89 84 90 85 91 86 92 87 93 63 94 64 95
REMARK SMILES IDX 73 96 65 97 66 98 72 99 74 100 67 101 68 102 69 103 70 104
REMARK SMILES IDX 71 105
REMARK H PARENT 17 18 17 19 95 55 61 66
REMARK Flexibility Score: inf
ROOT
ATOM      1  C   UNL A   1      33.584  29.933  27.266  1.00  0.00     0.188 C 
ENDROOT
BRANCH   1   2
ATOM      2  O   UNL A   1      32.416  30.728  27.306  1.00  0.00    -0.377 OA
BRANCH   2   3
ATOM      3  C   UNL A   1      31.675  30.841  26.113  1.00  0.00     0.188 C 
BRANCH   3   4
ATOM      4  C   UNL A   1      31.736  29.637  25.163  1.00  0.00     0.188 C 
BRANCH   4   5
ATOM      5  O   UNL A   1      30.619  29.266  24.364  1.00  0.00    -0.376 OA
BRANCH   5   6
ATOM      6  C   UNL A   1      30.752  29.116  22.961  1.00  0.00     0.202 C 
BRANCH   6   7
ATOM      7  C   UNL A   1      31.037  27.712  22.382  1.00  0.00     0.261 C 
BRANCH   7   8
ATOM      8  O   UNL A   1      32.181  26.977  22.874  1.00  0.00    -0.459 OA
BRANCH   8   9
ATOM      9  C   UNL A   1      32.127  25.627  22.730  1.00  0.00     0.366 C 
ATOM     10  O   UNL A   1      31.891  25.074  21.659  1.00  0.00    -0.245 OA
BRANCH   9  11
ATOM     11  C   UNL A   1      32.292  24.822  24.049  1.00  0.00     0.310 C 
ATOM     12  C   UNL A   1      30.527  26.016  25.642  1.00  0.00     0.030 C 
ATOM     13  C   UNL A   1      31.906  25.364  25.459  1.00  0.00     0.079 C 
ATOM     14  C   UNL A   1      33.053  26.150  26.127  1.00  0.00     0.030 C 
ATOM     15  S   UNL A   1      31.766  23.819  26.471  1.00  0.00    -0.078 SA
ATOM     16  C   UNL A   1      31.912  22.712  25.044  1.00  0.00     0.311 C 
ATOM     17  N   UNL A   1      31.624  23.508  23.856  1.00  0.00    -0.316 N 
ATOM     18  H   UNL A   1      30.617  23.637  23.754  1.00  0.00     0.348 HD
ATOM     19  H   UNL A   1      31.964  23.045  23.013  1.00  0.00     0.348 HD
BRANCH  16  20
ATOM     20  C   UNL A   1      33.249  22.030  25.069  1.00  0.00     0.172 A 
ATOM     21  C   UNL A   1      33.609  20.748  24.692  1.00  0.00     0.054 A 
ATOM     22  O   UNL A   1      34.361  22.706  25.513  1.00  0.00    -0.454 OA
ATOM     23  C   UNL A   1      35.001  20.643  24.883  1.00  0.00     0.051 A 
ATOM     24  C   UNL A   1      35.423  21.860  25.374  1.00  0.00     0.134 A 
BRANCH  24  25
ATOM     25  C   UNL A   1      36.746  22.370  25.686  1.00  0.00     0.017 A 
ATOM     26  C   UNL A   1      36.949  23.694  26.091  1.00  0.00     0.012 A 
ATOM     27  C   UNL A   1      37.834  21.486  25.680  1.00  0.00     0.012 A 
ATOM     28  C   UNL A   1      38.216  24.112  26.516  1.00  0.00     0.001 A 
ATOM     29  C   UNL A   1      39.099  21.906  26.092  1.00  0.00     0.001 A 
ATOM     30  C   UNL A   1      39.287  23.216  26.522  1.00  0.00     0.000 A 
ENDBRANCH  24  25
ENDBRANCH  16  20
ENDBRANCH   9  11
ENDBRANCH   8   9
ENDBRANCH   7   8
ENDBRANCH   6   7
ENDBRANCH   5   6
ENDBRANCH   4   5
ENDBRANCH   3   4
ENDBRANCH   2   3
ENDBRANCH   1   2
BRANCH   1  31
ATOM     31  C   UNL A   1      34.913  30.625  27.601  1.00  0.00     0.188 C 
BRANCH  31  32
ATOM     32  O   UNL A   1      34.936  32.009  27.260  1.00  0.00    -0.376 OA
BRANCH  32  33
ATOM     33  C   UNL A   1      35.529  32.929  28.161  1.00  0.00     0.202 C 
BRANCH  33  34
ATOM     34  C   UNL A   1      35.413  32.637  29.668  1.00  0.00     0.261 C 
BRANCH  34  35
ATOM     35  O   UNL A   1      36.633  32.377  30.374  1.00  0.00    -0.460 OA
BRANCH  35  36
ATOM     36  C   UNL A   1      36.743  31.189  31.013  1.00  0.00     0.338 C 
ATOM     37  O   UNL A   1      35.944  30.700  31.783  1.00  0.00    -0.246 OA
BRANCH  36  38
ATOM     38  C   UNL A   1      37.923  30.489  30.454  1.00  0.00     0.060 A 
ATOM     39  C   UNL A   1      38.873  29.960  31.339  1.00  0.00     0.016 A 
ATOM     40  C   UNL A   1      38.079  30.336  29.075  1.00  0.00     0.016 A 
ATOM     41  C   UNL A   1      40.000  29.304  30.842  1.00  0.00     0.010 A 
ATOM     42  C   UNL A   1      39.224  29.705  28.579  1.00  0.00     0.010 A 
ATOM     43  C   UNL A   1      40.206  29.218  29.459  1.00  0.00    -0.014 A 
BRANCH  43  44
ATOM     44  C   UNL A   1      41.541  28.825  28.946  1.00  0.00     0.031 A 
ATOM     45  C   UNL A   1      42.601  29.890  28.853  1.00  0.00     0.074 A 
ATOM     46  C   UNL A   1      41.820  27.556  28.601  1.00  0.00     0.049 A 
ATOM     47  N   UNL A   1      43.830  29.805  28.419  1.00  0.00    -0.248 NA
ATOM     48  C   UNL A   1      42.217  31.235  29.313  1.00  0.00     0.031 C 
ATOM     49  C   UNL A   1      40.891  26.431  28.686  1.00  0.00     0.029 A 
ATOM     50  N   UNL A   1      42.973  27.003  28.101  1.00  0.00    -0.354 N 
ATOM     51  C   UNL A   1      44.366  31.082  28.550  1.00  0.00     0.074 A 
ATOM     52  C   UNL A   1      43.317  31.930  29.072  1.00  0.00     0.031 C 
ATOM     53  C   UNL A   1      41.508  25.322  28.239  1.00  0.00     0.029 A 
ATOM     54  C   UNL A   1      42.863  25.664  27.809  1.00  0.00     0.049 A 
ATOM     55  H   UNL A   1      43.801  27.517  27.964  1.00  0.00     0.167 HD
ATOM     56  C   UNL A   1      45.619  31.506  28.270  1.00  0.00     0.037 A 
ATOM     57  C   UNL A   1      43.749  24.820  27.242  1.00  0.00     0.037 A 
ATOM     58  C   UNL A   1      46.655  30.657  27.740  1.00  0.00     0.049 A 
ATOM     59  C   UNL A   1      45.119  25.333  26.868  1.00  0.00     0.074 A 
ATOM     60  C   UNL A   1      47.962  30.987  27.431  1.00  0.00     0.029 A 
ATOM     61  N   UNL A   1      46.496  29.315  27.429  1.00  0.00    -0.354 N 
ATOM     62  N   UNL A   1      45.622  26.536  27.021  1.00  0.00    -0.248 NA
ATOM     63  C   UNL A   1      46.044  24.373  26.250  1.00  0.00     0.031 C 
ATOM     64  C   UNL A   1      48.576  29.859  26.876  1.00  0.00     0.029 A 
ATOM     65  C   UNL A   1      47.673  28.807  26.905  1.00  0.00     0.049 A 
ATOM     66  H   UNL A   1      45.668  28.798  27.562  1.00  0.00     0.167 HD
ATOM     67  C   UNL A   1      46.930  26.466  26.551  1.00  0.00     0.074 A 
ATOM     68  C   UNL A   1      47.143  25.101  26.119  1.00  0.00     0.031 C 
ATOM     69  C   UNL A   1      47.873  27.442  26.484  1.00  0.00     0.037 A 
BRANCH  56  70
ATOM     70  C   UNL A   1      45.930  32.961  28.499  1.00  0.00     0.058 A 
ATOM     71  C   UNL A   1      46.500  33.419  29.698  1.00  0.00     0.135 A 
ATOM     72  C   UNL A   1      45.676  33.908  27.493  1.00  0.00     0.135 A 
ATOM     73  F   UNL A   1      46.743  32.562  30.703  1.00  0.00    -0.206 F 
ATOM     74  C   UNL A   1      46.782  34.766  29.902  1.00  0.00     0.059 A 
ATOM     75  C   UNL A   1      45.980  35.254  27.663  1.00  0.00     0.059 A 
ATOM     76  F   UNL A   1      45.125  33.526  26.330  1.00  0.00    -0.206 F 
ATOM     77  C   UNL A   1      46.521  35.676  28.876  1.00  0.00     0.060 A 
BRANCH  77  78
ATOM     78  S   UNL A   1      46.902  37.418  29.153  1.00  0.00     0.124 S 
ATOM     79  O   UNL A   1      46.262  37.655  30.444  1.00  0.00    -0.237 OA
ATOM     80  O   UNL A   1      48.361  37.420  29.160  1.00  0.00    -0.237 OA
ATOM     81  O   UNL A   1      46.281  38.089  28.014  1.00  0.00    -0.744 OA
ENDBRANCH  77  78
ENDBRANCH  56  70
BRANCH  57  82
ATOM     82  C   UNL A   1      43.371  23.405  26.979  1.00  0.00     0.058 A 
ATOM     83  C   UNL A   1      43.352  22.451  28.009  1.00  0.00     0.135 A 
ATOM     84  C   UNL A   1      43.032  22.971  25.687  1.00  0.00     0.135 A 
ATOM     85  F   UNL A   1      43.681  22.809  29.260  1.00  0.00    -0.206 F 
ATOM     86  C   UNL A   1      43.026  21.120  27.767  1.00  0.00     0.059 A 
ATOM     87  C   UNL A   1      42.675  21.652  25.425  1.00  0.00     0.059 A 
ATOM     88  F   UNL A   1      43.030  23.842  24.665  1.00  0.00    -0.206 F 
ATOM     89  C   UNL A   1      42.684  20.732  26.470  1.00  0.00     0.060 A 
BRANCH  89  90
ATOM     90  S   UNL A   1      42.214  19.012  26.177  1.00  0.00     0.124 S 
ATOM     91  O   UNL A   1      42.421  18.421  27.494  1.00  0.00    -0.237 OA
ATOM     92  O   UNL A   1      40.826  19.146  25.746  1.00  0.00    -0.237 OA
ATOM     93  O   UNL A   1      43.147  18.582  25.139  1.00  0.00    -0.744 OA
ENDBRANCH  89  90
ENDBRANCH  57  82
BRANCH  69  94
ATOM     94  C   UNL A   1      49.236  27.062  25.970  1.00  0.00     0.058 A 
ATOM     95  C   UNL A   1      50.257  26.613  26.823  1.00  0.00     0.135 A 
ATOM     96  C   UNL A   1      49.510  27.103  24.591  1.00  0.00     0.135 A 
ATOM     97  F   UNL A   1      50.051  26.554  28.149  1.00  0.00    -0.206 F 
ATOM     98  C   UNL A   1      51.508  26.250  26.334  1.00  0.00     0.059 A 
ATOM     99  C   UNL A   1      50.742  26.712  24.077  1.00  0.00     0.059 A 
ATOM    100  F   UNL A   1      48.567  27.509  23.726  1.00  0.00    -0.206 F 
ATOM    101  C   UNL A   1      51.740  26.303  24.958  1.00  0.00     0.060 A 
BRANCH 101 102
ATOM    102  S   UNL A   1      53.363  25.814  24.336  1.00  0.00     0.124 S 
ATOM    103  O   UNL A   1      54.246  26.701  25.085  1.00  0.00    -0.237 OA
ATOM    104  O   UNL A   1      53.423  24.401  24.701  1.00  0.00    -0.237 OA
ATOM    105  O   UNL A   1      53.273  26.081  22.903  1.00  0.00    -0.744 OA
ENDBRANCH 101 102
ENDBRANCH  69  94
ENDBRANCH  43  44
ENDBRANCH  36  38
ENDBRANCH  35  36
ENDBRANCH  34  35
ENDBRANCH  33  34
ENDBRANCH  32  33
ENDBRANCH  31  32
ENDBRANCH   1  31
TORSDOF 25
ENDMDL
MODEL 2
REMARK VINA RESULT:      -9.9      1.326      4.056
REMARK SMILES CC1(C)S[C@H](c2ccc(-c3ccccc3)o2)[NH2+][C@H]1C(=O)OCCOCCOCCOCCOC(=O)c1ccc(-c2c3nc(c(-c4c(F)cc(S(=O)(=O)[O-])cc4F)c4ccc([nH]4)c(-c4c(F)cc(S(=O)(=O)[O-])cc4F)c4nc(c(-c5c(F)cc(S(=O)(=O)[O-])cc5F)c5ccc2[nH]5)C=C4)C=C3)cc1
REMARK SMILES IDX 28 1 27 2 26 3 25 4 24 5 23 6 22 7 21 8 19 9 20 10 18 11
REMARK SMILES IDX 1 12 2 13 3 14 4 15 5 16 17 17 6 20 7 21 16 22 8 23 9 24
REMARK SMILES IDX 10 25 11 26 15 27 12 28 14 29 13 30 29 31 30 32 31 33 32 34
REMARK SMILES IDX 33 35 34 36 35 37 36 38 37 39 101 40 38 41 100 42 39 43
REMARK SMILES IDX 40 44 41 45 94 46 42 47 99 48 93 49 95 50 43 51 98 52 92 53
REMARK SMILES IDX 91 54 44 56 78 57 57 58 77 59 58 60 61 61 76 62 96 63 59 64
REMARK SMILES IDX 60 65 75 67 97 68 62 69 45 70 46 71 55 72 47 73 48 74 54 75
REMARK SMILES IDX 56 76 49 77 50 78 51 79 52 80 53 81 79 82 80 83 89 84 81 85
REMARK SMILES IDX 82 86 88 87 90 88 83 89 84 90 85 91 86 92 87 93 63 94 64 95
REMARK SMILES IDX 73 96 65 97 66 98 72 99 74 100 67 101 68 102 69 103 70 104
REMARK SMILES IDX 71 105
REMARK H PARENT 17 18 17 19 95 55 61 66
REMARK Flexibility Score: inf
ROOT
ATOM      1  C   UNL A   1      34.316  30.449  27.204  1.00  0.00     0.188 C 
ENDROOT
BRANCH   1   2
ATOM      2  O   UNL A   1      32.946  30.790  27.126  1.00  0.00    -0.377 OA
BRANCH   2   3
ATOM      3  C   UNL A   1      32.205  30.234  26.065  1.00  0.00     0.188 C 
BRANCH   3   4
ATOM      4  C   UNL A   1      31.464  28.925  26.372  1.00  0.00     0.188 C 
BRANCH   4   5
ATOM      5  O   UNL A   1      31.983  27.666  25.958  1.00  0.00    -0.376 OA
BRANCH   5   6
ATOM      6  C   UNL A   1      31.733  26.496  26.719  1.00  0.00     0.202 C 
BRANCH   6   7
ATOM      7  C   UNL A   1      30.549  25.585  26.324  1.00  0.00     0.261 C 
BRANCH   7   8
ATOM      8  O   UNL A   1      30.617  24.178  26.647  1.00  0.00    -0.459 OA
BRANCH   8   9
ATOM      9  C   UNL A   1      31.087  23.364  25.667  1.00  0.00     0.366 C 
ATOM     10  O   UNL A   1      30.889  22.151  25.646  1.00  0.00    -0.245 OA
BRANCH   9  11
ATOM     11  C   UNL A   1      31.984  24.065  24.608  1.00  0.00     0.310 C 
ATOM     12  C   UNL A   1      33.746  22.156  24.036  1.00  0.00     0.030 C 
ATOM     13  C   UNL A   1      33.449  23.643  24.286  1.00  0.00     0.079 C 
ATOM     14  C   UNL A   1      34.480  24.332  25.203  1.00  0.00     0.030 C 
ATOM     15  S   UNL A   1      33.742  24.404  22.623  1.00  0.00    -0.078 SA
ATOM     16  C   UNL A   1      32.012  24.893  22.394  1.00  0.00     0.311 C 
ATOM     17  N   UNL A   1      31.219  24.107  23.334  1.00  0.00    -0.316 N 
ATOM     18  H   UNL A   1      31.083  23.162  22.974  1.00  0.00     0.348 HD
ATOM     19  H   UNL A   1      30.298  24.522  23.473  1.00  0.00     0.348 HD
BRANCH  16  20
ATOM     20  C   UNL A   1      31.888  26.384  22.519  1.00  0.00     0.172 A 
ATOM     21  C   UNL A   1      32.849  27.375  22.421  1.00  0.00     0.054 A 
ATOM     22  O   UNL A   1      30.663  26.959  22.761  1.00  0.00    -0.454 OA
ATOM     23  C   UNL A   1      32.184  28.606  22.578  1.00  0.00     0.051 A 
ATOM     24  C   UNL A   1      30.852  28.310  22.773  1.00  0.00     0.134 A 
BRANCH  24  25
ATOM     25  C   UNL A   1      29.683  29.160  22.915  1.00  0.00     0.017 A 
ATOM     26  C   UNL A   1      28.384  28.655  22.793  1.00  0.00     0.012 A 
ATOM     27  C   UNL A   1      29.860  30.501  23.285  1.00  0.00     0.012 A 
ATOM     28  C   UNL A   1      27.283  29.473  23.073  1.00  0.00     0.001 A 
ATOM     29  C   UNL A   1      28.762  31.319  23.552  1.00  0.00     0.001 A 
ATOM     30  C   UNL A   1      27.473  30.801  23.458  1.00  0.00     0.000 A 
ENDBRANCH  24  25
ENDBRANCH  16  20
ENDBRANCH   9  11
ENDBRANCH   8   9
ENDBRANCH   7   8
ENDBRANCH   6   7
ENDBRANCH   5   6
ENDBRANCH   4   5
ENDBRANCH   3   4
ENDBRANCH   2   3
ENDBRANCH   1   2
BRANCH   1  31
ATOM     31  C   UNL A   1      35.210  31.342  28.075  1.00  0.00     0.188 C 
BRANCH  31  32
ATOM     32  O   UNL A   1      35.303  32.685  27.607  1.00  0.00    -0.376 OA
BRANCH  32  33
ATOM     33  C   UNL A   1      35.670  33.707  28.518  1.00  0.00     0.202 C 
BRANCH  33  34
ATOM     34  C   UNL A   1      35.797  33.334  30.006  1.00  0.00     0.261 C 
BRANCH  34  35
ATOM     35  O   UNL A   1      37.119  33.092  30.504  1.00  0.00    -0.460 OA
BRANCH  35  36
ATOM     36  C   UNL A   1      37.303  32.004  31.287  1.00  0.00     0.338 C 
ATOM     37  O   UNL A   1      36.592  31.635  32.197  1.00  0.00    -0.246 OA
BRANCH  36  38
ATOM     38  C   UNL A   1      38.422  31.223  30.711  1.00  0.00     0.060 A 
ATOM     39  C   UNL A   1      39.359  30.648  31.580  1.00  0.00     0.016 A 
ATOM     40  C   UNL A   1      38.533  31.041  29.331  1.00  0.00     0.016 A 
ATOM     41  C   UNL A   1      40.429  29.915  31.067  1.00  0.00     0.010 A 
ATOM     42  C   UNL A   1      39.623  30.331  28.817  1.00  0.00     0.010 A 
ATOM     43  C   UNL A   1      40.594  29.796  29.681  1.00  0.00    -0.014 A 
BRANCH  43  44
ATOM     44  C   UNL A   1      41.888  29.312  29.141  1.00  0.00     0.031 A 
ATOM     45  C   UNL A   1      43.019  30.299  29.031  1.00  0.00     0.074 A 
ATOM     46  C   UNL A   1      42.071  28.027  28.789  1.00  0.00     0.049 A 
ATOM     47  N   UNL A   1      44.230  30.130  28.574  1.00  0.00    -0.248 NA
ATOM     48  C   UNL A   1      42.740  31.667  29.502  1.00  0.00     0.031 C 
ATOM     49  C   UNL A   1      41.066  26.970  28.888  1.00  0.00     0.029 A 
ATOM     50  N   UNL A   1      43.172  27.396  28.266  1.00  0.00    -0.354 N 
ATOM     51  C   UNL A   1      44.857  31.365  28.698  1.00  0.00     0.074 A 
ATOM     52  C   UNL A   1      43.881  32.283  29.241  1.00  0.00     0.031 C 
ATOM     53  C   UNL A   1      41.595  25.822  28.428  1.00  0.00     0.029 A 
ATOM     54  C   UNL A   1      42.963  26.069  27.973  1.00  0.00     0.049 A 
ATOM     55  H   UNL A   1      44.032  27.851  28.115  1.00  0.00     0.167 HD
ATOM     56  C   UNL A   1      46.133  31.701  28.394  1.00  0.00     0.037 A 
ATOM     57  C   UNL A   1      43.777  25.167  27.387  1.00  0.00     0.037 A 
ATOM     58  C   UNL A   1      47.095  30.783  27.844  1.00  0.00     0.049 A 
ATOM     59  C   UNL A   1      45.172  25.583  26.988  1.00  0.00     0.074 A 
ATOM     60  C   UNL A   1      48.416  31.021  27.511  1.00  0.00     0.029 A 
ATOM     61  N   UNL A   1      46.836  29.456  27.532  1.00  0.00    -0.354 N 
ATOM     62  N   UNL A   1      45.761  26.748  27.135  1.00  0.00    -0.248 NA
ATOM     63  C   UNL A   1      46.015  24.562  26.351  1.00  0.00     0.031 C 
ATOM     64  C   UNL A   1      48.939  29.854  26.942  1.00  0.00     0.029 A 
ATOM     65  C   UNL A   1      47.965  28.868  26.985  1.00  0.00     0.049 A 
ATOM     66  H   UNL A   1      45.977  28.998  27.679  1.00  0.00     0.167 HD
ATOM     67  C   UNL A   1      47.052  26.587  26.640  1.00  0.00     0.074 A 
ATOM     68  C   UNL A   1      47.160  25.211  26.201  1.00  0.00     0.031 C 
ATOM     69  C   UNL A   1      48.060  27.494  26.558  1.00  0.00     0.037 A 
BRANCH  56  70
ATOM     70  C   UNL A   1      46.549  33.129  28.621  1.00  0.00     0.058 A 
ATOM     71  C   UNL A   1      46.460  34.099  27.610  1.00  0.00     0.135 A 
ATOM     72  C   UNL A   1      47.024  33.538  29.878  1.00  0.00     0.135 A 
ATOM     73  F   UNL A   1      46.035  33.759  26.382  1.00  0.00    -0.206 F 
ATOM     74  C   UNL A   1      46.849  35.416  27.829  1.00  0.00     0.059 A 
ATOM     75  C   UNL A   1      47.388  34.857  30.129  1.00  0.00     0.059 A 
ATOM     76  F   UNL A   1      47.137  32.651  30.879  1.00  0.00    -0.206 F 
ATOM     77  C   UNL A   1      47.309  35.786  29.093  1.00  0.00     0.060 A 
BRANCH  77  78
ATOM     78  S   UNL A   1      47.801  37.502  29.362  1.00  0.00     0.124 S 
ATOM     79  O   UNL A   1      48.368  37.435  30.706  1.00  0.00    -0.237 OA
ATOM     80  O   UNL A   1      48.755  37.725  28.282  1.00  0.00    -0.237 OA
ATOM     81  O   UNL A   1      46.545  38.239  29.249  1.00  0.00    -0.744 OA
ENDBRANCH  77  78
ENDBRANCH  56  70
BRANCH  57  82
ATOM     82  C   UNL A   1      43.295  23.782  27.128  1.00  0.00     0.058 A 
ATOM     83  C   UNL A   1      42.831  23.396  25.861  1.00  0.00     0.135 A 
ATOM     84  C   UNL A   1      43.276  22.818  28.149  1.00  0.00     0.135 A 
ATOM     85  F   UNL A   1      42.813  24.282  24.855  1.00  0.00    -0.206 F 
ATOM     86  C   UNL A   1      42.353  22.111  25.619  1.00  0.00     0.059 A 
ATOM     87  C   UNL A   1      42.830  21.519  27.924  1.00  0.00     0.059 A 
ATOM     88  F   UNL A   1      43.713  23.132  29.379  1.00  0.00    -0.206 F 
ATOM     89  C   UNL A   1      42.361  21.178  26.657  1.00  0.00     0.060 A 
BRANCH  89  90
ATOM     90  S   UNL A   1      41.786  19.500  26.318  1.00  0.00     0.124 S 
ATOM     91  O   UNL A   1      42.536  19.169  25.112  1.00  0.00    -0.237 OA
ATOM     92  O   UNL A   1      42.180  18.792  27.531  1.00  0.00    -0.237 OA
ATOM     93  O   UNL A   1      40.347  19.669  26.138  1.00  0.00    -0.744 OA
ENDBRANCH  89  90
ENDBRANCH  57  82
BRANCH  69  94
ATOM     94  C   UNL A   1      49.383  27.020  26.017  1.00  0.00     0.058 A 
ATOM     95  C   UNL A   1      49.711  27.120  24.656  1.00  0.00     0.135 A 
ATOM     96  C   UNL A   1      50.359  26.502  26.887  1.00  0.00     0.135 A 
ATOM     97  F   UNL A   1      48.818  27.606  23.780  1.00  0.00    -0.206 F 
ATOM     98  C   UNL A   1      50.943  26.692  24.171  1.00  0.00     0.059 A 
ATOM     99  C   UNL A   1      51.609  26.100  26.429  1.00  0.00     0.059 A 
ATOM    100  F   UNL A   1      50.106  26.397  28.201  1.00  0.00    -0.206 F 
ATOM    101  C   UNL A   1      51.886  26.184  25.067  1.00  0.00     0.060 A 
BRANCH 101 102
ATOM    102  S   UNL A   1      53.487  25.648  24.426  1.00  0.00     0.124 S 
ATOM    103  O   UNL A   1      53.335  25.908  22.999  1.00  0.00    -0.237 OA
ATOM    104  O   UNL A   1      54.415  26.524  25.135  1.00  0.00    -0.237 OA
ATOM    105  O   UNL A   1      53.551  24.239  24.804  1.00  0.00    -0.744 OA
ENDBRANCH 101 102
ENDBRANCH  69  94
ENDBRANCH  43  44
ENDBRANCH  36  38
ENDBRANCH  35  36
ENDBRANCH  34  35
ENDBRANCH  33  34
ENDBRANCH  32  33
ENDBRANCH  31  32
ENDBRANCH   1  31
TORSDOF 25
ENDMDL
MODEL 3
REMARK VINA RESULT:      -9.4      2.914      5.147
REMARK SMILES CC1(C)S[C@H](c2ccc(-c3ccccc3)o2)[NH2+][C@H]1C(=O)OCCOCCOCCOCCOC(=O)c1ccc(-c2c3nc(c(-c4c(F)cc(S(=O)(=O)[O-])cc4F)c4ccc([nH]4)c(-c4c(F)cc(S(=O)(=O)[O-])cc4F)c4nc(c(-c5c(F)cc(S(=O)(=O)[O-])cc5F)c5ccc2[nH]5)C=C4)C=C3)cc1
REMARK SMILES IDX 28 1 27 2 26 3 25 4 24 5 23 6 22 7 21 8 19 9 20 10 18 11
REMARK SMILES IDX 1 12 2 13 3 14 4 15 5 16 17 17 6 20 7 21 16 22 8 23 9 24
REMARK SMILES IDX 10 25 11 26 15 27 12 28 14 29 13 30 29 31 30 32 31 33 32 34
REMARK SMILES IDX 33 35 34 36 35 37 36 38 37 39 101 40 38 41 100 42 39 43
REMARK SMILES IDX 40 44 41 45 94 46 42 47 99 48 93 49 95 50 43 51 98 52 92 53
REMARK SMILES IDX 91 54 44 56 78 57 57 58 77 59 58 60 61 61 76 62 96 63 59 64
REMARK SMILES IDX 60 65 75 67 97 68 62 69 45 70 46 71 55 72 47 73 48 74 54 75
REMARK SMILES IDX 56 76 49 77 50 78 51 79 52 80 53 81 79 82 80 83 89 84 81 85
REMARK SMILES IDX 82 86 88 87 90 88 83 89 84 90 85 91 86 92 87 93 63 94 64 95
REMARK SMILES IDX 73 96 65 97 66 98 72 99 74 100 67 101 68 102 69 103 70 104
REMARK SMILES IDX 71 105
REMARK H PARENT 17 18 17 19 95 55 61 66
REMARK Flexibility Score: inf
ROOT
ATOM      1  C   UNL A   1      33.622  26.851  23.895  1.00  0.00     0.188 C 
ENDROOT
BRANCH   1   2
ATOM      2  O   UNL A   1      33.822  25.893  22.876  1.00  0.00    -0.377 OA
BRANCH   2   3
ATOM      3  C   UNL A   1      34.295  24.625  23.269  1.00  0.00     0.188 C 
BRANCH   3   4
ATOM      4  C   UNL A   1      34.754  24.498  24.728  1.00  0.00     0.188 C 
BRANCH   4   5
ATOM      5  O   UNL A   1      35.669  23.486  25.131  1.00  0.00    -0.376 OA
BRANCH   5   6
ATOM      6  C   UNL A   1      36.456  22.800  24.172  1.00  0.00     0.202 C 
BRANCH   6   7
ATOM      7  C   UNL A   1      37.352  21.630  24.637  1.00  0.00     0.261 C 
BRANCH   7   8
ATOM      8  O   UNL A   1      36.795  20.642  25.533  1.00  0.00    -0.459 OA
BRANCH   8   9
ATOM      9  C   UNL A   1      36.450  19.456  24.971  1.00  0.00     0.366 C 
ATOM     10  O   UNL A   1      37.273  18.615  24.614  1.00  0.00    -0.245 OA
BRANCH   9  11
ATOM     11  C   UNL A   1      34.928  19.270  24.717  1.00  0.00     0.310 C 
ATOM     12  C   UNL A   1      34.584  16.701  25.316  1.00  0.00     0.030 C 
ATOM     13  C   UNL A   1      34.253  17.898  24.413  1.00  0.00     0.079 C 
ATOM     14  C   UNL A   1      34.258  17.555  22.909  1.00  0.00     0.030 C 
ATOM     15  S   UNL A   1      32.470  18.220  24.797  1.00  0.00    -0.078 SA
ATOM     16  C   UNL A   1      32.784  19.849  25.529  1.00  0.00     0.311 C 
ATOM     17  N   UNL A   1      34.206  19.903  25.852  1.00  0.00    -0.316 N 
ATOM     18  H   UNL A   1      34.390  19.391  26.715  1.00  0.00     0.348 HD
ATOM     19  H   UNL A   1      34.514  20.865  25.991  1.00  0.00     0.348 HD
BRANCH  16  20
ATOM     20  C   UNL A   1      32.280  20.921  24.608  1.00  0.00     0.172 A 
ATOM     21  C   UNL A   1      32.133  20.926  23.232  1.00  0.00     0.054 A 
ATOM     22  O   UNL A   1      31.863  22.129  25.116  1.00  0.00    -0.454 OA
ATOM     23  C   UNL A   1      31.577  22.172  22.885  1.00  0.00     0.051 A 
ATOM     24  C   UNL A   1      31.417  22.872  24.061  1.00  0.00     0.134 A 
BRANCH  24  25
ATOM     25  C   UNL A   1      30.828  24.169  24.343  1.00  0.00     0.017 A 
ATOM     26  C   UNL A   1      30.789  24.696  25.638  1.00  0.00     0.012 A 
ATOM     27  C   UNL A   1      30.379  24.957  23.274  1.00  0.00     0.012 A 
ATOM     28  C   UNL A   1      30.340  26.005  25.851  1.00  0.00     0.001 A 
ATOM     29  C   UNL A   1      29.920  26.258  23.488  1.00  0.00     0.001 A 
ATOM     30  C   UNL A   1      29.912  26.786  24.776  1.00  0.00     0.000 A 
ENDBRANCH  24  25
ENDBRANCH  16  20
ENDBRANCH   9  11
ENDBRANCH   8   9
ENDBRANCH   7   8
ENDBRANCH   6   7
ENDBRANCH   5   6
ENDBRANCH   4   5
ENDBRANCH   3   4
ENDBRANCH   2   3
ENDBRANCH   1   2
BRANCH   1  31
ATOM     31  C   UNL A   1      33.065  28.218  23.471  1.00  0.00     0.188 C 
BRANCH  31  32
ATOM     32  O   UNL A   1      33.361  29.264  24.391  1.00  0.00    -0.376 OA
BRANCH  32  33
ATOM     33  C   UNL A   1      32.871  29.172  25.719  1.00  0.00     0.202 C 
BRANCH  33  34
ATOM     34  C   UNL A   1      33.899  29.114  26.863  1.00  0.00     0.261 C 
BRANCH  34  35
ATOM     35  O   UNL A   1      33.703  30.018  27.958  1.00  0.00    -0.460 OA
BRANCH  35  36
ATOM     36  C   UNL A   1      34.636  30.979  28.149  1.00  0.00     0.338 C 
ATOM     37  O   UNL A   1      34.436  32.160  28.339  1.00  0.00    -0.246 OA
BRANCH  36  38
ATOM     38  C   UNL A   1      35.949  30.306  28.287  1.00  0.00     0.060 A 
ATOM     39  C   UNL A   1      36.284  29.733  29.521  1.00  0.00     0.016 A 
ATOM     40  C   UNL A   1      36.828  30.221  27.205  1.00  0.00     0.016 A 
ATOM     41  C   UNL A   1      37.517  29.100  29.684  1.00  0.00     0.010 A 
ATOM     42  C   UNL A   1      38.075  29.612  27.379  1.00  0.00     0.010 A 
ATOM     43  C   UNL A   1      38.438  29.082  28.629  1.00  0.00    -0.014 A 
BRANCH  43  44
ATOM     44  C   UNL A   1      39.849  28.712  28.902  1.00  0.00     0.031 A 
ATOM     45  C   UNL A   1      40.739  29.748  29.534  1.00  0.00     0.074 A 
ATOM     46  C   UNL A   1      40.323  27.483  28.629  1.00  0.00     0.049 A 
ATOM     47  N   UNL A   1      42.004  29.679  29.848  1.00  0.00    -0.248 NA
ATOM     48  C   UNL A   1      40.110  31.042  29.853  1.00  0.00     0.031 C 
ATOM     49  C   UNL A   1      39.549  26.384  28.056  1.00  0.00     0.029 A 
ATOM     50  N   UNL A   1      41.581  26.958  28.794  1.00  0.00    -0.354 N 
ATOM     51  C   UNL A   1      42.326  30.915  30.398  1.00  0.00     0.074 A 
ATOM     52  C   UNL A   1      41.131  31.727  30.343  1.00  0.00     0.031 C 
ATOM     53  C   UNL A   1      40.353  25.317  27.905  1.00  0.00     0.029 A 
ATOM     54  C   UNL A   1      41.705  25.667  28.341  1.00  0.00     0.049 A 
ATOM     55  H   UNL A   1      42.325  27.460  29.199  1.00  0.00     0.167 HD
ATOM     56  C   UNL A   1      43.507  31.332  30.910  1.00  0.00     0.037 A 
ATOM     57  C   UNL A   1      42.791  24.869  28.269  1.00  0.00     0.037 A 
ATOM     58  C   UNL A   1      44.695  30.520  30.952  1.00  0.00     0.049 A 
ATOM     59  C   UNL A   1      44.116  25.382  28.778  1.00  0.00     0.074 A 
ATOM     60  C   UNL A   1      45.940  30.845  31.460  1.00  0.00     0.029 A 
ATOM     61  N   UNL A   1      44.790  29.228  30.455  1.00  0.00    -0.354 N 
ATOM     62  N   UNL A   1      44.401  26.543  29.320  1.00  0.00    -0.248 NA
ATOM     63  C   UNL A   1      45.266  24.473  28.673  1.00  0.00     0.031 C 
ATOM     64  C   UNL A   1      46.803  29.771  31.215  1.00  0.00     0.029 A 
ATOM     65  C   UNL A   1      46.079  28.751  30.619  1.00  0.00     0.049 A 
ATOM     66  H   UNL A   1      44.049  28.724  30.047  1.00  0.00     0.167 HD
ATOM     67  C   UNL A   1      45.752  26.490  29.650  1.00  0.00     0.074 A 
ATOM     68  C   UNL A   1      46.224  25.178  29.258  1.00  0.00     0.031 C 
ATOM     69  C   UNL A   1      46.533  27.438  30.229  1.00  0.00     0.037 A 
BRANCH  56  70
ATOM     70  C   UNL A   1      43.579  32.740  31.437  1.00  0.00     0.058 A 
ATOM     71  C   UNL A   1      43.205  33.063  32.751  1.00  0.00     0.135 A 
ATOM     72  C   UNL A   1      44.054  33.779  30.619  1.00  0.00     0.135 A 
ATOM     73  F   UNL A   1      42.722  32.114  33.569  1.00  0.00    -0.206 F 
ATOM     74  C   UNL A   1      43.274  34.367  33.227  1.00  0.00     0.059 A 
ATOM     75  C   UNL A   1      44.162  35.085  31.085  1.00  0.00     0.059 A 
ATOM     76  F   UNL A   1      44.419  33.528  29.352  1.00  0.00    -0.206 F 
ATOM     77  C   UNL A   1      43.757  35.372  32.387  1.00  0.00     0.060 A 
BRANCH  77  78
ATOM     78  S   UNL A   1      43.849  37.058  33.025  1.00  0.00     0.124 S 
ATOM     79  O   UNL A   1      43.716  37.840  31.800  1.00  0.00    -0.237 OA
ATOM     80  O   UNL A   1      42.712  37.108  33.936  1.00  0.00    -0.237 OA
ATOM     81  O   UNL A   1      45.163  37.110  33.662  1.00  0.00    -0.744 OA
ENDBRANCH  77  78
ENDBRANCH  56  70
BRANCH  57  82
ATOM     82  C   UNL A   1      42.679  23.505  27.683  1.00  0.00     0.058 A 
ATOM     83  C   UNL A   1      42.829  23.289  26.304  1.00  0.00     0.135 A 
ATOM     84  C   UNL A   1      42.405  22.388  28.489  1.00  0.00     0.135 A 
ATOM     85  F   UNL A   1      43.077  24.324  25.486  1.00  0.00    -0.206 F 
ATOM     86  C   UNL A   1      42.699  22.022  25.744  1.00  0.00     0.059 A 
ATOM     87  C   UNL A   1      42.299  21.107  27.957  1.00  0.00     0.059 A 
ATOM     88  F   UNL A   1      42.256  22.537  29.815  1.00  0.00    -0.206 F 
ATOM     89  C   UNL A   1      42.438  20.935  26.582  1.00  0.00     0.060 A 
BRANCH  89  90
ATOM     90  S   UNL A   1      42.320  19.287  25.851  1.00  0.00     0.124 S 
ATOM     91  O   UNL A   1      43.128  19.440  24.647  1.00  0.00    -0.237 OA
ATOM     92  O   UNL A   1      42.889  18.448  26.901  1.00  0.00    -0.237 OA
ATOM     93  O   UNL A   1      40.886  19.120  25.632  1.00  0.00    -0.744 OA
ENDBRANCH  89  90
ENDBRANCH  57  82
BRANCH  69  94
ATOM     94  C   UNL A   1      47.967  27.080  30.518  1.00  0.00     0.058 A 
ATOM     95  C   UNL A   1      48.995  27.311  29.590  1.00  0.00     0.135 A 
ATOM     96  C   UNL A   1      48.324  26.541  31.766  1.00  0.00     0.135 A 
ATOM     97  F   UNL A   1      48.712  27.823  28.382  1.00  0.00    -0.206 F 
ATOM     98  C   UNL A   1      50.318  26.989  29.875  1.00  0.00     0.059 A 
ATOM     99  C   UNL A   1      49.645  26.244  32.086  1.00  0.00     0.059 A 
ATOM    100  F   UNL A   1      47.385  26.313  32.699  1.00  0.00    -0.206 F 
ATOM    101  C   UNL A   1      50.634  26.456  31.127  1.00  0.00     0.060 A 
BRANCH 101 102
ATOM    102  S   UNL A   1      52.357  26.059  31.490  1.00  0.00     0.124 S 
ATOM    103  O   UNL A   1      52.971  26.180  30.172  1.00  0.00    -0.237 OA
ATOM    104  O   UNL A   1      52.718  27.093  32.455  1.00  0.00    -0.237 OA
ATOM    105  O   UNL A   1      52.289  24.704  32.028  1.00  0.00    -0.744 OA
ENDBRANCH 101 102
ENDBRANCH  69  94
ENDBRANCH  43  44
ENDBRANCH  36  38
ENDBRANCH  35  36
ENDBRANCH  34  35
ENDBRANCH  33  34
ENDBRANCH  32  33
ENDBRANCH  31  32
ENDBRANCH   1  31
TORSDOF 25
ENDMDL
