MODEL 1
REMARK VINA RESULT:      -9.3      0.000      0.000
REMARK SMILES O=C(OCCOCCOCCOCCOC(=O)c1ccccc1Nc1cccc(S(F)(F)(F)(F)F)c1)c1ccc(-c2c3nc(c(-c4c(F)cc(S(=O)(=O)[O-])cc4F)c4ccc([nH]4)c(-c4c(F)cc(S(=O)(=O)[O-])cc4F)c4nc(c(-c5c(F)cc(S(=O)(=O)[O-])cc5F)c5ccc2[nH]5)C=C4)C=C3)cc1
REMARK SMILES IDX 9 1 8 2 7 3 6 4 5 5 4 6 3 7 2 8 1 9 37 10 38 11 102 12 39 13
REMARK SMILES IDX 101 14 40 15 41 16 42 17 95 18 43 19 100 20 94 21 96 22
REMARK SMILES IDX 44 23 99 24 93 25 92 26 45 28 79 29 58 30 78 31 59 32 62 33
REMARK SMILES IDX 77 34 97 35 60 36 61 37 76 39 98 40 63 41 46 42 47 43 56 44
REMARK SMILES IDX 48 45 49 46 55 47 57 48 50 49 51 50 52 51 53 52 54 53 80 54
REMARK SMILES IDX 81 55 90 56 82 57 83 58 89 59 91 60 84 61 85 62 86 63 87 64
REMARK SMILES IDX 88 65 64 66 65 67 74 68 66 69 67 70 73 71 75 72 68 73 69 74
REMARK SMILES IDX 70 75 71 76 72 77 10 78 11 79 12 80 13 81 14 82 15 83 16 84
REMARK SMILES IDX 17 85 18 86 19 87 23 88 20 89 22 90 21 91 24 92 25 94 26 95
REMARK SMILES IDX 36 96 27 97 29 98 28 99 30 100 31 101 32 102 33 103 34 104
REMARK SMILES IDX 35 105
REMARK H PARENT 96 27 62 38 24 93
REMARK Flexibility Score: inf
ROOT
ATOM      1  O   UNL A   1      33.091  37.297  30.999  1.00  0.00    -0.377 OA
ENDROOT
BRANCH   1   2
ATOM      2  C   UNL A   1      32.602  36.083  30.448  1.00  0.00     0.188 C 
BRANCH   2   3
ATOM      3  C   UNL A   1      32.814  36.087  28.943  1.00  0.00     0.188 C 
BRANCH   3   4
ATOM      4  O   UNL A   1      32.902  34.750  28.474  1.00  0.00    -0.376 OA
BRANCH   4   5
ATOM      5  C   UNL A   1      34.041  34.122  29.046  1.00  0.00     0.202 C 
BRANCH   5   6
ATOM      6  C   UNL A   1      34.553  33.045  28.102  1.00  0.00     0.261 C 
BRANCH   6   7
ATOM      7  O   UNL A   1      34.341  31.767  28.683  1.00  0.00    -0.460 OA
BRANCH   7   8
ATOM      8  C   UNL A   1      34.867  30.606  28.057  1.00  0.00     0.338 C 
ATOM      9  O   UNL A   1      34.144  29.932  27.257  1.00  0.00    -0.246 OA
BRANCH   8  10
ATOM     10  C   UNL A   1      36.295  30.171  28.341  1.00  0.00     0.060 A 
ATOM     11  C   UNL A   1      37.237  30.338  27.338  1.00  0.00     0.016 A 
ATOM     12  C   UNL A   1      36.627  29.655  29.518  1.00  0.00     0.016 A 
ATOM     13  C   UNL A   1      38.455  29.657  27.576  1.00  0.00     0.010 A 
ATOM     14  C   UNL A   1      37.881  29.129  29.724  1.00  0.00     0.010 A 
ATOM     15  C   UNL A   1      38.843  29.207  28.756  1.00  0.00    -0.014 A 
BRANCH  15  16
ATOM     16  C   UNL A   1      40.282  28.795  29.022  1.00  0.00     0.031 A 
ATOM     17  C   UNL A   1      40.708  27.516  28.663  1.00  0.00     0.074 A 
ATOM     18  C   UNL A   1      41.091  29.738  29.634  1.00  0.00     0.049 A 
ATOM     19  N   UNL A   1      41.928  26.996  28.803  1.00  0.00    -0.248 NA
ATOM     20  C   UNL A   1      39.842  26.502  28.044  1.00  0.00     0.031 C 
ATOM     21  C   UNL A   1      40.669  31.034  29.992  1.00  0.00     0.029 A 
ATOM     22  N   UNL A   1      42.411  29.606  30.002  1.00  0.00    -0.354 N 
ATOM     23  C   UNL A   1      41.957  25.750  28.325  1.00  0.00     0.074 A 
ATOM     24  C   UNL A   1      40.613  25.412  27.835  1.00  0.00     0.031 C 
ATOM     25  C   UNL A   1      41.718  31.670  30.578  1.00  0.00     0.029 A 
ATOM     26  C   UNL A   1      42.812  30.783  30.596  1.00  0.00     0.049 A 
ATOM     27  H   UNL A   1      42.972  28.809  29.866  1.00  0.00     0.167 HD
ATOM     28  C   UNL A   1      43.049  24.884  28.276  1.00  0.00     0.037 A 
ATOM     29  C   UNL A   1      44.054  31.085  31.129  1.00  0.00     0.037 A 
ATOM     30  C   UNL A   1      44.305  25.202  28.771  1.00  0.00     0.049 A 
ATOM     31  C   UNL A   1      45.133  30.197  31.133  1.00  0.00     0.074 A 
ATOM     32  C   UNL A   1      45.420  24.342  28.722  1.00  0.00     0.029 A 
ATOM     33  N   UNL A   1      44.698  26.369  29.386  1.00  0.00    -0.354 N 
ATOM     34  N   UNL A   1      45.171  28.967  30.619  1.00  0.00    -0.248 NA
ATOM     35  C   UNL A   1      46.444  30.493  31.725  1.00  0.00     0.031 C 
ATOM     36  C   UNL A   1      46.468  24.980  29.309  1.00  0.00     0.029 A 
ATOM     37  C   UNL A   1      46.024  26.246  29.734  1.00  0.00     0.049 A 
ATOM     38  H   UNL A   1      44.129  27.156  29.549  1.00  0.00     0.167 HD
ATOM     39  C   UNL A   1      46.380  28.432  30.797  1.00  0.00     0.074 A 
ATOM     40  C   UNL A   1      47.215  29.404  31.518  1.00  0.00     0.031 C 
ATOM     41  C   UNL A   1      46.823  27.174  30.385  1.00  0.00     0.037 A 
BRANCH  28  42
ATOM     42  C   UNL A   1      42.853  23.515  27.644  1.00  0.00     0.058 A 
ATOM     43  C   UNL A   1      43.161  23.300  26.312  1.00  0.00     0.135 A 
ATOM     44  C   UNL A   1      42.475  22.516  28.435  1.00  0.00     0.135 A 
ATOM     45  F   UNL A   1      43.778  24.203  25.555  1.00  0.00    -0.206 F 
ATOM     46  C   UNL A   1      42.761  22.032  25.828  1.00  0.00     0.059 A 
ATOM     47  C   UNL A   1      42.233  21.267  27.915  1.00  0.00     0.059 A 
ATOM     48  F   UNL A   1      42.333  22.726  29.740  1.00  0.00    -0.206 F 
ATOM     49  C   UNL A   1      42.460  20.999  26.595  1.00  0.00     0.060 A 
BRANCH  49  50
ATOM     50  S   UNL A   1      42.353  19.318  25.931  1.00  0.00     0.124 S 
ATOM     51  O   UNL A   1      43.189  19.220  24.653  1.00  0.00    -0.237 OA
ATOM     52  O   UNL A   1      42.888  18.326  26.967  1.00  0.00    -0.237 OA
ATOM     53  O   UNL A   1      40.723  18.948  25.574  1.00  0.00    -0.744 OA
ENDBRANCH  49  50
ENDBRANCH  28  42
BRANCH  29  54
ATOM     54  C   UNL A   1      44.255  32.460  31.746  1.00  0.00     0.058 A 
ATOM     55  C   UNL A   1      43.783  32.713  33.023  1.00  0.00     0.135 A 
ATOM     56  C   UNL A   1      44.789  33.424  31.006  1.00  0.00     0.135 A 
ATOM     57  F   UNL A   1      43.479  31.749  33.888  1.00  0.00    -0.206 F 
ATOM     58  C   UNL A   1      43.653  34.089  33.324  1.00  0.00     0.059 A 
ATOM     59  C   UNL A   1      44.747  34.732  31.425  1.00  0.00     0.059 A 
ATOM     60  F   UNL A   1      45.368  33.121  29.847  1.00  0.00    -0.206 F 
ATOM     61  C   UNL A   1      44.241  35.062  32.650  1.00  0.00     0.060 A 
BRANCH  61  62
ATOM     62  S   UNL A   1      44.367  36.741  33.315  1.00  0.00     0.124 S 
ATOM     63  O   UNL A   1      43.649  37.716  32.378  1.00  0.00    -0.237 OA
ATOM     64  O   UNL A   1      43.717  36.792  34.699  1.00  0.00    -0.237 OA
ATOM     65  O   UNL A   1      46.015  37.180  33.443  1.00  0.00    -0.744 OA
ENDBRANCH  61  62
ENDBRANCH  29  54
BRANCH  41  66
ATOM     66  C   UNL A   1      48.268  26.797  30.669  1.00  0.00     0.058 A 
ATOM     67  C   UNL A   1      48.567  26.172  31.869  1.00  0.00     0.135 A 
ATOM     68  C   UNL A   1      49.215  27.065  29.778  1.00  0.00     0.135 A 
ATOM     69  F   UNL A   1      47.638  25.660  32.671  1.00  0.00    -0.206 F 
ATOM     70  C   UNL A   1      49.951  26.127  32.163  1.00  0.00     0.059 A 
ATOM     71  C   UNL A   1      50.539  26.869  30.083  1.00  0.00     0.059 A 
ATOM     72  F   UNL A   1      48.877  27.527  28.577  1.00  0.00    -0.206 F 
ATOM     73  C   UNL A   1      50.911  26.310  31.274  1.00  0.00     0.060 A 
BRANCH  73  74
ATOM     74  S   UNL A   1      52.627  25.846  31.616  1.00  0.00     0.124 S 
ATOM     75  O   UNL A   1      53.461  26.001  30.343  1.00  0.00    -0.237 OA
ATOM     76  O   UNL A   1      53.192  26.754  32.711  1.00  0.00    -0.237 OA
ATOM     77  O   UNL A   1      52.684  24.219  32.140  1.00  0.00    -0.744 OA
ENDBRANCH  73  74
ENDBRANCH  41  66
ENDBRANCH  15  16
ENDBRANCH   8  10
ENDBRANCH   7   8
ENDBRANCH   6   7
ENDBRANCH   5   6
ENDBRANCH   4   5
ENDBRANCH   3   4
ENDBRANCH   2   3
ENDBRANCH   1   2
BRANCH   1  78
ATOM     78  C   UNL A   1      33.011  37.240  32.415  1.00  0.00     0.188 C 
BRANCH  78  79
ATOM     79  C   UNL A   1      33.705  35.982  32.912  1.00  0.00     0.188 C 
BRANCH  79  80
ATOM     80  O   UNL A   1      35.069  36.267  33.179  1.00  0.00    -0.376 OA
BRANCH  80  81
ATOM     81  C   UNL A   1      35.767  35.057  33.434  1.00  0.00     0.202 C 
BRANCH  81  82
ATOM     82  C   UNL A   1      34.785  33.997  33.904  1.00  0.00     0.261 C 
BRANCH  82  83
ATOM     83  O   UNL A   1      35.470  32.767  34.092  1.00  0.00    -0.460 OA
BRANCH  83  84
ATOM     84  C   UNL A   1      35.907  32.018  32.967  1.00  0.00     0.340 C 
ATOM     85  O   UNL A   1      35.192  31.972  31.918  1.00  0.00    -0.246 OA
BRANCH  84  86
ATOM     86  C   UNL A   1      37.230  31.272  33.018  1.00  0.00     0.083 A 
ATOM     87  C   UNL A   1      37.264  29.894  33.160  1.00  0.00     0.018 A 
ATOM     88  C   UNL A   1      38.348  31.987  32.968  1.00  0.00     0.053 A 
ATOM     89  C   UNL A   1      38.531  29.388  33.532  1.00  0.00     0.001 A 
ATOM     90  C   UNL A   1      39.566  31.398  33.208  1.00  0.00     0.027 A 
ATOM     91  C   UNL A   1      39.667  30.051  33.415  1.00  0.00     0.002 A 
BRANCH  88  92
ATOM     92  N   UNL A   1      38.281  33.421  32.650  1.00  0.00    -0.355 N 
ATOM     93  H   UNL A   1      38.102  34.075  33.363  1.00  0.00     0.167 HD
BRANCH  92  94
ATOM     94  C   UNL A   1      38.485  33.878  31.268  1.00  0.00     0.040 A 
ATOM     95  C   UNL A   1      37.577  33.458  30.311  1.00  0.00     0.026 A 
ATOM     96  C   UNL A   1      39.577  34.556  30.932  1.00  0.00     0.050 A 
ATOM     97  C   UNL A   1      38.058  33.553  28.983  1.00  0.00     0.004 A 
ATOM     98  C   UNL A   1      39.914  34.727  29.612  1.00  0.00     0.109 A 
ATOM     99  C   UNL A   1      39.093  34.286  28.612  1.00  0.00     0.024 A 
BRANCH  98 100
ATOM    100  S   UNL A   1      41.470  35.550  29.189  1.00  0.00     0.310 S 
ATOM    101  F   UNL A   1      42.179  34.185  28.802  1.00  0.00    -0.094 F 
ATOM    102  F   UNL A   1      41.994  35.326  30.658  1.00  0.00    -0.094 F 
ATOM    103  F   UNL A   1      42.790  36.274  28.800  1.00  0.00    -0.094 F 
ATOM    104  F   UNL A   1      40.988  35.642  27.688  1.00  0.00    -0.094 F 
ATOM    105  F   UNL A   1      40.174  34.718  29.541  1.00  0.00    -0.094 F 
ENDBRANCH  98 100
ENDBRANCH  92  94
ENDBRANCH  88  92
ENDBRANCH  84  86
ENDBRANCH  83  84
ENDBRANCH  82  83
ENDBRANCH  81  82
ENDBRANCH  80  81
ENDBRANCH  79  80
ENDBRANCH  78  79
ENDBRANCH   1  78
TORSDOF 26
ENDMDL
MODEL 2
REMARK VINA RESULT:      -8.5      0.539      7.887
REMARK SMILES O=C(OCCOCCOCCOCCOC(=O)c1ccccc1Nc1cccc(S(F)(F)(F)(F)F)c1)c1ccc(-c2c3nc(c(-c4c(F)cc(S(=O)(=O)[O-])cc4F)c4ccc([nH]4)c(-c4c(F)cc(S(=O)(=O)[O-])cc4F)c4nc(c(-c5c(F)cc(S(=O)(=O)[O-])cc5F)c5ccc2[nH]5)C=C4)C=C3)cc1
REMARK SMILES IDX 9 1 8 2 7 3 6 4 5 5 4 6 3 7 2 8 1 9 37 10 38 11 102 12 39 13
REMARK SMILES IDX 101 14 40 15 41 16 42 17 95 18 43 19 100 20 94 21 96 22
REMARK SMILES IDX 44 23 99 24 93 25 92 26 45 28 79 29 58 30 78 31 59 32 62 33
REMARK SMILES IDX 77 34 97 35 60 36 61 37 76 39 98 40 63 41 46 42 47 43 56 44
REMARK SMILES IDX 48 45 49 46 55 47 57 48 50 49 51 50 52 51 53 52 54 53 80 54
REMARK SMILES IDX 81 55 90 56 82 57 83 58 89 59 91 60 84 61 85 62 86 63 87 64
REMARK SMILES IDX 88 65 64 66 65 67 74 68 66 69 67 70 73 71 75 72 68 73 69 74
REMARK SMILES IDX 70 75 71 76 72 77 10 78 11 79 12 80 13 81 14 82 15 83 16 84
REMARK SMILES IDX 17 85 18 86 19 87 23 88 20 89 22 90 21 91 24 92 25 94 26 95
REMARK SMILES IDX 36 96 27 97 29 98 28 99 30 100 31 101 32 102 33 103 34 104
REMARK SMILES IDX 35 105
REMARK H PARENT 96 27 62 38 24 93
REMARK Flexibility Score: inf
ROOT
ATOM      1  O   UNL A   1      33.219  36.996  30.820  1.00  0.00    -0.377 OA
ENDROOT
BRANCH   1   2
ATOM      2  C   UNL A   1      32.640  35.803  30.312  1.00  0.00     0.188 C 
BRANCH   2   3
ATOM      3  C   UNL A   1      32.840  35.744  28.806  1.00  0.00     0.188 C 
BRANCH   3   4
ATOM      4  O   UNL A   1      32.853  34.388  28.384  1.00  0.00    -0.376 OA
BRANCH   4   5
ATOM      5  C   UNL A   1      33.951  33.715  28.984  1.00  0.00     0.202 C 
BRANCH   5   6
ATOM      6  C   UNL A   1      34.431  32.606  28.062  1.00  0.00     0.261 C 
BRANCH   6   7
ATOM      7  O   UNL A   1      34.166  31.345  28.659  1.00  0.00    -0.460 OA
BRANCH   7   8
ATOM      8  C   UNL A   1      34.795  30.176  28.158  1.00  0.00     0.338 C 
ATOM      9  O   UNL A   1      34.138  29.357  27.441  1.00  0.00    -0.246 OA
BRANCH   8  10
ATOM     10  C   UNL A   1      36.257  29.903  28.476  1.00  0.00     0.060 A 
ATOM     11  C   UNL A   1      37.187  30.090  27.467  1.00  0.00     0.016 A 
ATOM     12  C   UNL A   1      36.626  29.507  29.688  1.00  0.00     0.016 A 
ATOM     13  C   UNL A   1      38.463  29.550  27.756  1.00  0.00     0.010 A 
ATOM     14  C   UNL A   1      37.923  29.122  29.934  1.00  0.00     0.010 A 
ATOM     15  C   UNL A   1      38.881  29.224  28.966  1.00  0.00    -0.014 A 
BRANCH  15  16
ATOM     16  C   UNL A   1      40.351  28.975  29.265  1.00  0.00     0.031 A 
ATOM     17  C   UNL A   1      41.118  29.992  29.835  1.00  0.00     0.074 A 
ATOM     18  C   UNL A   1      40.847  27.727  28.927  1.00  0.00     0.049 A 
ATOM     19  N   UNL A   1      42.406  29.943  30.179  1.00  0.00    -0.248 NA
ATOM     20  C   UNL A   1      40.602  31.329  30.163  1.00  0.00     0.031 C 
ATOM     21  C   UNL A   1      40.077  26.694  28.358  1.00  0.00     0.029 A 
ATOM     22  N   UNL A   1      42.136  27.264  29.070  1.00  0.00    -0.354 N 
ATOM     23  C   UNL A   1      42.785  31.106  30.714  1.00  0.00     0.074 A 
ATOM     24  C   UNL A   1      41.631  32.016  30.705  1.00  0.00     0.031 C 
ATOM     25  C   UNL A   1      40.892  25.626  28.152  1.00  0.00     0.029 A 
ATOM     26  C   UNL A   1      42.185  25.974  28.587  1.00  0.00     0.049 A 
ATOM     27  H   UNL A   1      42.891  27.766  29.451  1.00  0.00     0.167 HD
ATOM     28  C   UNL A   1      44.045  31.442  31.210  1.00  0.00     0.037 A 
ATOM     29  C   UNL A   1      43.285  25.134  28.521  1.00  0.00     0.037 A 
ATOM     30  C   UNL A   1      45.135  30.586  31.183  1.00  0.00     0.049 A 
ATOM     31  C   UNL A   1      44.561  25.491  28.964  1.00  0.00     0.074 A 
ATOM     32  C   UNL A   1      46.411  30.908  31.686  1.00  0.00     0.029 A 
ATOM     33  N   UNL A   1      45.190  29.307  30.678  1.00  0.00    -0.354 N 
ATOM     34  N   UNL A   1      44.928  26.639  29.534  1.00  0.00    -0.248 NA
ATOM     35  C   UNL A   1      45.741  24.622  28.868  1.00  0.00     0.031 C 
ATOM     36  C   UNL A   1      47.226  29.839  31.478  1.00  0.00     0.029 A 
ATOM     37  C   UNL A   1      46.473  28.835  30.842  1.00  0.00     0.049 A 
ATOM     38  H   UNL A   1      44.441  28.814  30.270  1.00  0.00     0.167 HD
ATOM     39  C   UNL A   1      46.227  26.605  29.840  1.00  0.00     0.074 A 
ATOM     40  C   UNL A   1      46.770  25.309  29.409  1.00  0.00     0.031 C 
ATOM     41  C   UNL A   1      46.981  27.601  30.464  1.00  0.00     0.037 A 
BRANCH  28  42
ATOM     42  C   UNL A   1      44.233  32.825  31.814  1.00  0.00     0.058 A 
ATOM     43  C   UNL A   1      43.941  33.059  33.147  1.00  0.00     0.135 A 
ATOM     44  C   UNL A   1      44.780  33.766  31.052  1.00  0.00     0.135 A 
ATOM     45  F   UNL A   1      43.635  32.090  34.005  1.00  0.00    -0.206 F 
ATOM     46  C   UNL A   1      43.998  34.425  33.515  1.00  0.00     0.059 A 
ATOM     47  C   UNL A   1      44.930  35.047  31.524  1.00  0.00     0.059 A 
ATOM     48  F   UNL A   1      45.186  33.463  29.822  1.00  0.00    -0.206 F 
ATOM     49  C   UNL A   1      44.607  35.364  32.813  1.00  0.00     0.060 A 
BRANCH  49  50
ATOM     50  S   UNL A   1      44.992  36.985  33.522  1.00  0.00     0.124 S 
ATOM     51  O   UNL A   1      43.905  37.987  33.125  1.00  0.00    -0.237 OA
ATOM     52  O   UNL A   1      45.050  36.874  35.048  1.00  0.00    -0.237 OA
ATOM     53  O   UNL A   1      46.504  37.521  32.932  1.00  0.00    -0.744 OA
ENDBRANCH  49  50
ENDBRANCH  28  42
BRANCH  29  54
ATOM     54  C   UNL A   1      43.093  23.746  27.932  1.00  0.00     0.058 A 
ATOM     55  C   UNL A   1      43.159  23.569  26.559  1.00  0.00     0.135 A 
ATOM     56  C   UNL A   1      42.760  22.746  28.739  1.00  0.00     0.135 A 
ATOM     57  F   UNL A   1      43.725  24.453  25.741  1.00  0.00    -0.206 F 
ATOM     58  C   UNL A   1      42.572  22.365  26.107  1.00  0.00     0.059 A 
ATOM     59  C   UNL A   1      42.323  21.549  28.226  1.00  0.00     0.059 A 
ATOM     60  F   UNL A   1      42.851  22.905  30.056  1.00  0.00    -0.206 F 
ATOM     61  C   UNL A   1      42.307  21.325  26.878  1.00  0.00     0.060 A 
BRANCH  61  62
ATOM     62  S   UNL A   1      41.940  19.694  26.185  1.00  0.00     0.124 S 
ATOM     63  O   UNL A   1      42.669  19.531  24.849  1.00  0.00    -0.237 OA
ATOM     64  O   UNL A   1      42.409  18.609  27.157  1.00  0.00    -0.237 OA
ATOM     65  O   UNL A   1      40.254  19.547  25.937  1.00  0.00    -0.744 OA
ENDBRANCH  61  62
ENDBRANCH  29  54
BRANCH  41  66
ATOM     66  C   UNL A   1      48.447  27.316  30.747  1.00  0.00     0.058 A 
ATOM     67  C   UNL A   1      49.393  27.731  29.824  1.00  0.00     0.135 A 
ATOM     68  C   UNL A   1      48.801  26.681  31.859  1.00  0.00     0.135 A 
ATOM     69  F   UNL A   1      49.119  28.579  28.837  1.00  0.00    -0.206 F 
ATOM     70  C   UNL A   1      50.677  27.173  30.028  1.00  0.00     0.059 A 
ATOM     71  C   UNL A   1      50.101  26.285  32.053  1.00  0.00     0.059 A 
ATOM     72  F   UNL A   1      47.887  26.429  32.792  1.00  0.00    -0.206 F 
ATOM     73  C   UNL A   1      51.078  26.610  31.154  1.00  0.00     0.060 A 
BRANCH  73  74
ATOM     74  S   UNL A   1      52.828  26.286  31.487  1.00  0.00     0.124 S 
ATOM     75  O   UNL A   1      53.393  27.400  32.372  1.00  0.00    -0.237 OA
ATOM     76  O   UNL A   1      52.970  24.942  32.205  1.00  0.00    -0.237 OA
ATOM     77  O   UNL A   1      53.690  26.238  30.011  1.00  0.00    -0.744 OA
ENDBRANCH  73  74
ENDBRANCH  41  66
ENDBRANCH  15  16
ENDBRANCH   8  10
ENDBRANCH   7   8
ENDBRANCH   6   7
ENDBRANCH   5   6
ENDBRANCH   4   5
ENDBRANCH   3   4
ENDBRANCH   2   3
ENDBRANCH   1   2
BRANCH   1  78
ATOM     78  C   UNL A   1      33.024  37.055  32.225  1.00  0.00     0.188 C 
BRANCH  78  79
ATOM     79  C   UNL A   1      33.695  35.859  32.881  1.00  0.00     0.188 C 
BRANCH  79  80
ATOM     80  O   UNL A   1      35.006  36.217  33.292  1.00  0.00    -0.376 OA
BRANCH  80  81
ATOM     81  C   UNL A   1      35.727  35.048  33.653  1.00  0.00     0.202 C 
BRANCH  81  82
ATOM     82  C   UNL A   1      34.750  33.957  34.058  1.00  0.00     0.261 C 
BRANCH  82  83
ATOM     83  O   UNL A   1      35.453  32.737  34.243  1.00  0.00    -0.460 OA
BRANCH  83  84
ATOM     84  C   UNL A   1      36.240  32.204  33.187  1.00  0.00     0.340 C 
ATOM     85  O   UNL A   1      35.717  31.993  32.049  1.00  0.00    -0.246 OA
BRANCH  84  86
ATOM     86  C   UNL A   1      37.708  31.888  33.419  1.00  0.00     0.083 A 
ATOM     87  C   UNL A   1      38.102  30.648  33.896  1.00  0.00     0.018 A 
ATOM     88  C   UNL A   1      38.594  32.851  33.192  1.00  0.00     0.053 A 
ATOM     89  C   UNL A   1      39.431  30.615  34.380  1.00  0.00     0.001 A 
ATOM     90  C   UNL A   1      39.907  32.697  33.569  1.00  0.00     0.027 A 
ATOM     91  C   UNL A   1      40.352  31.519  34.101  1.00  0.00     0.002 A 
BRANCH  88  92
ATOM     92  N   UNL A   1      38.166  34.092  32.531  1.00  0.00    -0.355 N 
ATOM     93  H   UNL A   1      37.688  34.783  33.043  1.00  0.00     0.167 HD
BRANCH  92  94
ATOM     94  C   UNL A   1      38.455  34.303  31.105  1.00  0.00     0.040 A 
ATOM     95  C   UNL A   1      37.625  33.689  30.182  1.00  0.00     0.026 A 
ATOM     96  C   UNL A   1      39.552  34.947  30.723  1.00  0.00     0.050 A 
ATOM     97  C   UNL A   1      38.195  33.563  28.893  1.00  0.00     0.004 A 
ATOM     98  C   UNL A   1      39.976  34.893  29.418  1.00  0.00     0.109 A 
ATOM     99  C   UNL A   1      39.237  34.253  28.463  1.00  0.00     0.024 A 
BRANCH  98 100
ATOM    100  S   UNL A   1      41.539  35.680  28.956  1.00  0.00     0.310 S 
ATOM    101  F   UNL A   1      42.226  34.294  28.605  1.00  0.00    -0.094 F 
ATOM    102  F   UNL A   1      42.075  35.494  30.426  1.00  0.00    -0.094 F 
ATOM    103  F   UNL A   1      42.866  36.373  28.531  1.00  0.00    -0.094 F 
ATOM    104  F   UNL A   1      41.044  35.732  27.457  1.00  0.00    -0.094 F 
ATOM    105  F   UNL A   1      40.235  34.877  29.345  1.00  0.00    -0.094 F 
ENDBRANCH  98 100
ENDBRANCH  92  94
ENDBRANCH  88  92
ENDBRANCH  84  86
ENDBRANCH  83  84
ENDBRANCH  82  83
ENDBRANCH  81  82
ENDBRANCH  80  81
ENDBRANCH  79  80
ENDBRANCH  78  79
ENDBRANCH   1  78
TORSDOF 26
ENDMDL
MODEL 3
REMARK VINA RESULT:      -8.2      6.035     12.171
REMARK SMILES O=C(OCCOCCOCCOCCOC(=O)c1ccccc1Nc1cccc(S(F)(F)(F)(F)F)c1)c1ccc(-c2c3nc(c(-c4c(F)cc(S(=O)(=O)[O-])cc4F)c4ccc([nH]4)c(-c4c(F)cc(S(=O)(=O)[O-])cc4F)c4nc(c(-c5c(F)cc(S(=O)(=O)[O-])cc5F)c5ccc2[nH]5)C=C4)C=C3)cc1
REMARK SMILES IDX 9 1 8 2 7 3 6 4 5 5 4 6 3 7 2 8 1 9 37 10 38 11 102 12 39 13
REMARK SMILES IDX 101 14 40 15 41 16 42 17 95 18 43 19 100 20 94 21 96 22
REMARK SMILES IDX 44 23 99 24 93 25 92 26 45 28 79 29 58 30 78 31 59 32 62 33
REMARK SMILES IDX 77 34 97 35 60 36 61 37 76 39 98 40 63 41 46 42 47 43 56 44
REMARK SMILES IDX 48 45 49 46 55 47 57 48 50 49 51 50 52 51 53 52 54 53 80 54
REMARK SMILES IDX 81 55 90 56 82 57 83 58 89 59 91 60 84 61 85 62 86 63 87 64
REMARK SMILES IDX 88 65 64 66 65 67 74 68 66 69 67 70 73 71 75 72 68 73 69 74
REMARK SMILES IDX 70 75 71 76 72 77 10 78 11 79 12 80 13 81 14 82 15 83 16 84
REMARK SMILES IDX 17 85 18 86 19 87 23 88 20 89 22 90 21 91 24 92 25 94 26 95
REMARK SMILES IDX 36 96 27 97 29 98 28 99 30 100 31 101 32 102 33 103 34 104
REMARK SMILES IDX 35 105
REMARK H PARENT 96 27 62 38 24 93
REMARK Flexibility Score: inf
ROOT
ATOM      1  O   UNL A   1      31.644  29.234  24.111  1.00  0.00    -0.377 OA
ENDROOT
BRANCH   1   2
ATOM      2  C   UNL A   1      31.358  29.880  25.342  1.00  0.00     0.188 C 
BRANCH   2   3
ATOM      3  C   UNL A   1      32.659  30.225  26.049  1.00  0.00     0.188 C 
BRANCH   3   4
ATOM      4  O   UNL A   1      32.372  30.832  27.300  1.00  0.00    -0.376 OA
BRANCH   4   5
ATOM      5  C   UNL A   1      33.219  31.957  27.487  1.00  0.00     0.202 C 
BRANCH   5   6
ATOM      6  C   UNL A   1      32.447  33.230  27.177  1.00  0.00     0.261 C 
BRANCH   6   7
ATOM      7  O   UNL A   1      32.334  34.014  28.356  1.00  0.00    -0.460 OA
BRANCH   7   8
ATOM      8  C   UNL A   1      33.422  34.823  28.777  1.00  0.00     0.338 C 
ATOM      9  O   UNL A   1      33.436  36.063  28.498  1.00  0.00    -0.246 OA
BRANCH   8  10
ATOM     10  C   UNL A   1      34.568  34.207  29.562  1.00  0.00     0.060 A 
ATOM     11  C   UNL A   1      35.862  34.525  29.181  1.00  0.00     0.016 A 
ATOM     12  C   UNL A   1      34.332  33.397  30.588  1.00  0.00     0.016 A 
ATOM     13  C   UNL A   1      36.852  33.702  29.769  1.00  0.00     0.010 A 
ATOM     14  C   UNL A   1      35.363  32.729  31.204  1.00  0.00     0.010 A 
ATOM     15  C   UNL A   1      36.661  32.950  30.838  1.00  0.00    -0.014 A 
BRANCH  15  16
ATOM     16  C   UNL A   1      37.825  32.361  31.620  1.00  0.00     0.031 A 
ATOM     17  C   UNL A   1      38.149  32.888  32.870  1.00  0.00     0.074 A 
ATOM     18  C   UNL A   1      38.513  31.323  31.014  1.00  0.00     0.049 A 
ATOM     19  N   UNL A   1      39.117  32.486  33.696  1.00  0.00    -0.248 NA
ATOM     20  C   UNL A   1      37.442  34.012  33.501  1.00  0.00     0.031 C 
ATOM     21  C   UNL A   1      38.186  30.781  29.755  1.00  0.00     0.029 A 
ATOM     22  N   UNL A   1      39.608  30.641  31.496  1.00  0.00    -0.354 N 
ATOM     23  C   UNL A   1      39.107  33.220  34.811  1.00  0.00     0.074 A 
ATOM     24  C   UNL A   1      38.034  34.217  34.698  1.00  0.00     0.031 C 
ATOM     25  C   UNL A   1      39.078  29.793  29.478  1.00  0.00     0.029 A 
ATOM     26  C   UNL A   1      39.977  29.702  30.558  1.00  0.00     0.049 A 
ATOM     27  H   UNL A   1      40.050  30.797  32.361  1.00  0.00     0.167 HD
ATOM     28  C   UNL A   1      39.950  33.098  35.916  1.00  0.00     0.037 A 
ATOM     29  C   UNL A   1      41.034  28.809  30.621  1.00  0.00     0.037 A 
ATOM     30  C   UNL A   1      40.981  32.175  35.997  1.00  0.00     0.049 A 
ATOM     31  C   UNL A   1      41.915  28.725  31.703  1.00  0.00     0.074 A 
ATOM     32  C   UNL A   1      41.835  32.033  37.109  1.00  0.00     0.029 A 
ATOM     33  N   UNL A   1      41.365  31.253  35.049  1.00  0.00    -0.354 N 
ATOM     34  N   UNL A   1      41.879  29.433  32.833  1.00  0.00    -0.248 NA
ATOM     35  C   UNL A   1      43.058  27.806  31.767  1.00  0.00     0.031 C 
ATOM     36  C   UNL A   1      42.727  31.045  36.830  1.00  0.00     0.029 A 
ATOM     37  C   UNL A   1      42.446  30.556  35.541  1.00  0.00     0.049 A 
ATOM     38  H   UNL A   1      40.939  31.116  34.171  1.00  0.00     0.167 HD
ATOM     39  C   UNL A   1      42.873  29.058  33.641  1.00  0.00     0.074 A 
ATOM     40  C   UNL A   1      43.650  28.011  32.963  1.00  0.00     0.031 C 
ATOM     41  C   UNL A   1      43.162  29.545  34.917  1.00  0.00     0.037 A 
BRANCH  28  42
ATOM     42  C   UNL A   1      39.724  34.027  37.097  1.00  0.00     0.058 A 
ATOM     43  C   UNL A   1      38.967  33.620  38.183  1.00  0.00     0.135 A 
ATOM     44  C   UNL A   1      40.357  35.195  37.097  1.00  0.00     0.135 A 
ATOM     45  F   UNL A   1      38.529  32.373  38.336  1.00  0.00    -0.206 F 
ATOM     46  C   UNL A   1      38.702  34.650  39.116  1.00  0.00     0.059 A 
ATOM     47  C   UNL A   1      40.155  36.099  38.112  1.00  0.00     0.059 A 
ATOM     48  F   UNL A   1      41.194  35.490  36.108  1.00  0.00    -0.206 F 
ATOM     49  C   UNL A   1      39.372  35.786  39.187  1.00  0.00     0.060 A 
BRANCH  49  50
ATOM     50  S   UNL A   1      39.261  36.870  40.633  1.00  0.00     0.124 S 
ATOM     51  O   UNL A   1      40.668  37.266  41.084  1.00  0.00    -0.237 OA
ATOM     52  O   UNL A   1      38.470  38.129  40.267  1.00  0.00    -0.237 OA
ATOM     53  O   UNL A   1      38.466  36.047  41.903  1.00  0.00    -0.744 OA
ENDBRANCH  49  50
ENDBRANCH  28  42
BRANCH  29  54
ATOM     54  C   UNL A   1      41.250  27.868  29.447  1.00  0.00     0.058 A 
ATOM     55  C   UNL A   1      40.486  26.717  29.342  1.00  0.00     0.135 A 
ATOM     56  C   UNL A   1      42.240  28.116  28.598  1.00  0.00     0.135 A 
ATOM     57  F   UNL A   1      39.340  26.546  29.996  1.00  0.00    -0.206 F 
ATOM     58  C   UNL A   1      41.035  25.741  28.478  1.00  0.00     0.059 A 
ATOM     59  C   UNL A   1      42.636  27.166  27.688  1.00  0.00     0.059 A 
ATOM     60  F   UNL A   1      42.855  29.295  28.630  1.00  0.00    -0.206 F 
ATOM     61  C   UNL A   1      41.964  25.982  27.570  1.00  0.00     0.060 A 
BRANCH  61  62
ATOM     62  S   UNL A   1      42.328  24.806  26.243  1.00  0.00     0.124 S 
ATOM     63  O   UNL A   1      43.633  24.071  26.555  1.00  0.00    -0.237 OA
ATOM     64  O   UNL A   1      41.186  23.793  26.132  1.00  0.00    -0.237 OA
ATOM     65  O   UNL A   1      42.487  25.649  24.763  1.00  0.00    -0.744 OA
ENDBRANCH  61  62
ENDBRANCH  29  54
BRANCH  41  66
ATOM     66  C   UNL A   1      44.333  28.932  35.667  1.00  0.00     0.058 A 
ATOM     67  C   UNL A   1      44.092  27.860  36.511  1.00  0.00     0.135 A 
ATOM     68  C   UNL A   1      45.557  29.422  35.508  1.00  0.00     0.135 A 
ATOM     69  F   UNL A   1      42.949  27.181  36.511  1.00  0.00    -0.206 F 
ATOM     70  C   UNL A   1      45.172  27.553  37.371  1.00  0.00     0.059 A 
ATOM     71  C   UNL A   1      46.594  28.979  36.291  1.00  0.00     0.059 A 
ATOM     72  F   UNL A   1      45.780  30.350  34.581  1.00  0.00    -0.206 F 
ATOM     73  C   UNL A   1      46.415  27.962  37.188  1.00  0.00     0.060 A 
BRANCH  73  74
ATOM     74  S   UNL A   1      47.805  27.217  38.077  1.00  0.00     0.124 S 
ATOM     75  O   UNL A   1      47.801  27.701  39.528  1.00  0.00    -0.237 OA
ATOM     76  O   UNL A   1      47.670  25.692  38.047  1.00  0.00    -0.237 OA
ATOM     77  O   UNL A   1      49.272  27.674  37.326  1.00  0.00    -0.744 OA
ENDBRANCH  73  74
ENDBRANCH  41  66
ENDBRANCH  15  16
ENDBRANCH   8  10
ENDBRANCH   7   8
ENDBRANCH   6   7
ENDBRANCH   5   6
ENDBRANCH   4   5
ENDBRANCH   3   4
ENDBRANCH   2   3
ENDBRANCH   1   2
BRANCH   1  78
ATOM     78  C   UNL A   1      32.971  28.729  24.140  1.00  0.00     0.188 C 
BRANCH  78  79
ATOM     79  C   UNL A   1      33.303  28.098  22.797  1.00  0.00     0.188 C 
BRANCH  79  80
ATOM     80  O   UNL A   1      32.233  27.257  22.392  1.00  0.00    -0.376 OA
BRANCH  80  81
ATOM     81  C   UNL A   1      32.755  26.051  21.854  1.00  0.00     0.202 C 
BRANCH  81  82
ATOM     82  C   UNL A   1      34.081  25.731  22.522  1.00  0.00     0.261 C 
BRANCH  82  83
ATOM     83  O   UNL A   1      33.965  24.518  23.252  1.00  0.00    -0.460 OA
BRANCH  83  84
ATOM     84  C   UNL A   1      33.806  24.551  24.662  1.00  0.00     0.340 C 
ATOM     85  O   UNL A   1      34.769  24.924  25.403  1.00  0.00    -0.246 OA
BRANCH  84  86
ATOM     86  C   UNL A   1      32.483  24.140  25.287  1.00  0.00     0.083 A 
ATOM     87  C   UNL A   1      31.448  25.050  25.427  1.00  0.00     0.018 A 
ATOM     88  C   UNL A   1      32.369  22.894  25.734  1.00  0.00     0.053 A 
ATOM     89  C   UNL A   1      30.431  24.631  26.316  1.00  0.00     0.001 A 
ATOM     90  C   UNL A   1      31.280  22.517  26.483  1.00  0.00     0.027 A 
ATOM     91  C   UNL A   1      30.248  23.384  26.710  1.00  0.00     0.002 A 
BRANCH  88  92
ATOM     92  N   UNL A   1      33.415  21.910  25.422  1.00  0.00    -0.355 N 
ATOM     93  H   UNL A   1      34.265  21.921  25.918  1.00  0.00     0.167 HD
BRANCH  92  94
ATOM     94  C   UNL A   1      33.191  20.906  24.371  1.00  0.00     0.040 A 
ATOM     95  C   UNL A   1      32.583  21.326  23.200  1.00  0.00     0.026 A 
ATOM     96  C   UNL A   1      33.441  19.622  24.596  1.00  0.00     0.050 A 
ATOM     97  C   UNL A   1      32.010  20.276  22.443  1.00  0.00     0.004 A 
ATOM     98  C   UNL A   1      32.966  18.658  23.741  1.00  0.00     0.109 A 
ATOM     99  C   UNL A   1      32.305  18.997  22.594  1.00  0.00     0.024 A 
BRANCH  98 100
ATOM    100  S   UNL A   1      33.219  16.910  24.140  1.00  0.00     0.310 S 
ATOM    101  F   UNL A   1      34.374  17.232  25.179  1.00  0.00    -0.094 F 
ATOM    102  F   UNL A   1      34.336  16.814  23.033  1.00  0.00    -0.094 F 
ATOM    103  F   UNL A   1      33.403  15.407  24.495  1.00  0.00    -0.094 F 
ATOM    104  F   UNL A   1      32.200  17.058  25.336  1.00  0.00    -0.094 F 
ATOM    105  F   UNL A   1      33.103  18.462  23.866  1.00  0.00    -0.094 F 
ENDBRANCH  98 100
ENDBRANCH  92  94
ENDBRANCH  88  92
ENDBRANCH  84  86
ENDBRANCH  83  84
ENDBRANCH  82  83
ENDBRANCH  81  82
ENDBRANCH  80  81
ENDBRANCH  79  80
ENDBRANCH  78  79
ENDBRANCH   1  78
TORSDOF 26
ENDMDL
