MODEL 1
REMARK VINA RESULT:      -7.1      0.000      0.000
REMARK SMILES CCOc1cccc(OCC)c1-c1ccc([C@@H](C)C(=O)OCCOCCOCCOCCOC(=O)c2ccc(-c3c4nc(c(-c5c(F)cc(S(=O)(=O)[O-])cc5F)c5ccc([nH]5)c(-c5c(F)cc(S(=O)(=O)[O-])cc5F)c5nc(c(-c6c(F)cc(S(=O)(=O)[O-])cc6F)c6ccc3[nH]6)C=C5)C=C4)cc2)cc1F
REMARK SMILES IDX 26 1 25 2 24 3 23 4 22 5 21 6 19 7 20 8 17 9 18 10 16 11
REMARK SMILES IDX 13 12 14 13 103 14 15 15 102 16 104 17 12 18 4 19 5 20 6 21
REMARK SMILES IDX 8 22 7 23 3 24 2 25 1 26 9 27 10 28 11 29 27 30 28 31 29 32
REMARK SMILES IDX 30 33 31 34 32 35 33 36 34 37 35 38 36 39 37 40 101 41 38 42
REMARK SMILES IDX 100 43 39 44 40 45 41 46 94 47 42 48 99 49 93 50 95 51 43 52
REMARK SMILES IDX 98 53 92 54 91 55 44 57 78 58 57 59 77 60 58 61 61 62 76 63
REMARK SMILES IDX 96 64 59 65 60 66 75 68 97 69 62 70 45 71 46 72 55 73 47 74
REMARK SMILES IDX 48 75 54 76 56 77 49 78 50 79 51 80 52 81 53 82 79 83 80 84
REMARK SMILES IDX 89 85 81 86 82 87 88 88 90 89 83 90 84 91 85 92 86 93 87 94
REMARK SMILES IDX 63 95 64 96 73 97 65 98 66 99 72 100 74 101 67 102 68 103
REMARK SMILES IDX 69 104 70 105 71 106
REMARK H PARENT 95 56 61 67
REMARK Flexibility Score: inf
ROOT
ATOM      1  C   UNL A   1      41.524  29.221  30.151  1.00  0.00     0.188 C 
ENDROOT
BRANCH   1   2
ATOM      2  C   UNL A   1      42.583  28.187  30.526  1.00  0.00     0.188 C 
BRANCH   2   3
ATOM      3  O   UNL A   1      43.955  28.492  30.317  1.00  0.00    -0.376 OA
BRANCH   3   4
ATOM      4  C   UNL A   1      44.624  28.151  29.112  1.00  0.00     0.202 C 
BRANCH   4   5
ATOM      5  C   UNL A   1      44.475  29.002  27.841  1.00  0.00     0.261 C 
BRANCH   5   6
ATOM      6  O   UNL A   1      44.321  28.269  26.606  1.00  0.00    -0.463 OA
BRANCH   6   7
ATOM      7  C   UNL A   1      45.462  28.007  25.920  1.00  0.00     0.313 C 
ATOM      8  O   UNL A   1      46.058  28.854  25.259  1.00  0.00    -0.252 OA
BRANCH   7   9
ATOM      9  C   UNL A   1      45.928  26.555  25.937  1.00  0.00     0.126 C 
ATOM     10  C   UNL A   1      46.884  26.345  24.768  1.00  0.00     0.025 C 
BRANCH   9  11
ATOM     11  C   UNL A   1      44.954  25.381  26.066  1.00  0.00    -0.031 A 
ATOM     12  C   UNL A   1      43.381  22.974  26.339  1.00  0.00     0.025 A 
ATOM     13  C   UNL A   1      43.201  23.875  25.269  1.00  0.00     0.012 A 
ATOM     14  C   UNL A   1      44.311  23.352  27.308  1.00  0.00     0.131 A 
ATOM     15  C   UNL A   1      44.014  25.016  25.098  1.00  0.00     0.005 A 
ATOM     16  C   UNL A   1      45.067  24.531  27.187  1.00  0.00     0.044 A 
ATOM     17  F   UNL A   1      44.530  22.576  28.382  1.00  0.00    -0.206 F 
BRANCH  12  18
ATOM     18  C   UNL A   1      42.607  21.706  26.395  1.00  0.00     0.069 A 
ATOM     19  C   UNL A   1      43.119  20.548  25.747  1.00  0.00     0.130 A 
ATOM     20  C   UNL A   1      42.564  19.270  25.906  1.00  0.00     0.047 A 
ATOM     21  C   UNL A   1      41.447  19.106  26.703  1.00  0.00     0.008 A 
ATOM     22  C   UNL A   1      41.400  21.528  27.111  1.00  0.00     0.130 A 
ATOM     23  C   UNL A   1      40.856  20.231  27.263  1.00  0.00     0.047 A 
BRANCH  19  24
ATOM     24  O   UNL A   1      44.089  20.678  24.784  1.00  0.00    -0.493 OA
BRANCH  24  25
ATOM     25  C   UNL A   1      44.845  19.489  24.583  1.00  0.00     0.226 C 
ATOM     26  C   UNL A   1      44.896  19.264  23.092  1.00  0.00     0.049 C 
ENDBRANCH  24  25
ENDBRANCH  19  24
BRANCH  22  27
ATOM     27  O   UNL A   1      40.542  22.434  27.672  1.00  0.00    -0.493 OA
BRANCH  27  28
ATOM     28  C   UNL A   1      39.594  23.194  26.946  1.00  0.00     0.226 C 
ATOM     29  C   UNL A   1      39.939  24.668  27.059  1.00  0.00     0.049 C 
ENDBRANCH  27  28
ENDBRANCH  22  27
ENDBRANCH  12  18
ENDBRANCH   9  11
ENDBRANCH   7   9
ENDBRANCH   6   7
ENDBRANCH   5   6
ENDBRANCH   4   5
ENDBRANCH   3   4
ENDBRANCH   2   3
ENDBRANCH   1   2
BRANCH   1  30
ATOM     30  O   UNL A   1      40.406  28.750  29.437  1.00  0.00    -0.377 OA
BRANCH  30  31
ATOM     31  C   UNL A   1      39.670  29.723  28.736  1.00  0.00     0.188 C 
BRANCH  31  32
ATOM     32  C   UNL A   1      38.538  29.124  27.896  1.00  0.00     0.188 C 
BRANCH  32  33
ATOM     33  O   UNL A   1      37.244  28.942  28.467  1.00  0.00    -0.376 OA
BRANCH  33  34
ATOM     34  C   UNL A   1      36.173  29.797  28.079  1.00  0.00     0.202 C 
BRANCH  34  35
ATOM     35  C   UNL A   1      36.117  31.202  28.694  1.00  0.00     0.261 C 
BRANCH  35  36
ATOM     36  O   UNL A   1      35.480  31.251  29.986  1.00  0.00    -0.460 OA
BRANCH  36  37
ATOM     37  C   UNL A   1      36.241  30.843  31.019  1.00  0.00     0.338 C 
ATOM     38  O   UNL A   1      36.133  29.773  31.633  1.00  0.00    -0.246 OA
BRANCH  37  39
ATOM     39  C   UNL A   1      37.376  31.748  31.257  1.00  0.00     0.060 A 
ATOM     40  C   UNL A   1      38.563  31.180  31.739  1.00  0.00     0.016 A 
ATOM     41  C   UNL A   1      37.250  33.136  31.160  1.00  0.00     0.016 A 
ATOM     42  C   UNL A   1      39.600  31.993  32.192  1.00  0.00     0.010 A 
ATOM     43  C   UNL A   1      38.287  33.955  31.637  1.00  0.00     0.010 A 
ATOM     44  C   UNL A   1      39.442  33.385  32.205  1.00  0.00    -0.014 A 
BRANCH  44  45
ATOM     45  C   UNL A   1      40.383  34.192  33.027  1.00  0.00     0.031 A 
ATOM     46  C   UNL A   1      41.565  34.835  32.343  1.00  0.00     0.074 A 
ATOM     47  C   UNL A   1      40.153  34.429  34.332  1.00  0.00     0.049 A 
ATOM     48  N   UNL A   1      42.495  35.606  32.843  1.00  0.00    -0.248 NA
ATOM     49  C   UNL A   1      41.711  34.578  30.900  1.00  0.00     0.031 C 
ATOM     50  C   UNL A   1      39.021  33.911  35.098  1.00  0.00     0.029 A 
ATOM     51  N   UNL A   1      40.865  35.169  35.244  1.00  0.00    -0.354 N 
ATOM     52  C   UNL A   1      43.342  35.916  31.784  1.00  0.00     0.074 A 
ATOM     53  C   UNL A   1      42.825  35.239  30.616  1.00  0.00     0.031 C 
ATOM     54  C   UNL A   1      39.125  34.336  36.370  1.00  0.00     0.029 A 
ATOM     55  C   UNL A   1      40.343  35.134  36.516  1.00  0.00     0.049 A 
ATOM     56  H   UNL A   1      41.675  35.677  35.010  1.00  0.00     0.167 HD
ATOM     57  C   UNL A   1      44.447  36.698  31.783  1.00  0.00     0.037 A 
ATOM     58  C   UNL A   1      40.806  35.664  37.667  1.00  0.00     0.037 A 
ATOM     59  C   UNL A   1      44.951  37.389  32.941  1.00  0.00     0.049 A 
ATOM     60  C   UNL A   1      42.072  36.486  37.649  1.00  0.00     0.074 A 
ATOM     61  C   UNL A   1      46.040  38.238  33.026  1.00  0.00     0.029 A 
ATOM     62  N   UNL A   1      44.411  37.301  34.213  1.00  0.00    -0.354 N 
ATOM     63  N   UNL A   1      42.835  36.805  36.631  1.00  0.00    -0.248 NA
ATOM     64  C   UNL A   1      42.538  37.024  38.936  1.00  0.00     0.031 C 
ATOM     65  C   UNL A   1      46.194  38.619  34.363  1.00  0.00     0.029 A 
ATOM     66  C   UNL A   1      45.166  38.053  35.099  1.00  0.00     0.049 A 
ATOM     67  H   UNL A   1      43.610  36.782  34.453  1.00  0.00     0.167 HD
ATOM     68  C   UNL A   1      43.850  37.604  37.149  1.00  0.00     0.074 A 
ATOM     69  C   UNL A   1      43.598  37.729  38.569  1.00  0.00     0.031 C 
ATOM     70  C   UNL A   1      44.897  38.182  36.509  1.00  0.00     0.037 A 
BRANCH  57  71
ATOM     71  C   UNL A   1      45.218  36.828  30.499  1.00  0.00     0.058 A 
ATOM     72  C   UNL A   1      46.261  35.951  30.163  1.00  0.00     0.135 A 
ATOM     73  C   UNL A   1      44.857  37.807  29.559  1.00  0.00     0.135 A 
ATOM     74  F   UNL A   1      46.659  35.010  31.034  1.00  0.00    -0.206 F 
ATOM     75  C   UNL A   1      46.924  36.045  28.944  1.00  0.00     0.059 A 
ATOM     76  C   UNL A   1      45.488  37.903  28.323  1.00  0.00     0.059 A 
ATOM     77  F   UNL A   1      43.869  38.674  29.833  1.00  0.00    -0.206 F 
ATOM     78  C   UNL A   1      46.525  37.021  28.027  1.00  0.00     0.060 A 
BRANCH  78  79
ATOM     79  S   UNL A   1      47.370  37.106  26.433  1.00  0.00     0.124 S 
ATOM     80  O   UNL A   1      46.732  36.013  25.706  1.00  0.00    -0.237 OA
ATOM     81  O   UNL A   1      47.037  38.451  25.976  1.00  0.00    -0.237 OA
ATOM     82  O   UNL A   1      48.773  36.894  26.779  1.00  0.00    -0.744 OA
ENDBRANCH  78  79
ENDBRANCH  57  71
BRANCH  58  83
ATOM     83  C   UNL A   1      40.097  35.404  38.950  1.00  0.00     0.058 A 
ATOM     84  C   UNL A   1      40.238  34.188  39.635  1.00  0.00     0.135 A 
ATOM     85  C   UNL A   1      39.228  36.362  39.497  1.00  0.00     0.135 A 
ATOM     86  F   UNL A   1      41.047  33.234  39.147  1.00  0.00    -0.206 F 
ATOM     87  C   UNL A   1      39.527  33.919  40.800  1.00  0.00     0.059 A 
ATOM     88  C   UNL A   1      38.527  36.128  40.675  1.00  0.00     0.059 A 
ATOM     89  F   UNL A   1      39.063  37.546  38.889  1.00  0.00    -0.206 F 
ATOM     90  C   UNL A   1      38.671  34.897  41.313  1.00  0.00     0.060 A 
BRANCH  90  91
ATOM     91  S   UNL A   1      37.771  34.554  42.840  1.00  0.00     0.124 S 
ATOM     92  O   UNL A   1      38.289  33.239  43.197  1.00  0.00    -0.237 OA
ATOM     93  O   UNL A   1      38.188  35.660  43.697  1.00  0.00    -0.237 OA
ATOM     94  O   UNL A   1      36.374  34.591  42.418  1.00  0.00    -0.744 OA
ENDBRANCH  90  91
ENDBRANCH  58  83
BRANCH  70  95
ATOM     95  C   UNL A   1      45.831  39.039  37.321  1.00  0.00     0.058 A 
ATOM     96  C   UNL A   1      46.980  38.511  37.928  1.00  0.00     0.135 A 
ATOM     97  C   UNL A   1      45.601  40.420  37.443  1.00  0.00     0.135 A 
ATOM     98  F   UNL A   1      47.245  37.197  37.847  1.00  0.00    -0.206 F 
ATOM     99  C   UNL A   1      47.859  39.317  38.646  1.00  0.00     0.059 A 
ATOM    100  C   UNL A   1      46.482  41.250  38.131  1.00  0.00     0.059 A 
ATOM    101  F   UNL A   1      44.523  40.979  36.871  1.00  0.00    -0.206 F 
ATOM    102  C   UNL A   1      47.601  40.687  38.740  1.00  0.00     0.060 A 
BRANCH 102 103
ATOM    103  S   UNL A   1      48.766  41.727  39.647  1.00  0.00     0.124 S 
ATOM    104  O   UNL A   1      49.997  41.516  38.892  1.00  0.00    -0.237 OA
ATOM    105  O   UNL A   1      48.165  43.052  39.523  1.00  0.00    -0.237 OA
ATOM    106  O   UNL A   1      48.750  41.162  40.993  1.00  0.00    -0.744 OA
ENDBRANCH 102 103
ENDBRANCH  70  95
ENDBRANCH  44  45
ENDBRANCH  37  39
ENDBRANCH  36  37
ENDBRANCH  35  36
ENDBRANCH  34  35
ENDBRANCH  33  34
ENDBRANCH  32  33
ENDBRANCH  31  32
ENDBRANCH  30  31
ENDBRANCH   1  30
TORSDOF 29
ENDMDL
MODEL 2
REMARK VINA RESULT:      -7.0      5.491     10.119
REMARK SMILES CCOc1cccc(OCC)c1-c1ccc([C@@H](C)C(=O)OCCOCCOCCOCCOC(=O)c2ccc(-c3c4nc(c(-c5c(F)cc(S(=O)(=O)[O-])cc5F)c5ccc([nH]5)c(-c5c(F)cc(S(=O)(=O)[O-])cc5F)c5nc(c(-c6c(F)cc(S(=O)(=O)[O-])cc6F)c6ccc3[nH]6)C=C5)C=C4)cc2)cc1F
REMARK SMILES IDX 26 1 25 2 24 3 23 4 22 5 21 6 19 7 20 8 17 9 18 10 16 11
REMARK SMILES IDX 13 12 14 13 103 14 15 15 102 16 104 17 12 18 4 19 5 20 6 21
REMARK SMILES IDX 8 22 7 23 3 24 2 25 1 26 9 27 10 28 11 29 27 30 28 31 29 32
REMARK SMILES IDX 30 33 31 34 32 35 33 36 34 37 35 38 36 39 37 40 101 41 38 42
REMARK SMILES IDX 100 43 39 44 40 45 41 46 94 47 42 48 99 49 93 50 95 51 43 52
REMARK SMILES IDX 98 53 92 54 91 55 44 57 78 58 57 59 77 60 58 61 61 62 76 63
REMARK SMILES IDX 96 64 59 65 60 66 75 68 97 69 62 70 45 71 46 72 55 73 47 74
REMARK SMILES IDX 48 75 54 76 56 77 49 78 50 79 51 80 52 81 53 82 79 83 80 84
REMARK SMILES IDX 89 85 81 86 82 87 88 88 90 89 83 90 84 91 85 92 86 93 87 94
REMARK SMILES IDX 63 95 64 96 73 97 65 98 66 99 72 100 74 101 67 102 68 103
REMARK SMILES IDX 69 104 70 105 71 106
REMARK H PARENT 95 56 61 67
REMARK Flexibility Score: inf
ROOT
ATOM      1  C   UNL A   1      41.426  22.588  27.481  1.00  0.00     0.188 C 
ENDROOT
BRANCH   1   2
ATOM      2  C   UNL A   1      40.382  23.484  26.820  1.00  0.00     0.188 C 
BRANCH   2   3
ATOM      3  O   UNL A   1      39.724  24.476  27.598  1.00  0.00    -0.376 OA
BRANCH   3   4
ATOM      4  C   UNL A   1      40.109  25.841  27.551  1.00  0.00     0.202 C 
BRANCH   4   5
ATOM      5  C   UNL A   1      40.782  26.445  26.307  1.00  0.00     0.261 C 
BRANCH   5   6
ATOM      6  O   UNL A   1      41.129  27.844  26.396  1.00  0.00    -0.463 OA
BRANCH   6   7
ATOM      7  C   UNL A   1      42.250  28.224  25.733  1.00  0.00     0.313 C 
ATOM      8  O   UNL A   1      42.334  28.238  24.507  1.00  0.00    -0.252 OA
BRANCH   7   9
ATOM      9  C   UNL A   1      43.457  28.553  26.605  1.00  0.00     0.126 C 
ATOM     10  C   UNL A   1      43.440  30.049  26.902  1.00  0.00     0.025 C 
BRANCH   9  11
ATOM     11  C   UNL A   1      44.871  28.079  26.264  1.00  0.00    -0.031 A 
ATOM     12  C   UNL A   1      47.591  27.481  25.496  1.00  0.00     0.025 A 
ATOM     13  C   UNL A   1      46.505  26.668  25.116  1.00  0.00     0.012 A 
ATOM     14  C   UNL A   1      47.289  28.554  26.336  1.00  0.00     0.131 A 
ATOM     15  C   UNL A   1      45.168  26.994  25.433  1.00  0.00     0.005 A 
ATOM     16  C   UNL A   1      45.968  28.838  26.725  1.00  0.00     0.044 A 
ATOM     17  F   UNL A   1      48.260  29.368  26.779  1.00  0.00    -0.206 F 
BRANCH  12  18
ATOM     18  C   UNL A   1      48.964  27.183  25.009  1.00  0.00     0.069 A 
ATOM     19  C   UNL A   1      49.220  27.169  23.610  1.00  0.00     0.130 A 
ATOM     20  C   UNL A   1      50.510  27.091  23.066  1.00  0.00     0.047 A 
ATOM     21  C   UNL A   1      51.601  26.991  23.909  1.00  0.00     0.008 A 
ATOM     22  C   UNL A   1      50.087  26.966  25.843  1.00  0.00     0.130 A 
ATOM     23  C   UNL A   1      51.380  26.891  25.277  1.00  0.00     0.047 A 
BRANCH  19  24
ATOM     24  O   UNL A   1      48.176  27.053  22.727  1.00  0.00    -0.493 OA
BRANCH  24  25
ATOM     25  C   UNL A   1      47.927  28.244  21.989  1.00  0.00     0.226 C 
ATOM     26  C   UNL A   1      47.828  27.835  20.541  1.00  0.00     0.049 C 
ENDBRANCH  24  25
ENDBRANCH  19  24
BRANCH  22  27
ATOM     27  O   UNL A   1      50.178  26.722  27.186  1.00  0.00    -0.493 OA
BRANCH  27  28
ATOM     28  C   UNL A   1      51.395  26.658  27.907  1.00  0.00     0.226 C 
ATOM     29  C   UNL A   1      51.343  27.634  29.068  1.00  0.00     0.049 C 
ENDBRANCH  27  28
ENDBRANCH  22  27
ENDBRANCH  12  18
ENDBRANCH   9  11
ENDBRANCH   7   9
ENDBRANCH   6   7
ENDBRANCH   5   6
ENDBRANCH   4   5
ENDBRANCH   3   4
ENDBRANCH   2   3
ENDBRANCH   1   2
BRANCH   1  30
ATOM     30  O   UNL A   1      40.984  21.332  27.936  1.00  0.00    -0.377 OA
BRANCH  30  31
ATOM     31  C   UNL A   1      41.016  20.290  26.991  1.00  0.00     0.188 C 
BRANCH  31  32
ATOM     32  C   UNL A   1      42.283  20.304  26.130  1.00  0.00     0.188 C 
BRANCH  32  33
ATOM     33  O   UNL A   1      43.151  19.173  26.117  1.00  0.00    -0.376 OA
BRANCH  33  34
ATOM     34  C   UNL A   1      44.433  19.274  25.506  1.00  0.00     0.202 C 
BRANCH  34  35
ATOM     35  C   UNL A   1      44.830  20.621  24.886  1.00  0.00     0.261 C 
BRANCH  35  36
ATOM     36  O   UNL A   1      45.806  21.353  25.653  1.00  0.00    -0.460 OA
BRANCH  36  37
ATOM     37  C   UNL A   1      45.742  22.694  25.539  1.00  0.00     0.338 C 
ATOM     38  O   UNL A   1      45.355  23.329  24.550  1.00  0.00    -0.246 OA
BRANCH  37  39
ATOM     39  C   UNL A   1      46.024  23.367  26.816  1.00  0.00     0.060 A 
ATOM     40  C   UNL A   1      45.048  23.282  27.818  1.00  0.00     0.016 A 
ATOM     41  C   UNL A   1      47.139  24.191  26.989  1.00  0.00     0.016 A 
ATOM     42  C   UNL A   1      45.145  24.069  28.965  1.00  0.00     0.010 A 
ATOM     43  C   UNL A   1      47.224  25.000  28.134  1.00  0.00     0.010 A 
ATOM     44  C   UNL A   1      46.199  24.982  29.099  1.00  0.00    -0.014 A 
BRANCH  44  45
ATOM     45  C   UNL A   1      46.075  26.055  30.121  1.00  0.00     0.031 A 
ATOM     46  C   UNL A   1      47.278  26.377  30.973  1.00  0.00     0.074 A 
ATOM     47  C   UNL A   1      44.954  26.792  30.236  1.00  0.00     0.049 A 
ATOM     48  N   UNL A   1      47.418  27.289  31.900  1.00  0.00    -0.248 NA
ATOM     49  C   UNL A   1      48.486  25.567  30.743  1.00  0.00     0.031 C 
ATOM     50  C   UNL A   1      43.742  26.617  29.438  1.00  0.00     0.029 A 
ATOM     51  N   UNL A   1      44.656  27.838  31.075  1.00  0.00    -0.354 N 
ATOM     52  C   UNL A   1      48.720  27.155  32.372  1.00  0.00     0.074 A 
ATOM     53  C   UNL A   1      49.326  26.064  31.640  1.00  0.00     0.031 C 
ATOM     54  C   UNL A   1      42.824  27.515  29.839  1.00  0.00     0.029 A 
ATOM     55  C   UNL A   1      43.372  28.311  30.937  1.00  0.00     0.049 A 
ATOM     56  H   UNL A   1      45.302  28.215  31.716  1.00  0.00     0.167 HD
ATOM     57  C   UNL A   1      49.356  27.877  33.324  1.00  0.00     0.037 A 
ATOM     58  C   UNL A   1      42.710  29.259  31.632  1.00  0.00     0.037 A 
ATOM     59  C   UNL A   1      48.761  28.975  34.039  1.00  0.00     0.049 A 
ATOM     60  C   UNL A   1      43.425  30.012  32.728  1.00  0.00     0.074 A 
ATOM     61  C   UNL A   1      49.343  29.794  34.992  1.00  0.00     0.029 A 
ATOM     62  N   UNL A   1      47.451  29.400  33.892  1.00  0.00    -0.354 N 
ATOM     63  N   UNL A   1      44.669  29.902  33.129  1.00  0.00    -0.248 NA
ATOM     64  C   UNL A   1      42.647  31.022  33.462  1.00  0.00     0.031 C 
ATOM     65  C   UNL A   1      48.366  30.677  35.463  1.00  0.00     0.029 A 
ATOM     66  C   UNL A   1      47.194  30.447  34.762  1.00  0.00     0.049 A 
ATOM     67  H   UNL A   1      46.799  29.016  33.262  1.00  0.00     0.167 HD
ATOM     68  C   UNL A   1      44.829  30.847  34.139  1.00  0.00     0.074 A 
ATOM     69  C   UNL A   1      43.560  31.528  34.279  1.00  0.00     0.031 C 
ATOM     70  C   UNL A   1      45.928  31.127  34.883  1.00  0.00     0.037 A 
BRANCH  57  71
ATOM     71  C   UNL A   1      50.763  27.488  33.683  1.00  0.00     0.058 A 
ATOM     72  C   UNL A   1      51.042  26.513  34.653  1.00  0.00     0.135 A 
ATOM     73  C   UNL A   1      51.847  28.053  32.990  1.00  0.00     0.135 A 
ATOM     74  F   UNL A   1      50.045  25.956  35.358  1.00  0.00    -0.206 F 
ATOM     75  C   UNL A   1      52.347  26.118  34.931  1.00  0.00     0.059 A 
ATOM     76  C   UNL A   1      53.158  27.655  33.233  1.00  0.00     0.059 A 
ATOM     77  F   UNL A   1      51.634  28.992  32.056  1.00  0.00    -0.206 F 
ATOM     78  C   UNL A   1      53.398  26.691  34.210  1.00  0.00     0.060 A 
BRANCH  78  79
ATOM     79  S   UNL A   1      55.083  26.140  34.554  1.00  0.00     0.124 S 
ATOM     80  O   UNL A   1      54.936  25.566  35.888  1.00  0.00    -0.237 OA
ATOM     81  O   UNL A   1      55.325  25.187  33.476  1.00  0.00    -0.237 OA
ATOM     82  O   UNL A   1      55.865  27.372  34.485  1.00  0.00    -0.744 OA
ENDBRANCH  78  79
ENDBRANCH  57  71
BRANCH  58  83
ATOM     83  C   UNL A   1      41.273  29.530  31.348  1.00  0.00     0.058 A 
ATOM     84  C   UNL A   1      40.250  28.876  32.051  1.00  0.00     0.135 A 
ATOM     85  C   UNL A   1      40.898  30.426  30.334  1.00  0.00     0.135 A 
ATOM     86  F   UNL A   1      40.555  28.000  33.021  1.00  0.00    -0.206 F 
ATOM     87  C   UNL A   1      38.908  29.080  31.743  1.00  0.00     0.059 A 
ATOM     88  C   UNL A   1      39.563  30.667  30.027  1.00  0.00     0.059 A 
ATOM     89  F   UNL A   1      41.836  31.086  29.638  1.00  0.00    -0.206 F 
ATOM     90  C   UNL A   1      38.574  29.978  30.727  1.00  0.00     0.060 A 
BRANCH  90  91
ATOM     91  S   UNL A   1      36.831  30.260  30.349  1.00  0.00     0.124 S 
ATOM     92  O   UNL A   1      36.183  29.274  31.206  1.00  0.00    -0.237 OA
ATOM     93  O   UNL A   1      36.656  31.657  30.735  1.00  0.00    -0.237 OA
ATOM     94  O   UNL A   1      36.755  30.000  28.915  1.00  0.00    -0.744 OA
ENDBRANCH  90  91
ENDBRANCH  58  83
BRANCH  70  95
ATOM     95  C   UNL A   1      45.830  32.241  35.890  1.00  0.00     0.058 A 
ATOM     96  C   UNL A   1      46.099  33.575  35.547  1.00  0.00     0.135 A 
ATOM     97  C   UNL A   1      45.399  31.976  37.201  1.00  0.00     0.135 A 
ATOM     98  F   UNL A   1      46.517  33.883  34.309  1.00  0.00    -0.206 F 
ATOM     99  C   UNL A   1      45.969  34.605  36.473  1.00  0.00     0.059 A 
ATOM    100  C   UNL A   1      45.234  32.994  38.136  1.00  0.00     0.059 A 
ATOM    101  F   UNL A   1      45.116  30.720  37.579  1.00  0.00    -0.206 F 
ATOM    102  C   UNL A   1      45.534  34.304  37.767  1.00  0.00     0.060 A 
BRANCH 102 103
ATOM    103  S   UNL A   1      45.337  35.653  38.951  1.00  0.00     0.124 S 
ATOM    104  O   UNL A   1      45.446  36.822  38.084  1.00  0.00    -0.237 OA
ATOM    105  O   UNL A   1      44.011  35.394  39.503  1.00  0.00    -0.237 OA
ATOM    106  O   UNL A   1      46.446  35.454  39.880  1.00  0.00    -0.744 OA
ENDBRANCH 102 103
ENDBRANCH  70  95
ENDBRANCH  44  45
ENDBRANCH  37  39
ENDBRANCH  36  37
ENDBRANCH  35  36
ENDBRANCH  34  35
ENDBRANCH  33  34
ENDBRANCH  32  33
ENDBRANCH  31  32
ENDBRANCH  30  31
ENDBRANCH   1  30
TORSDOF 29
ENDMDL
MODEL 3
REMARK VINA RESULT:      -6.9      5.651      9.386
REMARK SMILES CCOc1cccc(OCC)c1-c1ccc([C@@H](C)C(=O)OCCOCCOCCOCCOC(=O)c2ccc(-c3c4nc(c(-c5c(F)cc(S(=O)(=O)[O-])cc5F)c5ccc([nH]5)c(-c5c(F)cc(S(=O)(=O)[O-])cc5F)c5nc(c(-c6c(F)cc(S(=O)(=O)[O-])cc6F)c6ccc3[nH]6)C=C5)C=C4)cc2)cc1F
REMARK SMILES IDX 26 1 25 2 24 3 23 4 22 5 21 6 19 7 20 8 17 9 18 10 16 11
REMARK SMILES IDX 13 12 14 13 103 14 15 15 102 16 104 17 12 18 4 19 5 20 6 21
REMARK SMILES IDX 8 22 7 23 3 24 2 25 1 26 9 27 10 28 11 29 27 30 28 31 29 32
REMARK SMILES IDX 30 33 31 34 32 35 33 36 34 37 35 38 36 39 37 40 101 41 38 42
REMARK SMILES IDX 100 43 39 44 40 45 41 46 94 47 42 48 99 49 93 50 95 51 43 52
REMARK SMILES IDX 98 53 92 54 91 55 44 57 78 58 57 59 77 60 58 61 61 62 76 63
REMARK SMILES IDX 96 64 59 65 60 66 75 68 97 69 62 70 45 71 46 72 55 73 47 74
REMARK SMILES IDX 48 75 54 76 56 77 49 78 50 79 51 80 52 81 53 82 79 83 80 84
REMARK SMILES IDX 89 85 81 86 82 87 88 88 90 89 83 90 84 91 85 92 86 93 87 94
REMARK SMILES IDX 63 95 64 96 73 97 65 98 66 99 72 100 74 101 67 102 68 103
REMARK SMILES IDX 69 104 70 105 71 106
REMARK H PARENT 95 56 61 67
REMARK Flexibility Score: inf
ROOT
ATOM      1  C   UNL A   1      39.871  28.611  28.942  1.00  0.00     0.188 C 
ENDROOT
BRANCH   1   2
ATOM      2  C   UNL A   1      39.429  28.795  30.392  1.00  0.00     0.188 C 
BRANCH   2   3
ATOM      3  O   UNL A   1      39.069  30.092  30.849  1.00  0.00    -0.376 OA
BRANCH   3   4
ATOM      4  C   UNL A   1      38.408  31.025  30.009  1.00  0.00     0.202 C 
BRANCH   4   5
ATOM      5  C   UNL A   1      37.122  31.739  30.456  1.00  0.00     0.261 C 
BRANCH   5   6
ATOM      6  O   UNL A   1      35.890  31.215  29.914  1.00  0.00    -0.463 OA
BRANCH   6   7
ATOM      7  C   UNL A   1      35.798  31.182  28.561  1.00  0.00     0.313 C 
ATOM      8  O   UNL A   1      35.709  32.194  27.869  1.00  0.00    -0.252 OA
BRANCH   7   9
ATOM      9  C   UNL A   1      35.718  29.795  27.934  1.00  0.00     0.126 C 
ATOM     10  C   UNL A   1      37.006  29.545  27.155  1.00  0.00     0.025 C 
BRANCH   9  11
ATOM     11  C   UNL A   1      34.499  29.320  27.142  1.00  0.00    -0.031 A 
ATOM     12  C   UNL A   1      32.148  28.205  25.884  1.00  0.00     0.025 A 
ATOM     13  C   UNL A   1      33.375  28.341  25.203  1.00  0.00     0.012 A 
ATOM     14  C   UNL A   1      32.109  28.715  27.183  1.00  0.00     0.131 A 
ATOM     15  C   UNL A   1      34.542  28.823  25.835  1.00  0.00     0.005 A 
ATOM     16  C   UNL A   1      33.247  29.273  27.792  1.00  0.00     0.044 A 
ATOM     17  F   UNL A   1      30.977  28.662  27.902  1.00  0.00    -0.206 F 
BRANCH  12  18
ATOM     18  C   UNL A   1      30.988  27.550  25.225  1.00  0.00     0.069 A 
ATOM     19  C   UNL A   1      30.297  28.235  24.187  1.00  0.00     0.130 A 
ATOM     20  C   UNL A   1      29.323  27.627  23.382  1.00  0.00     0.047 A 
ATOM     21  C   UNL A   1      28.977  26.309  23.608  1.00  0.00     0.008 A 
ATOM     22  C   UNL A   1      30.534  26.239  25.506  1.00  0.00     0.130 A 
ATOM     23  C   UNL A   1      29.552  25.643  24.683  1.00  0.00     0.047 A 
BRANCH  19  24
ATOM     24  O   UNL A   1      30.441  29.593  24.053  1.00  0.00    -0.493 OA
BRANCH  24  25
ATOM     25  C   UNL A   1      29.518  30.170  23.136  1.00  0.00     0.226 C 
ATOM     26  C   UNL A   1      28.968  31.404  23.805  1.00  0.00     0.049 C 
ENDBRANCH  24  25
ENDBRANCH  19  24
BRANCH  22  27
ATOM     27  O   UNL A   1      30.821  25.388  26.538  1.00  0.00    -0.493 OA
BRANCH  27  28
ATOM     28  C   UNL A   1      31.552  24.184  26.403  1.00  0.00     0.226 C 
ATOM     29  C   UNL A   1      30.692  23.020  26.859  1.00  0.00     0.049 C 
ENDBRANCH  27  28
ENDBRANCH  22  27
ENDBRANCH  12  18
ENDBRANCH   9  11
ENDBRANCH   7   9
ENDBRANCH   6   7
ENDBRANCH   5   6
ENDBRANCH   4   5
ENDBRANCH   3   4
ENDBRANCH   2   3
ENDBRANCH   1   2
BRANCH   1  30
ATOM     30  O   UNL A   1      41.257  28.595  28.701  1.00  0.00    -0.377 OA
BRANCH  30  31
ATOM     31  C   UNL A   1      41.716  27.600  27.818  1.00  0.00     0.188 C 
BRANCH  31  32
ATOM     32  C   UNL A   1      42.686  26.617  28.479  1.00  0.00     0.188 C 
BRANCH  32  33
ATOM     33  O   UNL A   1      44.056  26.588  28.084  1.00  0.00    -0.376 OA
BRANCH  33  34
ATOM     34  C   UNL A   1      44.894  27.705  28.360  1.00  0.00     0.202 C 
BRANCH  34  35
ATOM     35  C   UNL A   1      45.739  28.271  27.209  1.00  0.00     0.261 C 
BRANCH  35  36
ATOM     36  O   UNL A   1      46.276  29.583  27.467  1.00  0.00    -0.460 OA
BRANCH  36  37
ATOM     37  C   UNL A   1      46.358  30.393  26.395  1.00  0.00     0.338 C 
ATOM     38  O   UNL A   1      46.387  30.042  25.209  1.00  0.00    -0.246 OA
BRANCH  37  39
ATOM     39  C   UNL A   1      46.231  31.811  26.768  1.00  0.00     0.060 A 
ATOM     40  C   UNL A   1      47.381  32.607  26.674  1.00  0.00     0.016 A 
ATOM     41  C   UNL A   1      45.065  32.325  27.340  1.00  0.00     0.016 A 
ATOM     42  C   UNL A   1      47.393  33.893  27.212  1.00  0.00     0.010 A 
ATOM     43  C   UNL A   1      45.085  33.613  27.902  1.00  0.00     0.010 A 
ATOM     44  C   UNL A   1      46.266  34.379  27.888  1.00  0.00    -0.014 A 
BRANCH  44  45
ATOM     45  C   UNL A   1      46.431  35.570  28.764  1.00  0.00     0.031 A 
ATOM     46  C   UNL A   1      46.047  36.922  28.216  1.00  0.00     0.074 A 
ATOM     47  C   UNL A   1      46.825  35.452  30.045  1.00  0.00     0.049 A 
ATOM     48  N   UNL A   1      46.070  38.092  28.801  1.00  0.00    -0.248 NA
ATOM     49  C   UNL A   1      45.565  36.958  26.825  1.00  0.00     0.031 C 
ATOM     50  C   UNL A   1      47.174  34.198  30.711  1.00  0.00     0.029 A 
ATOM     51  N   UNL A   1      46.999  36.407  31.017  1.00  0.00    -0.354 N 
ATOM     52  C   UNL A   1      45.621  39.002  27.849  1.00  0.00     0.074 A 
ATOM     53  C   UNL A   1      45.345  38.253  26.644  1.00  0.00     0.031 C 
ATOM     54  C   UNL A   1      47.537  34.464  31.979  1.00  0.00     0.029 A 
ATOM     55  C   UNL A   1      47.471  35.907  32.208  1.00  0.00     0.049 A 
ATOM     56  H   UNL A   1      46.802  37.361  30.875  1.00  0.00     0.167 HD
ATOM     57  C   UNL A   1      45.449  40.339  27.970  1.00  0.00     0.037 A 
ATOM     58  C   UNL A   1      47.831  36.543  33.342  1.00  0.00     0.037 A 
ATOM     59  C   UNL A   1      45.704  41.082  29.176  1.00  0.00     0.049 A 
ATOM     60  C   UNL A   1      47.681  38.043  33.432  1.00  0.00     0.074 A 
ATOM     61  C   UNL A   1      45.518  42.435  29.405  1.00  0.00     0.029 A 
ATOM     62  N   UNL A   1      46.211  40.544  30.347  1.00  0.00    -0.354 N 
ATOM     63  N   UNL A   1      47.213  38.881  32.538  1.00  0.00    -0.248 NA
ATOM     64  C   UNL A   1      48.105  38.683  34.687  1.00  0.00     0.031 C 
ATOM     65  C   UNL A   1      45.967  42.725  30.697  1.00  0.00     0.029 A 
ATOM     66  C   UNL A   1      46.378  41.543  31.292  1.00  0.00     0.049 A 
ATOM     67  H   UNL A   1      46.421  39.592  30.487  1.00  0.00     0.167 HD
ATOM     68  C   UNL A   1      47.258  40.139  33.133  1.00  0.00     0.074 A 
ATOM     69  C   UNL A   1      47.788  39.951  34.467  1.00  0.00     0.031 C 
ATOM     70  C   UNL A   1      46.894  41.341  32.623  1.00  0.00     0.037 A 
BRANCH  57  71
ATOM     71  C   UNL A   1      44.993  41.104  26.758  1.00  0.00     0.058 A 
ATOM     72  C   UNL A   1      45.900  41.638  25.830  1.00  0.00     0.135 A 
ATOM     73  C   UNL A   1      43.621  41.241  26.489  1.00  0.00     0.135 A 
ATOM     74  F   UNL A   1      47.221  41.553  26.049  1.00  0.00    -0.206 F 
ATOM     75  C   UNL A   1      45.462  42.290  24.681  1.00  0.00     0.059 A 
ATOM     76  C   UNL A   1      43.161  41.866  25.334  1.00  0.00     0.059 A 
ATOM     77  F   UNL A   1      42.713  40.751  27.347  1.00  0.00    -0.206 F 
ATOM     78  C   UNL A   1      44.090  42.392  24.439  1.00  0.00     0.060 A 
BRANCH  78  79
ATOM     79  S   UNL A   1      43.538  43.207  22.924  1.00  0.00     0.124 S 
ATOM     80  O   UNL A   1      44.805  43.658  22.358  1.00  0.00    -0.237 OA
ATOM     81  O   UNL A   1      42.875  42.120  22.211  1.00  0.00    -0.237 OA
ATOM     82  O   UNL A   1      42.656  44.265  23.409  1.00  0.00    -0.744 OA
ENDBRANCH  78  79
ENDBRANCH  57  71
BRANCH  58  83
ATOM     83  C   UNL A   1      48.409  35.776  34.481  1.00  0.00     0.058 A 
ATOM     84  C   UNL A   1      47.600  35.249  35.498  1.00  0.00     0.135 A 
ATOM     85  C   UNL A   1      49.797  35.591  34.590  1.00  0.00     0.135 A 
ATOM     86  F   UNL A   1      46.269  35.409  35.447  1.00  0.00    -0.206 F 
ATOM     87  C   UNL A   1      48.145  34.588  36.595  1.00  0.00     0.059 A 
ATOM     88  C   UNL A   1      50.363  34.910  35.662  1.00  0.00     0.059 A 
ATOM     89  F   UNL A   1      50.616  36.066  33.640  1.00  0.00    -0.206 F 
ATOM     90  C   UNL A   1      49.530  34.425  36.668  1.00  0.00     0.060 A 
BRANCH  90  91
ATOM     91  S   UNL A   1      50.230  33.543  38.080  1.00  0.00     0.124 S 
ATOM     92  O   UNL A   1      51.660  33.683  37.834  1.00  0.00    -0.237 OA
ATOM     93  O   UNL A   1      49.698  34.300  39.209  1.00  0.00    -0.237 OA
ATOM     94  O   UNL A   1      49.691  32.195  37.931  1.00  0.00    -0.744 OA
ENDBRANCH  90  91
ENDBRANCH  58  83
BRANCH  70  95
ATOM     95  C   UNL A   1      47.012  42.548  33.515  1.00  0.00     0.058 A 
ATOM     96  C   UNL A   1      45.947  42.984  34.316  1.00  0.00     0.135 A 
ATOM     97  C   UNL A   1      48.231  43.240  33.612  1.00  0.00     0.135 A 
ATOM     98  F   UNL A   1      44.759  42.361  34.258  1.00  0.00    -0.206 F 
ATOM     99  C   UNL A   1      46.076  44.078  35.166  1.00  0.00     0.059 A 
ATOM    100  C   UNL A   1      48.393  44.319  34.477  1.00  0.00     0.059 A 
ATOM    101  F   UNL A   1      49.287  42.858  32.877  1.00  0.00    -0.206 F 
ATOM    102  C   UNL A   1      47.305  44.738  35.241  1.00  0.00     0.060 A 
BRANCH 102 103
ATOM    103  S   UNL A   1      47.470  46.136  36.372  1.00  0.00     0.124 S 
ATOM    104  O   UNL A   1      46.119  46.688  36.356  1.00  0.00    -0.237 OA
ATOM    105  O   UNL A   1      47.876  45.487  37.615  1.00  0.00    -0.237 OA
ATOM    106  O   UNL A   1      48.494  46.964  35.742  1.00  0.00    -0.744 OA
ENDBRANCH 102 103
ENDBRANCH  70  95
ENDBRANCH  44  45
ENDBRANCH  37  39
ENDBRANCH  36  37
ENDBRANCH  35  36
ENDBRANCH  34  35
ENDBRANCH  33  34
ENDBRANCH  32  33
ENDBRANCH  31  32
ENDBRANCH  30  31
ENDBRANCH   1  30
TORSDOF 29
ENDMDL
