MODEL 1
REMARK VINA RESULT:     -10.5      0.000      0.000
REMARK SMILES Cc1cc(F)cc(N[C@](C)(C(=O)OCCOCCOCCOCCOC(=O)c2ccc(-c3c4nc(c(-c5c(F)cc(S(=O)(=O)[O-])cc5F)c5ccc([nH]5)c(-c5c(F)cc(S(=O)(=O)[O-])cc5F)c5nc(c(-c6c(F)cc(S(=O)(=O)[O-])cc6F)c6ccc3[nH]6)C=C5)C=C4)cc2)c2cccc(F)c2)c1
REMARK SMILES IDX 20 1 19 2 18 3 17 4 16 5 15 6 14 7 13 8 11 9 12 10 9 11
REMARK SMILES IDX 10 12 8 13 7 15 1 16 2 17 3 18 101 19 4 20 5 21 6 22 94 23
REMARK SMILES IDX 95 24 100 25 96 26 98 27 97 28 99 29 21 30 22 31 23 32 24 33
REMARK SMILES IDX 25 34 26 35 27 36 28 37 29 38 93 39 30 40 92 41 31 42 32 43
REMARK SMILES IDX 33 44 86 45 34 46 91 47 85 48 87 49 35 50 90 51 84 52 83 53
REMARK SMILES IDX 36 55 70 56 49 57 69 58 50 59 53 60 68 61 88 62 51 63 52 64
REMARK SMILES IDX 67 66 89 67 54 68 37 69 38 70 47 71 39 72 40 73 46 74 48 75
REMARK SMILES IDX 41 76 42 77 43 78 44 79 45 80 71 81 72 82 81 83 73 84 74 85
REMARK SMILES IDX 80 86 82 87 75 88 76 89 77 90 78 91 79 92 55 93 56 94 65 95
REMARK SMILES IDX 57 96 58 97 64 98 66 99 59 100 60 101 61 102 62 103 63 104
REMARK H PARENT 8 14 87 54 53 65
REMARK Flexibility Score: inf
ROOT
ATOM      1  C   UNL A   1      35.722  20.877  25.602  1.00  0.00     0.188 C 
ENDROOT
BRANCH   1   2
ATOM      2  O   UNL A   1      34.543  21.413  26.177  1.00  0.00    -0.377 OA
BRANCH   2   3
ATOM      3  C   UNL A   1      33.320  20.732  26.000  1.00  0.00     0.188 C 
BRANCH   3   4
ATOM      4  C   UNL A   1      32.660  20.931  24.635  1.00  0.00     0.188 C 
BRANCH   4   5
ATOM      5  O   UNL A   1      32.695  22.243  24.124  1.00  0.00    -0.376 OA
BRANCH   5   6
ATOM      6  C   UNL A   1      32.625  22.520  22.733  1.00  0.00     0.202 C 
BRANCH   6   7
ATOM      7  C   UNL A   1      33.047  23.815  21.996  1.00  0.00     0.261 C 
BRANCH   7   8
ATOM      8  O   UNL A   1      32.202  24.967  22.068  1.00  0.00    -0.461 OA
BRANCH   8   9
ATOM      9  C   UNL A   1      32.817  26.139  22.332  1.00  0.00     0.336 C 
ATOM     10  O   UNL A   1      33.801  26.479  21.680  1.00  0.00    -0.249 OA
BRANCH   9  11
ATOM     11  C   UNL A   1      32.147  27.003  23.494  1.00  0.00     0.159 C 
ATOM     12  C   UNL A   1      31.842  26.074  24.677  1.00  0.00     0.053 C 
BRANCH  11  13
ATOM     13  N   UNL A   1      33.111  28.093  23.899  1.00  0.00    -0.366 N 
ATOM     14  H   UNL A   1      33.783  28.335  23.220  1.00  0.00     0.162 HD
BRANCH  13  15
ATOM     15  C   UNL A   1      33.188  28.806  25.091  1.00  0.00     0.038 A 
ATOM     16  C   UNL A   1      31.333  31.777  26.685  1.00  0.00     0.044 C 
ATOM     17  C   UNL A   1      32.328  30.680  26.450  1.00  0.00    -0.046 A 
ATOM     18  C   UNL A   1      33.340  30.473  27.384  1.00  0.00     0.042 A 
ATOM     19  C   UNL A   1      32.268  29.852  25.310  1.00  0.00     0.029 A 
ATOM     20  C   UNL A   1      34.199  29.402  27.220  1.00  0.00     0.125 A 
ATOM     21  F   UNL A   1      35.162  29.186  28.125  1.00  0.00    -0.207 F 
ATOM     22  C   UNL A   1      34.085  28.549  26.126  1.00  0.00     0.065 A 
ENDBRANCH  13  15
ENDBRANCH  11  13
BRANCH  11  23
ATOM     23  C   UNL A   1      30.753  27.668  23.153  1.00  0.00    -0.009 A 
ATOM     24  C   UNL A   1      29.516  27.142  23.612  1.00  0.00     0.007 A 
ATOM     25  C   UNL A   1      30.671  28.822  22.345  1.00  0.00     0.046 A 
ATOM     26  C   UNL A   1      28.295  27.803  23.388  1.00  0.00     0.003 A 
ATOM     27  C   UNL A   1      29.449  29.462  22.112  1.00  0.00     0.123 A 
ATOM     28  C   UNL A   1      28.265  28.975  22.644  1.00  0.00     0.039 A 
ATOM     29  F   UNL A   1      29.418  30.572  21.363  1.00  0.00    -0.207 F 
ENDBRANCH  11  23
ENDBRANCH   9  11
ENDBRANCH   8   9
ENDBRANCH   7   8
ENDBRANCH   6   7
ENDBRANCH   5   6
ENDBRANCH   4   5
ENDBRANCH   3   4
ENDBRANCH   2   3
ENDBRANCH   1   2
BRANCH   1  30
ATOM     30  C   UNL A   1      36.922  21.789  25.277  1.00  0.00     0.188 C 
BRANCH  30  31
ATOM     31  O   UNL A   1      38.185  21.138  25.269  1.00  0.00    -0.376 OA
BRANCH  31  32
ATOM     32  C   UNL A   1      39.242  21.685  26.041  1.00  0.00     0.202 C 
BRANCH  32  33
ATOM     33  C   UNL A   1      39.151  23.160  26.471  1.00  0.00     0.261 C 
BRANCH  33  34
ATOM     34  O   UNL A   1      40.095  23.614  27.450  1.00  0.00    -0.460 OA
BRANCH  34  35
ATOM     35  C   UNL A   1      40.938  24.613  27.112  1.00  0.00     0.338 C 
ATOM     36  O   UNL A   1      41.641  24.670  26.116  1.00  0.00    -0.246 OA
BRANCH  35  37
ATOM     37  C   UNL A   1      40.712  25.732  28.052  1.00  0.00     0.060 A 
ATOM     38  C   UNL A   1      41.698  26.721  28.179  1.00  0.00     0.016 A 
ATOM     39  C   UNL A   1      39.529  25.819  28.788  1.00  0.00     0.016 A 
ATOM     40  C   UNL A   1      41.521  27.775  29.076  1.00  0.00     0.010 A 
ATOM     41  C   UNL A   1      39.363  26.861  29.704  1.00  0.00     0.010 A 
ATOM     42  C   UNL A   1      40.376  27.821  29.881  1.00  0.00    -0.014 A 
BRANCH  42  43
ATOM     43  C   UNL A   1      40.338  28.728  31.054  1.00  0.00     0.031 A 
ATOM     44  C   UNL A   1      39.348  29.862  31.039  1.00  0.00     0.074 A 
ATOM     45  C   UNL A   1      41.137  28.543  32.120  1.00  0.00     0.049 A 
ATOM     46  N   UNL A   1      39.146  30.807  31.918  1.00  0.00    -0.248 NA
ATOM     47  C   UNL A   1      38.467  29.937  29.861  1.00  0.00     0.031 C 
ATOM     48  C   UNL A   1      42.095  27.452  32.281  1.00  0.00     0.029 A 
ATOM     49  N   UNL A   1      41.266  29.280  33.270  1.00  0.00    -0.354 N 
ATOM     50  C   UNL A   1      38.121  31.591  31.401  1.00  0.00     0.074 A 
ATOM     51  C   UNL A   1      37.775  31.036  30.111  1.00  0.00     0.031 C 
ATOM     52  C   UNL A   1      42.715  27.591  33.466  1.00  0.00     0.029 A 
ATOM     53  C   UNL A   1      42.226  28.800  34.128  1.00  0.00     0.049 A 
ATOM     54  H   UNL A   1      40.723  30.078  33.463  1.00  0.00     0.167 HD
ATOM     55  C   UNL A   1      37.516  32.670  31.954  1.00  0.00     0.037 A 
ATOM     56  C   UNL A   1      42.667  29.291  35.303  1.00  0.00     0.037 A 
ATOM     57  C   UNL A   1      37.882  33.230  33.228  1.00  0.00     0.049 A 
ATOM     58  C   UNL A   1      42.057  30.557  35.853  1.00  0.00     0.074 A 
ATOM     59  C   UNL A   1      37.337  34.321  33.879  1.00  0.00     0.029 A 
ATOM     60  N   UNL A   1      38.904  32.751  34.039  1.00  0.00    -0.354 N 
ATOM     61  N   UNL A   1      41.080  31.284  35.363  1.00  0.00    -0.248 NA
ATOM     62  C   UNL A   1      42.611  31.068  37.114  1.00  0.00     0.031 C 
ATOM     63  C   UNL A   1      38.067  34.541  35.052  1.00  0.00     0.029 A 
ATOM     64  C   UNL A   1      39.024  33.544  35.169  1.00  0.00     0.049 A 
ATOM     65  H   UNL A   1      39.459  31.963  33.840  1.00  0.00     0.167 HD
ATOM     66  C   UNL A   1      40.878  32.318  36.275  1.00  0.00     0.074 A 
ATOM     67  C   UNL A   1      41.833  32.118  37.345  1.00  0.00     0.031 C 
ATOM     68  C   UNL A   1      39.980  33.335  36.231  1.00  0.00     0.037 A 
BRANCH  55  69
ATOM     69  C   UNL A   1      36.427  33.332  31.149  1.00  0.00     0.058 A 
ATOM     70  C   UNL A   1      36.710  34.101  30.006  1.00  0.00     0.135 A 
ATOM     71  C   UNL A   1      35.084  33.222  31.544  1.00  0.00     0.135 A 
ATOM     72  F   UNL A   1      37.977  34.254  29.591  1.00  0.00    -0.206 F 
ATOM     73  C   UNL A   1      35.708  34.782  29.321  1.00  0.00     0.059 A 
ATOM     74  C   UNL A   1      34.062  33.866  30.852  1.00  0.00     0.059 A 
ATOM     75  F   UNL A   1      34.753  32.500  32.626  1.00  0.00    -0.206 F 
ATOM     76  C   UNL A   1      34.388  34.665  29.758  1.00  0.00     0.060 A 
BRANCH  76  77
ATOM     77  S   UNL A   1      33.108  35.596  28.890  1.00  0.00     0.124 S 
ATOM     78  O   UNL A   1      32.473  34.547  28.098  1.00  0.00    -0.237 OA
ATOM     79  O   UNL A   1      32.312  36.131  29.990  1.00  0.00    -0.237 OA
ATOM     80  O   UNL A   1      33.864  36.585  28.128  1.00  0.00    -0.744 OA
ENDBRANCH  76  77
ENDBRANCH  55  69
BRANCH  56  81
ATOM     81  C   UNL A   1      43.734  28.574  36.054  1.00  0.00     0.058 A 
ATOM     82  C   UNL A   1      43.421  27.488  36.884  1.00  0.00     0.135 A 
ATOM     83  C   UNL A   1      45.084  28.941  35.940  1.00  0.00     0.135 A 
ATOM     84  F   UNL A   1      42.144  27.109  37.040  1.00  0.00    -0.206 F 
ATOM     85  C   UNL A   1      44.407  26.788  37.573  1.00  0.00     0.059 A 
ATOM     86  C   UNL A   1      46.091  28.242  36.599  1.00  0.00     0.059 A 
ATOM     87  F   UNL A   1      45.438  29.973  35.157  1.00  0.00    -0.206 F 
ATOM     88  C   UNL A   1      45.742  27.166  37.415  1.00  0.00     0.060 A 
BRANCH  88  89
ATOM     89  S   UNL A   1      47.016  26.196  38.249  1.00  0.00     0.124 S 
ATOM     90  O   UNL A   1      46.223  25.154  38.889  1.00  0.00    -0.237 OA
ATOM     91  O   UNL A   1      47.850  25.767  37.130  1.00  0.00    -0.237 OA
ATOM     92  O   UNL A   1      47.638  27.161  39.150  1.00  0.00    -0.744 OA
ENDBRANCH  88  89
ENDBRANCH  56  81
BRANCH  68  93
ATOM     93  C   UNL A   1      39.951  34.292  37.395  1.00  0.00     0.058 A 
ATOM     94  C   UNL A   1      39.124  34.083  38.511  1.00  0.00     0.135 A 
ATOM     95  C   UNL A   1      40.810  35.405  37.419  1.00  0.00     0.135 A 
ATOM     96  F   UNL A   1      38.280  33.040  38.541  1.00  0.00    -0.206 F 
ATOM     97  C   UNL A   1      39.131  34.956  39.595  1.00  0.00     0.059 A 
ATOM     98  C   UNL A   1      40.856  36.272  38.507  1.00  0.00     0.059 A 
ATOM     99  F   UNL A   1      41.631  35.648  36.385  1.00  0.00    -0.206 F 
ATOM    100  C   UNL A   1      40.004  36.046  39.586  1.00  0.00     0.060 A 
BRANCH 100 101
ATOM    101  S   UNL A   1      40.026  37.149  41.015  1.00  0.00     0.124 S 
ATOM    102  O   UNL A   1      39.148  36.446  41.944  1.00  0.00    -0.237 OA
ATOM    103  O   UNL A   1      41.441  37.166  41.371  1.00  0.00    -0.237 OA
ATOM    104  O   UNL A   1      39.503  38.404  40.485  1.00  0.00    -0.744 OA
ENDBRANCH 100 101
ENDBRANCH  68  93
ENDBRANCH  42  43
ENDBRANCH  35  37
ENDBRANCH  34  35
ENDBRANCH  33  34
ENDBRANCH  32  33
ENDBRANCH  31  32
ENDBRANCH  30  31
ENDBRANCH   1  30
TORSDOF 26
ENDMDL
MODEL 2
REMARK VINA RESULT:     -10.3      4.927     10.348
REMARK SMILES Cc1cc(F)cc(N[C@](C)(C(=O)OCCOCCOCCOCCOC(=O)c2ccc(-c3c4nc(c(-c5c(F)cc(S(=O)(=O)[O-])cc5F)c5ccc([nH]5)c(-c5c(F)cc(S(=O)(=O)[O-])cc5F)c5nc(c(-c6c(F)cc(S(=O)(=O)[O-])cc6F)c6ccc3[nH]6)C=C5)C=C4)cc2)c2cccc(F)c2)c1
REMARK SMILES IDX 20 1 19 2 18 3 17 4 16 5 15 6 14 7 13 8 11 9 12 10 9 11
REMARK SMILES IDX 10 12 8 13 7 15 1 16 2 17 3 18 101 19 4 20 5 21 6 22 94 23
REMARK SMILES IDX 95 24 100 25 96 26 98 27 97 28 99 29 21 30 22 31 23 32 24 33
REMARK SMILES IDX 25 34 26 35 27 36 28 37 29 38 93 39 30 40 92 41 31 42 32 43
REMARK SMILES IDX 33 44 86 45 34 46 91 47 85 48 87 49 35 50 90 51 84 52 83 53
REMARK SMILES IDX 36 55 70 56 49 57 69 58 50 59 53 60 68 61 88 62 51 63 52 64
REMARK SMILES IDX 67 66 89 67 54 68 37 69 38 70 47 71 39 72 40 73 46 74 48 75
REMARK SMILES IDX 41 76 42 77 43 78 44 79 45 80 71 81 72 82 81 83 73 84 74 85
REMARK SMILES IDX 80 86 82 87 75 88 76 89 77 90 78 91 79 92 55 93 56 94 65 95
REMARK SMILES IDX 57 96 58 97 64 98 66 99 59 100 60 101 61 102 62 103 63 104
REMARK H PARENT 8 14 87 54 53 65
REMARK Flexibility Score: inf
ROOT
ATOM      1  C   UNL A   1      29.113  31.279  23.715  1.00  0.00     0.188 C 
ENDROOT
BRANCH   1   2
ATOM      2  O   UNL A   1      29.078  29.920  23.316  1.00  0.00    -0.377 OA
BRANCH   2   3
ATOM      3  C   UNL A   1      30.080  29.430  22.452  1.00  0.00     0.188 C 
BRANCH   3   4
ATOM      4  C   UNL A   1      30.897  28.262  23.004  1.00  0.00     0.188 C 
BRANCH   4   5
ATOM      5  O   UNL A   1      30.450  27.727  24.228  1.00  0.00    -0.376 OA
BRANCH   5   6
ATOM      6  C   UNL A   1      31.225  26.810  24.988  1.00  0.00     0.202 C 
BRANCH   6   7
ATOM      7  C   UNL A   1      30.796  25.429  25.541  1.00  0.00     0.261 C 
BRANCH   7   8
ATOM      8  O   UNL A   1      31.803  24.475  25.893  1.00  0.00    -0.461 OA
BRANCH   8   9
ATOM      9  C   UNL A   1      31.578  23.204  25.504  1.00  0.00     0.336 C 
ATOM     10  O   UNL A   1      30.456  22.716  25.608  1.00  0.00    -0.249 OA
BRANCH   9  11
ATOM     11  C   UNL A   1      32.847  22.452  24.896  1.00  0.00     0.159 C 
ATOM     12  C   UNL A   1      33.164  23.063  23.524  1.00  0.00     0.053 C 
BRANCH  11  13
ATOM     13  N   UNL A   1      34.010  22.626  25.845  1.00  0.00    -0.366 N 
ATOM     14  H   UNL A   1      33.773  22.945  26.746  1.00  0.00     0.162 HD
BRANCH  13  15
ATOM     15  C   UNL A   1      35.366  22.400  25.631  1.00  0.00     0.038 A 
ATOM     16  C   UNL A   1      37.577  19.392  24.698  1.00  0.00     0.044 C 
ATOM     17  C   UNL A   1      37.143  20.767  25.110  1.00  0.00    -0.046 A 
ATOM     18  C   UNL A   1      38.112  21.739  25.348  1.00  0.00     0.042 A 
ATOM     19  C   UNL A   1      35.783  21.104  25.262  1.00  0.00     0.029 A 
ATOM     20  C   UNL A   1      37.713  23.031  25.633  1.00  0.00     0.125 A 
ATOM     21  F   UNL A   1      38.640  23.975  25.844  1.00  0.00    -0.207 F 
ATOM     22  C   UNL A   1      36.365  23.368  25.711  1.00  0.00     0.065 A 
ENDBRANCH  13  15
ENDBRANCH  11  13
BRANCH  11  23
ATOM     23  C   UNL A   1      32.668  20.909  24.600  1.00  0.00    -0.009 A 
ATOM     24  C   UNL A   1      32.446  20.394  23.295  1.00  0.00     0.007 A 
ATOM     25  C   UNL A   1      32.698  19.955  25.641  1.00  0.00     0.046 A 
ATOM     26  C   UNL A   1      32.393  19.013  23.036  1.00  0.00     0.003 A 
ATOM     27  C   UNL A   1      32.627  18.584  25.375  1.00  0.00     0.123 A 
ATOM     28  C   UNL A   1      32.496  18.105  24.081  1.00  0.00     0.039 A 
ATOM     29  F   UNL A   1      32.689  17.711  26.390  1.00  0.00    -0.207 F 
ENDBRANCH  11  23
ENDBRANCH   9  11
ENDBRANCH   8   9
ENDBRANCH   7   8
ENDBRANCH   6   7
ENDBRANCH   5   6
ENDBRANCH   4   5
ENDBRANCH   3   4
ENDBRANCH   2   3
ENDBRANCH   1   2
BRANCH   1  30
ATOM     30  C   UNL A   1      30.160  31.773  24.733  1.00  0.00     0.188 C 
BRANCH  30  31
ATOM     31  O   UNL A   1      30.865  30.745  25.413  1.00  0.00    -0.376 OA
BRANCH  31  32
ATOM     32  C   UNL A   1      31.698  31.096  26.508  1.00  0.00     0.202 C 
BRANCH  32  33
ATOM     33  C   UNL A   1      32.957  30.252  26.773  1.00  0.00     0.261 C 
BRANCH  33  34
ATOM     34  O   UNL A   1      33.506  30.297  28.097  1.00  0.00    -0.460 OA
BRANCH  34  35
ATOM     35  C   UNL A   1      34.450  31.222  28.368  1.00  0.00     0.338 C 
ATOM     36  O   UNL A   1      34.264  32.393  28.658  1.00  0.00    -0.246 OA
BRANCH  35  37
ATOM     37  C   UNL A   1      35.752  30.527  28.457  1.00  0.00     0.060 A 
ATOM     38  C   UNL A   1      36.129  29.945  29.676  1.00  0.00     0.016 A 
ATOM     39  C   UNL A   1      36.589  30.432  27.343  1.00  0.00     0.016 A 
ATOM     40  C   UNL A   1      37.362  29.303  29.795  1.00  0.00     0.010 A 
ATOM     41  C   UNL A   1      37.835  29.811  27.469  1.00  0.00     0.010 A 
ATOM     42  C   UNL A   1      38.243  29.280  28.706  1.00  0.00    -0.014 A 
BRANCH  42  43
ATOM     43  C   UNL A   1      39.664  28.910  28.919  1.00  0.00     0.031 A 
ATOM     44  C   UNL A   1      40.581  29.942  29.521  1.00  0.00     0.074 A 
ATOM     45  C   UNL A   1      40.132  27.687  28.614  1.00  0.00     0.049 A 
ATOM     46  N   UNL A   1      41.862  29.878  29.770  1.00  0.00    -0.248 NA
ATOM     47  C   UNL A   1      39.959  31.225  29.888  1.00  0.00     0.031 C 
ATOM     48  C   UNL A   1      39.335  26.585  28.082  1.00  0.00     0.029 A 
ATOM     49  N   UNL A   1      41.400  27.173  28.712  1.00  0.00    -0.354 N 
ATOM     50  C   UNL A   1      42.202  31.110  30.317  1.00  0.00     0.074 A 
ATOM     51  C   UNL A   1      41.000  31.916  30.322  1.00  0.00     0.031 C 
ATOM     52  C   UNL A   1      40.135  25.520  27.898  1.00  0.00     0.029 A 
ATOM     53  C   UNL A   1      41.505  25.877  28.264  1.00  0.00     0.049 A 
ATOM     54  H   UNL A   1      42.163  27.683  29.067  1.00  0.00     0.167 HD
ATOM     55  C   UNL A   1      43.403  31.530  30.783  1.00  0.00     0.037 A 
ATOM     56  C   UNL A   1      42.588  25.082  28.150  1.00  0.00     0.037 A 
ATOM     57  C   UNL A   1      44.599  30.730  30.753  1.00  0.00     0.049 A 
ATOM     58  C   UNL A   1      43.939  25.605  28.572  1.00  0.00     0.074 A 
ATOM     59  C   UNL A   1      45.867  31.058  31.196  1.00  0.00     0.029 A 
ATOM     60  N   UNL A   1      44.678  29.444  30.234  1.00  0.00    -0.354 N 
ATOM     61  N   UNL A   1      44.249  26.766  29.100  1.00  0.00    -0.248 NA
ATOM     62  C   UNL A   1      45.087  24.708  28.380  1.00  0.00     0.031 C 
ATOM     63  C   UNL A   1      46.726  29.997  30.888  1.00  0.00     0.029 A 
ATOM     64  C   UNL A   1      45.980  28.977  30.317  1.00  0.00     0.049 A 
ATOM     65  H   UNL A   1      43.920  28.938  29.862  1.00  0.00     0.167 HD
ATOM     66  C   UNL A   1      45.621  26.725  29.337  1.00  0.00     0.074 A 
ATOM     67  C   UNL A   1      46.078  25.422  28.898  1.00  0.00     0.031 C 
ATOM     68  C   UNL A   1      46.425  27.676  29.876  1.00  0.00     0.037 A 
BRANCH  55  69
ATOM     69  C   UNL A   1      43.476  32.936  31.319  1.00  0.00     0.058 A 
ATOM     70  C   UNL A   1      43.792  34.031  30.495  1.00  0.00     0.135 A 
ATOM     71  C   UNL A   1      43.257  33.190  32.683  1.00  0.00     0.135 A 
ATOM     72  F   UNL A   1      44.027  33.846  29.186  1.00  0.00    -0.206 F 
ATOM     73  C   UNL A   1      43.946  35.313  31.014  1.00  0.00     0.059 A 
ATOM     74  C   UNL A   1      43.371  34.470  33.217  1.00  0.00     0.059 A 
ATOM     75  F   UNL A   1      42.951  32.184  33.518  1.00  0.00    -0.206 F 
ATOM     76  C   UNL A   1      43.742  35.520  32.379  1.00  0.00     0.060 A 
BRANCH  76  77
ATOM     77  S   UNL A   1      43.996  37.178  33.046  1.00  0.00     0.124 S 
ATOM     78  O   UNL A   1      43.950  37.988  31.833  1.00  0.00    -0.237 OA
ATOM     79  O   UNL A   1      42.862  37.327  33.951  1.00  0.00    -0.237 OA
ATOM     80  O   UNL A   1      45.303  37.089  33.691  1.00  0.00    -0.744 OA
ENDBRANCH  76  77
ENDBRANCH  55  69
BRANCH  56  81
ATOM     81  C   UNL A   1      42.438  23.696  27.629  1.00  0.00     0.058 A 
ATOM     82  C   UNL A   1      42.479  23.439  26.251  1.00  0.00     0.135 A 
ATOM     83  C   UNL A   1      42.273  22.601  28.493  1.00  0.00     0.135 A 
ATOM     84  F   UNL A   1      42.616  24.452  25.383  1.00  0.00    -0.206 F 
ATOM     85  C   UNL A   1      42.367  22.147  25.746  1.00  0.00     0.059 A 
ATOM     86  C   UNL A   1      42.184  21.298  28.014  1.00  0.00     0.059 A 
ATOM     87  F   UNL A   1      42.229  22.792  29.821  1.00  0.00    -0.206 F 
ATOM     88  C   UNL A   1      42.231  21.080  26.637  1.00  0.00     0.060 A 
BRANCH  88  89
ATOM     89  S   UNL A   1      42.171  19.403  25.971  1.00  0.00     0.124 S 
ATOM     90  O   UNL A   1      43.048  19.514  24.812  1.00  0.00    -0.237 OA
ATOM     91  O   UNL A   1      42.685  18.616  27.088  1.00  0.00    -0.237 OA
ATOM     92  O   UNL A   1      40.755  19.209  25.677  1.00  0.00    -0.744 OA
ENDBRANCH  88  89
ENDBRANCH  56  81
BRANCH  68  93
ATOM     93  C   UNL A   1      47.881  27.335  30.064  1.00  0.00     0.058 A 
ATOM     94  C   UNL A   1      48.859  27.697  29.125  1.00  0.00     0.135 A 
ATOM     95  C   UNL A   1      48.310  26.685  31.235  1.00  0.00     0.135 A 
ATOM     96  F   UNL A   1      48.507  28.315  27.986  1.00  0.00    -0.206 F 
ATOM     97  C   UNL A   1      50.205  27.406  29.326  1.00  0.00     0.059 A 
ATOM     98  C   UNL A   1      49.655  26.413  31.472  1.00  0.00     0.059 A 
ATOM     99  F   UNL A   1      47.421  26.325  32.174  1.00  0.00    -0.206 F 
ATOM    100  C   UNL A   1      50.594  26.767  30.505  1.00  0.00     0.060 A 
BRANCH 100 101
ATOM    101  S   UNL A   1      52.348  26.428  30.768  1.00  0.00     0.124 S 
ATOM    102  O   UNL A   1      52.820  26.242  29.400  1.00  0.00    -0.237 OA
ATOM    103  O   UNL A   1      52.802  27.643  31.436  1.00  0.00    -0.237 OA
ATOM    104  O   UNL A   1      52.342  25.227  31.598  1.00  0.00    -0.744 OA
ENDBRANCH 100 101
ENDBRANCH  68  93
ENDBRANCH  42  43
ENDBRANCH  35  37
ENDBRANCH  34  35
ENDBRANCH  33  34
ENDBRANCH  32  33
ENDBRANCH  31  32
ENDBRANCH  30  31
ENDBRANCH   1  30
TORSDOF 26
ENDMDL
MODEL 3
REMARK VINA RESULT:     -10.0      6.557     11.767
REMARK SMILES Cc1cc(F)cc(N[C@](C)(C(=O)OCCOCCOCCOCCOC(=O)c2ccc(-c3c4nc(c(-c5c(F)cc(S(=O)(=O)[O-])cc5F)c5ccc([nH]5)c(-c5c(F)cc(S(=O)(=O)[O-])cc5F)c5nc(c(-c6c(F)cc(S(=O)(=O)[O-])cc6F)c6ccc3[nH]6)C=C5)C=C4)cc2)c2cccc(F)c2)c1
REMARK SMILES IDX 20 1 19 2 18 3 17 4 16 5 15 6 14 7 13 8 11 9 12 10 9 11
REMARK SMILES IDX 10 12 8 13 7 15 1 16 2 17 3 18 101 19 4 20 5 21 6 22 94 23
REMARK SMILES IDX 95 24 100 25 96 26 98 27 97 28 99 29 21 30 22 31 23 32 24 33
REMARK SMILES IDX 25 34 26 35 27 36 28 37 29 38 93 39 30 40 92 41 31 42 32 43
REMARK SMILES IDX 33 44 86 45 34 46 91 47 85 48 87 49 35 50 90 51 84 52 83 53
REMARK SMILES IDX 36 55 70 56 49 57 69 58 50 59 53 60 68 61 88 62 51 63 52 64
REMARK SMILES IDX 67 66 89 67 54 68 37 69 38 70 47 71 39 72 40 73 46 74 48 75
REMARK SMILES IDX 41 76 42 77 43 78 44 79 45 80 71 81 72 82 81 83 73 84 74 85
REMARK SMILES IDX 80 86 82 87 75 88 76 89 77 90 78 91 79 92 55 93 56 94 65 95
REMARK SMILES IDX 57 96 58 97 64 98 66 99 59 100 60 101 61 102 62 103 63 104
REMARK H PARENT 8 14 87 54 53 65
REMARK Flexibility Score: inf
ROOT
ATOM      1  C   UNL A   1      33.134  30.438  26.960  1.00  0.00     0.188 C 
ENDROOT
BRANCH   1   2
ATOM      2  O   UNL A   1      32.979  29.123  26.455  1.00  0.00    -0.377 OA
BRANCH   2   3
ATOM      3  C   UNL A   1      31.931  28.316  26.946  1.00  0.00     0.188 C 
BRANCH   3   4
ATOM      4  C   UNL A   1      31.926  26.877  26.430  1.00  0.00     0.188 C 
BRANCH   4   5
ATOM      5  O   UNL A   1      33.136  26.425  25.866  1.00  0.00    -0.376 OA
BRANCH   5   6
ATOM      6  C   UNL A   1      33.620  25.104  26.061  1.00  0.00     0.202 C 
BRANCH   6   7
ATOM      7  C   UNL A   1      34.835  24.424  25.384  1.00  0.00     0.261 C 
BRANCH   7   8
ATOM      8  O   UNL A   1      34.623  23.267  24.568  1.00  0.00    -0.461 OA
BRANCH   8   9
ATOM      9  C   UNL A   1      34.109  22.187  25.191  1.00  0.00     0.336 C 
ATOM     10  O   UNL A   1      34.687  21.701  26.159  1.00  0.00    -0.249 OA
BRANCH   9  11
ATOM     11  C   UNL A   1      32.729  21.658  24.590  1.00  0.00     0.159 C 
ATOM     12  C   UNL A   1      31.622  21.901  25.625  1.00  0.00     0.053 C 
BRANCH  11  13
ATOM     13  N   UNL A   1      32.443  22.406  23.309  1.00  0.00    -0.366 N 
ATOM     14  H   UNL A   1      32.637  21.910  22.480  1.00  0.00     0.162 HD
BRANCH  13  15
ATOM     15  C   UNL A   1      31.946  23.693  23.130  1.00  0.00     0.038 A 
ATOM     16  C   UNL A   1      33.287  27.031  21.765  1.00  0.00     0.044 C 
ATOM     17  C   UNL A   1      32.396  26.010  22.406  1.00  0.00    -0.046 A 
ATOM     18  C   UNL A   1      31.145  26.404  22.875  1.00  0.00     0.042 A 
ATOM     19  C   UNL A   1      32.786  24.663  22.546  1.00  0.00     0.029 A 
ATOM     20  C   UNL A   1      30.282  25.448  23.378  1.00  0.00     0.125 A 
ATOM     21  F   UNL A   1      29.071  25.817  23.813  1.00  0.00    -0.207 F 
ATOM     22  C   UNL A   1      30.654  24.108  23.446  1.00  0.00     0.065 A 
ENDBRANCH  13  15
ENDBRANCH  11  13
BRANCH  11  23
ATOM     23  C   UNL A   1      32.647  20.106  24.293  1.00  0.00    -0.009 A 
ATOM     24  C   UNL A   1      32.412  19.581  22.995  1.00  0.00     0.007 A 
ATOM     25  C   UNL A   1      32.786  19.155  25.328  1.00  0.00     0.046 A 
ATOM     26  C   UNL A   1      32.447  18.200  22.731  1.00  0.00     0.003 A 
ATOM     27  C   UNL A   1      32.801  17.783  25.057  1.00  0.00     0.123 A 
ATOM     28  C   UNL A   1      32.654  17.299  23.766  1.00  0.00     0.039 A 
ATOM     29  F   UNL A   1      32.964  16.914  26.064  1.00  0.00    -0.207 F 
ENDBRANCH  11  23
ENDBRANCH   9  11
ENDBRANCH   8   9
ENDBRANCH   7   8
ENDBRANCH   6   7
ENDBRANCH   5   6
ENDBRANCH   4   5
ENDBRANCH   3   4
ENDBRANCH   2   3
ENDBRANCH   1   2
BRANCH   1  30
ATOM     30  C   UNL A   1      34.442  30.863  27.656  1.00  0.00     0.188 C 
BRANCH  30  31
ATOM     31  O   UNL A   1      34.723  32.254  27.608  1.00  0.00    -0.376 OA
BRANCH  31  32
ATOM     32  C   UNL A   1      35.421  32.850  28.690  1.00  0.00     0.202 C 
BRANCH  32  33
ATOM     33  C   UNL A   1      35.192  32.294  30.107  1.00  0.00     0.261 C 
BRANCH  33  34
ATOM     34  O   UNL A   1      36.349  31.844  30.826  1.00  0.00    -0.460 OA
BRANCH  34  35
ATOM     35  C   UNL A   1      36.618  30.522  30.841  1.00  0.00     0.338 C 
ATOM     36  O   UNL A   1      35.824  29.616  31.035  1.00  0.00    -0.246 OA
BRANCH  35  37
ATOM     37  C   UNL A   1      38.010  30.339  30.375  1.00  0.00     0.060 A 
ATOM     38  C   UNL A   1      38.253  30.206  29.000  1.00  0.00     0.016 A 
ATOM     39  C   UNL A   1      39.070  30.318  31.283  1.00  0.00     0.016 A 
ATOM     40  C   UNL A   1      39.554  30.008  28.535  1.00  0.00     0.010 A 
ATOM     41  C   UNL A   1      40.370  30.095  30.819  1.00  0.00     0.010 A 
ATOM     42  C   UNL A   1      40.611  29.899  29.447  1.00  0.00    -0.014 A 
BRANCH  42  43
ATOM     43  C   UNL A   1      41.917  29.359  28.996  1.00  0.00     0.031 A 
ATOM     44  C   UNL A   1      43.099  30.293  28.976  1.00  0.00     0.074 A 
ATOM     45  C   UNL A   1      42.068  28.072  28.638  1.00  0.00     0.049 A 
ATOM     46  N   UNL A   1      44.328  30.076  28.591  1.00  0.00    -0.248 NA
ATOM     47  C   UNL A   1      42.850  31.662  29.457  1.00  0.00     0.031 C 
ATOM     48  C   UNL A   1      41.018  27.057  28.669  1.00  0.00     0.029 A 
ATOM     49  N   UNL A   1      43.173  27.404  28.174  1.00  0.00    -0.354 N 
ATOM     50  C   UNL A   1      45.000  31.279  28.777  1.00  0.00     0.074 A 
ATOM     51  C   UNL A   1      44.029  32.233  29.267  1.00  0.00     0.031 C 
ATOM     52  C   UNL A   1      41.530  25.890  28.241  1.00  0.00     0.029 A 
ATOM     53  C   UNL A   1      42.932  26.085  27.871  1.00  0.00     0.049 A 
ATOM     54  H   UNL A   1      44.054  27.828  28.068  1.00  0.00     0.167 HD
ATOM     55  C   UNL A   1      46.308  31.563  28.568  1.00  0.00     0.037 A 
ATOM     56  C   UNL A   1      43.748  25.151  27.341  1.00  0.00     0.037 A 
ATOM     57  C   UNL A   1      47.263  30.615  28.058  1.00  0.00     0.049 A 
ATOM     58  C   UNL A   1      45.174  25.515  27.011  1.00  0.00     0.074 A 
ATOM     59  C   UNL A   1      48.610  30.798  27.807  1.00  0.00     0.029 A 
ATOM     60  N   UNL A   1      46.965  29.305  27.703  1.00  0.00    -0.354 N 
ATOM     61  N   UNL A   1      45.803  26.652  27.202  1.00  0.00    -0.248 NA
ATOM     62  C   UNL A   1      46.001  24.469  26.394  1.00  0.00     0.031 C 
ATOM     63  C   UNL A   1      49.114  29.621  27.243  1.00  0.00     0.029 A 
ATOM     64  C   UNL A   1      48.097  28.678  27.207  1.00  0.00     0.049 A 
ATOM     65  H   UNL A   1      46.080  28.883  27.794  1.00  0.00     0.167 HD
ATOM     66  C   UNL A   1      47.108  26.445  26.761  1.00  0.00     0.074 A 
ATOM     67  C   UNL A   1      47.177  25.074  26.299  1.00  0.00     0.031 C 
ATOM     68  C   UNL A   1      48.154  27.311  26.748  1.00  0.00     0.037 A 
BRANCH  55  69
ATOM     69  C   UNL A   1      46.757  32.973  28.852  1.00  0.00     0.058 A 
ATOM     70  C   UNL A   1      47.295  33.346  30.096  1.00  0.00     0.135 A 
ATOM     71  C   UNL A   1      46.617  33.974  27.876  1.00  0.00     0.135 A 
ATOM     72  F   UNL A   1      47.438  32.436  31.072  1.00  0.00    -0.206 F 
ATOM     73  C   UNL A   1      47.624  34.669  30.380  1.00  0.00     0.059 A 
ATOM     74  C   UNL A   1      46.972  35.296  28.127  1.00  0.00     0.059 A 
ATOM     75  F   UNL A   1      46.110  33.677  26.669  1.00  0.00    -0.206 F 
ATOM     76  C   UNL A   1      47.450  35.638  29.391  1.00  0.00     0.060 A 
BRANCH  76  77
ATOM     77  S   UNL A   1      47.831  37.356  29.792  1.00  0.00     0.124 S 
ATOM     78  O   UNL A   1      47.021  37.561  30.989  1.00  0.00    -0.237 OA
ATOM     79  O   UNL A   1      49.274  37.314  30.003  1.00  0.00    -0.237 OA
ATOM     80  O   UNL A   1      47.394  38.087  28.607  1.00  0.00    -0.744 OA
ENDBRANCH  76  77
ENDBRANCH  55  69
BRANCH  56  81
ATOM     81  C   UNL A   1      43.241  23.772  27.105  1.00  0.00     0.058 A 
ATOM     82  C   UNL A   1      42.862  23.357  25.820  1.00  0.00     0.135 A 
ATOM     83  C   UNL A   1      43.146  22.837  28.148  1.00  0.00     0.135 A 
ATOM     84  F   UNL A   1      42.918  24.218  24.793  1.00  0.00    -0.206 F 
ATOM     85  C   UNL A   1      42.411  22.063  25.575  1.00  0.00     0.059 A 
ATOM     86  C   UNL A   1      42.722  21.530  27.924  1.00  0.00     0.059 A 
ATOM     87  F   UNL A   1      43.497  23.183  29.397  1.00  0.00    -0.206 F 
ATOM     88  C   UNL A   1      42.355  21.153  26.632  1.00  0.00     0.060 A 
BRANCH  88  89
ATOM     89  S   UNL A   1      41.847  19.456  26.282  1.00  0.00     0.124 S 
ATOM     90  O   UNL A   1      42.703  19.119  25.151  1.00  0.00    -0.237 OA
ATOM     91  O   UNL A   1      42.156  18.783  27.540  1.00  0.00    -0.237 OA
ATOM     92  O   UNL A   1      40.425  19.586  25.982  1.00  0.00    -0.744 OA
ENDBRANCH  88  89
ENDBRANCH  56  81
BRANCH  68  93
ATOM     93  C   UNL A   1      49.482  26.793  26.257  1.00  0.00     0.058 A 
ATOM     94  C   UNL A   1      49.921  27.001  24.940  1.00  0.00     0.135 A 
ATOM     95  C   UNL A   1      50.354  26.130  27.138  1.00  0.00     0.135 A 
ATOM     96  F   UNL A   1      49.129  27.624  24.053  1.00  0.00    -0.206 F 
ATOM     97  C   UNL A   1      51.165  26.548  24.507  1.00  0.00     0.059 A 
ATOM     98  C   UNL A   1      51.614  25.697  26.736  1.00  0.00     0.059 A 
ATOM     99  F   UNL A   1      49.992  25.913  28.412  1.00  0.00    -0.206 F 
ATOM    100  C   UNL A   1      52.006  25.900  25.414  1.00  0.00     0.060 A 
BRANCH 100 101
ATOM    101  S   UNL A   1      53.629  25.350  24.847  1.00  0.00     0.124 S 
ATOM    102  O   UNL A   1      53.617  25.783  23.454  1.00  0.00    -0.237 OA
ATOM    103  O   UNL A   1      54.531  26.083  25.730  1.00  0.00    -0.237 OA
ATOM    104  O   UNL A   1      53.592  23.906  25.056  1.00  0.00    -0.744 OA
ENDBRANCH 100 101
ENDBRANCH  68  93
ENDBRANCH  42  43
ENDBRANCH  35  37
ENDBRANCH  34  35
ENDBRANCH  33  34
ENDBRANCH  32  33
ENDBRANCH  31  32
ENDBRANCH  30  31
ENDBRANCH   1  30
TORSDOF 26
ENDMDL
