MODEL 1
REMARK VINA RESULT:      -9.7      0.000      0.000
REMARK SMILES C[C@H](NC(=O)N1CC[C@H](C(=O)OCCOCCOCCOCCOC(=O)c2ccc(-c3c4nc(c(-c5c(F)cc(S(=O)(=O)[O-])cc5F)c5ccc([nH]5)c(-c5c(F)cc(S(=O)(=O)[O-])cc5F)c5nc(c(-c6c(F)cc(S(=O)(=O)[O-])cc6F)c6ccc3[nH]6)C=C5)C=C4)cc2)[C@H]1C)c1ccsc1
REMARK SMILES IDX 18 1 17 2 16 3 15 4 14 5 13 6 12 7 10 8 11 9 9 10 6 11 7 12
REMARK SMILES IDX 93 13 8 14 94 15 4 16 3 17 5 19 2 20 1 21 95 22 96 23 99 24
REMARK SMILES IDX 97 25 98 26 19 27 20 28 21 29 22 30 23 31 24 32 25 33 26 34
REMARK SMILES IDX 27 35 28 36 92 37 29 38 91 39 30 40 31 41 32 42 85 43 33 44
REMARK SMILES IDX 90 45 84 46 86 47 34 48 89 49 83 50 82 51 35 53 69 54 48 55
REMARK SMILES IDX 68 56 49 57 52 58 67 59 87 60 50 61 51 62 66 64 88 65 53 66
REMARK SMILES IDX 36 67 37 68 46 69 38 70 39 71 45 72 47 73 40 74 41 75 42 76
REMARK SMILES IDX 43 77 44 78 70 79 71 80 80 81 72 82 73 83 79 84 81 85 74 86
REMARK SMILES IDX 75 87 76 88 77 89 78 90 54 91 55 92 64 93 56 94 57 95 63 96
REMARK SMILES IDX 65 97 58 98 59 99 60 100 61 101 62 102
REMARK H PARENT 3 18 86 52 52 63
REMARK Flexibility Score: inf
ROOT
ATOM      1  O   UNL A   1      33.060  27.318  22.625  1.00  0.00    -0.377 OA
ENDROOT
BRANCH   1   2
ATOM      2  C   UNL A   1      31.839  27.970  22.374  1.00  0.00     0.188 C 
BRANCH   2   3
ATOM      3  C   UNL A   1      30.611  27.044  22.406  1.00  0.00     0.188 C 
BRANCH   3   4
ATOM      4  O   UNL A   1      29.882  26.839  23.605  1.00  0.00    -0.376 OA
BRANCH   4   5
ATOM      5  C   UNL A   1      30.320  27.318  24.874  1.00  0.00     0.202 C 
BRANCH   5   6
ATOM      6  C   UNL A   1      30.519  26.450  26.127  1.00  0.00     0.261 C 
BRANCH   6   7
ATOM      7  O   UNL A   1      30.160  25.081  25.972  1.00  0.00    -0.463 OA
BRANCH   7   8
ATOM      8  C   UNL A   1      31.164  24.184  26.111  1.00  0.00     0.311 C 
ATOM      9  O   UNL A   1      31.487  23.654  27.168  1.00  0.00    -0.252 OA
BRANCH   8  10
ATOM     10  C   UNL A   1      31.659  23.709  24.763  1.00  0.00     0.123 C 
ATOM     11  N   UNL A   1      33.655  22.541  25.139  1.00  0.00    -0.321 N 
ATOM     12  C   UNL A   1      34.024  23.907  24.788  1.00  0.00     0.122 C 
ATOM     13  C   UNL A   1      32.226  22.297  24.867  1.00  0.00     0.098 C 
ATOM     14  C   UNL A   1      32.804  24.490  24.118  1.00  0.00     0.039 C 
ATOM     15  C   UNL A   1      31.920  21.595  23.536  1.00  0.00     0.032 C 
BRANCH  11  16
ATOM     16  C   UNL A   1      34.286  21.996  26.233  1.00  0.00     0.318 C 
ATOM     17  N   UNL A   1      34.821  20.763  26.121  1.00  0.00    -0.331 N 
ATOM     18  H   UNL A   1      34.963  20.272  26.962  1.00  0.00     0.165 HD
ATOM     19  O   UNL A   1      34.409  22.585  27.305  1.00  0.00    -0.249 OA
BRANCH  17  20
ATOM     20  C   UNL A   1      35.209  20.079  24.911  1.00  0.00     0.112 C 
ATOM     21  C   UNL A   1      36.718  19.886  24.868  1.00  0.00     0.036 C 
BRANCH  20  22
ATOM     22  C   UNL A   1      34.421  18.796  24.787  1.00  0.00    -0.015 A 
ATOM     23  C   UNL A   1      33.069  18.641  25.259  1.00  0.00     0.017 A 
ATOM     24  C   UNL A   1      34.881  17.592  24.279  1.00  0.00     0.070 A 
ATOM     25  C   UNL A   1      32.608  17.349  25.161  1.00  0.00     0.065 A 
ATOM     26  S   UNL A   1      33.750  16.319  24.425  1.00  0.00    -0.152 S 
ENDBRANCH  20  22
ENDBRANCH  17  20
ENDBRANCH  11  16
ENDBRANCH   8  10
ENDBRANCH   7   8
ENDBRANCH   6   7
ENDBRANCH   5   6
ENDBRANCH   4   5
ENDBRANCH   3   4
ENDBRANCH   2   3
ENDBRANCH   1   2
BRANCH   1  27
ATOM     27  C   UNL A   1      34.020  27.966  23.446  1.00  0.00     0.188 C 
BRANCH  27  28
ATOM     28  C   UNL A   1      33.678  29.297  24.151  1.00  0.00     0.188 C 
BRANCH  28  29
ATOM     29  O   UNL A   1      33.071  29.171  25.430  1.00  0.00    -0.376 OA
BRANCH  29  30
ATOM     30  C   UNL A   1      32.287  30.253  25.913  1.00  0.00     0.202 C 
BRANCH  30  31
ATOM     31  C   UNL A   1      32.707  30.874  27.255  1.00  0.00     0.261 C 
BRANCH  31  32
ATOM     32  O   UNL A   1      33.846  30.289  27.898  1.00  0.00    -0.460 OA
BRANCH  32  33
ATOM     33  C   UNL A   1      34.681  31.113  28.576  1.00  0.00     0.338 C 
ATOM     34  O   UNL A   1      34.402  32.150  29.126  1.00  0.00    -0.246 OA
BRANCH  33  35
ATOM     35  C   UNL A   1      35.981  30.414  28.686  1.00  0.00     0.060 A 
ATOM     36  C   UNL A   1      36.399  29.937  29.936  1.00  0.00     0.016 A 
ATOM     37  C   UNL A   1      36.772  30.231  27.552  1.00  0.00     0.016 A 
ATOM     38  C   UNL A   1      37.638  29.304  30.061  1.00  0.00     0.010 A 
ATOM     39  C   UNL A   1      38.019  29.621  27.683  1.00  0.00     0.010 A 
ATOM     40  C   UNL A   1      38.473  29.189  28.942  1.00  0.00    -0.014 A 
BRANCH  40  41
ATOM     41  C   UNL A   1      39.907  28.854  29.099  1.00  0.00     0.031 A 
ATOM     42  C   UNL A   1      40.834  29.967  29.509  1.00  0.00     0.074 A 
ATOM     43  C   UNL A   1      40.385  27.622  28.850  1.00  0.00     0.049 A 
ATOM     44  N   UNL A   1      42.139  30.002  29.516  1.00  0.00    -0.248 NA
ATOM     45  C   UNL A   1      40.195  31.216  29.963  1.00  0.00     0.031 C 
ATOM     46  C   UNL A   1      39.578  26.450  28.514  1.00  0.00     0.029 A 
ATOM     47  N   UNL A   1      41.678  27.162  28.815  1.00  0.00    -0.354 N 
ATOM     48  C   UNL A   1      42.476  31.273  29.965  1.00  0.00     0.074 A 
ATOM     49  C   UNL A   1      41.244  31.991  30.194  1.00  0.00     0.031 C 
ATOM     50  C   UNL A   1      40.400  25.410  28.278  1.00  0.00     0.029 A 
ATOM     51  C   UNL A   1      41.787  25.857  28.396  1.00  0.00     0.049 A 
ATOM     52  H   UNL A   1      42.453  27.714  29.067  1.00  0.00     0.167 HD
ATOM     53  C   UNL A   1      43.708  31.792  30.175  1.00  0.00     0.037 A 
ATOM     54  C   UNL A   1      42.884  25.128  28.102  1.00  0.00     0.037 A 
ATOM     55  C   UNL A   1      44.928  31.073  29.935  1.00  0.00     0.049 A 
ATOM     56  C   UNL A   1      44.249  25.766  28.236  1.00  0.00     0.074 A 
ATOM     57  C   UNL A   1      46.230  31.516  30.081  1.00  0.00     0.029 A 
ATOM     58  N   UNL A   1      44.997  29.757  29.504  1.00  0.00    -0.354 N 
ATOM     59  N   UNL A   1      44.560  26.976  28.639  1.00  0.00    -0.248 NA
ATOM     60  C   UNL A   1      45.413  24.944  27.871  1.00  0.00     0.031 C 
ATOM     61  C   UNL A   1      47.086  30.480  29.700  1.00  0.00     0.029 A 
ATOM     62  C   UNL A   1      46.319  29.373  29.376  1.00  0.00     0.049 A 
ATOM     63  H   UNL A   1      44.220  29.181  29.318  1.00  0.00     0.167 HD
ATOM     64  C   UNL A   1      45.952  27.036  28.630  1.00  0.00     0.074 A 
ATOM     65  C   UNL A   1      46.424  25.749  28.173  1.00  0.00     0.031 C 
ATOM     66  C   UNL A   1      46.766  28.063  28.977  1.00  0.00     0.037 A 
BRANCH  53  67
ATOM     67  C   UNL A   1      43.799  33.204  30.676  1.00  0.00     0.058 A 
ATOM     68  C   UNL A   1      43.845  33.492  32.049  1.00  0.00     0.135 A 
ATOM     69  C   UNL A   1      43.908  34.277  29.776  1.00  0.00     0.135 A 
ATOM     70  F   UNL A   1      43.719  32.506  32.952  1.00  0.00    -0.206 F 
ATOM     71  C   UNL A   1      43.989  34.795  32.513  1.00  0.00     0.059 A 
ATOM     72  C   UNL A   1      44.081  35.586  30.218  1.00  0.00     0.059 A 
ATOM     73  F   UNL A   1      43.859  34.057  28.453  1.00  0.00    -0.206 F 
ATOM     74  C   UNL A   1      44.116  35.833  31.589  1.00  0.00     0.060 A 
BRANCH  74  75
ATOM     75  S   UNL A   1      44.345  37.512  32.212  1.00  0.00     0.124 S 
ATOM     76  O   UNL A   1      43.933  38.309  31.061  1.00  0.00    -0.237 OA
ATOM     77  O   UNL A   1      43.443  37.542  33.359  1.00  0.00    -0.237 OA
ATOM     78  O   UNL A   1      45.767  37.565  32.534  1.00  0.00    -0.744 OA
ENDBRANCH  74  75
ENDBRANCH  53  67
BRANCH  54  79
ATOM     79  C   UNL A   1      42.762  23.725  27.614  1.00  0.00     0.058 A 
ATOM     80  C   UNL A   1      42.558  23.448  26.253  1.00  0.00     0.135 A 
ATOM     81  C   UNL A   1      42.780  22.638  28.502  1.00  0.00     0.135 A 
ATOM     82  F   UNL A   1      42.523  24.452  25.363  1.00  0.00    -0.206 F 
ATOM     83  C   UNL A   1      42.328  22.153  25.797  1.00  0.00     0.059 A 
ATOM     84  C   UNL A   1      42.585  21.331  28.065  1.00  0.00     0.059 A 
ATOM     85  F   UNL A   1      42.983  22.841  29.813  1.00  0.00    -0.206 F 
ATOM     86  C   UNL A   1      42.335  21.101  26.714  1.00  0.00     0.060 A 
BRANCH  86  87
ATOM     87  S   UNL A   1      42.008  19.429  26.114  1.00  0.00     0.124 S 
ATOM     88  O   UNL A   1      42.852  19.375  24.926  1.00  0.00    -0.237 OA
ATOM     89  O   UNL A   1      42.441  18.609  27.241  1.00  0.00    -0.237 OA
ATOM     90  O   UNL A   1      40.570  19.437  25.866  1.00  0.00    -0.744 OA
ENDBRANCH  86  87
ENDBRANCH  54  79
BRANCH  66  91
ATOM     91  C   UNL A   1      48.252  27.826  28.980  1.00  0.00     0.058 A 
ATOM     92  C   UNL A   1      49.061  28.146  27.882  1.00  0.00     0.135 A 
ATOM     93  C   UNL A   1      48.883  27.384  30.156  1.00  0.00     0.135 A 
ATOM     94  F   UNL A   1      48.508  28.567  26.733  1.00  0.00    -0.206 F 
ATOM     95  C   UNL A   1      50.448  28.040  27.948  1.00  0.00     0.059 A 
ATOM     96  C   UNL A   1      50.267  27.297  30.255  1.00  0.00     0.059 A 
ATOM     97  F   UNL A   1      48.152  27.074  31.239  1.00  0.00    -0.206 F 
ATOM     98  C   UNL A   1      51.042  27.627  29.145  1.00  0.00     0.060 A 
BRANCH  98  99
ATOM     99  S   UNL A   1      52.844  27.583  29.245  1.00  0.00     0.124 S 
ATOM    100  O   UNL A   1      53.223  27.816  27.856  1.00  0.00    -0.237 OA
ATOM    101  O   UNL A   1      53.130  28.673  30.173  1.00  0.00    -0.237 OA
ATOM    102  O   UNL A   1      53.124  26.244  29.755  1.00  0.00    -0.744 OA
ENDBRANCH  98  99
ENDBRANCH  66  91
ENDBRANCH  40  41
ENDBRANCH  33  35
ENDBRANCH  32  33
ENDBRANCH  31  32
ENDBRANCH  30  31
ENDBRANCH  29  30
ENDBRANCH  28  29
ENDBRANCH  27  28
ENDBRANCH   1  27
TORSDOF 26
ENDMDL
MODEL 2
REMARK VINA RESULT:      -9.3      4.800      6.152
REMARK SMILES C[C@H](NC(=O)N1CC[C@H](C(=O)OCCOCCOCCOCCOC(=O)c2ccc(-c3c4nc(c(-c5c(F)cc(S(=O)(=O)[O-])cc5F)c5ccc([nH]5)c(-c5c(F)cc(S(=O)(=O)[O-])cc5F)c5nc(c(-c6c(F)cc(S(=O)(=O)[O-])cc6F)c6ccc3[nH]6)C=C5)C=C4)cc2)[C@H]1C)c1ccsc1
REMARK SMILES IDX 18 1 17 2 16 3 15 4 14 5 13 6 12 7 10 8 11 9 9 10 6 11 7 12
REMARK SMILES IDX 93 13 8 14 94 15 4 16 3 17 5 19 2 20 1 21 95 22 96 23 99 24
REMARK SMILES IDX 97 25 98 26 19 27 20 28 21 29 22 30 23 31 24 32 25 33 26 34
REMARK SMILES IDX 27 35 28 36 92 37 29 38 91 39 30 40 31 41 32 42 85 43 33 44
REMARK SMILES IDX 90 45 84 46 86 47 34 48 89 49 83 50 82 51 35 53 69 54 48 55
REMARK SMILES IDX 68 56 49 57 52 58 67 59 87 60 50 61 51 62 66 64 88 65 53 66
REMARK SMILES IDX 36 67 37 68 46 69 38 70 39 71 45 72 47 73 40 74 41 75 42 76
REMARK SMILES IDX 43 77 44 78 70 79 71 80 80 81 72 82 73 83 79 84 81 85 74 86
REMARK SMILES IDX 75 87 76 88 77 89 78 90 54 91 55 92 64 93 56 94 57 95 63 96
REMARK SMILES IDX 65 97 58 98 59 99 60 100 61 101 62 102
REMARK H PARENT 3 18 86 52 52 63
REMARK Flexibility Score: inf
ROOT
ATOM      1  O   UNL A   1      32.029  28.372  24.481  1.00  0.00    -0.377 OA
ENDROOT
BRANCH   1   2
ATOM      2  C   UNL A   1      31.852  28.390  23.085  1.00  0.00     0.188 C 
BRANCH   2   3
ATOM      3  C   UNL A   1      30.390  28.226  22.633  1.00  0.00     0.188 C 
BRANCH   3   4
ATOM      4  O   UNL A   1      29.417  27.664  23.499  1.00  0.00    -0.376 OA
BRANCH   4   5
ATOM      5  C   UNL A   1      29.454  26.309  23.936  1.00  0.00     0.202 C 
BRANCH   5   6
ATOM      6  C   UNL A   1      29.799  25.847  25.361  1.00  0.00     0.261 C 
BRANCH   6   7
ATOM      7  O   UNL A   1      30.822  24.860  25.440  1.00  0.00    -0.463 OA
BRANCH   7   8
ATOM      8  C   UNL A   1      32.093  25.324  25.494  1.00  0.00     0.311 C 
ATOM      9  O   UNL A   1      32.590  25.894  26.458  1.00  0.00    -0.252 OA
BRANCH   8  10
ATOM     10  C   UNL A   1      32.907  24.812  24.326  1.00  0.00     0.123 C 
ATOM     11  N   UNL A   1      34.154  22.988  25.106  1.00  0.00    -0.321 N 
ATOM     12  C   UNL A   1      35.019  24.159  25.190  1.00  0.00     0.122 C 
ATOM     13  C   UNL A   1      32.941  23.288  24.323  1.00  0.00     0.098 C 
ATOM     14  C   UNL A   1      34.389  25.187  24.282  1.00  0.00     0.039 C 
ATOM     15  C   UNL A   1      32.982  22.846  22.852  1.00  0.00     0.032 C 
BRANCH  11  16
ATOM     16  C   UNL A   1      34.116  22.172  26.213  1.00  0.00     0.318 C 
ATOM     17  N   UNL A   1      34.146  20.835  26.029  1.00  0.00    -0.331 N 
ATOM     18  H   UNL A   1      33.795  20.287  26.767  1.00  0.00     0.165 HD
ATOM     19  O   UNL A   1      34.081  22.596  27.366  1.00  0.00    -0.249 OA
BRANCH  17  20
ATOM     20  C   UNL A   1      34.633  20.117  24.876  1.00  0.00     0.112 C 
ATOM     21  C   UNL A   1      36.154  20.077  24.875  1.00  0.00     0.036 C 
BRANCH  20  22
ATOM     22  C   UNL A   1      33.981  18.755  24.825  1.00  0.00    -0.015 A 
ATOM     23  C   UNL A   1      32.839  18.386  25.620  1.00  0.00     0.017 A 
ATOM     24  C   UNL A   1      34.407  17.666  24.081  1.00  0.00     0.070 A 
ATOM     25  C   UNL A   1      32.509  17.055  25.505  1.00  0.00     0.065 A 
ATOM     26  S   UNL A   1      33.503  16.247  24.380  1.00  0.00    -0.152 S 
ENDBRANCH  20  22
ENDBRANCH  17  20
ENDBRANCH  11  16
ENDBRANCH   8  10
ENDBRANCH   7   8
ENDBRANCH   6   7
ENDBRANCH   5   6
ENDBRANCH   4   5
ENDBRANCH   3   4
ENDBRANCH   2   3
ENDBRANCH   1   2
BRANCH   1  27
ATOM     27  C   UNL A   1      31.820  29.574  25.208  1.00  0.00     0.188 C 
BRANCH  27  28
ATOM     28  C   UNL A   1      32.859  30.051  26.247  1.00  0.00     0.188 C 
BRANCH  28  29
ATOM     29  O   UNL A   1      32.397  31.038  27.160  1.00  0.00    -0.376 OA
BRANCH  29  30
ATOM     30  C   UNL A   1      33.329  31.991  27.650  1.00  0.00     0.202 C 
BRANCH  30  31
ATOM     31  C   UNL A   1      32.965  33.475  27.479  1.00  0.00     0.261 C 
BRANCH  31  32
ATOM     32  O   UNL A   1      32.391  34.124  28.621  1.00  0.00    -0.460 OA
BRANCH  32  33
ATOM     33  C   UNL A   1      33.042  35.197  29.131  1.00  0.00     0.338 C 
ATOM     34  O   UNL A   1      32.699  36.353  29.089  1.00  0.00    -0.246 OA
BRANCH  33  35
ATOM     35  C   UNL A   1      34.177  34.675  29.926  1.00  0.00     0.060 A 
ATOM     36  C   UNL A   1      35.455  34.636  29.351  1.00  0.00     0.016 A 
ATOM     37  C   UNL A   1      33.969  34.236  31.233  1.00  0.00     0.016 A 
ATOM     38  C   UNL A   1      36.529  34.117  30.078  1.00  0.00     0.010 A 
ATOM     39  C   UNL A   1      35.037  33.695  31.947  1.00  0.00     0.010 A 
ATOM     40  C   UNL A   1      36.312  33.600  31.361  1.00  0.00    -0.014 A 
BRANCH  40  41
ATOM     41  C   UNL A   1      37.325  32.735  32.010  1.00  0.00     0.031 A 
ATOM     42  C   UNL A   1      37.867  33.188  33.340  1.00  0.00     0.074 A 
ATOM     43  C   UNL A   1      37.781  31.611  31.431  1.00  0.00     0.049 A 
ATOM     44  N   UNL A   1      38.892  32.742  34.014  1.00  0.00    -0.248 NA
ATOM     45  C   UNL A   1      37.159  34.307  33.988  1.00  0.00     0.031 C 
ATOM     46  C   UNL A   1      37.284  31.035  30.182  1.00  0.00     0.029 A 
ATOM     47  N   UNL A   1      38.793  30.764  31.812  1.00  0.00    -0.354 N 
ATOM     48  C   UNL A   1      38.956  33.527  35.159  1.00  0.00     0.074 A 
ATOM     49  C   UNL A   1      37.887  34.496  35.077  1.00  0.00     0.031 C 
ATOM     50  C   UNL A   1      38.014  29.944  29.885  1.00  0.00     0.029 A 
ATOM     51  C   UNL A   1      39.059  29.776  30.894  1.00  0.00     0.049 A 
ATOM     52  H   UNL A   1      39.280  30.855  32.663  1.00  0.00     0.167 HD
ATOM     53  C   UNL A   1      39.826  33.441  36.191  1.00  0.00     0.037 A 
ATOM     54  C   UNL A   1      40.060  28.871  30.857  1.00  0.00     0.037 A 
ATOM     55  C   UNL A   1      40.891  32.479  36.258  1.00  0.00     0.049 A 
ATOM     56  C   UNL A   1      41.088  28.867  31.967  1.00  0.00     0.074 A 
ATOM     57  C   UNL A   1      41.851  32.327  37.243  1.00  0.00     0.029 A 
ATOM     58  N   UNL A   1      41.132  31.501  35.306  1.00  0.00    -0.354 N 
ATOM     59  N   UNL A   1      41.157  29.628  33.034  1.00  0.00    -0.248 NA
ATOM     60  C   UNL A   1      42.181  27.886  31.865  1.00  0.00     0.031 C 
ATOM     61  C   UNL A   1      42.698  31.282  36.864  1.00  0.00     0.029 A 
ATOM     62  C   UNL A   1      42.228  30.744  35.677  1.00  0.00     0.049 A 
ATOM     63  H   UNL A   1      40.601  31.364  34.488  1.00  0.00     0.167 HD
ATOM     64  C   UNL A   1      42.260  29.177  33.755  1.00  0.00     0.074 A 
ATOM     65  C   UNL A   1      42.837  28.088  33.000  1.00  0.00     0.031 C 
ATOM     66  C   UNL A   1      42.748  29.622  34.939  1.00  0.00     0.037 A 
BRANCH  53  67
ATOM     67  C   UNL A   1      39.672  34.416  37.323  1.00  0.00     0.058 A 
ATOM     68  C   UNL A   1      39.003  34.065  38.505  1.00  0.00     0.135 A 
ATOM     69  C   UNL A   1      40.256  35.691  37.252  1.00  0.00     0.135 A 
ATOM     70  F   UNL A   1      38.405  32.867  38.615  1.00  0.00    -0.206 F 
ATOM     71  C   UNL A   1      38.912  34.946  39.577  1.00  0.00     0.059 A 
ATOM     72  C   UNL A   1      40.202  36.579  38.323  1.00  0.00     0.059 A 
ATOM     73  F   UNL A   1      40.898  36.080  36.140  1.00  0.00    -0.206 F 
ATOM     74  C   UNL A   1      39.523  36.197  39.479  1.00  0.00     0.060 A 
BRANCH  74  75
ATOM     75  S   UNL A   1      39.429  37.311  40.896  1.00  0.00     0.124 S 
ATOM     76  O   UNL A   1      38.858  36.438  41.916  1.00  0.00    -0.237 OA
ATOM     77  O   UNL A   1      40.827  37.683  41.090  1.00  0.00    -0.237 OA
ATOM     78  O   UNL A   1      38.557  38.384  40.430  1.00  0.00    -0.744 OA
ENDBRANCH  74  75
ENDBRANCH  53  67
BRANCH  54  79
ATOM     79  C   UNL A   1      40.181  27.910  29.724  1.00  0.00     0.058 A 
ATOM     80  C   UNL A   1      39.427  26.727  29.697  1.00  0.00     0.135 A 
ATOM     81  C   UNL A   1      41.098  28.120  28.682  1.00  0.00     0.135 A 
ATOM     82  F   UNL A   1      38.543  26.473  30.675  1.00  0.00    -0.206 F 
ATOM     83  C   UNL A   1      39.611  25.765  28.708  1.00  0.00     0.059 A 
ATOM     84  C   UNL A   1      41.275  27.189  27.663  1.00  0.00     0.059 A 
ATOM     85  F   UNL A   1      41.837  29.239  28.649  1.00  0.00    -0.206 F 
ATOM     86  C   UNL A   1      40.545  26.002  27.698  1.00  0.00     0.060 A 
BRANCH  86  87
ATOM     87  S   UNL A   1      40.793  24.736  26.434  1.00  0.00     0.124 S 
ATOM     88  O   UNL A   1      39.433  24.538  25.949  1.00  0.00    -0.237 OA
ATOM     89  O   UNL A   1      41.710  25.399  25.513  1.00  0.00    -0.237 OA
ATOM     90  O   UNL A   1      41.363  23.621  27.186  1.00  0.00    -0.744 OA
ENDBRANCH  86  87
ENDBRANCH  54  79
BRANCH  66  91
ATOM     91  C   UNL A   1      43.901  28.880  35.560  1.00  0.00     0.058 A 
ATOM     92  C   UNL A   1      43.711  27.786  36.415  1.00  0.00     0.135 A 
ATOM     93  C   UNL A   1      45.218  29.203  35.188  1.00  0.00     0.135 A 
ATOM     94  F   UNL A   1      42.473  27.439  36.806  1.00  0.00    -0.206 F 
ATOM     95  C   UNL A   1      44.785  27.033  36.878  1.00  0.00     0.059 A 
ATOM     96  C   UNL A   1      46.304  28.449  35.615  1.00  0.00     0.059 A 
ATOM     97  F   UNL A   1      45.452  30.236  34.363  1.00  0.00    -0.206 F 
ATOM     98  C   UNL A   1      46.078  27.365  36.462  1.00  0.00     0.060 A 
BRANCH  98  99
ATOM     99  S   UNL A   1      47.453  26.324  36.996  1.00  0.00     0.124 S 
ATOM    100  O   UNL A   1      47.335  26.402  38.449  1.00  0.00    -0.237 OA
ATOM    101  O   UNL A   1      47.116  25.034  36.401  1.00  0.00    -0.237 OA
ATOM    102  O   UNL A   1      48.623  26.984  36.426  1.00  0.00    -0.744 OA
ENDBRANCH  98  99
ENDBRANCH  66  91
ENDBRANCH  40  41
ENDBRANCH  33  35
ENDBRANCH  32  33
ENDBRANCH  31  32
ENDBRANCH  30  31
ENDBRANCH  29  30
ENDBRANCH  28  29
ENDBRANCH  27  28
ENDBRANCH   1  27
TORSDOF 26
ENDMDL
MODEL 3
REMARK VINA RESULT:      -8.4      4.908      6.260
REMARK SMILES C[C@H](NC(=O)N1CC[C@H](C(=O)OCCOCCOCCOCCOC(=O)c2ccc(-c3c4nc(c(-c5c(F)cc(S(=O)(=O)[O-])cc5F)c5ccc([nH]5)c(-c5c(F)cc(S(=O)(=O)[O-])cc5F)c5nc(c(-c6c(F)cc(S(=O)(=O)[O-])cc6F)c6ccc3[nH]6)C=C5)C=C4)cc2)[C@H]1C)c1ccsc1
REMARK SMILES IDX 18 1 17 2 16 3 15 4 14 5 13 6 12 7 10 8 11 9 9 10 6 11 7 12
REMARK SMILES IDX 93 13 8 14 94 15 4 16 3 17 5 19 2 20 1 21 95 22 96 23 99 24
REMARK SMILES IDX 97 25 98 26 19 27 20 28 21 29 22 30 23 31 24 32 25 33 26 34
REMARK SMILES IDX 27 35 28 36 92 37 29 38 91 39 30 40 31 41 32 42 85 43 33 44
REMARK SMILES IDX 90 45 84 46 86 47 34 48 89 49 83 50 82 51 35 53 69 54 48 55
REMARK SMILES IDX 68 56 49 57 52 58 67 59 87 60 50 61 51 62 66 64 88 65 53 66
REMARK SMILES IDX 36 67 37 68 46 69 38 70 39 71 45 72 47 73 40 74 41 75 42 76
REMARK SMILES IDX 43 77 44 78 70 79 71 80 80 81 72 82 73 83 79 84 81 85 74 86
REMARK SMILES IDX 75 87 76 88 77 89 78 90 54 91 55 92 64 93 56 94 57 95 63 96
REMARK SMILES IDX 65 97 58 98 59 99 60 100 61 101 62 102
REMARK H PARENT 3 18 86 52 52 63
REMARK Flexibility Score: inf
ROOT
ATOM      1  O   UNL A   1      33.258  28.725  25.681  1.00  0.00    -0.377 OA
ENDROOT
BRANCH   1   2
ATOM      2  C   UNL A   1      34.077  28.562  24.548  1.00  0.00     0.188 C 
BRANCH   2   3
ATOM      3  C   UNL A   1      33.553  29.267  23.284  1.00  0.00     0.188 C 
BRANCH   3   4
ATOM      4  O   UNL A   1      32.669  28.605  22.394  1.00  0.00    -0.376 OA
BRANCH   4   5
ATOM      5  C   UNL A   1      32.912  27.298  21.884  1.00  0.00     0.202 C 
BRANCH   5   6
ATOM      6  C   UNL A   1      31.852  26.195  21.731  1.00  0.00     0.261 C 
BRANCH   6   7
ATOM      7  O   UNL A   1      31.773  25.284  22.823  1.00  0.00    -0.463 OA
BRANCH   7   8
ATOM      8  C   UNL A   1      32.007  25.804  24.050  1.00  0.00     0.311 C 
ATOM      9  O   UNL A   1      31.201  26.464  24.696  1.00  0.00    -0.252 OA
BRANCH   8  10
ATOM     10  C   UNL A   1      33.280  25.243  24.643  1.00  0.00     0.123 C 
ATOM     11  N   UNL A   1      32.843  23.015  25.222  1.00  0.00    -0.321 N 
ATOM     12  C   UNL A   1      32.639  23.812  26.425  1.00  0.00     0.122 C 
ATOM     13  C   UNL A   1      33.505  23.810  24.172  1.00  0.00     0.098 C 
ATOM     14  C   UNL A   1      33.353  25.117  26.165  1.00  0.00     0.039 C 
ATOM     15  C   UNL A   1      35.025  23.613  24.057  1.00  0.00     0.032 C 
BRANCH  11  16
ATOM     16  C   UNL A   1      31.866  22.094  24.922  1.00  0.00     0.318 C 
ATOM     17  N   UNL A   1      32.227  20.806  24.745  1.00  0.00    -0.331 N 
ATOM     18  H   UNL A   1      31.605  20.248  24.225  1.00  0.00     0.165 HD
ATOM     19  O   UNL A   1      30.674  22.378  24.831  1.00  0.00    -0.249 OA
BRANCH  17  20
ATOM     20  C   UNL A   1      33.419  20.153  25.228  1.00  0.00     0.112 C 
ATOM     21  C   UNL A   1      33.666  20.503  26.688  1.00  0.00     0.036 C 
BRANCH  20  22
ATOM     22  C   UNL A   1      33.319  18.669  24.960  1.00  0.00    -0.015 A 
ATOM     23  C   UNL A   1      32.508  17.770  25.740  1.00  0.00     0.017 A 
ATOM     24  C   UNL A   1      34.017  17.956  23.998  1.00  0.00     0.070 A 
ATOM     25  C   UNL A   1      32.682  16.450  25.397  1.00  0.00     0.065 A 
ATOM     26  S   UNL A   1      33.750  16.270  24.079  1.00  0.00    -0.152 S 
ENDBRANCH  20  22
ENDBRANCH  17  20
ENDBRANCH  11  16
ENDBRANCH   8  10
ENDBRANCH   7   8
ENDBRANCH   6   7
ENDBRANCH   5   6
ENDBRANCH   4   5
ENDBRANCH   3   4
ENDBRANCH   2   3
ENDBRANCH   1   2
BRANCH   1  27
ATOM     27  C   UNL A   1      33.228  29.991  26.322  1.00  0.00     0.188 C 
BRANCH  27  28
ATOM     28  C   UNL A   1      34.033  30.232  27.619  1.00  0.00     0.188 C 
BRANCH  28  29
ATOM     29  O   UNL A   1      33.977  31.555  28.133  1.00  0.00    -0.376 OA
BRANCH  29  30
ATOM     30  C   UNL A   1      33.624  32.608  27.247  1.00  0.00     0.202 C 
BRANCH  30  31
ATOM     31  C   UNL A   1      32.409  33.466  27.631  1.00  0.00     0.261 C 
BRANCH  31  32
ATOM     32  O   UNL A   1      32.516  34.209  28.852  1.00  0.00    -0.460 OA
BRANCH  32  33
ATOM     33  C   UNL A   1      33.466  35.172  28.924  1.00  0.00     0.338 C 
ATOM     34  O   UNL A   1      33.392  36.308  28.524  1.00  0.00    -0.246 OA
BRANCH  33  35
ATOM     35  C   UNL A   1      34.562  34.634  29.760  1.00  0.00     0.060 A 
ATOM     36  C   UNL A   1      35.856  34.556  29.226  1.00  0.00     0.016 A 
ATOM     37  C   UNL A   1      34.304  34.220  31.066  1.00  0.00     0.016 A 
ATOM     38  C   UNL A   1      36.894  34.022  29.992  1.00  0.00     0.010 A 
ATOM     39  C   UNL A   1      35.336  33.663  31.821  1.00  0.00     0.010 A 
ATOM     40  C   UNL A   1      36.626  33.529  31.275  1.00  0.00    -0.014 A 
BRANCH  40  41
ATOM     41  C   UNL A   1      37.597  32.650  31.968  1.00  0.00     0.031 A 
ATOM     42  C   UNL A   1      38.135  33.124  33.291  1.00  0.00     0.074 A 
ATOM     43  C   UNL A   1      38.020  31.491  31.431  1.00  0.00     0.049 A 
ATOM     44  N   UNL A   1      39.132  32.663  33.995  1.00  0.00    -0.248 NA
ATOM     45  C   UNL A   1      37.458  34.288  33.892  1.00  0.00     0.031 C 
ATOM     46  C   UNL A   1      37.521  30.895  30.193  1.00  0.00     0.029 A 
ATOM     47  N   UNL A   1      38.994  30.621  31.855  1.00  0.00    -0.354 N 
ATOM     48  C   UNL A   1      39.208  33.482  35.116  1.00  0.00     0.074 A 
ATOM     49  C   UNL A   1      38.177  34.485  34.987  1.00  0.00     0.031 C 
ATOM     50  C   UNL A   1      38.215  29.770  29.942  1.00  0.00     0.029 A 
ATOM     51  C   UNL A   1      39.238  29.596  30.972  1.00  0.00     0.049 A 
ATOM     52  H   UNL A   1      39.472  30.722  32.709  1.00  0.00     0.167 HD
ATOM     53  C   UNL A   1      40.059  33.397  36.164  1.00  0.00     0.037 A 
ATOM     54  C   UNL A   1      40.206  28.655  30.979  1.00  0.00     0.037 A 
ATOM     55  C   UNL A   1      41.087  32.400  36.278  1.00  0.00     0.049 A 
ATOM     56  C   UNL A   1      41.217  28.649  32.105  1.00  0.00     0.074 A 
ATOM     57  C   UNL A   1      42.027  32.245  37.282  1.00  0.00     0.029 A 
ATOM     58  N   UNL A   1      41.306  31.384  35.361  1.00  0.00    -0.354 N 
ATOM     59  N   UNL A   1      41.297  29.441  33.149  1.00  0.00    -0.248 NA
ATOM     60  C   UNL A   1      42.274  27.627  32.052  1.00  0.00     0.031 C 
ATOM     61  C   UNL A   1      42.840  31.159  36.950  1.00  0.00     0.029 A 
ATOM     62  C   UNL A   1      42.369  30.601  35.773  1.00  0.00     0.049 A 
ATOM     63  H   UNL A   1      40.783  31.241  34.539  1.00  0.00     0.167 HD
ATOM     64  C   UNL A   1      42.372  28.973  33.901  1.00  0.00     0.074 A 
ATOM     65  C   UNL A   1      42.921  27.841  33.190  1.00  0.00     0.031 C 
ATOM     66  C   UNL A   1      42.859  29.437  35.078  1.00  0.00     0.037 A 
BRANCH  53  67
ATOM     67  C   UNL A   1      39.924  34.412  37.262  1.00  0.00     0.058 A 
ATOM     68  C   UNL A   1      40.561  35.660  37.187  1.00  0.00     0.135 A 
ATOM     69  C   UNL A   1      39.100  34.161  38.371  1.00  0.00     0.135 A 
ATOM     70  F   UNL A   1      41.380  35.942  36.161  1.00  0.00    -0.206 F 
ATOM     71  C   UNL A   1      40.389  36.624  38.174  1.00  0.00     0.059 A 
ATOM     72  C   UNL A   1      38.891  35.120  39.357  1.00  0.00     0.059 A 
ATOM     73  F   UNL A   1      38.477  32.979  38.497  1.00  0.00    -0.206 F 
ATOM     74  C   UNL A   1      39.545  36.347  39.251  1.00  0.00     0.060 A 
BRANCH  74  75
ATOM     75  S   UNL A   1      39.303  37.626  40.502  1.00  0.00     0.124 S 
ATOM     76  O   UNL A   1      38.150  38.343  39.967  1.00  0.00    -0.237 OA
ATOM     77  O   UNL A   1      39.057  36.838  41.705  1.00  0.00    -0.237 OA
ATOM     78  O   UNL A   1      40.562  38.363  40.484  1.00  0.00    -0.744 OA
ENDBRANCH  74  75
ENDBRANCH  53  67
BRANCH  54  79
ATOM     79  C   UNL A   1      40.309  27.655  29.879  1.00  0.00     0.058 A 
ATOM     80  C   UNL A   1      41.241  27.815  28.842  1.00  0.00     0.135 A 
ATOM     81  C   UNL A   1      39.437  26.557  29.806  1.00  0.00     0.135 A 
ATOM     82  F   UNL A   1      42.091  28.853  28.859  1.00  0.00    -0.206 F 
ATOM     83  C   UNL A   1      41.273  26.954  27.748  1.00  0.00     0.059 A 
ATOM     84  C   UNL A   1      39.473  25.663  28.739  1.00  0.00     0.059 A 
ATOM     85  F   UNL A   1      38.534  26.347  30.775  1.00  0.00    -0.206 F 
ATOM     86  C   UNL A   1      40.378  25.885  27.702  1.00  0.00     0.060 A 
BRANCH  86  87
ATOM     87  S   UNL A   1      40.411  24.789  26.266  1.00  0.00     0.124 S 
ATOM     88  O   UNL A   1      40.926  25.680  25.233  1.00  0.00    -0.237 OA
ATOM     89  O   UNL A   1      41.316  23.733  26.707  1.00  0.00    -0.237 OA
ATOM     90  O   UNL A   1      39.015  24.391  26.117  1.00  0.00    -0.744 OA
ENDBRANCH  86  87
ENDBRANCH  54  79
BRANCH  66  91
ATOM     91  C   UNL A   1      43.974  28.675  35.740  1.00  0.00     0.058 A 
ATOM     92  C   UNL A   1      45.319  29.039  35.590  1.00  0.00     0.135 A 
ATOM     93  C   UNL A   1      43.670  27.637  36.639  1.00  0.00     0.135 A 
ATOM     94  F   UNL A   1      45.664  30.019  34.739  1.00  0.00    -0.206 F 
ATOM     95  C   UNL A   1      46.327  28.403  36.309  1.00  0.00     0.059 A 
ATOM     96  C   UNL A   1      44.656  27.008  37.389  1.00  0.00     0.059 A 
ATOM     97  F   UNL A   1      42.395  27.259  36.826  1.00  0.00    -0.206 F 
ATOM     98  C   UNL A   1      45.983  27.397  37.217  1.00  0.00     0.060 A 
BRANCH  98  99
ATOM     99  S   UNL A   1      47.290  26.645  38.211  1.00  0.00     0.124 S 
ATOM    100  O   UNL A   1      48.433  26.732  37.308  1.00  0.00    -0.237 OA
ATOM    101  O   UNL A   1      47.334  27.520  39.378  1.00  0.00    -0.237 OA
ATOM    102  O   UNL A   1      46.792  25.296  38.464  1.00  0.00    -0.744 OA
ENDBRANCH  98  99
ENDBRANCH  66  91
ENDBRANCH  40  41
ENDBRANCH  33  35
ENDBRANCH  32  33
ENDBRANCH  31  32
ENDBRANCH  30  31
ENDBRANCH  29  30
ENDBRANCH  28  29
ENDBRANCH  27  28
ENDBRANCH   1  27
TORSDOF 26
ENDMDL
