MODEL 1
REMARK VINA RESULT:      -9.1      0.000      0.000
REMARK SMILES O=C(CC1=c2ccccc2=NC1)OCCOCCOCCOCCOC(=O)c1ccc(-c2c3nc(c(-c4c(F)cc(S(=O)(=O)[O-])cc4F)c4ccc([nH]4)c(-c4c(F)cc(S(=O)(=O)[O-])cc4F)c4nc(c(-c5c(F)cc(S(=O)(=O)[O-])cc5F)c5ccc2[nH]5)C=C4)C=C3)cc1
REMARK SMILES IDX 20 1 19 2 18 3 17 4 16 5 15 6 14 7 13 8 2 9 1 10 3 11 4 12
REMARK SMILES IDX 5 13 12 14 6 15 10 16 11 17 7 18 9 19 8 20 21 21 22 22 23 23
REMARK SMILES IDX 24 24 25 25 26 26 27 27 28 28 29 29 93 30 30 31 92 32 31 33
REMARK SMILES IDX 32 34 33 35 86 36 34 37 91 38 85 39 87 40 35 41 90 42 84 43
REMARK SMILES IDX 83 44 36 46 70 47 49 48 69 49 50 50 53 51 68 52 88 53 51 54
REMARK SMILES IDX 52 55 67 57 89 58 54 59 37 60 38 61 47 62 39 63 40 64 46 65
REMARK SMILES IDX 48 66 41 67 42 68 43 69 44 70 45 71 71 72 72 73 81 74 73 75
REMARK SMILES IDX 74 76 80 77 82 78 75 79 76 80 77 81 78 82 79 83 55 84 56 85
REMARK SMILES IDX 65 86 57 87 58 88 64 89 66 90 59 91 60 92 61 93 62 94 63 95
REMARK H PARENT 87 45 53 56
REMARK Flexibility Score: inf
ROOT
ATOM      1  C   UNL A   1      34.969  22.098  26.629  1.00  0.00     0.188 C 
ENDROOT
BRANCH   1   2
ATOM      2  O   UNL A   1      33.680  21.617  26.945  1.00  0.00    -0.377 OA
BRANCH   2   3
ATOM      3  C   UNL A   1      32.866  22.547  27.643  1.00  0.00     0.188 C 
BRANCH   3   4
ATOM      4  C   UNL A   1      31.829  23.234  26.761  1.00  0.00     0.188 C 
BRANCH   4   5
ATOM      5  O   UNL A   1      32.202  23.775  25.497  1.00  0.00    -0.376 OA
BRANCH   5   6
ATOM      6  C   UNL A   1      32.940  24.976  25.354  1.00  0.00     0.202 C 
BRANCH   6   7
ATOM      7  C   UNL A   1      33.529  25.389  24.011  1.00  0.00     0.261 C 
BRANCH   7   8
ATOM      8  O   UNL A   1      33.664  26.793  23.782  1.00  0.00    -0.463 OA
BRANCH   8   9
ATOM      9  C   UNL A   1      32.632  27.663  23.706  1.00  0.00     0.310 C 
ATOM     10  O   UNL A   1      32.449  28.290  22.662  1.00  0.00    -0.252 OA
BRANCH   9  11
ATOM     11  C   UNL A   1      31.808  27.984  24.947  1.00  0.00     0.156 C 
BRANCH  11  12
ATOM     12  C   UNL A   1      32.163  29.235  25.662  1.00  0.00    -0.028 C 
ATOM     13  C   UNL A   1      33.247  29.497  26.388  1.00  0.00     0.001 A 
ATOM     14  C   UNL A   1      31.236  30.411  25.635  1.00  0.00     0.175 C 
ATOM     15  C   UNL A   1      34.430  28.785  26.754  1.00  0.00     0.010 A 
ATOM     16  C   UNL A   1      32.969  30.849  26.895  1.00  0.00     0.065 A 
ATOM     17  N   UNL A   1      31.876  31.427  26.500  1.00  0.00    -0.280 NA
ATOM     18  C   UNL A   1      35.284  29.355  27.620  1.00  0.00     0.001 A 
ATOM     19  C   UNL A   1      33.958  31.412  27.838  1.00  0.00     0.028 A 
ATOM     20  C   UNL A   1      35.033  30.678  28.169  1.00  0.00     0.002 A 
ENDBRANCH  11  12
ENDBRANCH   9  11
ENDBRANCH   8   9
ENDBRANCH   7   8
ENDBRANCH   6   7
ENDBRANCH   5   6
ENDBRANCH   4   5
ENDBRANCH   3   4
ENDBRANCH   2   3
ENDBRANCH   1   2
BRANCH   1  21
ATOM     21  C   UNL A   1      35.788  21.256  25.625  1.00  0.00     0.188 C 
BRANCH  21  22
ATOM     22  O   UNL A   1      37.182  21.448  25.427  1.00  0.00    -0.376 OA
BRANCH  22  23
ATOM     23  C   UNL A   1      37.731  22.753  25.335  1.00  0.00     0.202 C 
BRANCH  23  24
ATOM     24  C   UNL A   1      38.867  23.174  26.277  1.00  0.00     0.261 C 
BRANCH  24  25
ATOM     25  O   UNL A   1      38.980  24.585  26.497  1.00  0.00    -0.460 OA
BRANCH  25  26
ATOM     26  C   UNL A   1      40.242  25.074  26.588  1.00  0.00     0.338 C 
ATOM     27  O   UNL A   1      41.136  24.958  25.765  1.00  0.00    -0.246 OA
BRANCH  26  28
ATOM     28  C   UNL A   1      40.310  25.989  27.752  1.00  0.00     0.060 A 
ATOM     29  C   UNL A   1      41.402  26.839  27.956  1.00  0.00     0.016 A 
ATOM     30  C   UNL A   1      39.290  25.907  28.710  1.00  0.00     0.016 A 
ATOM     31  C   UNL A   1      41.449  27.636  29.105  1.00  0.00     0.010 A 
ATOM     32  C   UNL A   1      39.351  26.681  29.868  1.00  0.00     0.010 A 
ATOM     33  C   UNL A   1      40.413  27.578  30.055  1.00  0.00    -0.014 A 
BRANCH  33  34
ATOM     34  C   UNL A   1      40.290  28.634  31.089  1.00  0.00     0.031 A 
ATOM     35  C   UNL A   1      39.350  29.794  30.964  1.00  0.00     0.074 A 
ATOM     36  C   UNL A   1      41.103  28.523  32.156  1.00  0.00     0.049 A 
ATOM     37  N   UNL A   1      39.140  30.766  31.814  1.00  0.00    -0.248 NA
ATOM     38  C   UNL A   1      38.550  29.881  29.736  1.00  0.00     0.031 C 
ATOM     39  C   UNL A   1      42.069  27.439  32.361  1.00  0.00     0.029 A 
ATOM     40  N   UNL A   1      41.253  29.316  33.262  1.00  0.00    -0.354 N 
ATOM     41  C   UNL A   1      38.160  31.569  31.246  1.00  0.00     0.074 A 
ATOM     42  C   UNL A   1      37.852  30.993  29.952  1.00  0.00     0.031 C 
ATOM     43  C   UNL A   1      42.698  27.627  33.528  1.00  0.00     0.029 A 
ATOM     44  C   UNL A   1      42.199  28.851  34.143  1.00  0.00     0.049 A 
ATOM     45  H   UNL A   1      40.734  30.139  33.411  1.00  0.00     0.167 HD
ATOM     46  C   UNL A   1      37.567  32.671  31.771  1.00  0.00     0.037 A 
ATOM     47  C   UNL A   1      42.618  29.351  35.318  1.00  0.00     0.037 A 
ATOM     48  C   UNL A   1      37.910  33.249  33.049  1.00  0.00     0.049 A 
ATOM     49  C   UNL A   1      41.984  30.605  35.844  1.00  0.00     0.074 A 
ATOM     50  C   UNL A   1      37.357  34.358  33.670  1.00  0.00     0.029 A 
ATOM     51  N   UNL A   1      38.899  32.774  33.902  1.00  0.00    -0.354 N 
ATOM     52  N   UNL A   1      41.024  31.326  35.314  1.00  0.00    -0.248 NA
ATOM     53  C   UNL A   1      42.481  31.107  37.129  1.00  0.00     0.031 C 
ATOM     54  C   UNL A   1      38.039  34.579  34.872  1.00  0.00     0.029 A 
ATOM     55  C   UNL A   1      38.983  33.579  35.030  1.00  0.00     0.049 A 
ATOM     56  H   UNL A   1      39.457  31.982  33.731  1.00  0.00     0.167 HD
ATOM     57  C   UNL A   1      40.786  32.355  36.216  1.00  0.00     0.074 A 
ATOM     58  C   UNL A   1      41.690  32.153  37.330  1.00  0.00     0.031 C 
ATOM     59  C   UNL A   1      39.894  33.374  36.130  1.00  0.00     0.037 A 
BRANCH  46  60
ATOM     60  C   UNL A   1      36.467  33.328  30.979  1.00  0.00     0.058 A 
ATOM     61  C   UNL A   1      35.118  33.161  31.333  1.00  0.00     0.135 A 
ATOM     62  C   UNL A   1      36.761  34.205  29.922  1.00  0.00     0.135 A 
ATOM     63  F   UNL A   1      34.779  32.328  32.329  1.00  0.00    -0.206 F 
ATOM     64  C   UNL A   1      34.100  33.832  30.662  1.00  0.00     0.059 A 
ATOM     65  C   UNL A   1      35.759  34.904  29.250  1.00  0.00     0.059 A 
ATOM     66  F   UNL A   1      38.032  34.405  29.543  1.00  0.00    -0.206 F 
ATOM     67  C   UNL A   1      34.431  34.705  29.624  1.00  0.00     0.060 A 
BRANCH  67  68
ATOM     68  S   UNL A   1      33.096  35.579  28.780  1.00  0.00     0.124 S 
ATOM     69  O   UNL A   1      32.490  34.502  28.002  1.00  0.00    -0.237 OA
ATOM     70  O   UNL A   1      32.299  36.082  29.894  1.00  0.00    -0.237 OA
ATOM     71  O   UNL A   1      33.794  36.597  28.000  1.00  0.00    -0.744 OA
ENDBRANCH  67  68
ENDBRANCH  46  60
BRANCH  47  72
ATOM     72  C   UNL A   1      43.660  28.630  36.091  1.00  0.00     0.058 A 
ATOM     73  C   UNL A   1      43.319  27.536  36.898  1.00  0.00     0.135 A 
ATOM     74  C   UNL A   1      45.012  28.995  36.011  1.00  0.00     0.135 A 
ATOM     75  F   UNL A   1      42.038  27.152  37.002  1.00  0.00    -0.206 F 
ATOM     76  C   UNL A   1      44.282  26.836  37.614  1.00  0.00     0.059 A 
ATOM     77  C   UNL A   1      45.997  28.294  36.697  1.00  0.00     0.059 A 
ATOM     78  F   UNL A   1      45.388  30.020  35.232  1.00  0.00    -0.206 F 
ATOM     79  C   UNL A   1      45.620  27.221  37.504  1.00  0.00     0.060 A 
BRANCH  79  80
ATOM     80  S   UNL A   1      46.864  26.276  38.409  1.00  0.00     0.124 S 
ATOM     81  O   UNL A   1      48.052  26.499  37.592  1.00  0.00    -0.237 OA
ATOM     82  O   UNL A   1      46.853  26.928  39.714  1.00  0.00    -0.237 OA
ATOM     83  O   UNL A   1      46.332  24.916  38.390  1.00  0.00    -0.744 OA
ENDBRANCH  79  80
ENDBRANCH  47  72
BRANCH  59  84
ATOM     84  C   UNL A   1      39.843  34.337  37.283  1.00  0.00     0.058 A 
ATOM     85  C   UNL A   1      40.615  35.510  37.299  1.00  0.00     0.135 A 
ATOM     86  C   UNL A   1      38.993  34.099  38.376  1.00  0.00     0.135 A 
ATOM     87  F   UNL A   1      41.451  35.781  36.285  1.00  0.00    -0.206 F 
ATOM     88  C   UNL A   1      40.569  36.396  38.369  1.00  0.00     0.059 A 
ATOM     89  C   UNL A   1      38.909  34.987  39.444  1.00  0.00     0.059 A 
ATOM     90  F   UNL A   1      38.227  32.997  38.408  1.00  0.00    -0.206 F 
ATOM     91  C   UNL A   1      39.713  36.126  39.438  1.00  0.00     0.060 A 
BRANCH  91  92
ATOM     92  S   UNL A   1      39.651  37.296  40.812  1.00  0.00     0.124 S 
ATOM     93  O   UNL A   1      41.069  37.549  41.046  1.00  0.00    -0.237 OA
ATOM     94  O   UNL A   1      38.894  38.405  40.241  1.00  0.00    -0.237 OA
ATOM     95  O   UNL A   1      38.964  36.551  41.863  1.00  0.00    -0.744 OA
ENDBRANCH  91  92
ENDBRANCH  59  84
ENDBRANCH  33  34
ENDBRANCH  26  28
ENDBRANCH  25  26
ENDBRANCH  24  25
ENDBRANCH  23  24
ENDBRANCH  22  23
ENDBRANCH  21  22
ENDBRANCH   1  21
TORSDOF 24
ENDMDL
MODEL 2
REMARK VINA RESULT:      -8.9      6.769     11.144
REMARK SMILES O=C(CC1=c2ccccc2=NC1)OCCOCCOCCOCCOC(=O)c1ccc(-c2c3nc(c(-c4c(F)cc(S(=O)(=O)[O-])cc4F)c4ccc([nH]4)c(-c4c(F)cc(S(=O)(=O)[O-])cc4F)c4nc(c(-c5c(F)cc(S(=O)(=O)[O-])cc5F)c5ccc2[nH]5)C=C4)C=C3)cc1
REMARK SMILES IDX 20 1 19 2 18 3 17 4 16 5 15 6 14 7 13 8 2 9 1 10 3 11 4 12
REMARK SMILES IDX 5 13 12 14 6 15 10 16 11 17 7 18 9 19 8 20 21 21 22 22 23 23
REMARK SMILES IDX 24 24 25 25 26 26 27 27 28 28 29 29 93 30 30 31 92 32 31 33
REMARK SMILES IDX 32 34 33 35 86 36 34 37 91 38 85 39 87 40 35 41 90 42 84 43
REMARK SMILES IDX 83 44 36 46 70 47 49 48 69 49 50 50 53 51 68 52 88 53 51 54
REMARK SMILES IDX 52 55 67 57 89 58 54 59 37 60 38 61 47 62 39 63 40 64 46 65
REMARK SMILES IDX 48 66 41 67 42 68 43 69 44 70 45 71 71 72 72 73 81 74 73 75
REMARK SMILES IDX 74 76 80 77 82 78 75 79 76 80 77 81 78 82 79 83 55 84 56 85
REMARK SMILES IDX 65 86 57 87 58 88 64 89 66 90 59 91 60 92 61 93 62 94 63 95
REMARK H PARENT 87 45 53 56
REMARK Flexibility Score: inf
ROOT
ATOM      1  C   UNL A   1      37.934  23.689  26.045  1.00  0.00     0.188 C 
ENDROOT
BRANCH   1   2
ATOM      2  O   UNL A   1      37.031  23.010  25.197  1.00  0.00    -0.377 OA
BRANCH   2   3
ATOM      3  C   UNL A   1      36.238  22.034  25.854  1.00  0.00     0.188 C 
BRANCH   3   4
ATOM      4  C   UNL A   1      34.739  22.294  25.753  1.00  0.00     0.188 C 
BRANCH   4   5
ATOM      5  O   UNL A   1      34.033  21.987  24.555  1.00  0.00    -0.376 OA
BRANCH   5   6
ATOM      6  C   UNL A   1      33.225  22.927  23.868  1.00  0.00     0.202 C 
BRANCH   6   7
ATOM      7  C   UNL A   1      33.681  23.555  22.557  1.00  0.00     0.261 C 
BRANCH   7   8
ATOM      8  O   UNL A   1      34.026  24.940  22.603  1.00  0.00    -0.463 OA
BRANCH   8   9
ATOM      9  C   UNL A   1      33.325  25.929  22.004  1.00  0.00     0.310 C 
ATOM     10  O   UNL A   1      33.245  25.952  20.776  1.00  0.00    -0.252 OA
BRANCH   9  11
ATOM     11  C   UNL A   1      32.779  27.088  22.829  1.00  0.00     0.156 C 
BRANCH  11  12
ATOM     12  C   UNL A   1      31.311  27.107  23.039  1.00  0.00    -0.028 C 
ATOM     13  C   UNL A   1      30.437  28.055  22.707  1.00  0.00     0.001 A 
ATOM     14  C   UNL A   1      30.628  25.960  23.718  1.00  0.00     0.175 C 
ATOM     15  C   UNL A   1      30.504  29.327  22.061  1.00  0.00     0.010 A 
ATOM     16  C   UNL A   1      29.177  27.529  23.254  1.00  0.00     0.065 A 
ATOM     17  N   UNL A   1      29.206  26.358  23.813  1.00  0.00    -0.280 NA
ATOM     18  C   UNL A   1      29.390  30.076  21.994  1.00  0.00     0.001 A 
ATOM     19  C   UNL A   1      27.995  28.407  23.138  1.00  0.00     0.028 A 
ATOM     20  C   UNL A   1      28.130  29.607  22.549  1.00  0.00     0.002 A 
ENDBRANCH  11  12
ENDBRANCH   9  11
ENDBRANCH   8   9
ENDBRANCH   7   8
ENDBRANCH   6   7
ENDBRANCH   5   6
ENDBRANCH   4   5
ENDBRANCH   3   4
ENDBRANCH   2   3
ENDBRANCH   1   2
BRANCH   1  21
ATOM     21  C   UNL A   1      39.124  22.864  26.581  1.00  0.00     0.188 C 
BRANCH  21  22
ATOM     22  O   UNL A   1      39.778  21.873  25.800  1.00  0.00    -0.376 OA
BRANCH  22  23
ATOM     23  C   UNL A   1      39.421  20.505  25.911  1.00  0.00     0.202 C 
BRANCH  23  24
ATOM     24  C   UNL A   1      40.470  19.472  26.343  1.00  0.00     0.261 C 
BRANCH  24  25
ATOM     25  O   UNL A   1      41.492  19.206  25.376  1.00  0.00    -0.460 OA
BRANCH  25  26
ATOM     26  C   UNL A   1      42.771  19.309  25.819  1.00  0.00     0.338 C 
ATOM     27  O   UNL A   1      43.630  18.443  25.789  1.00  0.00    -0.246 OA
BRANCH  26  28
ATOM     28  C   UNL A   1      43.047  20.730  26.137  1.00  0.00     0.060 A 
ATOM     29  C   UNL A   1      43.007  21.212  27.448  1.00  0.00     0.016 A 
ATOM     30  C   UNL A   1      43.248  21.614  25.066  1.00  0.00     0.016 A 
ATOM     31  C   UNL A   1      43.210  22.575  27.689  1.00  0.00     0.010 A 
ATOM     32  C   UNL A   1      43.422  22.976  25.304  1.00  0.00     0.010 A 
ATOM     33  C   UNL A   1      43.441  23.460  26.620  1.00  0.00    -0.014 A 
BRANCH  33  34
ATOM     34  C   UNL A   1      43.974  24.819  26.879  1.00  0.00     0.031 A 
ATOM     35  C   UNL A   1      45.415  25.182  26.693  1.00  0.00     0.074 A 
ATOM     36  C   UNL A   1      43.093  25.730  27.334  1.00  0.00     0.049 A 
ATOM     37  N   UNL A   1      45.992  26.343  26.867  1.00  0.00    -0.248 NA
ATOM     38  C   UNL A   1      46.327  24.114  26.264  1.00  0.00     0.031 C 
ATOM     39  C   UNL A   1      41.669  25.469  27.568  1.00  0.00     0.029 A 
ATOM     40  N   UNL A   1      43.251  27.045  27.679  1.00  0.00    -0.354 N 
ATOM     41  C   UNL A   1      47.329  26.163  26.539  1.00  0.00     0.074 A 
ATOM     42  C   UNL A   1      47.486  24.762  26.201  1.00  0.00     0.031 C 
ATOM     43  C   UNL A   1      41.082  26.593  28.002  1.00  0.00     0.029 A 
ATOM     44  C   UNL A   1      42.088  27.644  28.098  1.00  0.00     0.049 A 
ATOM     45  H   UNL A   1      44.115  27.515  27.633  1.00  0.00     0.167 HD
ATOM     46  C   UNL A   1      48.320  27.089  26.508  1.00  0.00     0.037 A 
ATOM     47  C   UNL A   1      41.853  28.902  28.511  1.00  0.00     0.037 A 
ATOM     48  C   UNL A   1      48.151  28.474  26.879  1.00  0.00     0.049 A 
ATOM     49  C   UNL A   1      42.984  29.887  28.523  1.00  0.00     0.074 A 
ATOM     50  C   UNL A   1      49.093  29.490  26.871  1.00  0.00     0.029 A 
ATOM     51  N   UNL A   1      46.967  29.042  27.334  1.00  0.00    -0.354 N 
ATOM     52  N   UNL A   1      44.233  29.710  28.165  1.00  0.00    -0.248 NA
ATOM     53  C   UNL A   1      42.671  31.244  28.986  1.00  0.00     0.031 C 
ATOM     54  C   UNL A   1      48.493  30.656  27.360  1.00  0.00     0.029 A 
ATOM     55  C   UNL A   1      47.162  30.384  27.626  1.00  0.00     0.049 A 
ATOM     56  H   UNL A   1      46.114  28.560  27.434  1.00  0.00     0.167 HD
ATOM     57  C   UNL A   1      44.851  30.943  28.335  1.00  0.00     0.074 A 
ATOM     58  C   UNL A   1      43.834  31.858  28.813  1.00  0.00     0.031 C 
ATOM     59  C   UNL A   1      46.145  31.285  28.110  1.00  0.00     0.037 A 
BRANCH  46  60
ATOM     60  C   UNL A   1      49.684  26.651  26.042  1.00  0.00     0.058 A 
ATOM     61  C   UNL A   1      50.131  26.932  24.740  1.00  0.00     0.135 A 
ATOM     62  C   UNL A   1      50.587  26.036  26.924  1.00  0.00     0.135 A 
ATOM     63  F   UNL A   1      49.306  27.511  23.853  1.00  0.00    -0.206 F 
ATOM     64  C   UNL A   1      51.419  26.609  24.327  1.00  0.00     0.059 A 
ATOM     65  C   UNL A   1      51.890  25.723  26.538  1.00  0.00     0.059 A 
ATOM     66  F   UNL A   1      50.216  25.747  28.180  1.00  0.00    -0.206 F 
ATOM     67  C   UNL A   1      52.294  26.009  25.235  1.00  0.00     0.060 A 
BRANCH  67  68
ATOM     68  S   UNL A   1      53.967  25.615  24.682  1.00  0.00     0.124 S 
ATOM     69  O   UNL A   1      54.050  24.192  24.997  1.00  0.00    -0.237 OA
ATOM     70  O   UNL A   1      53.912  25.949  23.263  1.00  0.00    -0.237 OA
ATOM     71  O   UNL A   1      54.809  26.487  25.497  1.00  0.00    -0.744 OA
ENDBRANCH  67  68
ENDBRANCH  46  60
BRANCH  47  72
ATOM     72  C   UNL A   1      40.477  29.300  28.900  1.00  0.00     0.058 A 
ATOM     73  C   UNL A   1      40.146  29.500  30.247  1.00  0.00     0.135 A 
ATOM     74  C   UNL A   1      39.483  29.524  27.936  1.00  0.00     0.135 A 
ATOM     75  F   UNL A   1      41.068  29.300  31.201  1.00  0.00    -0.206 F 
ATOM     76  C   UNL A   1      38.869  29.892  30.629  1.00  0.00     0.059 A 
ATOM     77  C   UNL A   1      38.205  29.941  28.292  1.00  0.00     0.059 A 
ATOM     78  F   UNL A   1      39.760  29.369  26.633  1.00  0.00    -0.206 F 
ATOM     79  C   UNL A   1      37.906  30.113  29.644  1.00  0.00     0.060 A 
BRANCH  79  80
ATOM     80  S   UNL A   1      36.263  30.661  30.154  1.00  0.00     0.124 S 
ATOM     81  O   UNL A   1      36.535  32.023  30.601  1.00  0.00    -0.237 OA
ATOM     82  O   UNL A   1      35.501  30.533  28.916  1.00  0.00    -0.237 OA
ATOM     83  O   UNL A   1      35.904  29.711  31.204  1.00  0.00    -0.744 OA
ENDBRANCH  79  80
ENDBRANCH  47  72
BRANCH  59  84
ATOM     84  C   UNL A   1      46.527  32.717  28.365  1.00  0.00     0.058 A 
ATOM     85  C   UNL A   1      47.009  33.141  29.613  1.00  0.00     0.135 A 
ATOM     86  C   UNL A   1      46.432  33.674  27.340  1.00  0.00     0.135 A 
ATOM     87  F   UNL A   1      47.110  32.270  30.629  1.00  0.00    -0.206 F 
ATOM     88  C   UNL A   1      47.357  34.467  29.846  1.00  0.00     0.059 A 
ATOM     89  C   UNL A   1      46.802  35.000  27.542  1.00  0.00     0.059 A 
ATOM     90  F   UNL A   1      45.984  33.321  26.125  1.00  0.00    -0.206 F 
ATOM     91  C   UNL A   1      47.250  35.390  28.804  1.00  0.00     0.060 A 
BRANCH  91  92
ATOM     92  S   UNL A   1      47.722  37.104  29.117  1.00  0.00     0.124 S 
ATOM     93  O   UNL A   1      48.946  37.221  28.331  1.00  0.00    -0.237 OA
ATOM     94  O   UNL A   1      46.570  37.841  28.609  1.00  0.00    -0.237 OA
ATOM     95  O   UNL A   1      47.900  37.150  30.565  1.00  0.00    -0.744 OA
ENDBRANCH  91  92
ENDBRANCH  59  84
ENDBRANCH  33  34
ENDBRANCH  26  28
ENDBRANCH  25  26
ENDBRANCH  24  25
ENDBRANCH  23  24
ENDBRANCH  22  23
ENDBRANCH  21  22
ENDBRANCH   1  21
TORSDOF 24
ENDMDL
MODEL 3
REMARK VINA RESULT:      -8.9      1.637      8.703
REMARK SMILES O=C(CC1=c2ccccc2=NC1)OCCOCCOCCOCCOC(=O)c1ccc(-c2c3nc(c(-c4c(F)cc(S(=O)(=O)[O-])cc4F)c4ccc([nH]4)c(-c4c(F)cc(S(=O)(=O)[O-])cc4F)c4nc(c(-c5c(F)cc(S(=O)(=O)[O-])cc5F)c5ccc2[nH]5)C=C4)C=C3)cc1
REMARK SMILES IDX 20 1 19 2 18 3 17 4 16 5 15 6 14 7 13 8 2 9 1 10 3 11 4 12
REMARK SMILES IDX 5 13 12 14 6 15 10 16 11 17 7 18 9 19 8 20 21 21 22 22 23 23
REMARK SMILES IDX 24 24 25 25 26 26 27 27 28 28 29 29 93 30 30 31 92 32 31 33
REMARK SMILES IDX 32 34 33 35 86 36 34 37 91 38 85 39 87 40 35 41 90 42 84 43
REMARK SMILES IDX 83 44 36 46 70 47 49 48 69 49 50 50 53 51 68 52 88 53 51 54
REMARK SMILES IDX 52 55 67 57 89 58 54 59 37 60 38 61 47 62 39 63 40 64 46 65
REMARK SMILES IDX 48 66 41 67 42 68 43 69 44 70 45 71 71 72 72 73 81 74 73 75
REMARK SMILES IDX 74 76 80 77 82 78 75 79 76 80 77 81 78 82 79 83 55 84 56 85
REMARK SMILES IDX 65 86 57 87 58 88 64 89 66 90 59 91 60 92 61 93 62 94 63 95
REMARK H PARENT 87 45 53 56
REMARK Flexibility Score: inf
ROOT
ATOM      1  C   UNL A   1      40.938  21.631  26.229  1.00  0.00     0.188 C 
ENDROOT
BRANCH   1   2
ATOM      2  O   UNL A   1      39.664  21.026  26.160  1.00  0.00    -0.377 OA
BRANCH   2   3
ATOM      3  C   UNL A   1      38.600  21.932  25.917  1.00  0.00     0.188 C 
BRANCH   3   4
ATOM      4  C   UNL A   1      37.447  21.323  25.126  1.00  0.00     0.188 C 
BRANCH   4   5
ATOM      5  O   UNL A   1      36.157  21.926  25.152  1.00  0.00    -0.376 OA
BRANCH   5   6
ATOM      6  C   UNL A   1      35.723  22.872  24.191  1.00  0.00     0.202 C 
BRANCH   6   7
ATOM      7  C   UNL A   1      34.461  23.699  24.405  1.00  0.00     0.261 C 
BRANCH   7   8
ATOM      8  O   UNL A   1      33.461  23.123  25.247  1.00  0.00    -0.463 OA
BRANCH   8   9
ATOM      9  C   UNL A   1      32.167  23.513  25.282  1.00  0.00     0.310 C 
ATOM     10  O   UNL A   1      31.391  23.101  24.420  1.00  0.00    -0.252 OA
BRANCH   9  11
ATOM     11  C   UNL A   1      31.713  24.573  26.278  1.00  0.00     0.156 C 
BRANCH  11  12
ATOM     12  C   UNL A   1      31.712  25.974  25.786  1.00  0.00    -0.028 C 
ATOM     13  C   UNL A   1      30.809  26.584  25.022  1.00  0.00     0.001 A 
ATOM     14  C   UNL A   1      32.840  26.897  26.129  1.00  0.00     0.175 C 
ATOM     15  C   UNL A   1      29.570  26.219  24.413  1.00  0.00     0.010 A 
ATOM     16  C   UNL A   1      31.414  27.908  24.815  1.00  0.00     0.065 A 
ATOM     17  N   UNL A   1      32.536  28.159  25.418  1.00  0.00    -0.280 NA
ATOM     18  C   UNL A   1      28.970  27.100  23.595  1.00  0.00     0.001 A 
ATOM     19  C   UNL A   1      30.693  28.824  23.907  1.00  0.00     0.028 A 
ATOM     20  C   UNL A   1      29.549  28.409  23.338  1.00  0.00     0.002 A 
ENDBRANCH  11  12
ENDBRANCH   9  11
ENDBRANCH   8   9
ENDBRANCH   7   8
ENDBRANCH   6   7
ENDBRANCH   5   6
ENDBRANCH   4   5
ENDBRANCH   3   4
ENDBRANCH   2   3
ENDBRANCH   1   2
BRANCH   1  21
ATOM     21  C   UNL A   1      42.153  20.683  26.140  1.00  0.00     0.188 C 
BRANCH  21  22
ATOM     22  O   UNL A   1      43.466  21.150  25.860  1.00  0.00    -0.376 OA
BRANCH  22  23
ATOM     23  C   UNL A   1      43.673  22.334  25.107  1.00  0.00     0.202 C 
BRANCH  23  24
ATOM     24  C   UNL A   1      44.145  23.615  25.807  1.00  0.00     0.261 C 
BRANCH  24  25
ATOM     25  O   UNL A   1      43.162  24.251  26.633  1.00  0.00    -0.460 OA
BRANCH  25  26
ATOM     26  C   UNL A   1      42.573  25.357  26.113  1.00  0.00     0.338 C 
ATOM     27  O   UNL A   1      42.255  25.541  24.949  1.00  0.00    -0.246 OA
BRANCH  26  28
ATOM     28  C   UNL A   1      42.149  26.234  27.230  1.00  0.00     0.060 A 
ATOM     29  C   UNL A   1      41.108  25.876  28.092  1.00  0.00     0.016 A 
ATOM     30  C   UNL A   1      42.755  27.495  27.339  1.00  0.00     0.016 A 
ATOM     31  C   UNL A   1      40.701  26.769  29.090  1.00  0.00     0.010 A 
ATOM     32  C   UNL A   1      42.330  28.395  28.316  1.00  0.00     0.010 A 
ATOM     33  C   UNL A   1      41.326  28.023  29.221  1.00  0.00    -0.014 A 
BRANCH  33  34
ATOM     34  C   UNL A   1      41.134  28.825  30.453  1.00  0.00     0.031 A 
ATOM     35  C   UNL A   1      41.975  28.650  31.681  1.00  0.00     0.074 A 
ATOM     36  C   UNL A   1      40.126  29.717  30.436  1.00  0.00     0.049 A 
ATOM     37  N   UNL A   1      41.914  29.310  32.810  1.00  0.00    -0.248 NA
ATOM     38  C   UNL A   1      43.007  27.607  31.646  1.00  0.00     0.031 C 
ATOM     39  C   UNL A   1      39.236  29.947  29.293  1.00  0.00     0.029 A 
ATOM     40  N   UNL A   1      39.676  30.589  31.389  1.00  0.00    -0.354 N 
ATOM     41  C   UNL A   1      42.919  28.790  33.614  1.00  0.00     0.074 A 
ATOM     42  C   UNL A   1      43.544  27.722  32.857  1.00  0.00     0.031 C 
ATOM     43  C   UNL A   1      38.360  30.911  29.607  1.00  0.00     0.029 A 
ATOM     44  C   UNL A   1      38.609  31.348  30.975  1.00  0.00     0.049 A 
ATOM     45  H   UNL A   1      40.078  30.665  32.284  1.00  0.00     0.167 HD
ATOM     46  C   UNL A   1      43.289  29.184  34.858  1.00  0.00     0.037 A 
ATOM     47  C   UNL A   1      37.908  32.295  31.623  1.00  0.00     0.037 A 
ATOM     48  C   UNL A   1      42.634  30.229  35.610  1.00  0.00     0.049 A 
ATOM     49  C   UNL A   1      38.305  32.668  33.020  1.00  0.00     0.074 A 
ATOM     50  C   UNL A   1      42.944  30.706  36.873  1.00  0.00     0.029 A 
ATOM     51  N   UNL A   1      41.531  30.954  35.176  1.00  0.00    -0.354 N 
ATOM     52  N   UNL A   1      39.288  32.197  33.749  1.00  0.00    -0.248 NA
ATOM     53  C   UNL A   1      37.503  33.705  33.680  1.00  0.00     0.031 C 
ATOM     54  C   UNL A   1      42.006  31.685  37.220  1.00  0.00     0.029 A 
ATOM     55  C   UNL A   1      41.140  31.858  36.153  1.00  0.00     0.049 A 
ATOM     56  H   UNL A   1      41.093  30.843  34.302  1.00  0.00     0.167 HD
ATOM     57  C   UNL A   1      39.240  32.900  34.946  1.00  0.00     0.074 A 
ATOM     58  C   UNL A   1      38.140  33.837  34.836  1.00  0.00     0.031 C 
ATOM     59  C   UNL A   1      40.038  32.782  36.037  1.00  0.00     0.037 A 
BRANCH  46  60
ATOM     60  C   UNL A   1      44.471  28.501  35.495  1.00  0.00     0.058 A 
ATOM     61  C   UNL A   1      45.745  29.091  35.482  1.00  0.00     0.135 A 
ATOM     62  C   UNL A   1      44.316  27.299  36.207  1.00  0.00     0.135 A 
ATOM     63  F   UNL A   1      45.953  30.235  34.810  1.00  0.00    -0.206 F 
ATOM     64  C   UNL A   1      46.825  28.511  36.141  1.00  0.00     0.059 A 
ATOM     65  C   UNL A   1      45.378  26.712  36.892  1.00  0.00     0.059 A 
ATOM     66  F   UNL A   1      43.121  26.692  36.256  1.00  0.00    -0.206 F 
ATOM     67  C   UNL A   1      46.630  27.323  36.848  1.00  0.00     0.060 A 
BRANCH  67  68
ATOM     68  S   UNL A   1      48.040  26.598  37.711  1.00  0.00     0.124 S 
ATOM     69  O   UNL A   1      48.357  25.463  36.848  1.00  0.00    -0.237 OA
ATOM     70  O   UNL A   1      49.007  27.691  37.702  1.00  0.00    -0.237 OA
ATOM     71  O   UNL A   1      47.498  26.254  39.022  1.00  0.00    -0.744 OA
ENDBRANCH  67  68
ENDBRANCH  46  60
BRANCH  47  72
ATOM     72  C   UNL A   1      36.792  32.984  30.927  1.00  0.00     0.058 A 
ATOM     73  C   UNL A   1      35.461  32.652  31.214  1.00  0.00     0.135 A 
ATOM     74  C   UNL A   1      37.031  34.006  29.997  1.00  0.00     0.135 A 
ATOM     75  F   UNL A   1      35.187  31.682  32.099  1.00  0.00    -0.206 F 
ATOM     76  C   UNL A   1      34.401  33.298  30.588  1.00  0.00     0.059 A 
ATOM     77  C   UNL A   1      35.988  34.685  29.377  1.00  0.00     0.059 A 
ATOM     78  F   UNL A   1      38.288  34.375  29.709  1.00  0.00    -0.206 F 
ATOM     79  C   UNL A   1      34.676  34.317  29.673  1.00  0.00     0.060 A 
BRANCH  79  80
ATOM     80  S   UNL A   1      33.289  35.174  28.899  1.00  0.00     0.124 S 
ATOM     81  O   UNL A   1      32.720  34.119  28.067  1.00  0.00    -0.237 OA
ATOM     82  O   UNL A   1      32.495  35.576  30.055  1.00  0.00    -0.237 OA
ATOM     83  O   UNL A   1      33.932  36.269  28.177  1.00  0.00    -0.744 OA
ENDBRANCH  79  80
ENDBRANCH  47  72
BRANCH  59  84
ATOM     84  C   UNL A   1      39.758  33.704  37.192  1.00  0.00     0.058 A 
ATOM     85  C   UNL A   1      38.868  33.351  38.218  1.00  0.00     0.135 A 
ATOM     86  C   UNL A   1      40.408  34.946  37.286  1.00  0.00     0.135 A 
ATOM     87  F   UNL A   1      38.214  32.180  38.171  1.00  0.00    -0.206 F 
ATOM     88  C   UNL A   1      38.609  34.209  39.282  1.00  0.00     0.059 A 
ATOM     89  C   UNL A   1      40.186  35.807  38.357  1.00  0.00     0.059 A 
ATOM     90  F   UNL A   1      41.275  35.329  36.336  1.00  0.00    -0.206 F 
ATOM     91  C   UNL A   1      39.272  35.435  39.343  1.00  0.00     0.060 A 
BRANCH  91  92
ATOM     92  S   UNL A   1      38.938  36.529  40.739  1.00  0.00     0.124 S 
ATOM     93  O   UNL A   1      37.965  35.750  41.497  1.00  0.00    -0.237 OA
ATOM     94  O   UNL A   1      40.257  36.664  41.350  1.00  0.00    -0.237 OA
ATOM     95  O   UNL A   1      38.420  37.739  40.108  1.00  0.00    -0.744 OA
ENDBRANCH  91  92
ENDBRANCH  59  84
ENDBRANCH  33  34
ENDBRANCH  26  28
ENDBRANCH  25  26
ENDBRANCH  24  25
ENDBRANCH  23  24
ENDBRANCH  22  23
ENDBRANCH  21  22
ENDBRANCH   1  21
TORSDOF 24
ENDMDL
