MODEL 1
REMARK VINA RESULT:      -9.2      0.000      0.000
REMARK SMILES C/C(C(=O)NCc1cscc1C)=C(\C)C(=O)OCCOCCOCCOCCOC(=O)c1ccc(-c2c3nc(c(-c4c(F)cc(S(=O)(=O)[O-])cc4F)c4ccc([nH]4)c(-c4c(F)cc(S(=O)(=O)[O-])cc4F)c4nc(c(-c5c(F)cc(S(=O)(=O)[O-])cc5F)c5ccc2[nH]5)C=C4)C=C3)cc1
REMARK SMILES IDX 23 1 22 2 21 3 20 4 19 5 18 6 17 7 15 8 16 9 13 10 1 11 2 12
REMARK SMILES IDX 14 13 3 14 4 15 5 16 6 18 7 19 8 20 11 21 9 22 10 23 12 24
REMARK SMILES IDX 24 25 25 26 26 27 27 28 28 29 29 30 30 31 31 32 32 33 33 34
REMARK SMILES IDX 97 35 34 36 96 37 35 38 36 39 37 40 90 41 38 42 95 43 89 44
REMARK SMILES IDX 91 45 39 46 94 47 88 48 87 49 40 51 74 52 53 53 73 54 54 55
REMARK SMILES IDX 57 56 72 57 92 58 55 59 56 60 71 62 93 63 58 64 41 65 42 66
REMARK SMILES IDX 51 67 43 68 44 69 50 70 52 71 45 72 46 73 47 74 48 75 49 76
REMARK SMILES IDX 75 77 76 78 85 79 77 80 78 81 84 82 86 83 79 84 80 85 81 86
REMARK SMILES IDX 82 87 83 88 59 89 60 90 69 91 61 92 62 93 68 94 70 95 63 96
REMARK SMILES IDX 64 97 65 98 66 99 67 100
REMARK H PARENT 5 17 91 50 57 61
REMARK Flexibility Score: inf
ROOT
ATOM      1  O   UNL A   1      37.810  21.507  26.028  1.00  0.00    -0.377 OA
ENDROOT
BRANCH   1   2
ATOM      2  C   UNL A   1      37.265  22.526  25.207  1.00  0.00     0.188 C 
BRANCH   2   3
ATOM      3  C   UNL A   1      36.135  22.210  24.210  1.00  0.00     0.188 C 
BRANCH   3   4
ATOM      4  O   UNL A   1      35.066  21.415  24.714  1.00  0.00    -0.376 OA
BRANCH   4   5
ATOM      5  C   UNL A   1      33.810  21.622  24.070  1.00  0.00     0.202 C 
BRANCH   5   6
ATOM      6  C   UNL A   1      32.898  22.545  24.873  1.00  0.00     0.261 C 
BRANCH   6   7
ATOM      7  O   UNL A   1      32.514  23.695  24.108  1.00  0.00    -0.460 OA
BRANCH   7   8
ATOM      8  C   UNL A   1      32.546  24.911  24.703  1.00  0.00     0.334 C 
ATOM      9  O   UNL A   1      33.216  25.257  25.658  1.00  0.00    -0.247 OA
BRANCH   8  10
ATOM     10  C   UNL A   1      31.514  25.733  24.000  1.00  0.00     0.042 C 
ATOM     11  C   UNL A   1      30.647  27.188  22.197  1.00  0.00     0.051 C 
ATOM     12  C   UNL A   1      31.785  26.597  22.985  1.00  0.00     0.024 C 
ATOM     13  C   UNL A   1      30.126  25.395  24.487  1.00  0.00     0.053 C 
BRANCH  12  14
ATOM     14  C   UNL A   1      33.191  26.802  22.486  1.00  0.00     0.247 C 
ATOM     15  O   UNL A   1      33.863  25.876  22.036  1.00  0.00    -0.270 OA
ATOM     16  N   UNL A   1      33.790  28.017  22.420  1.00  0.00    -0.348 N 
ATOM     17  H   UNL A   1      34.542  28.051  21.786  1.00  0.00     0.164 HD
BRANCH  16  18
ATOM     18  C   UNL A   1      33.549  29.271  23.093  1.00  0.00     0.153 C 
BRANCH  18  19
ATOM     19  C   UNL A   1      33.248  29.082  24.559  1.00  0.00    -0.015 A 
ATOM     20  C   UNL A   1      34.101  28.529  25.501  1.00  0.00     0.070 A 
ATOM     21  C   UNL A   1      31.983  29.444  25.172  1.00  0.00    -0.035 A 
ATOM     22  S   UNL A   1      33.425  28.450  27.066  1.00  0.00    -0.152 S 
ATOM     23  C   UNL A   1      31.970  29.148  26.524  1.00  0.00     0.068 A 
ATOM     24  C   UNL A   1      30.812  30.053  24.469  1.00  0.00     0.045 C 
ENDBRANCH  18  19
ENDBRANCH  16  18
ENDBRANCH  12  14
ENDBRANCH   8  10
ENDBRANCH   7   8
ENDBRANCH   6   7
ENDBRANCH   5   6
ENDBRANCH   4   5
ENDBRANCH   3   4
ENDBRANCH   2   3
ENDBRANCH   1   2
BRANCH   1  25
ATOM     25  C   UNL A   1      38.335  20.335  25.421  1.00  0.00     0.188 C 
BRANCH  25  26
ATOM     26  C   UNL A   1      39.817  19.975  25.646  1.00  0.00     0.188 C 
BRANCH  26  27
ATOM     27  O   UNL A   1      40.491  20.792  26.599  1.00  0.00    -0.376 OA
BRANCH  27  28
ATOM     28  C   UNL A   1      41.365  21.781  26.075  1.00  0.00     0.202 C 
BRANCH  28  29
ATOM     29  C   UNL A   1      41.425  23.072  26.899  1.00  0.00     0.261 C 
BRANCH  29  30
ATOM     30  O   UNL A   1      40.513  24.099  26.484  1.00  0.00    -0.460 OA
BRANCH  30  31
ATOM     31  C   UNL A   1      41.039  25.306  26.180  1.00  0.00     0.338 C 
ATOM     32  O   UNL A   1      41.325  25.732  25.076  1.00  0.00    -0.246 OA
BRANCH  31  33
ATOM     33  C   UNL A   1      41.041  26.110  27.415  1.00  0.00     0.060 A 
ATOM     34  C   UNL A   1      39.953  26.012  28.291  1.00  0.00     0.016 A 
ATOM     35  C   UNL A   1      42.123  26.943  27.709  1.00  0.00     0.016 A 
ATOM     36  C   UNL A   1      39.928  26.780  29.454  1.00  0.00     0.010 A 
ATOM     37  C   UNL A   1      42.087  27.728  28.861  1.00  0.00     0.010 A 
ATOM     38  C   UNL A   1      40.975  27.674  29.718  1.00  0.00    -0.014 A 
BRANCH  38  39
ATOM     39  C   UNL A   1      40.808  28.711  30.761  1.00  0.00     0.031 A 
ATOM     40  C   UNL A   1      41.698  28.639  31.972  1.00  0.00     0.074 A 
ATOM     41  C   UNL A   1      39.891  29.686  30.642  1.00  0.00     0.049 A 
ATOM     42  N   UNL A   1      41.714  29.395  33.037  1.00  0.00    -0.248 NA
ATOM     43  C   UNL A   1      42.702  27.560  31.983  1.00  0.00     0.031 C 
ATOM     44  C   UNL A   1      38.988  29.867  29.506  1.00  0.00     0.029 A 
ATOM     45  N   UNL A   1      39.559  30.703  31.503  1.00  0.00    -0.354 N 
ATOM     46  C   UNL A   1      42.722  28.883  33.845  1.00  0.00     0.074 A 
ATOM     47  C   UNL A   1      43.278  27.736  33.161  1.00  0.00     0.031 C 
ATOM     48  C   UNL A   1      38.189  30.921  29.750  1.00  0.00     0.029 A 
ATOM     49  C   UNL A   1      38.509  31.473  31.067  1.00  0.00     0.049 A 
ATOM     50  H   UNL A   1      40.030  30.863  32.353  1.00  0.00     0.167 HD
ATOM     51  C   UNL A   1      43.150  29.333  35.047  1.00  0.00     0.037 A 
ATOM     52  C   UNL A   1      37.869  32.492  31.675  1.00  0.00     0.037 A 
ATOM     53  C   UNL A   1      42.590  30.471  35.724  1.00  0.00     0.049 A 
ATOM     54  C   UNL A   1      38.333  32.947  33.036  1.00  0.00     0.074 A 
ATOM     55  C   UNL A   1      42.968  31.023  36.935  1.00  0.00     0.029 A 
ATOM     56  N   UNL A   1      41.525  31.224  35.253  1.00  0.00    -0.354 N 
ATOM     57  N   UNL A   1      39.314  32.481  33.773  1.00  0.00    -0.248 NA
ATOM     58  C   UNL A   1      37.608  34.071  33.646  1.00  0.00     0.031 C 
ATOM     59  C   UNL A   1      42.102  32.084  37.218  1.00  0.00     0.029 A 
ATOM     60  C   UNL A   1      41.217  32.224  36.161  1.00  0.00     0.049 A 
ATOM     61  H   UNL A   1      41.058  31.071  34.401  1.00  0.00     0.167 HD
ATOM     62  C   UNL A   1      39.341  33.271  34.919  1.00  0.00     0.074 A 
ATOM     63  C   UNL A   1      38.283  34.250  34.773  1.00  0.00     0.031 C 
ATOM     64  C   UNL A   1      40.165  33.196  35.993  1.00  0.00     0.037 A 
BRANCH  51  65
ATOM     65  C   UNL A   1      44.261  28.575  35.714  1.00  0.00     0.058 A 
ATOM     66  C   UNL A   1      45.610  28.901  35.499  1.00  0.00     0.135 A 
ATOM     67  C   UNL A   1      43.972  27.523  36.597  1.00  0.00     0.135 A 
ATOM     68  F   UNL A   1      45.941  29.882  34.646  1.00  0.00    -0.206 F 
ATOM     69  C   UNL A   1      46.635  28.196  36.123  1.00  0.00     0.059 A 
ATOM     70  C   UNL A   1      44.980  26.821  37.251  1.00  0.00     0.059 A 
ATOM     71  F   UNL A   1      42.699  27.166  36.829  1.00  0.00    -0.206 F 
ATOM     72  C   UNL A   1      46.309  27.158  36.998  1.00  0.00     0.060 A 
BRANCH  72  73
ATOM     73  S   UNL A   1      47.650  26.262  37.809  1.00  0.00     0.124 S 
ATOM     74  O   UNL A   1      48.765  26.524  36.905  1.00  0.00    -0.237 OA
ATOM     75  O   UNL A   1      47.721  26.917  39.110  1.00  0.00    -0.237 OA
ATOM     76  O   UNL A   1      47.170  24.883  37.831  1.00  0.00    -0.744 OA
ENDBRANCH  72  73
ENDBRANCH  51  65
BRANCH  52  77
ATOM     77  C   UNL A   1      36.709  33.146  31.012  1.00  0.00     0.058 A 
ATOM     78  C   UNL A   1      36.884  33.995  29.910  1.00  0.00     0.135 A 
ATOM     79  C   UNL A   1      35.400  32.942  31.478  1.00  0.00     0.135 A 
ATOM     80  F   UNL A   1      38.117  34.232  29.436  1.00  0.00    -0.206 F 
ATOM     81  C   UNL A   1      35.806  34.632  29.301  1.00  0.00     0.059 A 
ATOM     82  C   UNL A   1      34.304  33.549  30.871  1.00  0.00     0.059 A 
ATOM     83  F   UNL A   1      35.177  32.133  32.525  1.00  0.00    -0.206 F 
ATOM     84  C   UNL A   1      34.520  34.402  29.790  1.00  0.00     0.060 A 
BRANCH  84  85
ATOM     85  S   UNL A   1      33.123  35.199  28.968  1.00  0.00     0.124 S 
ATOM     86  O   UNL A   1      33.739  36.418  28.457  1.00  0.00    -0.237 OA
ATOM     87  O   UNL A   1      32.747  34.206  27.967  1.00  0.00    -0.237 OA
ATOM     88  O   UNL A   1      32.159  35.384  30.048  1.00  0.00    -0.744 OA
ENDBRANCH  84  85
ENDBRANCH  52  77
BRANCH  64  89
ATOM     89  C   UNL A   1      39.987  34.219  37.081  1.00  0.00     0.058 A 
ATOM     90  C   UNL A   1      40.509  35.516  36.969  1.00  0.00     0.135 A 
ATOM     91  C   UNL A   1      39.232  33.911  38.225  1.00  0.00     0.135 A 
ATOM     92  F   UNL A   1      41.241  35.860  35.897  1.00  0.00    -0.206 F 
ATOM     93  C   UNL A   1      40.309  36.467  37.964  1.00  0.00     0.059 A 
ATOM     94  C   UNL A   1      38.997  34.855  39.220  1.00  0.00     0.059 A 
ATOM     95  F   UNL A   1      38.698  32.689  38.376  1.00  0.00    -0.206 F 
ATOM     96  C   UNL A   1      39.551  36.127  39.087  1.00  0.00     0.060 A 
BRANCH  96  97
ATOM     97  S   UNL A   1      39.271  37.380  40.357  1.00  0.00     0.124 S 
ATOM     98  O   UNL A   1      40.637  37.774  40.685  1.00  0.00    -0.237 OA
ATOM     99  O   UNL A   1      38.476  38.376  39.646  1.00  0.00    -0.237 OA
ATOM    100  O   UNL A   1      38.559  36.649  41.402  1.00  0.00    -0.744 OA
ENDBRANCH  96  97
ENDBRANCH  64  89
ENDBRANCH  38  39
ENDBRANCH  31  33
ENDBRANCH  30  31
ENDBRANCH  29  30
ENDBRANCH  28  29
ENDBRANCH  27  28
ENDBRANCH  26  27
ENDBRANCH  25  26
ENDBRANCH   1  25
TORSDOF 26
ENDMDL
MODEL 2
REMARK VINA RESULT:      -7.8      2.475      4.124
REMARK SMILES C/C(C(=O)NCc1cscc1C)=C(\C)C(=O)OCCOCCOCCOCCOC(=O)c1ccc(-c2c3nc(c(-c4c(F)cc(S(=O)(=O)[O-])cc4F)c4ccc([nH]4)c(-c4c(F)cc(S(=O)(=O)[O-])cc4F)c4nc(c(-c5c(F)cc(S(=O)(=O)[O-])cc5F)c5ccc2[nH]5)C=C4)C=C3)cc1
REMARK SMILES IDX 23 1 22 2 21 3 20 4 19 5 18 6 17 7 15 8 16 9 13 10 1 11 2 12
REMARK SMILES IDX 14 13 3 14 4 15 5 16 6 18 7 19 8 20 11 21 9 22 10 23 12 24
REMARK SMILES IDX 24 25 25 26 26 27 27 28 28 29 29 30 30 31 31 32 32 33 33 34
REMARK SMILES IDX 97 35 34 36 96 37 35 38 36 39 37 40 90 41 38 42 95 43 89 44
REMARK SMILES IDX 91 45 39 46 94 47 88 48 87 49 40 51 74 52 53 53 73 54 54 55
REMARK SMILES IDX 57 56 72 57 92 58 55 59 56 60 71 62 93 63 58 64 41 65 42 66
REMARK SMILES IDX 51 67 43 68 44 69 50 70 52 71 45 72 46 73 47 74 48 75 49 76
REMARK SMILES IDX 75 77 76 78 85 79 77 80 78 81 84 82 86 83 79 84 80 85 81 86
REMARK SMILES IDX 82 87 83 88 59 89 60 90 69 91 61 92 62 93 68 94 70 95 63 96
REMARK SMILES IDX 64 97 65 98 66 99 67 100
REMARK H PARENT 5 17 91 50 57 61
REMARK Flexibility Score: inf
ROOT
ATOM      1  O   UNL A   1      38.144  28.718  28.466  1.00  0.00    -0.377 OA
ENDROOT
BRANCH   1   2
ATOM      2  C   UNL A   1      37.091  29.664  28.373  1.00  0.00     0.188 C 
BRANCH   2   3
ATOM      3  C   UNL A   1      35.938  29.459  27.373  1.00  0.00     0.188 C 
BRANCH   3   4
ATOM      4  O   UNL A   1      34.623  29.569  27.912  1.00  0.00    -0.376 OA
BRANCH   4   5
ATOM      5  C   UNL A   1      33.616  29.921  26.966  1.00  0.00     0.202 C 
BRANCH   5   6
ATOM      6  C   UNL A   1      32.353  29.082  27.133  1.00  0.00     0.261 C 
BRANCH   6   7
ATOM      7  O   UNL A   1      31.681  28.893  25.880  1.00  0.00    -0.460 OA
BRANCH   7   8
ATOM      8  C   UNL A   1      31.859  27.725  25.218  1.00  0.00     0.334 C 
ATOM      9  O   UNL A   1      32.841  27.007  25.223  1.00  0.00    -0.247 OA
BRANCH   8  10
ATOM     10  C   UNL A   1      30.625  27.534  24.397  1.00  0.00     0.042 C 
ATOM     11  C   UNL A   1      28.447  26.513  23.819  1.00  0.00     0.051 C 
ATOM     12  C   UNL A   1      29.774  26.481  24.527  1.00  0.00     0.024 C 
ATOM     13  C   UNL A   1      30.389  28.714  23.486  1.00  0.00     0.053 C 
BRANCH  12  14
ATOM     14  C   UNL A   1      30.027  25.390  25.535  1.00  0.00     0.247 C 
ATOM     15  O   UNL A   1      29.737  25.523  26.723  1.00  0.00    -0.270 OA
ATOM     16  N   UNL A   1      30.514  24.168  25.207  1.00  0.00    -0.348 N 
ATOM     17  H   UNL A   1      30.315  23.472  25.875  1.00  0.00     0.164 HD
BRANCH  16  18
ATOM     18  C   UNL A   1      31.265  23.679  24.075  1.00  0.00     0.153 C 
BRANCH  18  19
ATOM     19  C   UNL A   1      32.149  22.514  24.439  1.00  0.00    -0.015 A 
ATOM     20  C   UNL A   1      31.844  21.510  25.346  1.00  0.00     0.070 A 
ATOM     21  C   UNL A   1      33.477  22.310  23.888  1.00  0.00    -0.035 A 
ATOM     22  S   UNL A   1      33.090  20.359  25.529  1.00  0.00    -0.152 S 
ATOM     23  C   UNL A   1      34.075  21.175  24.405  1.00  0.00     0.068 A 
ATOM     24  C   UNL A   1      34.156  23.196  22.891  1.00  0.00     0.045 C 
ENDBRANCH  18  19
ENDBRANCH  16  18
ENDBRANCH  12  14
ENDBRANCH   8  10
ENDBRANCH   7   8
ENDBRANCH   6   7
ENDBRANCH   5   6
ENDBRANCH   4   5
ENDBRANCH   3   4
ENDBRANCH   2   3
ENDBRANCH   1   2
BRANCH   1  25
ATOM     25  C   UNL A   1      39.320  28.914  27.694  1.00  0.00     0.188 C 
BRANCH  25  26
ATOM     26  C   UNL A   1      40.442  27.858  27.759  1.00  0.00     0.188 C 
BRANCH  26  27
ATOM     27  O   UNL A   1      40.196  26.680  26.998  1.00  0.00    -0.376 OA
BRANCH  27  28
ATOM     28  C   UNL A   1      41.320  26.099  26.356  1.00  0.00     0.202 C 
BRANCH  28  29
ATOM     29  C   UNL A   1      42.369  27.111  25.881  1.00  0.00     0.261 C 
BRANCH  29  30
ATOM     30  O   UNL A   1      43.732  26.708  26.073  1.00  0.00    -0.460 OA
BRANCH  30  31
ATOM     31  C   UNL A   1      44.008  25.962  27.166  1.00  0.00     0.338 C 
ATOM     32  O   UNL A   1      44.420  24.817  27.196  1.00  0.00    -0.246 OA
BRANCH  31  33
ATOM     33  C   UNL A   1      43.896  26.844  28.341  1.00  0.00     0.060 A 
ATOM     34  C   UNL A   1      43.200  26.388  29.469  1.00  0.00     0.016 A 
ATOM     35  C   UNL A   1      44.490  28.108  28.330  1.00  0.00     0.016 A 
ATOM     36  C   UNL A   1      43.067  27.217  30.581  1.00  0.00     0.010 A 
ATOM     37  C   UNL A   1      44.337  28.945  29.435  1.00  0.00     0.010 A 
ATOM     38  C   UNL A   1      43.596  28.515  30.549  1.00  0.00    -0.014 A 
BRANCH  38  39
ATOM     39  C   UNL A   1      43.188  29.499  31.577  1.00  0.00     0.031 A 
ATOM     40  C   UNL A   1      44.041  29.622  32.809  1.00  0.00     0.074 A 
ATOM     41  C   UNL A   1      42.089  30.259  31.425  1.00  0.00     0.049 A 
ATOM     42  N   UNL A   1      43.870  30.371  33.866  1.00  0.00    -0.248 NA
ATOM     43  C   UNL A   1      45.249  28.779  32.856  1.00  0.00     0.031 C 
ATOM     44  C   UNL A   1      41.198  30.239  30.266  1.00  0.00     0.029 A 
ATOM     45  N   UNL A   1      41.529  31.187  32.266  1.00  0.00    -0.354 N 
ATOM     46  C   UNL A   1      44.942  30.087  34.704  1.00  0.00     0.074 A 
ATOM     47  C   UNL A   1      45.744  29.079  34.046  1.00  0.00     0.031 C 
ATOM     48  C   UNL A   1      40.190  31.103  30.479  1.00  0.00     0.029 A 
ATOM     49  C   UNL A   1      40.352  31.717  31.797  1.00  0.00     0.049 A 
ATOM     50  H   UNL A   1      41.933  31.448  33.125  1.00  0.00     0.167 HD
ATOM     51  C   UNL A   1      45.234  30.623  35.911  1.00  0.00     0.037 A 
ATOM     52  C   UNL A   1      39.497  32.582  32.378  1.00  0.00     0.037 A 
ATOM     53  C   UNL A   1      44.431  31.621  36.562  1.00  0.00     0.049 A 
ATOM     54  C   UNL A   1      39.819  33.132  33.745  1.00  0.00     0.074 A 
ATOM     55  C   UNL A   1      44.653  32.247  37.776  1.00  0.00     0.029 A 
ATOM     56  N   UNL A   1      43.244  32.131  36.057  1.00  0.00    -0.354 N 
ATOM     57  N   UNL A   1      40.857  32.887  34.511  1.00  0.00    -0.248 NA
ATOM     58  C   UNL A   1      38.859  34.081  34.325  1.00  0.00     0.031 C 
ATOM     59  C   UNL A   1      43.576  33.104  38.026  1.00  0.00     0.029 A 
ATOM     60  C   UNL A   1      42.709  33.049  36.946  1.00  0.00     0.049 A 
ATOM     61  H   UNL A   1      42.841  31.879  35.195  1.00  0.00     0.167 HD
ATOM     62  C   UNL A   1      40.688  33.671  35.649  1.00  0.00     0.074 A 
ATOM     63  C   UNL A   1      39.452  34.405  35.466  1.00  0.00     0.031 C 
ATOM     64  C   UNL A   1      41.481  33.777  36.742  1.00  0.00     0.037 A 
BRANCH  51  65
ATOM     65  C   UNL A   1      46.463  30.120  36.613  1.00  0.00     0.058 A 
ATOM     66  C   UNL A   1      46.415  29.024  37.489  1.00  0.00     0.135 A 
ATOM     67  C   UNL A   1      47.708  30.728  36.389  1.00  0.00     0.135 A 
ATOM     68  F   UNL A   1      45.246  28.423  37.757  1.00  0.00    -0.206 F 
ATOM     69  C   UNL A   1      47.557  28.561  38.135  1.00  0.00     0.059 A 
ATOM     70  C   UNL A   1      48.867  30.265  37.004  1.00  0.00     0.059 A 
ATOM     71  F   UNL A   1      47.805  31.785  35.567  1.00  0.00    -0.206 F 
ATOM     72  C   UNL A   1      48.779  29.189  37.884  1.00  0.00     0.060 A 
BRANCH  72  73
ATOM     73  S   UNL A   1      50.254  28.568  38.719  1.00  0.00     0.124 S 
ATOM     74  O   UNL A   1      50.794  27.655  37.717  1.00  0.00    -0.237 OA
ATOM     75  O   UNL A   1      51.023  29.787  38.944  1.00  0.00    -0.237 OA
ATOM     76  O   UNL A   1      49.722  27.936  39.923  1.00  0.00    -0.744 OA
ENDBRANCH  72  73
ENDBRANCH  51  65
BRANCH  52  77
ATOM     77  C   UNL A   1      38.243  32.974  31.680  1.00  0.00     0.058 A 
ATOM     78  C   UNL A   1      38.232  34.001  30.725  1.00  0.00     0.135 A 
ATOM     79  C   UNL A   1      37.026  32.333  31.965  1.00  0.00     0.135 A 
ATOM     80  F   UNL A   1      39.366  34.652  30.428  1.00  0.00    -0.206 F 
ATOM     81  C   UNL A   1      37.057  34.391  30.089  1.00  0.00     0.059 A 
ATOM     82  C   UNL A   1      35.844  32.690  31.324  1.00  0.00     0.059 A 
ATOM     83  F   UNL A   1      36.983  31.339  32.865  1.00  0.00    -0.206 F 
ATOM     84  C   UNL A   1      35.868  33.729  30.395  1.00  0.00     0.060 A 
BRANCH  84  85
ATOM     85  S   UNL A   1      34.356  34.213  29.532  1.00  0.00     0.124 S 
ATOM     86  O   UNL A   1      33.699  32.924  29.347  1.00  0.00    -0.237 OA
ATOM     87  O   UNL A   1      33.730  35.117  30.492  1.00  0.00    -0.237 OA
ATOM     88  O   UNL A   1      34.853  34.848  28.315  1.00  0.00    -0.744 OA
ENDBRANCH  84  85
ENDBRANCH  52  77
BRANCH  64  89
ATOM     89  C   UNL A   1      41.064  34.745  37.815  1.00  0.00     0.058 A 
ATOM     90  C   UNL A   1      41.395  36.107  37.751  1.00  0.00     0.135 A 
ATOM     91  C   UNL A   1      40.271  34.311  38.891  1.00  0.00     0.135 A 
ATOM     92  F   UNL A   1      42.153  36.571  36.745  1.00  0.00    -0.206 F 
ATOM     93  C   UNL A   1      40.974  37.003  38.729  1.00  0.00     0.059 A 
ATOM     94  C   UNL A   1      39.817  35.195  39.866  1.00  0.00     0.059 A 
ATOM     95  F   UNL A   1      39.914  33.022  38.992  1.00  0.00    -0.206 F 
ATOM     96  C   UNL A   1      40.185  36.537  39.783  1.00  0.00     0.060 A 
BRANCH  96  97
ATOM     97  S   UNL A   1      39.618  37.715  41.028  1.00  0.00     0.124 S 
ATOM     98  O   UNL A   1      40.852  38.428  41.339  1.00  0.00    -0.237 OA
ATOM     99  O   UNL A   1      38.609  38.479  40.303  1.00  0.00    -0.237 OA
ATOM    100  O   UNL A   1      39.102  36.859  42.093  1.00  0.00    -0.744 OA
ENDBRANCH  96  97
ENDBRANCH  64  89
ENDBRANCH  38  39
ENDBRANCH  31  33
ENDBRANCH  30  31
ENDBRANCH  29  30
ENDBRANCH  28  29
ENDBRANCH  27  28
ENDBRANCH  26  27
ENDBRANCH  25  26
ENDBRANCH   1  25
TORSDOF 26
ENDMDL
MODEL 3
REMARK VINA RESULT:      -7.7      7.825     14.531
REMARK SMILES C/C(C(=O)NCc1cscc1C)=C(\C)C(=O)OCCOCCOCCOCCOC(=O)c1ccc(-c2c3nc(c(-c4c(F)cc(S(=O)(=O)[O-])cc4F)c4ccc([nH]4)c(-c4c(F)cc(S(=O)(=O)[O-])cc4F)c4nc(c(-c5c(F)cc(S(=O)(=O)[O-])cc5F)c5ccc2[nH]5)C=C4)C=C3)cc1
REMARK SMILES IDX 23 1 22 2 21 3 20 4 19 5 18 6 17 7 15 8 16 9 13 10 1 11 2 12
REMARK SMILES IDX 14 13 3 14 4 15 5 16 6 18 7 19 8 20 11 21 9 22 10 23 12 24
REMARK SMILES IDX 24 25 25 26 26 27 27 28 28 29 29 30 30 31 31 32 32 33 33 34
REMARK SMILES IDX 97 35 34 36 96 37 35 38 36 39 37 40 90 41 38 42 95 43 89 44
REMARK SMILES IDX 91 45 39 46 94 47 88 48 87 49 40 51 74 52 53 53 73 54 54 55
REMARK SMILES IDX 57 56 72 57 92 58 55 59 56 60 71 62 93 63 58 64 41 65 42 66
REMARK SMILES IDX 51 67 43 68 44 69 50 70 52 71 45 72 46 73 47 74 48 75 49 76
REMARK SMILES IDX 75 77 76 78 85 79 77 80 78 81 84 82 86 83 79 84 80 85 81 86
REMARK SMILES IDX 82 87 83 88 59 89 60 90 69 91 61 92 62 93 68 94 70 95 63 96
REMARK SMILES IDX 64 97 65 98 66 99 67 100
REMARK H PARENT 5 17 91 50 57 61
REMARK Flexibility Score: inf
ROOT
ATOM      1  O   UNL A   1      49.269  19.029  38.784  1.00  0.00    -0.377 OA
ENDROOT
BRANCH   1   2
ATOM      2  C   UNL A   1      49.494  18.940  40.181  1.00  0.00     0.188 C 
BRANCH   2   3
ATOM      3  C   UNL A   1      48.384  18.443  41.125  1.00  0.00     0.188 C 
BRANCH   3   4
ATOM      4  O   UNL A   1      47.502  19.443  41.626  1.00  0.00    -0.376 OA
BRANCH   4   5
ATOM      5  C   UNL A   1      46.361  19.699  40.810  1.00  0.00     0.202 C 
BRANCH   5   6
ATOM      6  C   UNL A   1      45.152  20.136  41.633  1.00  0.00     0.261 C 
BRANCH   6   7
ATOM      7  O   UNL A   1      45.305  19.781  43.014  1.00  0.00    -0.460 OA
BRANCH   7   8
ATOM      8  C   UNL A   1      44.509  18.813  43.528  1.00  0.00     0.334 C 
ATOM      9  O   UNL A   1      43.325  18.885  43.796  1.00  0.00    -0.247 OA
BRANCH   8  10
ATOM     10  C   UNL A   1      45.407  17.647  43.788  1.00  0.00     0.042 C 
ATOM     11  C   UNL A   1      46.503  15.493  43.257  1.00  0.00     0.051 C 
ATOM     12  C   UNL A   1      45.401  16.498  43.059  1.00  0.00     0.024 C 
ATOM     13  C   UNL A   1      46.395  17.956  44.886  1.00  0.00     0.053 C 
BRANCH  12  14
ATOM     14  C   UNL A   1      44.449  16.307  41.907  1.00  0.00     0.247 C 
ATOM     15  O   UNL A   1      44.725  16.678  40.768  1.00  0.00    -0.270 OA
ATOM     16  N   UNL A   1      43.266  15.653  42.016  1.00  0.00    -0.348 N 
ATOM     17  H   UNL A   1      42.922  15.317  41.157  1.00  0.00     0.164 HD
BRANCH  16  18
ATOM     18  C   UNL A   1      42.409  15.350  43.137  1.00  0.00     0.153 C 
BRANCH  18  19
ATOM     19  C   UNL A   1      42.749  14.025  43.771  1.00  0.00    -0.015 A 
ATOM     20  C   UNL A   1      43.496  13.842  44.925  1.00  0.00     0.070 A 
ATOM     21  C   UNL A   1      42.347  12.743  43.220  1.00  0.00    -0.035 A 
ATOM     22  S   UNL A   1      43.704  12.201  45.346  1.00  0.00    -0.152 S 
ATOM     23  C   UNL A   1      42.807  11.691  43.992  1.00  0.00     0.068 A 
ATOM     24  C   UNL A   1      41.545  12.540  41.974  1.00  0.00     0.045 C 
ENDBRANCH  18  19
ENDBRANCH  16  18
ENDBRANCH  12  14
ENDBRANCH   8  10
ENDBRANCH   7   8
ENDBRANCH   6   7
ENDBRANCH   5   6
ENDBRANCH   4   5
ENDBRANCH   3   4
ENDBRANCH   2   3
ENDBRANCH   1   2
BRANCH   1  25
ATOM     25  C   UNL A   1      49.143  20.309  38.184  1.00  0.00     0.188 C 
BRANCH  25  26
ATOM     26  C   UNL A   1      47.770  20.747  37.636  1.00  0.00     0.188 C 
BRANCH  26  27
ATOM     27  O   UNL A   1      46.923  19.678  37.227  1.00  0.00    -0.376 OA
BRANCH  27  28
ATOM     28  C   UNL A   1      45.885  20.009  36.318  1.00  0.00     0.202 C 
BRANCH  28  29
ATOM     29  C   UNL A   1      46.075  21.353  35.605  1.00  0.00     0.261 C 
BRANCH  29  30
ATOM     30  O   UNL A   1      44.924  22.210  35.608  1.00  0.00    -0.460 OA
BRANCH  30  31
ATOM     31  C   UNL A   1      44.997  23.341  36.344  1.00  0.00     0.338 C 
ATOM     32  O   UNL A   1      45.319  23.443  37.513  1.00  0.00    -0.246 OA
BRANCH  31  33
ATOM     33  C   UNL A   1      44.793  24.477  35.427  1.00  0.00     0.060 A 
ATOM     34  C   UNL A   1      45.878  25.309  35.125  1.00  0.00     0.016 A 
ATOM     35  C   UNL A   1      43.537  24.705  34.860  1.00  0.00     0.016 A 
ATOM     36  C   UNL A   1      45.698  26.400  34.277  1.00  0.00     0.010 A 
ATOM     37  C   UNL A   1      43.353  25.810  34.030  1.00  0.00     0.010 A 
ATOM     38  C   UNL A   1      44.425  26.679  33.764  1.00  0.00    -0.014 A 
BRANCH  38  39
ATOM     39  C   UNL A   1      44.158  27.994  33.138  1.00  0.00     0.031 A 
ATOM     40  C   UNL A   1      44.630  28.208  31.726  1.00  0.00     0.074 A 
ATOM     41  C   UNL A   1      43.519  28.973  33.803  1.00  0.00     0.049 A 
ATOM     42  N   UNL A   1      44.560  29.279  30.980  1.00  0.00    -0.248 NA
ATOM     43  C   UNL A   1      45.275  27.057  31.070  1.00  0.00     0.031 C 
ATOM     44  C   UNL A   1      43.000  28.872  35.166  1.00  0.00     0.029 A 
ATOM     45  N   UNL A   1      43.215  30.254  33.419  1.00  0.00    -0.354 N 
ATOM     46  C   UNL A   1      45.155  28.934  29.773  1.00  0.00     0.074 A 
ATOM     47  C   UNL A   1      45.604  27.564  29.892  1.00  0.00     0.031 C 
ATOM     48  C   UNL A   1      42.458  30.054  35.512  1.00  0.00     0.029 A 
ATOM     49  C   UNL A   1      42.613  30.997  34.404  1.00  0.00     0.049 A 
ATOM     50  H   UNL A   1      43.411  30.608  32.521  1.00  0.00     0.167 HD
ATOM     51  C   UNL A   1      45.307  29.690  28.661  1.00  0.00     0.037 A 
ATOM     52  C   UNL A   1      42.249  32.295  34.414  1.00  0.00     0.037 A 
ATOM     53  C   UNL A   1      44.863  31.052  28.549  1.00  0.00     0.049 A 
ATOM     54  C   UNL A   1      42.471  33.132  33.179  1.00  0.00     0.074 A 
ATOM     55  C   UNL A   1      44.948  31.898  27.458  1.00  0.00     0.029 A 
ATOM     56  N   UNL A   1      44.259  31.772  29.570  1.00  0.00    -0.354 N 
ATOM     57  N   UNL A   1      42.997  32.784  32.028  1.00  0.00    -0.248 NA
ATOM     58  C   UNL A   1      42.043  34.537  33.241  1.00  0.00     0.031 C 
ATOM     59  C   UNL A   1      44.436  33.145  27.834  1.00  0.00     0.029 A 
ATOM     60  C   UNL A   1      43.987  33.060  29.142  1.00  0.00     0.049 A 
ATOM     61  H   UNL A   1      44.055  31.419  30.466  1.00  0.00     0.167 HD
ATOM     62  C   UNL A   1      42.940  33.917  31.222  1.00  0.00     0.074 A 
ATOM     63  C   UNL A   1      42.318  34.959  32.014  1.00  0.00     0.031 C 
ATOM     64  C   UNL A   1      43.359  34.081  29.943  1.00  0.00     0.037 A 
BRANCH  51  65
ATOM     65  C   UNL A   1      46.004  29.063  27.488  1.00  0.00     0.058 A 
ATOM     66  C   UNL A   1      47.400  29.120  27.343  1.00  0.00     0.135 A 
ATOM     67  C   UNL A   1      45.270  28.379  26.508  1.00  0.00     0.135 A 
ATOM     68  F   UNL A   1      48.147  29.783  28.239  1.00  0.00    -0.206 F 
ATOM     69  C   UNL A   1      48.041  28.535  26.255  1.00  0.00     0.059 A 
ATOM     70  C   UNL A   1      45.892  27.765  25.425  1.00  0.00     0.059 A 
ATOM     71  F   UNL A   1      43.932  28.305  26.595  1.00  0.00    -0.206 F 
ATOM     72  C   UNL A   1      47.277  27.859  25.302  1.00  0.00     0.060 A 
BRANCH  72  73
ATOM     73  S   UNL A   1      48.124  27.094  23.903  1.00  0.00     0.124 S 
ATOM     74  O   UNL A   1      47.616  25.728  23.966  1.00  0.00    -0.237 OA
ATOM     75  O   UNL A   1      47.653  27.894  22.777  1.00  0.00    -0.237 OA
ATOM     76  O   UNL A   1      49.537  27.255  24.234  1.00  0.00    -0.744 OA
ENDBRANCH  72  73
ENDBRANCH  51  65
BRANCH  52  77
ATOM     77  C   UNL A   1      41.650  32.894  35.638  1.00  0.00     0.058 A 
ATOM     78  C   UNL A   1      40.262  32.900  35.840  1.00  0.00     0.135 A 
ATOM     79  C   UNL A   1      42.458  33.481  36.625  1.00  0.00     0.135 A 
ATOM     80  F   UNL A   1      39.448  32.363  34.919  1.00  0.00    -0.206 F 
ATOM     81  C   UNL A   1      39.693  33.483  36.969  1.00  0.00     0.059 A 
ATOM     82  C   UNL A   1      41.913  34.048  37.773  1.00  0.00     0.059 A 
ATOM     83  F   UNL A   1      43.791  33.494  36.483  1.00  0.00    -0.206 F 
ATOM     84  C   UNL A   1      40.528  34.054  37.930  1.00  0.00     0.060 A 
BRANCH  84  85
ATOM     85  S   UNL A   1      39.784  34.769  39.413  1.00  0.00     0.124 S 
ATOM     86  O   UNL A   1      40.781  34.445  40.427  1.00  0.00    -0.237 OA
ATOM     87  O   UNL A   1      39.674  36.179  39.053  1.00  0.00    -0.237 OA
ATOM     88  O   UNL A   1      38.514  34.058  39.527  1.00  0.00    -0.744 OA
ENDBRANCH  84  85
ENDBRANCH  52  77
BRANCH  64  89
ATOM     89  C   UNL A   1      43.130  35.422  29.301  1.00  0.00     0.058 A 
ATOM     90  C   UNL A   1      44.139  36.395  29.241  1.00  0.00     0.135 A 
ATOM     91  C   UNL A   1      41.900  35.712  28.687  1.00  0.00     0.135 A 
ATOM     92  F   UNL A   1      45.331  36.168  29.816  1.00  0.00    -0.206 F 
ATOM     93  C   UNL A   1      43.930  37.619  28.614  1.00  0.00     0.059 A 
ATOM     94  C   UNL A   1      41.679  36.919  28.031  1.00  0.00     0.059 A 
ATOM     95  F   UNL A   1      40.906  34.811  28.703  1.00  0.00    -0.206 F 
ATOM     96  C   UNL A   1      42.696  37.872  28.011  1.00  0.00     0.060 A 
BRANCH  96  97
ATOM     97  S   UNL A   1      42.448  39.452  27.173  1.00  0.00     0.124 S 
ATOM     98  O   UNL A   1      41.247  39.182  26.390  1.00  0.00    -0.237 OA
ATOM     99  O   UNL A   1      42.283  40.378  28.289  1.00  0.00    -0.237 OA
ATOM    100  O   UNL A   1      43.676  39.623  26.402  1.00  0.00    -0.744 OA
ENDBRANCH  96  97
ENDBRANCH  64  89
ENDBRANCH  38  39
ENDBRANCH  31  33
ENDBRANCH  30  31
ENDBRANCH  29  30
ENDBRANCH  28  29
ENDBRANCH  27  28
ENDBRANCH  26  27
ENDBRANCH  25  26
ENDBRANCH   1  25
TORSDOF 26
ENDMDL
