MODEL 1
REMARK VINA RESULT:      -8.8      0.000      0.000
REMARK SMILES CC(=O)Nc1cccc(-c2cc(F)ccc2C(=O)OCCOCCOCCOCCOC(=O)c2ccc(-c3c4nc(c(-c5c(F)cc(S(=O)(=O)[O-])cc5F)c5ccc([nH]5)c(-c5c(F)cc(S(=O)(=O)[O-])cc5F)c5nc(c(-c6c(F)cc(S(=O)(=O)[O-])cc6F)c6ccc3[nH]6)C=C5)C=C4)cc2)c1
REMARK SMILES IDX 26 1 25 2 24 3 23 4 22 5 21 6 20 7 19 8 17 9 18 10 16 11
REMARK SMILES IDX 10 12 11 13 12 14 15 15 13 16 14 17 9 18 5 19 6 20 100 21
REMARK SMILES IDX 7 22 8 23 4 24 1 25 2 26 3 27 27 29 28 30 29 31 30 32 31 33
REMARK SMILES IDX 32 34 33 35 34 36 35 37 99 38 36 39 98 40 37 41 38 42 39 43
REMARK SMILES IDX 92 44 40 45 97 46 91 47 93 48 41 49 96 50 90 51 89 52 42 54
REMARK SMILES IDX 76 55 55 56 75 57 56 58 59 59 74 60 94 61 57 62 58 63 73 65
REMARK SMILES IDX 95 66 60 67 43 68 44 69 53 70 45 71 46 72 52 73 54 74 47 75
REMARK SMILES IDX 48 76 49 77 50 78 51 79 77 80 78 81 87 82 79 83 80 84 86 85
REMARK SMILES IDX 88 86 81 87 82 88 83 89 84 90 85 91 61 92 62 93 71 94 63 95
REMARK SMILES IDX 64 96 70 97 72 98 65 99 66 100 67 101 68 102 69 103
REMARK H PARENT 4 28 93 53 59 64
REMARK Flexibility Score: inf
ROOT
ATOM      1  C   UNL A   1      42.058  25.539  27.145  1.00  0.00     0.188 C 
ENDROOT
BRANCH   1   2
ATOM      2  O   UNL A   1      40.953  24.802  26.643  1.00  0.00    -0.377 OA
BRANCH   2   3
ATOM      3  C   UNL A   1      40.363  23.771  27.426  1.00  0.00     0.188 C 
BRANCH   3   4
ATOM      4  C   UNL A   1      39.871  22.420  26.837  1.00  0.00     0.188 C 
BRANCH   4   5
ATOM      5  O   UNL A   1      38.605  22.446  26.213  1.00  0.00    -0.376 OA
BRANCH   5   6
ATOM      6  C   UNL A   1      38.172  21.391  25.380  1.00  0.00     0.202 C 
BRANCH   6   7
ATOM      7  C   UNL A   1      36.964  21.561  24.452  1.00  0.00     0.261 C 
BRANCH   7   8
ATOM      8  O   UNL A   1      35.832  22.188  25.057  1.00  0.00    -0.460 OA
BRANCH   8   9
ATOM      9  C   UNL A   1      34.842  22.604  24.243  1.00  0.00     0.338 C 
ATOM     10  O   UNL A   1      34.918  22.763  23.036  1.00  0.00    -0.246 OA
BRANCH   9  11
ATOM     11  C   UNL A   1      33.557  22.685  24.997  1.00  0.00     0.068 A 
ATOM     12  C   UNL A   1      32.588  21.647  25.095  1.00  0.00    -0.001 A 
ATOM     13  C   UNL A   1      31.445  21.910  25.878  1.00  0.00     0.048 A 
ATOM     14  C   UNL A   1      31.246  23.153  26.474  1.00  0.00     0.123 A 
ATOM     15  C   UNL A   1      33.327  23.942  25.595  1.00  0.00     0.019 A 
ATOM     16  F   UNL A   1      30.138  23.369  27.196  1.00  0.00    -0.207 F 
ATOM     17  C   UNL A   1      32.163  24.179  26.318  1.00  0.00     0.040 A 
BRANCH  12  18
ATOM     18  C   UNL A   1      32.681  20.351  24.376  1.00  0.00    -0.015 A 
ATOM     19  C   UNL A   1      33.793  18.188  24.086  1.00  0.00     0.041 A 
ATOM     20  C   UNL A   1      33.188  18.045  22.836  1.00  0.00     0.026 A 
ATOM     21  C   UNL A   1      33.489  19.310  24.859  1.00  0.00     0.034 A 
ATOM     22  C   UNL A   1      32.297  19.012  22.373  1.00  0.00     0.003 A 
ATOM     23  C   UNL A   1      32.060  20.163  23.129  1.00  0.00     0.009 A 
BRANCH  19  24
ATOM     24  N   UNL A   1      34.806  17.277  24.433  1.00  0.00    -0.326 N 
ATOM     25  C   UNL A   1      33.494  15.371  25.352  1.00  0.00     0.114 C 
ATOM     26  C   UNL A   1      34.772  16.153  25.209  1.00  0.00     0.221 C 
ATOM     27  O   UNL A   1      35.803  15.777  25.770  1.00  0.00    -0.275 OA
ATOM     28  H   UNL A   1      35.690  17.484  24.052  1.00  0.00     0.169 HD
ENDBRANCH  19  24
ENDBRANCH  12  18
ENDBRANCH   9  11
ENDBRANCH   8   9
ENDBRANCH   7   8
ENDBRANCH   6   7
ENDBRANCH   5   6
ENDBRANCH   4   5
ENDBRANCH   3   4
ENDBRANCH   2   3
ENDBRANCH   1   2
BRANCH   1  29
ATOM     29  C   UNL A   1      43.326  24.765  27.559  1.00  0.00     0.188 C 
BRANCH  29  30
ATOM     30  O   UNL A   1      44.278  24.630  26.516  1.00  0.00    -0.376 OA
BRANCH  30  31
ATOM     31  C   UNL A   1      45.179  23.540  26.583  1.00  0.00     0.202 C 
BRANCH  31  32
ATOM     32  C   UNL A   1      46.360  23.483  25.600  1.00  0.00     0.261 C 
BRANCH  32  33
ATOM     33  O   UNL A   1      47.452  24.383  25.840  1.00  0.00    -0.460 OA
BRANCH  33  34
ATOM     34  C   UNL A   1      47.582  25.445  25.018  1.00  0.00     0.338 C 
ATOM     35  O   UNL A   1      47.961  25.437  23.858  1.00  0.00    -0.246 OA
BRANCH  34  36
ATOM     36  C   UNL A   1      47.001  26.611  25.715  1.00  0.00     0.060 A 
ATOM     37  C   UNL A   1      46.107  27.446  25.033  1.00  0.00     0.016 A 
ATOM     38  C   UNL A   1      47.334  26.867  27.047  1.00  0.00     0.016 A 
ATOM     39  C   UNL A   1      45.564  28.560  25.675  1.00  0.00     0.010 A 
ATOM     40  C   UNL A   1      46.809  27.995  27.681  1.00  0.00     0.010 A 
ATOM     41  C   UNL A   1      45.949  28.864  26.988  1.00  0.00    -0.014 A 
BRANCH  41  42
ATOM     42  C   UNL A   1      45.619  30.190  27.566  1.00  0.00     0.031 A 
ATOM     43  C   UNL A   1      46.630  31.296  27.421  1.00  0.00     0.074 A 
ATOM     44  C   UNL A   1      44.448  30.412  28.189  1.00  0.00     0.049 A 
ATOM     45  N   UNL A   1      46.605  32.511  27.900  1.00  0.00    -0.248 NA
ATOM     46  C   UNL A   1      47.835  30.983  26.634  1.00  0.00     0.031 C 
ATOM     47  C   UNL A   1      43.372  29.435  28.347  1.00  0.00     0.029 A 
ATOM     48  N   UNL A   1      43.975  31.538  28.815  1.00  0.00    -0.354 N 
ATOM     49  C   UNL A   1      47.788  33.106  27.478  1.00  0.00     0.074 A 
ATOM     50  C   UNL A   1      48.525  32.110  26.734  1.00  0.00     0.031 C 
ATOM     51  C   UNL A   1      42.369  30.001  29.041  1.00  0.00     0.029 A 
ATOM     52  C   UNL A   1      42.746  31.365  29.408  1.00  0.00     0.049 A 
ATOM     53  H   UNL A   1      44.468  32.391  28.837  1.00  0.00     0.167 HD
ATOM     54  C   UNL A   1      48.218  34.373  27.685  1.00  0.00     0.037 A 
ATOM     55  C   UNL A   1      42.026  32.205  30.179  1.00  0.00     0.037 A 
ATOM     56  C   UNL A   1      47.478  35.359  28.428  1.00  0.00     0.049 A 
ATOM     57  C   UNL A   1      42.564  33.587  30.465  1.00  0.00     0.074 A 
ATOM     58  C   UNL A   1      47.822  36.675  28.688  1.00  0.00     0.029 A 
ATOM     59  N   UNL A   1      46.251  35.139  29.037  1.00  0.00    -0.354 N 
ATOM     60  N   UNL A   1      43.676  34.144  30.048  1.00  0.00    -0.248 NA
ATOM     61  C   UNL A   1      41.744  34.457  31.322  1.00  0.00     0.031 C 
ATOM     62  C   UNL A   1      46.830  37.232  29.502  1.00  0.00     0.029 A 
ATOM     63  C   UNL A   1      45.836  36.285  29.692  1.00  0.00     0.049 A 
ATOM     64  H   UNL A   1      45.750  34.292  29.006  1.00  0.00     0.167 HD
ATOM     65  C   UNL A   1      43.672  35.438  30.562  1.00  0.00     0.074 A 
ATOM     66  C   UNL A   1      42.443  35.584  31.312  1.00  0.00     0.031 C 
ATOM     67  C   UNL A   1      44.600  36.419  30.424  1.00  0.00     0.037 A 
BRANCH  54  68
ATOM     68  C   UNL A   1      49.558  34.759  27.124  1.00  0.00     0.058 A 
ATOM     69  C   UNL A   1      49.703  35.228  25.808  1.00  0.00     0.135 A 
ATOM     70  C   UNL A   1      50.707  34.705  27.929  1.00  0.00     0.135 A 
ATOM     71  F   UNL A   1      48.642  35.279  24.987  1.00  0.00    -0.206 F 
ATOM     72  C   UNL A   1      50.943  35.611  25.305  1.00  0.00     0.059 A 
ATOM     73  C   UNL A   1      51.952  35.112  27.457  1.00  0.00     0.059 A 
ATOM     74  F   UNL A   1      50.627  34.258  29.192  1.00  0.00    -0.206 F 
ATOM     75  C   UNL A   1      52.061  35.555  26.140  1.00  0.00     0.060 A 
BRANCH  75  76
ATOM     76  S   UNL A   1      53.655  36.082  25.479  1.00  0.00     0.124 S 
ATOM     77  O   UNL A   1      53.504  35.762  24.063  1.00  0.00    -0.237 OA
ATOM     78  O   UNL A   1      53.673  37.502  25.808  1.00  0.00    -0.237 OA
ATOM     79  O   UNL A   1      54.615  35.258  26.207  1.00  0.00    -0.744 OA
ENDBRANCH  75  76
ENDBRANCH  54  68
BRANCH  55  80
ATOM     80  C   UNL A   1      40.729  31.762  30.763  1.00  0.00     0.058 A 
ATOM     81  C   UNL A   1      40.683  30.850  31.828  1.00  0.00     0.135 A 
ATOM     82  C   UNL A   1      39.507  32.223  30.247  1.00  0.00     0.135 A 
ATOM     83  F   UNL A   1      41.823  30.370  32.349  1.00  0.00    -0.206 F 
ATOM     84  C   UNL A   1      39.476  30.390  32.344  1.00  0.00     0.059 A 
ATOM     85  C   UNL A   1      38.287  31.801  30.766  1.00  0.00     0.059 A 
ATOM     86  F   UNL A   1      39.492  33.106  29.237  1.00  0.00    -0.206 F 
ATOM     87  C   UNL A   1      38.281  30.872  31.805  1.00  0.00     0.060 A 
BRANCH  87  88
ATOM     88  S   UNL A   1      36.719  30.288  32.496  1.00  0.00     0.124 S 
ATOM     89  O   UNL A   1      37.155  29.133  33.273  1.00  0.00    -0.237 OA
ATOM     90  O   UNL A   1      36.274  31.445  33.267  1.00  0.00    -0.237 OA
ATOM     91  O   UNL A   1      35.921  29.987  31.311  1.00  0.00    -0.744 OA
ENDBRANCH  87  88
ENDBRANCH  55  80
BRANCH  67  92
ATOM     92  C   UNL A   1      44.306  37.756  31.052  1.00  0.00     0.058 A 
ATOM     93  C   UNL A   1      43.705  38.800  30.331  1.00  0.00     0.135 A 
ATOM     94  C   UNL A   1      44.572  37.972  32.414  1.00  0.00     0.135 A 
ATOM     95  F   UNL A   1      43.432  38.649  29.025  1.00  0.00    -0.206 F 
ATOM     96  C   UNL A   1      43.404  40.019  30.931  1.00  0.00     0.059 A 
ATOM     97  C   UNL A   1      44.250  39.170  33.044  1.00  0.00     0.059 A 
ATOM     98  F   UNL A   1      45.133  37.003  33.156  1.00  0.00    -0.206 F 
ATOM     99  C   UNL A   1      43.678  40.193  32.290  1.00  0.00     0.060 A 
BRANCH  99 100
ATOM    100  S   UNL A   1      43.250  41.767  33.063  1.00  0.00     0.124 S 
ATOM    101  O   UNL A   1      44.313  41.908  34.052  1.00  0.00    -0.237 OA
ATOM    102  O   UNL A   1      43.306  42.694  31.936  1.00  0.00    -0.237 OA
ATOM    103  O   UNL A   1      41.915  41.529  33.606  1.00  0.00    -0.744 OA
ENDBRANCH  99 100
ENDBRANCH  67  92
ENDBRANCH  41  42
ENDBRANCH  34  36
ENDBRANCH  33  34
ENDBRANCH  32  33
ENDBRANCH  31  32
ENDBRANCH  30  31
ENDBRANCH  29  30
ENDBRANCH   1  29
TORSDOF 25
ENDMDL
MODEL 2
REMARK VINA RESULT:      -8.6      2.156      8.714
REMARK SMILES CC(=O)Nc1cccc(-c2cc(F)ccc2C(=O)OCCOCCOCCOCCOC(=O)c2ccc(-c3c4nc(c(-c5c(F)cc(S(=O)(=O)[O-])cc5F)c5ccc([nH]5)c(-c5c(F)cc(S(=O)(=O)[O-])cc5F)c5nc(c(-c6c(F)cc(S(=O)(=O)[O-])cc6F)c6ccc3[nH]6)C=C5)C=C4)cc2)c1
REMARK SMILES IDX 26 1 25 2 24 3 23 4 22 5 21 6 20 7 19 8 17 9 18 10 16 11
REMARK SMILES IDX 10 12 11 13 12 14 15 15 13 16 14 17 9 18 5 19 6 20 100 21
REMARK SMILES IDX 7 22 8 23 4 24 1 25 2 26 3 27 27 29 28 30 29 31 30 32 31 33
REMARK SMILES IDX 32 34 33 35 34 36 35 37 99 38 36 39 98 40 37 41 38 42 39 43
REMARK SMILES IDX 92 44 40 45 97 46 91 47 93 48 41 49 96 50 90 51 89 52 42 54
REMARK SMILES IDX 76 55 55 56 75 57 56 58 59 59 74 60 94 61 57 62 58 63 73 65
REMARK SMILES IDX 95 66 60 67 43 68 44 69 53 70 45 71 46 72 52 73 54 74 47 75
REMARK SMILES IDX 48 76 49 77 50 78 51 79 77 80 78 81 87 82 79 83 80 84 86 85
REMARK SMILES IDX 88 86 81 87 82 88 83 89 84 90 85 91 61 92 62 93 71 94 63 95
REMARK SMILES IDX 64 96 70 97 72 98 65 99 66 100 67 101 68 102 69 103
REMARK H PARENT 4 28 93 53 59 64
REMARK Flexibility Score: inf
ROOT
ATOM      1  C   UNL A   1      41.892  26.028  27.297  1.00  0.00     0.188 C 
ENDROOT
BRANCH   1   2
ATOM      2  O   UNL A   1      40.767  25.835  26.452  1.00  0.00    -0.377 OA
BRANCH   2   3
ATOM      3  C   UNL A   1      39.514  25.450  27.003  1.00  0.00     0.188 C 
BRANCH   3   4
ATOM      4  C   UNL A   1      39.039  23.975  27.109  1.00  0.00     0.188 C 
BRANCH   4   5
ATOM      5  O   UNL A   1      37.821  23.673  26.463  1.00  0.00    -0.376 OA
BRANCH   5   6
ATOM      6  C   UNL A   1      37.766  22.775  25.374  1.00  0.00     0.202 C 
BRANCH   6   7
ATOM      7  C   UNL A   1      36.833  23.029  24.186  1.00  0.00     0.261 C 
BRANCH   7   8
ATOM      8  O   UNL A   1      35.660  23.782  24.500  1.00  0.00    -0.460 OA
BRANCH   8   9
ATOM      9  C   UNL A   1      34.583  23.617  23.707  1.00  0.00     0.338 C 
ATOM     10  O   UNL A   1      34.592  23.249  22.544  1.00  0.00    -0.246 OA
BRANCH   9  11
ATOM     11  C   UNL A   1      33.330  23.782  24.500  1.00  0.00     0.068 A 
ATOM     12  C   UNL A   1      32.653  25.014  24.731  1.00  0.00    -0.001 A 
ATOM     13  C   UNL A   1      31.465  24.959  25.488  1.00  0.00     0.048 A 
ATOM     14  C   UNL A   1      31.013  23.763  26.040  1.00  0.00     0.123 A 
ATOM     15  C   UNL A   1      32.863  22.586  25.083  1.00  0.00     0.019 A 
ATOM     16  F   UNL A   1      29.889  23.756  26.769  1.00  0.00    -0.207 F 
ATOM     17  C   UNL A   1      31.714  22.581  25.866  1.00  0.00     0.040 A 
BRANCH  12  18
ATOM     18  C   UNL A   1      33.156  26.336  24.281  1.00  0.00    -0.015 A 
ATOM     19  C   UNL A   1      33.538  28.709  24.755  1.00  0.00     0.041 A 
ATOM     20  C   UNL A   1      33.724  28.951  23.393  1.00  0.00     0.026 A 
ATOM     21  C   UNL A   1      33.311  27.399  25.184  1.00  0.00     0.034 A 
ATOM     22  C   UNL A   1      33.681  27.898  22.481  1.00  0.00     0.003 A 
ATOM     23  C   UNL A   1      33.383  26.605  22.919  1.00  0.00     0.009 A 
BRANCH  19  24
ATOM     24  N   UNL A   1      33.422  29.819  25.610  1.00  0.00    -0.326 N 
ATOM     25  C   UNL A   1      35.159  29.333  27.326  1.00  0.00     0.114 C 
ATOM     26  C   UNL A   1      33.909  30.035  26.868  1.00  0.00     0.221 C 
ATOM     27  O   UNL A   1      33.327  30.827  27.612  1.00  0.00    -0.275 OA
ATOM     28  H   UNL A   1      32.903  30.568  25.239  1.00  0.00     0.169 HD
ENDBRANCH  19  24
ENDBRANCH  12  18
ENDBRANCH   9  11
ENDBRANCH   8   9
ENDBRANCH   7   8
ENDBRANCH   6   7
ENDBRANCH   5   6
ENDBRANCH   4   5
ENDBRANCH   3   4
ENDBRANCH   2   3
ENDBRANCH   1   2
BRANCH   1  29
ATOM     29  C   UNL A   1      42.759  24.802  27.651  1.00  0.00     0.188 C 
BRANCH  29  30
ATOM     30  O   UNL A   1      43.758  24.512  26.685  1.00  0.00    -0.376 OA
BRANCH  30  31
ATOM     31  C   UNL A   1      44.679  23.478  26.980  1.00  0.00     0.202 C 
BRANCH  31  32
ATOM     32  C   UNL A   1      45.787  23.150  25.966  1.00  0.00     0.261 C 
BRANCH  32  33
ATOM     33  O   UNL A   1      47.022  23.870  26.093  1.00  0.00    -0.460 OA
BRANCH  33  34
ATOM     34  C   UNL A   1      47.246  24.887  25.236  1.00  0.00     0.338 C 
ATOM     35  O   UNL A   1      47.586  24.805  24.067  1.00  0.00    -0.246 OA
BRANCH  34  36
ATOM     36  C   UNL A   1      46.823  26.131  25.913  1.00  0.00     0.060 A 
ATOM     37  C   UNL A   1      45.937  27.001  25.265  1.00  0.00     0.016 A 
ATOM     38  C   UNL A   1      47.296  26.425  27.194  1.00  0.00     0.016 A 
ATOM     39  C   UNL A   1      45.543  28.187  25.887  1.00  0.00     0.010 A 
ATOM     40  C   UNL A   1      46.919  27.623  27.806  1.00  0.00     0.010 A 
ATOM     41  C   UNL A   1      46.069  28.524  27.141  1.00  0.00    -0.014 A 
BRANCH  41  42
ATOM     42  C   UNL A   1      45.896  29.900  27.668  1.00  0.00     0.031 A 
ATOM     43  C   UNL A   1      44.640  30.209  28.437  1.00  0.00     0.074 A 
ATOM     44  C   UNL A   1      46.834  30.845  27.484  1.00  0.00     0.049 A 
ATOM     45  N   UNL A   1      44.227  31.347  28.930  1.00  0.00    -0.248 NA
ATOM     46  C   UNL A   1      43.722  29.082  28.674  1.00  0.00     0.031 C 
ATOM     47  C   UNL A   1      48.112  30.651  26.800  1.00  0.00     0.029 A 
ATOM     48  N   UNL A   1      46.847  32.168  27.853  1.00  0.00    -0.354 N 
ATOM     49  C   UNL A   1      43.003  31.075  29.531  1.00  0.00     0.074 A 
ATOM     50  C   UNL A   1      42.723  29.674  29.311  1.00  0.00     0.031 C 
ATOM     51  C   UNL A   1      48.780  31.819  26.786  1.00  0.00     0.029 A 
ATOM     52  C   UNL A   1      47.962  32.849  27.424  1.00  0.00     0.049 A 
ATOM     53  H   UNL A   1      46.127  32.589  28.376  1.00  0.00     0.167 HD
ATOM     54  C   UNL A   1      42.190  31.916  30.212  1.00  0.00     0.037 A 
ATOM     55  C   UNL A   1      48.269  34.159  27.514  1.00  0.00     0.037 A 
ATOM     56  C   UNL A   1      42.477  33.310  30.426  1.00  0.00     0.049 A 
ATOM     57  C   UNL A   1      47.308  35.095  28.208  1.00  0.00     0.074 A 
ATOM     58  C   UNL A   1      41.723  34.247  31.111  1.00  0.00     0.029 A 
ATOM     59  N   UNL A   1      43.602  33.971  29.952  1.00  0.00    -0.354 N 
ATOM     60  N   UNL A   1      46.162  34.825  28.786  1.00  0.00    -0.248 NA
ATOM     61  C   UNL A   1      47.686  36.516  28.267  1.00  0.00     0.031 C 
ATOM     62  C   UNL A   1      42.363  35.486  31.002  1.00  0.00     0.029 A 
ATOM     63  C   UNL A   1      43.549  35.307  30.308  1.00  0.00     0.049 A 
ATOM     64  H   UNL A   1      44.330  33.551  29.440  1.00  0.00     0.167 HD
ATOM     65  C   UNL A   1      45.701  36.031  29.306  1.00  0.00     0.074 A 
ATOM     66  C   UNL A   1      46.697  37.031  28.983  1.00  0.00     0.031 C 
ATOM     67  C   UNL A   1      44.558  36.289  29.991  1.00  0.00     0.037 A 
BRANCH  54  68
ATOM     68  C   UNL A   1      40.903  31.361  30.754  1.00  0.00     0.058 A 
ATOM     69  C   UNL A   1      40.872  30.533  31.888  1.00  0.00     0.135 A 
ATOM     70  C   UNL A   1      39.677  31.701  30.159  1.00  0.00     0.135 A 
ATOM     71  F   UNL A   1      42.015  30.158  32.484  1.00  0.00    -0.206 F 
ATOM     72  C   UNL A   1      39.673  30.047  32.402  1.00  0.00     0.059 A 
ATOM     73  C   UNL A   1      38.464  31.251  30.673  1.00  0.00     0.059 A 
ATOM     74  F   UNL A   1      39.649  32.482  29.069  1.00  0.00    -0.206 F 
ATOM     75  C   UNL A   1      38.474  30.417  31.790  1.00  0.00     0.060 A 
BRANCH  75  76
ATOM     76  S   UNL A   1      36.927  29.799  32.486  1.00  0.00     0.124 S 
ATOM     77  O   UNL A   1      36.450  30.967  33.219  1.00  0.00    -0.237 OA
ATOM     78  O   UNL A   1      36.168  29.449  31.291  1.00  0.00    -0.237 OA
ATOM     79  O   UNL A   1      37.351  28.672  33.310  1.00  0.00    -0.744 OA
ENDBRANCH  75  76
ENDBRANCH  54  68
BRANCH  55  80
ATOM     80  C   UNL A   1      49.529  34.678  26.914  1.00  0.00     0.058 A 
ATOM     81  C   UNL A   1      49.586  35.074  25.569  1.00  0.00     0.135 A 
ATOM     82  C   UNL A   1      50.711  34.763  27.667  1.00  0.00     0.135 A 
ATOM     83  F   UNL A   1      48.487  35.001  24.802  1.00  0.00    -0.206 F 
ATOM     84  C   UNL A   1      50.771  35.509  24.984  1.00  0.00     0.059 A 
ATOM     85  C   UNL A   1      51.902  35.223  27.114  1.00  0.00     0.059 A 
ATOM     86  F   UNL A   1      50.712  34.409  28.962  1.00  0.00    -0.206 F 
ATOM     87  C   UNL A   1      51.926  35.580  25.767  1.00  0.00     0.060 A 
BRANCH  87  88
ATOM     88  S   UNL A   1      53.455  36.168  25.007  1.00  0.00     0.124 S 
ATOM     89  O   UNL A   1      53.265  35.768  23.618  1.00  0.00    -0.237 OA
ATOM     90  O   UNL A   1      53.395  37.602  25.272  1.00  0.00    -0.237 OA
ATOM     91  O   UNL A   1      54.491  35.444  25.738  1.00  0.00    -0.744 OA
ENDBRANCH  87  88
ENDBRANCH  55  80
BRANCH  67  92
ATOM     92  C   UNL A   1      44.340  37.694  30.487  1.00  0.00     0.058 A 
ATOM     93  C   UNL A   1      43.654  38.654  29.724  1.00  0.00     0.135 A 
ATOM     94  C   UNL A   1      44.769  38.067  31.771  1.00  0.00     0.135 A 
ATOM     95  F   UNL A   1      43.225  38.353  28.488  1.00  0.00    -0.206 F 
ATOM     96  C   UNL A   1      43.427  39.938  30.206  1.00  0.00     0.059 A 
ATOM     97  C   UNL A   1      44.523  39.335  32.288  1.00  0.00     0.059 A 
ATOM     98  F   UNL A   1      45.417  37.186  32.550  1.00  0.00    -0.206 F 
ATOM     99  C   UNL A   1      43.863  40.269  31.492  1.00  0.00     0.060 A 
BRANCH  99 100
ATOM    100  S   UNL A   1      43.529  41.929  32.118  1.00  0.00     0.124 S 
ATOM    101  O   UNL A   1      44.848  42.334  32.594  1.00  0.00    -0.237 OA
ATOM    102  O   UNL A   1      43.046  42.621  30.927  1.00  0.00    -0.237 OA
ATOM    103  O   UNL A   1      42.528  41.707  33.157  1.00  0.00    -0.744 OA
ENDBRANCH  99 100
ENDBRANCH  67  92
ENDBRANCH  41  42
ENDBRANCH  34  36
ENDBRANCH  33  34
ENDBRANCH  32  33
ENDBRANCH  31  32
ENDBRANCH  30  31
ENDBRANCH  29  30
ENDBRANCH   1  29
TORSDOF 25
ENDMDL
MODEL 3
REMARK VINA RESULT:      -8.5      4.306     11.231
REMARK SMILES CC(=O)Nc1cccc(-c2cc(F)ccc2C(=O)OCCOCCOCCOCCOC(=O)c2ccc(-c3c4nc(c(-c5c(F)cc(S(=O)(=O)[O-])cc5F)c5ccc([nH]5)c(-c5c(F)cc(S(=O)(=O)[O-])cc5F)c5nc(c(-c6c(F)cc(S(=O)(=O)[O-])cc6F)c6ccc3[nH]6)C=C5)C=C4)cc2)c1
REMARK SMILES IDX 26 1 25 2 24 3 23 4 22 5 21 6 20 7 19 8 17 9 18 10 16 11
REMARK SMILES IDX 10 12 11 13 12 14 15 15 13 16 14 17 9 18 5 19 6 20 100 21
REMARK SMILES IDX 7 22 8 23 4 24 1 25 2 26 3 27 27 29 28 30 29 31 30 32 31 33
REMARK SMILES IDX 32 34 33 35 34 36 35 37 99 38 36 39 98 40 37 41 38 42 39 43
REMARK SMILES IDX 92 44 40 45 97 46 91 47 93 48 41 49 96 50 90 51 89 52 42 54
REMARK SMILES IDX 76 55 55 56 75 57 56 58 59 59 74 60 94 61 57 62 58 63 73 65
REMARK SMILES IDX 95 66 60 67 43 68 44 69 53 70 45 71 46 72 52 73 54 74 47 75
REMARK SMILES IDX 48 76 49 77 50 78 51 79 77 80 78 81 87 82 79 83 80 84 86 85
REMARK SMILES IDX 88 86 81 87 82 88 83 89 84 90 85 91 61 92 62 93 71 94 63 95
REMARK SMILES IDX 64 96 70 97 72 98 65 99 66 100 67 101 68 102 69 103
REMARK H PARENT 4 28 93 53 59 64
REMARK Flexibility Score: inf
ROOT
ATOM      1  C   UNL A   1      38.444  28.563  28.273  1.00  0.00     0.188 C 
ENDROOT
BRANCH   1   2
ATOM      2  O   UNL A   1      39.119  27.650  29.127  1.00  0.00    -0.377 OA
BRANCH   2   3
ATOM      3  C   UNL A   1      38.864  26.255  29.031  1.00  0.00     0.188 C 
BRANCH   3   4
ATOM      4  C   UNL A   1      39.470  25.344  27.929  1.00  0.00     0.188 C 
BRANCH   4   5
ATOM      5  O   UNL A   1      38.696  25.198  26.757  1.00  0.00    -0.376 OA
BRANCH   5   6
ATOM      6  C   UNL A   1      37.811  24.110  26.588  1.00  0.00     0.202 C 
BRANCH   6   7
ATOM      7  C   UNL A   1      37.181  23.808  25.224  1.00  0.00     0.261 C 
BRANCH   7   8
ATOM      8  O   UNL A   1      35.753  23.790  25.218  1.00  0.00    -0.460 OA
BRANCH   8   9
ATOM      9  C   UNL A   1      35.141  23.321  24.115  1.00  0.00     0.338 C 
ATOM     10  O   UNL A   1      35.346  23.679  22.966  1.00  0.00    -0.246 OA
BRANCH   9  11
ATOM     11  C   UNL A   1      34.276  22.156  24.463  1.00  0.00     0.068 A 
ATOM     12  C   UNL A   1      32.854  22.177  24.549  1.00  0.00    -0.001 A 
ATOM     13  C   UNL A   1      32.215  20.961  24.868  1.00  0.00     0.048 A 
ATOM     14  C   UNL A   1      32.947  19.810  25.152  1.00  0.00     0.123 A 
ATOM     15  C   UNL A   1      34.996  20.983  24.769  1.00  0.00     0.019 A 
ATOM     16  F   UNL A   1      32.301  18.680  25.468  1.00  0.00    -0.207 F 
ATOM     17  C   UNL A   1      34.331  19.816  25.130  1.00  0.00     0.040 A 
BRANCH  12  18
ATOM     18  C   UNL A   1      32.030  23.401  24.389  1.00  0.00    -0.015 A 
ATOM     19  C   UNL A   1      31.050  25.416  25.378  1.00  0.00     0.041 A 
ATOM     20  C   UNL A   1      30.181  25.527  24.292  1.00  0.00     0.026 A 
ATOM     21  C   UNL A   1      31.996  24.389  25.385  1.00  0.00     0.034 A 
ATOM     22  C   UNL A   1      30.260  24.621  23.235  1.00  0.00     0.003 A 
ATOM     23  C   UNL A   1      31.164  23.558  23.292  1.00  0.00     0.009 A 
BRANCH  19  24
ATOM     24  N   UNL A   1      30.821  26.245  26.491  1.00  0.00    -0.326 N 
ATOM     25  C   UNL A   1      32.026  28.324  25.843  1.00  0.00     0.114 C 
ATOM     26  C   UNL A   1      31.414  27.414  26.874  1.00  0.00     0.221 C 
ATOM     27  O   UNL A   1      31.421  27.724  28.066  1.00  0.00    -0.275 OA
ATOM     28  H   UNL A   1      30.112  25.929  27.096  1.00  0.00     0.169 HD
ENDBRANCH  19  24
ENDBRANCH  12  18
ENDBRANCH   9  11
ENDBRANCH   8   9
ENDBRANCH   7   8
ENDBRANCH   6   7
ENDBRANCH   5   6
ENDBRANCH   4   5
ENDBRANCH   3   4
ENDBRANCH   2   3
ENDBRANCH   1   2
BRANCH   1  29
ATOM     29  C   UNL A   1      37.224  29.323  28.835  1.00  0.00     0.188 C 
BRANCH  29  30
ATOM     30  O   UNL A   1      36.962  29.048  30.203  1.00  0.00    -0.376 OA
BRANCH  30  31
ATOM     31  C   UNL A   1      36.468  30.106  31.004  1.00  0.00     0.202 C 
BRANCH  31  32
ATOM     32  C   UNL A   1      37.051  31.517  30.824  1.00  0.00     0.261 C 
BRANCH  32  33
ATOM     33  O   UNL A   1      37.733  32.090  31.949  1.00  0.00    -0.460 OA
BRANCH  33  34
ATOM     34  C   UNL A   1      38.381  31.251  32.784  1.00  0.00     0.338 C 
ATOM     35  O   UNL A   1      37.907  30.640  33.729  1.00  0.00    -0.246 OA
BRANCH  34  36
ATOM     36  C   UNL A   1      39.739  31.053  32.237  1.00  0.00     0.060 A 
ATOM     37  C   UNL A   1      40.069  31.608  30.994  1.00  0.00     0.016 A 
ATOM     38  C   UNL A   1      40.686  30.329  32.964  1.00  0.00     0.016 A 
ATOM     39  C   UNL A   1      41.343  31.414  30.460  1.00  0.00     0.010 A 
ATOM     40  C   UNL A   1      41.954  30.116  32.418  1.00  0.00     0.010 A 
ATOM     41  C   UNL A   1      42.276  30.628  31.149  1.00  0.00    -0.014 A 
BRANCH  41  42
ATOM     42  C   UNL A   1      43.509  30.171  30.462  1.00  0.00     0.031 A 
ATOM     43  C   UNL A   1      43.482  28.831  29.778  1.00  0.00     0.074 A 
ATOM     44  C   UNL A   1      44.618  30.931  30.431  1.00  0.00     0.049 A 
ATOM     45  N   UNL A   1      44.447  28.185  29.177  1.00  0.00    -0.248 NA
ATOM     46  C   UNL A   1      42.192  28.120  29.779  1.00  0.00     0.031 C 
ATOM     47  C   UNL A   1      44.749  32.266  31.014  1.00  0.00     0.029 A 
ATOM     48  N   UNL A   1      45.854  30.678  29.890  1.00  0.00    -0.354 N 
ATOM     49  C   UNL A   1      43.884  26.994  28.734  1.00  0.00     0.074 A 
ATOM     50  C   UNL A   1      42.503  26.990  29.163  1.00  0.00     0.031 C 
ATOM     51  C   UNL A   1      46.003  32.708  30.812  1.00  0.00     0.029 A 
ATOM     52  C   UNL A   1      46.772  31.675  30.120  1.00  0.00     0.049 A 
ATOM     53  H   UNL A   1      46.064  29.859  29.384  1.00  0.00     0.167 HD
ATOM     54  C   UNL A   1      44.463  25.998  28.025  1.00  0.00     0.037 A 
ATOM     55  C   UNL A   1      48.088  31.731  29.828  1.00  0.00     0.037 A 
ATOM     56  C   UNL A   1      45.839  26.010  27.602  1.00  0.00     0.049 A 
ATOM     57  C   UNL A   1      48.733  30.571  29.107  1.00  0.00     0.074 A 
ATOM     58  C   UNL A   1      46.521  25.053  26.871  1.00  0.00     0.029 A 
ATOM     59  N   UNL A   1      46.745  27.024  27.877  1.00  0.00    -0.354 N 
ATOM     60  N   UNL A   1      48.187  29.457  28.679  1.00  0.00    -0.248 NA
ATOM     61  C   UNL A   1      50.172  30.678  28.825  1.00  0.00     0.031 C 
ATOM     62  C   UNL A   1      47.854  25.462  26.754  1.00  0.00     0.029 A 
ATOM     63  C   UNL A   1      47.985  26.704  27.353  1.00  0.00     0.049 A 
ATOM     64  H   UNL A   1      46.536  27.849  28.372  1.00  0.00     0.167 HD
ATOM     65  C   UNL A   1      49.207  28.750  28.047  1.00  0.00     0.074 A 
ATOM     66  C   UNL A   1      50.399  29.566  28.141  1.00  0.00     0.031 C 
ATOM     67  C   UNL A   1      49.161  27.536  27.442  1.00  0.00     0.037 A 
BRANCH  54  68
ATOM     68  C   UNL A   1      43.622  24.800  27.682  1.00  0.00     0.058 A 
ATOM     69  C   UNL A   1      42.909  24.715  26.475  1.00  0.00     0.135 A 
ATOM     70  C   UNL A   1      43.565  23.700  28.553  1.00  0.00     0.135 A 
ATOM     71  F   UNL A   1      42.910  25.746  25.615  1.00  0.00    -0.206 F 
ATOM     72  C   UNL A   1      42.156  23.590  26.152  1.00  0.00     0.059 A 
ATOM     73  C   UNL A   1      42.843  22.552  28.238  1.00  0.00     0.059 A 
ATOM     74  F   UNL A   1      44.221  23.730  29.724  1.00  0.00    -0.206 F 
ATOM     75  C   UNL A   1      42.135  22.511  27.038  1.00  0.00     0.060 A 
BRANCH  75  76
ATOM     76  S   UNL A   1      41.174  21.050  26.590  1.00  0.00     0.124 S 
ATOM     77  O   UNL A   1      42.134  20.307  25.780  1.00  0.00    -0.237 OA
ATOM     78  O   UNL A   1      40.864  20.473  27.893  1.00  0.00    -0.237 OA
ATOM     79  O   UNL A   1      40.035  21.601  25.862  1.00  0.00    -0.744 OA
ENDBRANCH  75  76
ENDBRANCH  54  68
BRANCH  55  80
ATOM     80  C   UNL A   1      48.898  32.912  30.236  1.00  0.00     0.058 A 
ATOM     81  C   UNL A   1      49.531  32.965  31.486  1.00  0.00     0.135 A 
ATOM     82  C   UNL A   1      49.032  34.027  29.392  1.00  0.00     0.135 A 
ATOM     83  F   UNL A   1      49.424  31.931  32.336  1.00  0.00    -0.206 F 
ATOM     84  C   UNL A   1      50.245  34.086  31.898  1.00  0.00     0.059 A 
ATOM     85  C   UNL A   1      49.765  35.147  29.767  1.00  0.00     0.059 A 
ATOM     86  F   UNL A   1      48.458  34.026  28.178  1.00  0.00    -0.206 F 
ATOM     87  C   UNL A   1      50.357  35.174  31.029  1.00  0.00     0.060 A 
BRANCH  87  88
ATOM     88  S   UNL A   1      51.305  36.616  31.561  1.00  0.00     0.124 S 
ATOM     89  O   UNL A   1      50.266  37.638  31.636  1.00  0.00    -0.237 OA
ATOM     90  O   UNL A   1      51.853  36.167  32.837  1.00  0.00    -0.237 OA
ATOM     91  O   UNL A   1      52.283  36.786  30.490  1.00  0.00    -0.744 OA
ENDBRANCH  87  88
ENDBRANCH  55  80
BRANCH  67  92
ATOM     92  C   UNL A   1      50.420  27.032  26.786  1.00  0.00     0.058 A 
ATOM     93  C   UNL A   1      50.760  27.375  25.468  1.00  0.00     0.135 A 
ATOM     94  C   UNL A   1      51.330  26.244  27.511  1.00  0.00     0.135 A 
ATOM     95  F   UNL A   1      49.926  28.123  24.728  1.00  0.00    -0.206 F 
ATOM     96  C   UNL A   1      51.944  26.934  24.885  1.00  0.00     0.059 A 
ATOM     97  C   UNL A   1      52.534  25.819  26.960  1.00  0.00     0.059 A 
ATOM     98  F   UNL A   1      51.062  25.897  28.781  1.00  0.00    -0.206 F 
ATOM     99  C   UNL A   1      52.826  26.158  25.640  1.00  0.00     0.060 A 
BRANCH  99 100
ATOM    100  S   UNL A   1      54.374  25.622  24.882  1.00  0.00     0.124 S 
ATOM    101  O   UNL A   1      54.411  24.211  25.253  1.00  0.00    -0.237 OA
ATOM    102  O   UNL A   1      54.140  25.899  23.468  1.00  0.00    -0.237 OA
ATOM    103  O   UNL A   1      55.379  26.466  25.522  1.00  0.00    -0.744 OA
ENDBRANCH  99 100
ENDBRANCH  67  92
ENDBRANCH  41  42
ENDBRANCH  34  36
ENDBRANCH  33  34
ENDBRANCH  32  33
ENDBRANCH  31  32
ENDBRANCH  30  31
ENDBRANCH  29  30
ENDBRANCH   1  29
TORSDOF 25
ENDMDL
