MODEL 1
REMARK VINA RESULT:     -10.9      0.000      0.000
REMARK SMILES COc1ccc(-c2cc(Cl)cc3c2O[C@@H](C(F)(F)F)C(C(=O)OCCOCCOCCOCCOC(=O)c2ccc(-c4c5nc(c(-c6c(F)cc(S(=O)(=O)[O-])cc6F)c6ccc([nH]6)c(-c6c(F)cc(S(=O)(=O)[O-])cc6F)c6nc(c(-c7c(F)cc(S(=O)(=O)[O-])cc7F)c7ccc4[nH]7)C=C6)C=C5)cc2)=C3)cc1C
REMARK SMILES IDX 30 1 29 2 28 3 27 4 26 5 25 6 24 7 23 8 21 9 22 10 20 11
REMARK SMILES IDX 7 12 8 13 13 14 9 15 12 16 14 17 10 18 11 19 104 20 15 21
REMARK SMILES IDX 6 22 3 23 4 24 106 25 5 26 105 27 107 28 2 29 1 30 16 31
REMARK SMILES IDX 17 32 18 33 19 34 31 35 32 36 33 37 34 38 35 39 36 40 37 41
REMARK SMILES IDX 38 42 39 43 103 44 40 45 102 46 41 47 42 48 43 49 96 50
REMARK SMILES IDX 44 51 101 52 95 53 97 54 45 55 100 56 94 57 93 58 46 60
REMARK SMILES IDX 80 61 59 62 79 63 60 64 63 65 78 66 98 67 61 68 62 69 77 71
REMARK SMILES IDX 99 72 64 73 47 74 48 75 57 76 49 77 50 78 56 79 58 80 51 81
REMARK SMILES IDX 52 82 53 83 54 84 55 85 81 86 82 87 91 88 83 89 84 90 90 91
REMARK SMILES IDX 92 92 85 93 86 94 87 95 88 96 89 97 65 98 66 99 75 100
REMARK SMILES IDX 67 101 68 102 74 103 76 104 69 105 70 106 71 107 72 108
REMARK SMILES IDX 73 109
REMARK H PARENT 97 59 63 70
REMARK Flexibility Score: inf
ROOT
ATOM      1  C   UNL A   1      38.489  22.189  26.164  1.00  0.00     0.188 C 
ENDROOT
BRANCH   1   2
ATOM      2  O   UNL A   1      37.779  21.548  25.111  1.00  0.00    -0.377 OA
BRANCH   2   3
ATOM      3  C   UNL A   1      36.383  21.526  25.321  1.00  0.00     0.188 C 
BRANCH   3   4
ATOM      4  C   UNL A   1      35.786  22.879  25.552  1.00  0.00     0.188 C 
BRANCH   4   5
ATOM      5  O   UNL A   1      34.576  23.154  26.192  1.00  0.00    -0.376 OA
BRANCH   5   6
ATOM      6  C   UNL A   1      34.287  24.543  26.246  1.00  0.00     0.202 C 
BRANCH   6   7
ATOM      7  C   UNL A   1      34.178  25.603  25.042  1.00  0.00     0.261 C 
BRANCH   7   8
ATOM      8  O   UNL A   1      33.766  26.948  25.374  1.00  0.00    -0.460 OA
BRANCH   8   9
ATOM      9  C   UNL A   1      33.620  27.860  24.357  1.00  0.00     0.338 C 
ATOM     10  O   UNL A   1      33.268  27.651  23.207  1.00  0.00    -0.246 OA
BRANCH   9  11
ATOM     11  C   UNL A   1      33.382  29.229  24.985  1.00  0.00     0.087 C 
ATOM     12  C   UNL A   1      30.136  26.783  24.365  1.00  0.00     0.026 A 
ATOM     13  C   UNL A   1      29.183  27.345  23.519  1.00  0.00     0.033 A 
ATOM     14  C   UNL A   1      31.014  27.858  25.051  1.00  0.00     0.135 A 
ATOM     15  C   UNL A   1      29.113  28.740  23.286  1.00  0.00     0.042 A 
ATOM     16  C   UNL A   1      31.067  29.190  24.549  1.00  0.00     0.019 A 
ATOM     17  O   UNL A   1      31.976  27.750  26.110  1.00  0.00    -0.475 OA
ATOM     18  Cl  UNL A   1      27.857  29.366  22.291  1.00  0.00    -0.084 Cl
ATOM     19  C   UNL A   1      30.057  29.652  23.755  1.00  0.00     0.032 A 
ATOM     20  C   UNL A   1      32.328  29.998  24.641  1.00  0.00     0.027 C 
ATOM     21  C   UNL A   1      33.131  28.879  26.389  1.00  0.00     0.316 C 
BRANCH  12  22
ATOM     22  C   UNL A   1      30.186  25.109  24.348  1.00  0.00    -0.014 A 
ATOM     23  C   UNL A   1      31.744  21.784  25.024  1.00  0.00     0.121 A 
ATOM     24  C   UNL A   1      30.877  23.261  26.202  1.00  0.00     0.047 A 
ATOM     25  C   UNL A   1      31.570  22.305  23.302  1.00  0.00    -0.008 A 
ATOM     26  C   UNL A   1      30.081  24.626  25.689  1.00  0.00     0.013 A 
ATOM     27  C   UNL A   1      30.730  23.953  23.135  1.00  0.00     0.016 A 
ATOM     28  C   UNL A   1      32.433  21.579  22.290  1.00  0.00     0.048 C 
BRANCH  23  29
ATOM     29  O   UNL A   1      31.905  20.399  25.296  1.00  0.00    -0.496 OA
ATOM     30  C   UNL A   1      33.143  19.715  25.487  1.00  0.00     0.278 C 
ENDBRANCH  23  29
ENDBRANCH  12  22
BRANCH  21  31
ATOM     31  C   UNL A   1      34.628  28.830  27.079  1.00  0.00     0.430 C 
ATOM     32  F   UNL A   1      35.304  29.943  26.613  1.00  0.00    -0.167 F 
ATOM     33  F   UNL A   1      34.622  28.986  28.421  1.00  0.00    -0.167 F 
ATOM     34  F   UNL A   1      35.482  27.825  26.801  1.00  0.00    -0.167 F 
ENDBRANCH  21  31
ENDBRANCH   9  11
ENDBRANCH   8   9
ENDBRANCH   7   8
ENDBRANCH   6   7
ENDBRANCH   5   6
ENDBRANCH   4   5
ENDBRANCH   3   4
ENDBRANCH   2   3
ENDBRANCH   1   2
BRANCH   1  35
ATOM     35  C   UNL A   1      39.962  21.921  26.197  1.00  0.00     0.188 C 
BRANCH  35  36
ATOM     36  O   UNL A   1      40.131  20.645  26.832  1.00  0.00    -0.376 OA
BRANCH  36  37
ATOM     37  C   UNL A   1      40.705  19.554  26.163  1.00  0.00     0.202 C 
BRANCH  37  38
ATOM     38  C   UNL A   1      42.021  19.190  26.771  1.00  0.00     0.261 C 
BRANCH  38  39
ATOM     39  O   UNL A   1      43.224  19.531  25.956  1.00  0.00    -0.460 OA
BRANCH  39  40
ATOM     40  C   UNL A   1      44.064  20.597  25.678  1.00  0.00     0.338 C 
ATOM     41  O   UNL A   1      45.227  20.323  25.383  1.00  0.00    -0.246 OA
BRANCH  40  42
ATOM     42  C   UNL A   1      43.650  22.069  25.558  1.00  0.00     0.060 A 
ATOM     43  C   UNL A   1      43.868  22.907  24.437  1.00  0.00     0.016 A 
ATOM     44  C   UNL A   1      43.216  22.744  26.638  1.00  0.00     0.016 A 
ATOM     45  C   UNL A   1      44.042  24.364  24.537  1.00  0.00     0.010 A 
ATOM     46  C   UNL A   1      43.749  24.038  26.768  1.00  0.00     0.010 A 
ATOM     47  C   UNL A   1      44.193  24.953  25.784  1.00  0.00    -0.014 A 
BRANCH  47  48
ATOM     48  C   UNL A   1      44.568  26.458  26.307  1.00  0.00     0.031 A 
ATOM     49  C   UNL A   1      43.035  27.436  26.069  1.00  0.00     0.074 A 
ATOM     50  C   UNL A   1      45.699  26.675  27.238  1.00  0.00     0.049 A 
ATOM     51  N   UNL A   1      42.881  28.564  27.179  1.00  0.00    -0.248 NA
ATOM     52  C   UNL A   1      41.292  26.452  25.783  1.00  0.00     0.031 C 
ATOM     53  C   UNL A   1      46.004  27.559  28.503  1.00  0.00     0.029 A 
ATOM     54  N   UNL A   1      46.939  25.970  27.390  1.00  0.00    -0.354 N 
ATOM     55  C   UNL A   1      41.271  28.533  28.098  1.00  0.00     0.074 A 
ATOM     56  C   UNL A   1      40.228  26.980  27.044  1.00  0.00     0.031 C 
ATOM     57  C   UNL A   1      47.238  27.469  29.032  1.00  0.00     0.029 A 
ATOM     58  C   UNL A   1      47.940  26.799  28.043  1.00  0.00     0.049 A 
ATOM     59  H   UNL A   1      47.093  25.045  27.093  1.00  0.00     0.167 HD
ATOM     60  C   UNL A   1      41.109  29.782  28.949  1.00  0.00     0.037 A 
ATOM     61  C   UNL A   1      48.926  27.453  27.380  1.00  0.00     0.037 A 
ATOM     62  C   UNL A   1      42.491  30.410  29.211  1.00  0.00     0.049 A 
ATOM     63  C   UNL A   1      48.425  28.961  27.260  1.00  0.00     0.074 A 
ATOM     64  C   UNL A   1      43.158  30.835  30.354  1.00  0.00     0.029 A 
ATOM     65  N   UNL A   1      43.491  30.577  28.224  1.00  0.00    -0.354 N 
ATOM     66  N   UNL A   1      47.159  29.374  27.212  1.00  0.00    -0.248 NA
ATOM     67  C   UNL A   1      49.309  30.076  27.614  1.00  0.00     0.031 C 
ATOM     68  C   UNL A   1      44.561  30.898  30.122  1.00  0.00     0.029 A 
ATOM     69  C   UNL A   1      44.768  30.820  28.755  1.00  0.00     0.049 A 
ATOM     70  H   UNL A   1      43.309  30.526  27.257  1.00  0.00     0.167 HD
ATOM     71  C   UNL A   1      47.036  30.679  27.685  1.00  0.00     0.074 A 
ATOM     72  C   UNL A   1      48.433  31.063  27.886  1.00  0.00     0.031 C 
ATOM     73  C   UNL A   1      45.877  31.395  27.969  1.00  0.00     0.037 A 
BRANCH  60  74
ATOM     74  C   UNL A   1      39.740  30.571  29.719  1.00  0.00     0.058 A 
ATOM     75  C   UNL A   1      38.488  30.685  29.058  1.00  0.00     0.135 A 
ATOM     76  C   UNL A   1      39.553  31.127  31.063  1.00  0.00     0.135 A 
ATOM     77  F   UNL A   1      38.237  30.096  27.893  1.00  0.00    -0.206 F 
ATOM     78  C   UNL A   1      37.326  31.338  29.577  1.00  0.00     0.059 A 
ATOM     79  C   UNL A   1      38.429  31.764  31.595  1.00  0.00     0.059 A 
ATOM     80  F   UNL A   1      40.416  31.063  32.090  1.00  0.00    -0.206 F 
ATOM     81  C   UNL A   1      37.308  31.886  30.844  1.00  0.00     0.060 A 
BRANCH  81  82
ATOM     82  S   UNL A   1      35.864  32.664  31.568  1.00  0.00     0.124 S 
ATOM     83  O   UNL A   1      35.376  31.620  32.461  1.00  0.00    -0.237 OA
ATOM     84  O   UNL A   1      36.430  33.847  32.203  1.00  0.00    -0.237 OA
ATOM     85  O   UNL A   1      35.003  32.937  30.417  1.00  0.00    -0.744 OA
ENDBRANCH  81  82
ENDBRANCH  60  74
BRANCH  61  86
ATOM     86  C   UNL A   1      49.467  26.319  26.530  1.00  0.00     0.058 A 
ATOM     87  C   UNL A   1      49.675  26.674  25.138  1.00  0.00     0.135 A 
ATOM     88  C   UNL A   1      50.459  25.520  27.115  1.00  0.00     0.135 A 
ATOM     89  F   UNL A   1      48.796  27.486  24.517  1.00  0.00    -0.206 F 
ATOM     90  C   UNL A   1      50.900  26.471  24.479  1.00  0.00     0.059 A 
ATOM     91  C   UNL A   1      51.700  25.339  26.468  1.00  0.00     0.059 A 
ATOM     92  F   UNL A   1      50.391  25.275  28.434  1.00  0.00    -0.206 F 
ATOM     93  C   UNL A   1      51.922  25.824  25.166  1.00  0.00     0.060 A 
BRANCH  93  94
ATOM     94  S   UNL A   1      53.580  25.739  24.414  1.00  0.00     0.124 S 
ATOM     95  O   UNL A   1      54.001  24.395  24.782  1.00  0.00    -0.237 OA
ATOM     96  O   UNL A   1      53.344  25.949  22.987  1.00  0.00    -0.237 OA
ATOM     97  O   UNL A   1      54.288  26.825  25.074  1.00  0.00    -0.744 OA
ENDBRANCH  93  94
ENDBRANCH  61  86
BRANCH  73  98
ATOM     98  C   UNL A   1      45.721  32.909  27.729  1.00  0.00     0.058 A 
ATOM     99  C   UNL A   1      44.961  33.446  26.687  1.00  0.00     0.135 A 
ATOM    100  C   UNL A   1      46.192  33.885  28.668  1.00  0.00     0.135 A 
ATOM    101  F   UNL A   1      44.338  32.684  25.782  1.00  0.00    -0.206 F 
ATOM    102  C   UNL A   1      44.732  34.809  26.549  1.00  0.00     0.059 A 
ATOM    103  C   UNL A   1      45.909  35.244  28.590  1.00  0.00     0.059 A 
ATOM    104  F   UNL A   1      46.915  33.585  29.751  1.00  0.00    -0.206 F 
ATOM    105  C   UNL A   1      45.184  35.697  27.514  1.00  0.00     0.060 A 
BRANCH 105 106
ATOM    106  S   UNL A   1      44.736  37.420  27.349  1.00  0.00     0.124 S 
ATOM    107  O   UNL A   1      43.442  37.320  26.681  1.00  0.00    -0.237 OA
ATOM    108  O   UNL A   1      44.696  37.850  28.745  1.00  0.00    -0.237 OA
ATOM    109  O   UNL A   1      45.817  37.990  26.552  1.00  0.00    -0.744 OA
ENDBRANCH 105 106
ENDBRANCH  73  98
ENDBRANCH  47  48
ENDBRANCH  40  42
ENDBRANCH  39  40
ENDBRANCH  38  39
ENDBRANCH  37  38
ENDBRANCH  36  37
ENDBRANCH  35  36
ENDBRANCH   1  35
TORSDOF 26
ENDMDL
MODEL 2
REMARK VINA RESULT:      -9.6      2.150      2.799
REMARK SMILES COc1ccc(-c2cc(Cl)cc3c2O[C@@H](C(F)(F)F)C(C(=O)OCCOCCOCCOCCOC(=O)c2ccc(-c4c5nc(c(-c6c(F)cc(S(=O)(=O)[O-])cc6F)c6ccc([nH]6)c(-c6c(F)cc(S(=O)(=O)[O-])cc6F)c6nc(c(-c7c(F)cc(S(=O)(=O)[O-])cc7F)c7ccc4[nH]7)C=C6)C=C5)cc2)=C3)cc1C
REMARK SMILES IDX 30 1 29 2 28 3 27 4 26 5 25 6 24 7 23 8 21 9 22 10 20 11
REMARK SMILES IDX 7 12 8 13 13 14 9 15 12 16 14 17 10 18 11 19 104 20 15 21
REMARK SMILES IDX 6 22 3 23 4 24 106 25 5 26 105 27 107 28 2 29 1 30 16 31
REMARK SMILES IDX 17 32 18 33 19 34 31 35 32 36 33 37 34 38 35 39 36 40 37 41
REMARK SMILES IDX 38 42 39 43 103 44 40 45 102 46 41 47 42 48 43 49 96 50
REMARK SMILES IDX 44 51 101 52 95 53 97 54 45 55 100 56 94 57 93 58 46 60
REMARK SMILES IDX 80 61 59 62 79 63 60 64 63 65 78 66 98 67 61 68 62 69 77 71
REMARK SMILES IDX 99 72 64 73 47 74 48 75 57 76 49 77 50 78 56 79 58 80 51 81
REMARK SMILES IDX 52 82 53 83 54 84 55 85 81 86 82 87 91 88 83 89 84 90 90 91
REMARK SMILES IDX 92 92 85 93 86 94 87 95 88 96 89 97 65 98 66 99 75 100
REMARK SMILES IDX 67 101 68 102 74 103 76 104 69 105 70 106 71 107 72 108
REMARK SMILES IDX 73 109
REMARK H PARENT 97 59 63 70
REMARK Flexibility Score: inf
ROOT
ATOM      1  C   UNL A   1      38.323  23.150  26.422  1.00  0.00     0.188 C 
ENDROOT
BRANCH   1   2
ATOM      2  O   UNL A   1      37.976  22.114  25.511  1.00  0.00    -0.377 OA
BRANCH   2   3
ATOM      3  C   UNL A   1      36.632  21.699  25.633  1.00  0.00     0.188 C 
BRANCH   3   4
ATOM      4  C   UNL A   1      35.638  22.780  25.344  1.00  0.00     0.188 C 
BRANCH   4   5
ATOM      5  O   UNL A   1      34.720  23.326  26.243  1.00  0.00    -0.376 OA
BRANCH   5   6
ATOM      6  C   UNL A   1      34.636  24.740  26.151  1.00  0.00     0.202 C 
BRANCH   6   7
ATOM      7  C   UNL A   1      33.761  25.640  25.146  1.00  0.00     0.261 C 
BRANCH   7   8
ATOM      8  O   UNL A   1      33.644  27.050  25.444  1.00  0.00    -0.460 OA
BRANCH   8   9
ATOM      9  C   UNL A   1      33.583  27.939  24.399  1.00  0.00     0.338 C 
ATOM     10  O   UNL A   1      33.311  27.708  23.232  1.00  0.00    -0.246 OA
BRANCH   9  11
ATOM     11  C   UNL A   1      33.319  29.326  24.977  1.00  0.00     0.087 C 
ATOM     12  C   UNL A   1      30.109  26.834  24.358  1.00  0.00     0.026 A 
ATOM     13  C   UNL A   1      29.172  27.361  23.472  1.00  0.00     0.033 A 
ATOM     14  C   UNL A   1      30.961  27.937  25.030  1.00  0.00     0.135 A 
ATOM     15  C   UNL A   1      29.097  28.747  23.194  1.00  0.00     0.042 A 
ATOM     16  C   UNL A   1      31.015  29.253  24.487  1.00  0.00     0.019 A 
ATOM     17  O   UNL A   1      31.898  27.870  26.115  1.00  0.00    -0.475 OA
ATOM     18  Cl  UNL A   1      27.860  29.331  22.149  1.00  0.00    -0.084 Cl
ATOM     19  C   UNL A   1      30.022  29.682  23.655  1.00  0.00     0.032 A 
ATOM     20  C   UNL A   1      32.268  30.074  24.585  1.00  0.00     0.027 C 
ATOM     21  C   UNL A   1      33.036  29.017  26.385  1.00  0.00     0.316 C 
BRANCH  12  22
ATOM     22  C   UNL A   1      30.172  25.161  24.395  1.00  0.00    -0.014 A 
ATOM     23  C   UNL A   1      31.807  21.871  25.061  1.00  0.00     0.121 A 
ATOM     24  C   UNL A   1      31.021  23.383  26.251  1.00  0.00     0.047 A 
ATOM     25  C   UNL A   1      31.496  22.330  23.341  1.00  0.00    -0.008 A 
ATOM     26  C   UNL A   1      30.175  24.724  25.756  1.00  0.00     0.013 A 
ATOM     27  C   UNL A   1      30.630  23.966  23.184  1.00  0.00     0.016 A 
ATOM     28  C   UNL A   1      32.283  21.575  22.290  1.00  0.00     0.048 C 
BRANCH  23  29
ATOM     29  O   UNL A   1      32.001  20.497  25.368  1.00  0.00    -0.496 OA
ATOM     30  C   UNL A   1      33.256  19.829  25.488  1.00  0.00     0.278 C 
ENDBRANCH  23  29
ENDBRANCH  12  22
BRANCH  21  31
ATOM     31  C   UNL A   1      34.517  29.002  27.113  1.00  0.00     0.430 C 
ATOM     32  F   UNL A   1      34.976  30.307  27.079  1.00  0.00    -0.167 F 
ATOM     33  F   UNL A   1      34.482  28.700  28.429  1.00  0.00    -0.167 F 
ATOM     34  F   UNL A   1      35.542  28.312  26.575  1.00  0.00    -0.167 F 
ENDBRANCH  21  31
ENDBRANCH   9  11
ENDBRANCH   8   9
ENDBRANCH   7   8
ENDBRANCH   6   7
ENDBRANCH   5   6
ENDBRANCH   4   5
ENDBRANCH   3   4
ENDBRANCH   2   3
ENDBRANCH   1   2
BRANCH   1  35
ATOM     35  C   UNL A   1      39.769  23.204  26.808  1.00  0.00     0.188 C 
BRANCH  35  36
ATOM     36  O   UNL A   1      40.070  21.952  27.440  1.00  0.00    -0.376 OA
BRANCH  36  37
ATOM     37  C   UNL A   1      40.516  20.841  26.710  1.00  0.00     0.202 C 
BRANCH  37  38
ATOM     38  C   UNL A   1      41.997  20.891  26.514  1.00  0.00     0.261 C 
BRANCH  38  39
ATOM     39  O   UNL A   1      42.466  21.679  25.337  1.00  0.00    -0.460 OA
BRANCH  39  40
ATOM     40  C   UNL A   1      43.465  22.565  24.969  1.00  0.00     0.338 C 
ATOM     41  O   UNL A   1      44.395  22.107  24.305  1.00  0.00    -0.246 OA
BRANCH  40  42
ATOM     42  C   UNL A   1      43.453  24.084  25.181  1.00  0.00     0.060 A 
ATOM     43  C   UNL A   1      44.450  24.993  24.750  1.00  0.00     0.016 A 
ATOM     44  C   UNL A   1      42.552  24.649  26.006  1.00  0.00     0.016 A 
ATOM     45  C   UNL A   1      44.748  26.255  25.443  1.00  0.00     0.010 A 
ATOM     46  C   UNL A   1      43.082  25.632  26.858  1.00  0.00     0.010 A 
ATOM     47  C   UNL A   1      44.178  26.509  26.682  1.00  0.00    -0.014 A 
BRANCH  47  48
ATOM     48  C   UNL A   1      44.375  27.668  27.822  1.00  0.00     0.031 A 
ATOM     49  C   UNL A   1      43.170  28.977  27.378  1.00  0.00     0.074 A 
ATOM     50  C   UNL A   1      44.986  27.342  29.131  1.00  0.00     0.049 A 
ATOM     51  N   UNL A   1      42.609  29.719  28.668  1.00  0.00    -0.248 NA
ATOM     52  C   UNL A   1      41.677  28.524  26.091  1.00  0.00     0.031 C 
ATOM     53  C   UNL A   1      44.752  27.713  30.642  1.00  0.00     0.029 A 
ATOM     54  N   UNL A   1      45.984  26.376  29.488  1.00  0.00    -0.354 N 
ATOM     55  C   UNL A   1      40.760  29.757  28.799  1.00  0.00     0.074 A 
ATOM     56  C   UNL A   1      40.199  28.860  26.931  1.00  0.00     0.031 C 
ATOM     57  C   UNL A   1      45.616  27.204  31.540  1.00  0.00     0.029 A 
ATOM     58  C   UNL A   1      46.641  26.732  30.736  1.00  0.00     0.049 A 
ATOM     59  H   UNL A   1      46.197  25.574  28.958  1.00  0.00     0.167 HD
ATOM     60  C   UNL A   1      40.314  30.692  29.911  1.00  0.00     0.037 A 
ATOM     61  C   UNL A   1      47.856  27.329  30.804  1.00  0.00     0.037 A 
ATOM     62  C   UNL A   1      41.473  30.899  30.905  1.00  0.00     0.049 A 
ATOM     63  C   UNL A   1      47.555  28.873  31.059  1.00  0.00     0.074 A 
ATOM     64  C   UNL A   1      41.589  30.803  32.286  1.00  0.00     0.029 A 
ATOM     65  N   UNL A   1      42.815  31.139  30.526  1.00  0.00    -0.354 N 
ATOM     66  N   UNL A   1      46.470  29.543  30.674  1.00  0.00    -0.248 NA
ATOM     67  C   UNL A   1      48.257  29.611  32.114  1.00  0.00     0.031 C 
ATOM     68  C   UNL A   1      42.950  30.630  32.666  1.00  0.00     0.029 A 
ATOM     69  C   UNL A   1      43.737  30.929  31.566  1.00  0.00     0.049 A 
ATOM     70  H   UNL A   1      43.078  31.425  29.621  1.00  0.00     0.167 HD
ATOM     71  C   UNL A   1      46.230  30.637  31.502  1.00  0.00     0.074 A 
ATOM     72  C   UNL A   1      47.414  30.632  32.362  1.00  0.00     0.031 C 
ATOM     73  C   UNL A   1      45.112  31.463  31.550  1.00  0.00     0.037 A 
BRANCH  60  74
ATOM     74  C   UNL A   1      38.798  31.485  30.312  1.00  0.00     0.058 A 
ATOM     75  C   UNL A   1      37.629  31.276  29.532  1.00  0.00     0.135 A 
ATOM     76  C   UNL A   1      38.402  32.341  31.434  1.00  0.00     0.135 A 
ATOM     77  F   UNL A   1      37.573  30.383  28.549  1.00  0.00    -0.206 F 
ATOM     78  C   UNL A   1      36.359  31.898  29.749  1.00  0.00     0.059 A 
ATOM     79  C   UNL A   1      37.170  32.955  31.671  1.00  0.00     0.059 A 
ATOM     80  F   UNL A   1      39.138  32.645  32.516  1.00  0.00    -0.206 F 
ATOM     81  C   UNL A   1      36.140  32.747  30.815  1.00  0.00     0.060 A 
BRANCH  81  82
ATOM     82  S   UNL A   1      34.555  33.507  31.168  1.00  0.00     0.124 S 
ATOM     83  O   UNL A   1      33.933  33.531  29.850  1.00  0.00    -0.237 OA
ATOM     84  O   UNL A   1      33.977  32.589  32.141  1.00  0.00    -0.237 OA
ATOM     85  O   UNL A   1      34.912  34.822  31.702  1.00  0.00    -0.744 OA
ENDBRANCH  81  82
ENDBRANCH  60  74
BRANCH  61  86
ATOM     86  C   UNL A   1      48.647  26.419  29.884  1.00  0.00     0.058 A 
ATOM     87  C   UNL A   1      49.035  27.040  28.631  1.00  0.00     0.135 A 
ATOM     88  C   UNL A   1      49.615  25.607  30.492  1.00  0.00     0.135 A 
ATOM     89  F   UNL A   1      48.182  27.880  28.010  1.00  0.00    -0.206 F 
ATOM     90  C   UNL A   1      50.363  27.061  28.174  1.00  0.00     0.059 A 
ATOM     91  C   UNL A   1      50.956  25.649  30.053  1.00  0.00     0.059 A 
ATOM     92  F   UNL A   1      49.366  25.118  31.717  1.00  0.00    -0.206 F 
ATOM     93  C   UNL A   1      51.328  26.381  28.910  1.00  0.00     0.060 A 
BRANCH  93  94
ATOM     94  S   UNL A   1      53.083  26.570  28.460  1.00  0.00     0.124 S 
ATOM     95  O   UNL A   1      53.208  25.625  27.359  1.00  0.00    -0.237 OA
ATOM     96  O   UNL A   1      53.215  27.978  28.091  1.00  0.00    -0.237 OA
ATOM     97  O   UNL A   1      53.772  26.202  29.687  1.00  0.00    -0.744 OA
ENDBRANCH  93  94
ENDBRANCH  61  86
BRANCH  73  98
ATOM     98  C   UNL A   1      45.172  32.975  31.841  1.00  0.00     0.058 A 
ATOM     99  C   UNL A   1      45.198  33.507  33.133  1.00  0.00     0.135 A 
ATOM    100  C   UNL A   1      45.393  33.946  30.808  1.00  0.00     0.135 A 
ATOM    101  F   UNL A   1      45.130  32.744  34.228  1.00  0.00    -0.206 F 
ATOM    102  C   UNL A   1      45.369  34.863  33.383  1.00  0.00     0.059 A 
ATOM    103  C   UNL A   1      45.644  35.293  31.042  1.00  0.00     0.059 A 
ATOM    104  F   UNL A   1      45.433  33.648  29.505  1.00  0.00    -0.206 F 
ATOM    105  C   UNL A   1      45.617  35.743  32.340  1.00  0.00     0.060 A 
BRANCH 105 106
ATOM    106  S   UNL A   1      45.967  37.450  32.743  1.00  0.00     0.124 S 
ATOM    107  O   UNL A   1      45.267  37.595  34.016  1.00  0.00    -0.237 OA
ATOM    108  O   UNL A   1      47.426  37.442  32.821  1.00  0.00    -0.237 OA
ATOM    109  O   UNL A   1      45.406  38.197  31.624  1.00  0.00    -0.744 OA
ENDBRANCH 105 106
ENDBRANCH  73  98
ENDBRANCH  47  48
ENDBRANCH  40  42
ENDBRANCH  39  40
ENDBRANCH  38  39
ENDBRANCH  37  38
ENDBRANCH  36  37
ENDBRANCH  35  36
ENDBRANCH   1  35
TORSDOF 26
ENDMDL
MODEL 3
REMARK VINA RESULT:      -9.5      5.903     13.790
REMARK SMILES COc1ccc(-c2cc(Cl)cc3c2O[C@@H](C(F)(F)F)C(C(=O)OCCOCCOCCOCCOC(=O)c2ccc(-c4c5nc(c(-c6c(F)cc(S(=O)(=O)[O-])cc6F)c6ccc([nH]6)c(-c6c(F)cc(S(=O)(=O)[O-])cc6F)c6nc(c(-c7c(F)cc(S(=O)(=O)[O-])cc7F)c7ccc4[nH]7)C=C6)C=C5)cc2)=C3)cc1C
REMARK SMILES IDX 30 1 29 2 28 3 27 4 26 5 25 6 24 7 23 8 21 9 22 10 20 11
REMARK SMILES IDX 7 12 8 13 13 14 9 15 12 16 14 17 10 18 11 19 104 20 15 21
REMARK SMILES IDX 6 22 3 23 4 24 106 25 5 26 105 27 107 28 2 29 1 30 16 31
REMARK SMILES IDX 17 32 18 33 19 34 31 35 32 36 33 37 34 38 35 39 36 40 37 41
REMARK SMILES IDX 38 42 39 43 103 44 40 45 102 46 41 47 42 48 43 49 96 50
REMARK SMILES IDX 44 51 101 52 95 53 97 54 45 55 100 56 94 57 93 58 46 60
REMARK SMILES IDX 80 61 59 62 79 63 60 64 63 65 78 66 98 67 61 68 62 69 77 71
REMARK SMILES IDX 99 72 64 73 47 74 48 75 57 76 49 77 50 78 56 79 58 80 51 81
REMARK SMILES IDX 52 82 53 83 54 84 55 85 81 86 82 87 91 88 83 89 84 90 90 91
REMARK SMILES IDX 92 92 85 93 86 94 87 95 88 96 89 97 65 98 66 99 75 100
REMARK SMILES IDX 67 101 68 102 74 103 76 104 69 105 70 106 71 107 72 108
REMARK SMILES IDX 73 109
REMARK H PARENT 97 59 63 70
REMARK Flexibility Score: inf
ROOT
ATOM      1  C   UNL A   1      45.319  33.575  26.130  1.00  0.00     0.188 C 
ENDROOT
BRANCH   1   2
ATOM      2  O   UNL A   1      45.269  32.203  25.756  1.00  0.00    -0.377 OA
BRANCH   2   3
ATOM      3  C   UNL A   1      46.022  31.372  26.613  1.00  0.00     0.188 C 
BRANCH   3   4
ATOM      4  C   UNL A   1      46.139  29.959  26.134  1.00  0.00     0.188 C 
BRANCH   4   5
ATOM      5  O   UNL A   1      47.295  29.336  25.659  1.00  0.00    -0.376 OA
BRANCH   5   6
ATOM      6  C   UNL A   1      47.137  27.933  25.501  1.00  0.00     0.202 C 
BRANCH   6   7
ATOM      7  C   UNL A   1      45.874  27.113  24.939  1.00  0.00     0.261 C 
BRANCH   7   8
ATOM      8  O   UNL A   1      46.094  25.740  24.541  1.00  0.00    -0.460 OA
BRANCH   8   9
ATOM      9  C   UNL A   1      45.483  24.742  25.262  1.00  0.00     0.338 C 
ATOM     10  O   UNL A   1      44.336  24.339  25.162  1.00  0.00    -0.246 OA
BRANCH   9  11
ATOM     11  C   UNL A   1      46.570  23.810  25.786  1.00  0.00     0.087 C 
ATOM     12  C   UNL A   1      44.698  26.311  28.458  1.00  0.00     0.026 A 
ATOM     13  C   UNL A   1      45.575  27.189  29.090  1.00  0.00     0.033 A 
ATOM     14  C   UNL A   1      45.415  25.041  27.941  1.00  0.00     0.135 A 
ATOM     15  C   UNL A   1      46.968  26.941  29.160  1.00  0.00     0.042 A 
ATOM     16  C   UNL A   1      46.832  25.007  27.798  1.00  0.00     0.019 A 
ATOM     17  O   UNL A   1      44.891  23.819  27.403  1.00  0.00    -0.475 OA
ATOM     18  Cl  UNL A   1      47.976  28.033  30.027  1.00  0.00    -0.084 Cl
ATOM     19  C   UNL A   1      47.602  25.894  28.495  1.00  0.00     0.032 A 
ATOM     20  C   UNL A   1      47.477  24.213  26.699  1.00  0.00     0.027 C 
ATOM     21  C   UNL A   1      45.780  22.790  26.488  1.00  0.00     0.316 C 
BRANCH  12  22
ATOM     22  C   UNL A   1      43.130  26.879  28.304  1.00  0.00    -0.014 A 
ATOM     23  C   UNL A   1      39.669  27.571  29.521  1.00  0.00     0.121 A 
ATOM     24  C   UNL A   1      41.544  28.385  29.899  1.00  0.00     0.047 A 
ATOM     25  C   UNL A   1      39.882  26.312  28.241  1.00  0.00    -0.008 A 
ATOM     26  C   UNL A   1      42.972  28.039  29.123  1.00  0.00     0.013 A 
ATOM     27  C   UNL A   1      41.652  26.127  27.709  1.00  0.00     0.016 A 
ATOM     28  C   UNL A   1      38.735  25.340  28.057  1.00  0.00     0.048 C 
BRANCH  23  29
ATOM     29  O   UNL A   1      38.386  28.161  29.679  1.00  0.00    -0.496 OA
ATOM     30  C   UNL A   1      38.096  29.558  29.690  1.00  0.00     0.278 C 
ENDBRANCH  23  29
ENDBRANCH  12  22
BRANCH  21  31
ATOM     31  C   UNL A   1      45.401  21.684  25.325  1.00  0.00     0.430 C 
ATOM     32  F   UNL A   1      46.192  20.576  25.573  1.00  0.00    -0.167 F 
ATOM     33  F   UNL A   1      44.138  21.211  25.403  1.00  0.00    -0.167 F 
ATOM     34  F   UNL A   1      45.648  21.939  24.024  1.00  0.00    -0.167 F 
ENDBRANCH  21  31
ENDBRANCH   9  11
ENDBRANCH   8   9
ENDBRANCH   7   8
ENDBRANCH   6   7
ENDBRANCH   5   6
ENDBRANCH   4   5
ENDBRANCH   3   4
ENDBRANCH   2   3
ENDBRANCH   1   2
BRANCH   1  35
ATOM     35  C   UNL A   1      46.487  33.963  26.983  1.00  0.00     0.188 C 
BRANCH  35  36
ATOM     36  O   UNL A   1      46.145  35.212  27.602  1.00  0.00    -0.376 OA
BRANCH  36  37
ATOM     37  C   UNL A   1      46.938  36.358  27.449  1.00  0.00     0.202 C 
BRANCH  37  38
ATOM     38  C   UNL A   1      46.250  37.372  26.593  1.00  0.00     0.261 C 
BRANCH  38  39
ATOM     39  O   UNL A   1      45.629  38.516  27.322  1.00  0.00    -0.460 OA
BRANCH  39  40
ATOM     40  C   UNL A   1      44.439  38.881  27.930  1.00  0.00     0.338 C 
ATOM     41  O   UNL A   1      43.838  39.839  27.442  1.00  0.00    -0.246 OA
BRANCH  40  42
ATOM     42  C   UNL A   1      43.727  38.122  29.056  1.00  0.00     0.060 A 
ATOM     43  C   UNL A   1      44.039  38.194  30.436  1.00  0.00     0.016 A 
ATOM     44  C   UNL A   1      42.852  37.141  28.769  1.00  0.00     0.016 A 
ATOM     45  C   UNL A   1      43.812  37.085  31.375  1.00  0.00     0.010 A 
ATOM     46  C   UNL A   1      42.990  35.989  29.561  1.00  0.00     0.010 A 
ATOM     47  C   UNL A   1      43.454  35.835  30.889  1.00  0.00    -0.014 A 
BRANCH  47  48
ATOM     48  C   UNL A   1      43.283  34.349  31.554  1.00  0.00     0.031 A 
ATOM     49  C   UNL A   1      44.942  33.580  31.424  1.00  0.00     0.074 A 
ATOM     50  C   UNL A   1      42.174  34.066  32.494  1.00  0.00     0.049 A 
ATOM     51  N   UNL A   1      45.230  32.597  32.641  1.00  0.00    -0.248 NA
ATOM     52  C   UNL A   1      46.537  34.768  31.056  1.00  0.00     0.031 C 
ATOM     53  C   UNL A   1      41.970  33.273  33.837  1.00  0.00     0.029 A 
ATOM     54  N   UNL A   1      40.845  34.599  32.567  1.00  0.00    -0.354 N 
ATOM     55  C   UNL A   1      46.800  32.943  33.564  1.00  0.00     0.074 A 
ATOM     56  C   UNL A   1      47.637  34.520  32.371  1.00  0.00     0.031 C 
ATOM     57  C   UNL A   1      40.724  33.237  34.345  1.00  0.00     0.029 A 
ATOM     58  C   UNL A   1      39.956  33.703  33.291  1.00  0.00     0.049 A 
ATOM     59  H   UNL A   1      40.569  35.460  32.179  1.00  0.00     0.167 HD
ATOM     60  C   UNL A   1      47.118  31.818  34.534  1.00  0.00     0.037 A 
ATOM     61  C   UNL A   1      39.086  32.856  32.688  1.00  0.00     0.037 A 
ATOM     62  C   UNL A   1      45.832  31.028  34.846  1.00  0.00     0.049 A 
ATOM     63  C   UNL A   1      39.796  31.430  32.719  1.00  0.00     0.074 A 
ATOM     64  C   UNL A   1      45.207  30.625  36.020  1.00  0.00     0.029 A 
ATOM     65  N   UNL A   1      44.886  30.628  33.873  1.00  0.00    -0.354 N 
ATOM     66  N   UNL A   1      41.108  31.196  32.721  1.00  0.00    -0.248 NA
ATOM     67  C   UNL A   1      39.070  30.239  33.174  1.00  0.00     0.031 C 
ATOM     68  C   UNL A   1      43.832  30.342  35.786  1.00  0.00     0.029 A 
ATOM     69  C   UNL A   1      43.644  30.259  34.416  1.00  0.00     0.049 A 
ATOM     70  H   UNL A   1      45.080  30.611  32.907  1.00  0.00     0.167 HD
ATOM     71  C   UNL A   1      41.403  29.974  33.320  1.00  0.00     0.074 A 
ATOM     72  C   UNL A   1      40.070  29.417  33.548  1.00  0.00     0.031 C 
ATOM     73  C   UNL A   1      42.644  29.460  33.682  1.00  0.00     0.037 A 
BRANCH  60  74
ATOM     74  C   UNL A   1      48.567  31.307  35.388  1.00  0.00     0.058 A 
ATOM     75  C   UNL A   1      49.518  30.449  34.776  1.00  0.00     0.135 A 
ATOM     76  C   UNL A   1      49.115  31.669  36.698  1.00  0.00     0.135 A 
ATOM     77  F   UNL A   1      49.443  30.091  33.497  1.00  0.00    -0.206 F 
ATOM     78  C   UNL A   1      50.707  29.946  35.391  1.00  0.00     0.059 A 
ATOM     79  C   UNL A   1      50.275  31.197  37.319  1.00  0.00     0.059 A 
ATOM     80  F   UNL A   1      48.642  32.601  37.542  1.00  0.00    -0.206 F 
ATOM     81  C   UNL A   1      51.073  30.316  36.670  1.00  0.00     0.060 A 
BRANCH  81  82
ATOM     82  S   UNL A   1      52.580  29.764  37.469  1.00  0.00     0.124 S 
ATOM     83  O   UNL A   1      52.362  30.185  38.847  1.00  0.00    -0.237 OA
ATOM     84  O   UNL A   1      52.558  28.328  37.220  1.00  0.00    -0.237 OA
ATOM     85  O   UNL A   1      53.635  30.493  36.765  1.00  0.00    -0.744 OA
ENDBRANCH  81  82
ENDBRANCH  60  74
BRANCH  61  86
ATOM     86  C   UNL A   1      38.410  33.815  31.727  1.00  0.00     0.058 A 
ATOM     87  C   UNL A   1      38.612  33.487  30.328  1.00  0.00     0.135 A 
ATOM     88  C   UNL A   1      37.121  34.243  32.077  1.00  0.00     0.135 A 
ATOM     89  F   UNL A   1      39.807  33.015  29.918  1.00  0.00    -0.206 F 
ATOM     90  C   UNL A   1      37.548  33.343  29.421  1.00  0.00     0.059 A 
ATOM     91  C   UNL A   1      36.046  34.071  31.178  1.00  0.00     0.059 A 
ATOM     92  F   UNL A   1      36.837  34.426  33.376  1.00  0.00    -0.206 F 
ATOM     93  C   UNL A   1      36.258  33.612  29.865  1.00  0.00     0.060 A 
BRANCH  93  94
ATOM     94  S   UNL A   1      34.847  33.229  28.778  1.00  0.00     0.124 S 
ATOM     95  O   UNL A   1      35.403  33.515  27.463  1.00  0.00    -0.237 OA
ATOM     96  O   UNL A   1      34.559  31.820  29.039  1.00  0.00    -0.237 OA
ATOM     97  O   UNL A   1      33.822  34.149  29.244  1.00  0.00    -0.744 OA
ENDBRANCH  93  94
ENDBRANCH  61  86
BRANCH  73  98
ATOM     98  C   UNL A   1      43.016  27.967  33.592  1.00  0.00     0.058 A 
ATOM     99  C   UNL A   1      43.938  27.460  32.673  1.00  0.00     0.135 A 
ATOM    100  C   UNL A   1      42.583  27.011  34.570  1.00  0.00     0.135 A 
ATOM    101  F   UNL A   1      44.544  28.228  31.762  1.00  0.00    -0.206 F 
ATOM    102  C   UNL A   1      44.351  26.134  32.678  1.00  0.00     0.059 A 
ATOM    103  C   UNL A   1      43.045  25.701  34.639  1.00  0.00     0.059 A 
ATOM    104  F   UNL A   1      41.724  27.292  35.554  1.00  0.00    -0.206 F 
ATOM    105  C   UNL A   1      43.924  25.270  33.675  1.00  0.00     0.060 A 
BRANCH 105 106
ATOM    106  S   UNL A   1      44.603  23.616  33.704  1.00  0.00     0.124 S 
ATOM    107  O   UNL A   1      44.534  23.251  32.293  1.00  0.00    -0.237 OA
ATOM    108  O   UNL A   1      45.944  23.856  34.231  1.00  0.00    -0.237 OA
ATOM    109  O   UNL A   1      43.706  22.883  34.591  1.00  0.00    -0.744 OA
ENDBRANCH 105 106
ENDBRANCH  73  98
ENDBRANCH  47  48
ENDBRANCH  40  42
ENDBRANCH  39  40
ENDBRANCH  38  39
ENDBRANCH  37  38
ENDBRANCH  36  37
ENDBRANCH  35  36
ENDBRANCH   1  35
TORSDOF 26
ENDMDL
