MODEL 1
REMARK VINA RESULT:      -9.7      0.000      0.000
REMARK SMILES COc1ccc(C2=NN(C(=O)CCC(=O)OCCOCCOCCOCCOC(=O)c3ccc(-c4c5nc(c(-c6c(F)cc(S(=O)(=O)[O-])cc6F)c6ccc([nH]6)c(-c6c(F)cc(S(=O)(=O)[O-])cc6F)c6nc(c(-c7c(F)cc(S(=O)(=O)[O-])cc7F)c7ccc4[nH]7)C=C6)C=C5)cc3)[C@H](c3ccc(Cl)cc3Cl)C2)cc1
REMARK SMILES IDX 21 1 20 2 19 3 18 4 17 5 16 6 14 7 15 8 13 9 12 10 10 11
REMARK SMILES IDX 11 12 9 13 7 14 8 15 106 16 97 17 6 18 3 19 4 20 108 21 5 22
REMARK SMILES IDX 107 23 2 24 1 25 98 26 99 27 104 28 100 29 103 30 105 31
REMARK SMILES IDX 101 32 102 33 22 34 23 35 24 36 25 37 26 38 27 39 28 40
REMARK SMILES IDX 29 41 30 42 31 43 32 44 96 45 33 46 95 47 34 48 35 49 36 50
REMARK SMILES IDX 89 51 37 52 94 53 88 54 90 55 38 56 93 57 87 58 86 59 39 61
REMARK SMILES IDX 73 62 52 63 72 64 53 65 56 66 71 67 91 68 54 69 55 70 70 72
REMARK SMILES IDX 92 73 57 74 40 75 41 76 50 77 42 78 43 79 49 80 51 81 44 82
REMARK SMILES IDX 45 83 46 84 47 85 48 86 74 87 75 88 84 89 76 90 77 91 83 92
REMARK SMILES IDX 85 93 78 94 79 95 80 96 81 97 82 98 58 99 59 100 68 101
REMARK SMILES IDX 60 102 61 103 67 104 69 105 62 106 63 107 64 108 65 109
REMARK SMILES IDX 66 110
REMARK H PARENT 90 60 56 71
REMARK Flexibility Score: inf
ROOT
ATOM      1  C   UNL A   1      39.453  29.922  33.098  1.00  0.00     0.188 C 
ENDROOT
BRANCH   1   2
ATOM      2  C   UNL A   1      40.120  30.974  34.595  1.00  0.00     0.188 C 
BRANCH   2   3
ATOM      3  O   UNL A   1      40.739  32.410  34.700  1.00  0.00    -0.376 OA
BRANCH   3   4
ATOM      4  C   UNL A   1      41.002  33.396  33.595  1.00  0.00     0.202 C 
BRANCH   4   5
ATOM      5  C   UNL A   1      40.615  33.139  32.092  1.00  0.00     0.261 C 
BRANCH   5   6
ATOM      6  O   UNL A   1      39.222  32.858  31.902  1.00  0.00    -0.463 OA
BRANCH   6   7
ATOM      7  C   UNL A   1      38.650  33.575  30.915  1.00  0.00     0.306 C 
ATOM      8  O   UNL A   1      38.341  34.759  31.018  1.00  0.00    -0.252 OA
BRANCH   7   9
ATOM      9  C   UNL A   1      38.640  32.886  29.572  1.00  0.00     0.132 C 
BRANCH   9  10
ATOM     10  C   UNL A   1      38.519  31.380  29.352  1.00  0.00     0.114 C 
BRANCH  10  11
ATOM     11  C   UNL A   1      37.305  30.513  28.961  1.00  0.00     0.243 C 
ATOM     12  O   UNL A   1      37.588  29.294  28.998  1.00  0.00    -0.273 OA
BRANCH  11  13
ATOM     13  N   UNL A   1      35.968  30.893  28.708  1.00  0.00    -0.225 N 
ATOM     14  C   UNL A   1      34.317  29.975  27.575  1.00  0.00     0.071 C 
ATOM     15  N   UNL A   1      35.311  29.723  28.341  1.00  0.00    -0.174 NA
ATOM     16  C   UNL A   1      33.974  31.438  27.333  1.00  0.00     0.091 C 
ATOM     17  C   UNL A   1      34.884  32.268  28.393  1.00  0.00     0.149 C 
BRANCH  14  18
ATOM     18  C   UNL A   1      33.532  28.873  26.999  1.00  0.00    -0.002 A 
ATOM     19  C   UNL A   1      32.118  26.699  25.987  1.00  0.00     0.118 A 
ATOM     20  C   UNL A   1      33.504  26.728  25.905  1.00  0.00     0.047 A 
ATOM     21  C   UNL A   1      31.429  27.794  26.515  1.00  0.00     0.047 A 
ATOM     22  C   UNL A   1      34.209  27.824  26.386  1.00  0.00     0.014 A 
ATOM     23  C   UNL A   1      32.139  28.898  27.010  1.00  0.00     0.014 A 
BRANCH  19  24
ATOM     24  O   UNL A   1      31.557  25.534  25.553  1.00  0.00    -0.497 OA
ATOM     25  C   UNL A   1      30.597  24.961  26.423  1.00  0.00     0.278 C 
ENDBRANCH  19  24
ENDBRANCH  14  18
BRANCH  17  26
ATOM     26  C   UNL A   1      34.409  33.794  29.581  1.00  0.00    -0.004 A 
ATOM     27  C   UNL A   1      35.011  33.411  31.108  1.00  0.00     0.009 A 
ATOM     28  C   UNL A   1      33.638  35.431  29.650  1.00  0.00     0.047 A 
ATOM     29  C   UNL A   1      34.711  34.244  32.794  1.00  0.00     0.021 A 
ATOM     30  C   UNL A   1      33.352  36.341  31.158  1.00  0.00     0.041 A 
ATOM     31  Cl  UNL A   1      33.573  36.749  28.437  1.00  0.00    -0.084 Cl
ATOM     32  C   UNL A   1      33.855  35.786  32.739  1.00  0.00     0.042 A 
ATOM     33  Cl  UNL A   1      33.599  36.789  34.099  1.00  0.00    -0.084 Cl
ENDBRANCH  17  26
ENDBRANCH  11  13
ENDBRANCH  10  11
ENDBRANCH   9  10
ENDBRANCH   7   9
ENDBRANCH   6   7
ENDBRANCH   5   6
ENDBRANCH   4   5
ENDBRANCH   3   4
ENDBRANCH   2   3
ENDBRANCH   1   2
BRANCH   1  34
ATOM     34  O   UNL A   1      40.198  28.555  32.185  1.00  0.00    -0.377 OA
BRANCH  34  35
ATOM     35  C   UNL A   1      40.681  28.111  30.510  1.00  0.00     0.188 C 
BRANCH  35  36
ATOM     36  C   UNL A   1      40.176  26.709  29.179  1.00  0.00     0.188 C 
BRANCH  36  37
ATOM     37  O   UNL A   1      41.024  25.067  29.144  1.00  0.00    -0.376 OA
BRANCH  37  38
ATOM     38  C   UNL A   1      41.064  24.086  27.549  1.00  0.00     0.202 C 
BRANCH  38  39
ATOM     39  C   UNL A   1      40.720  25.238  25.681  1.00  0.00     0.261 C 
BRANCH  39  40
ATOM     40  O   UNL A   1      41.124  27.009  25.588  1.00  0.00    -0.460 OA
BRANCH  40  41
ATOM     41  C   UNL A   1      42.244  27.809  25.305  1.00  0.00     0.338 C 
ATOM     42  O   UNL A   1      42.233  28.801  24.586  1.00  0.00    -0.246 OA
BRANCH  41  43
ATOM     43  C   UNL A   1      43.521  27.559  26.154  1.00  0.00     0.060 A 
ATOM     44  C   UNL A   1      44.058  28.560  27.016  1.00  0.00     0.016 A 
ATOM     45  C   UNL A   1      44.171  26.328  26.187  1.00  0.00     0.016 A 
ATOM     46  C   UNL A   1      45.043  28.280  27.998  1.00  0.00     0.010 A 
ATOM     47  C   UNL A   1      45.257  26.086  27.080  1.00  0.00     0.010 A 
ATOM     48  C   UNL A   1      45.680  27.034  28.030  1.00  0.00    -0.014 A 
BRANCH  48  49
ATOM     49  C   UNL A   1      46.900  26.822  28.894  1.00  0.00     0.031 A 
ATOM     50  C   UNL A   1      48.247  27.070  28.269  1.00  0.00     0.074 A 
ATOM     51  C   UNL A   1      46.847  26.406  30.181  1.00  0.00     0.049 A 
ATOM     52  N   UNL A   1      49.442  26.904  28.773  1.00  0.00    -0.248 NA
ATOM     53  C   UNL A   1      48.242  27.487  26.859  1.00  0.00     0.031 C 
ATOM     54  C   UNL A   1      45.618  26.062  30.880  1.00  0.00     0.029 A 
ATOM     55  N   UNL A   1      47.820  26.257  31.155  1.00  0.00    -0.354 N 
ATOM     56  C   UNL A   1      50.323  27.082  27.712  1.00  0.00     0.074 A 
ATOM     57  C   UNL A   1      49.528  27.431  26.557  1.00  0.00     0.031 C 
ATOM     58  C   UNL A   1      45.880  25.909  32.191  1.00  0.00     0.029 A 
ATOM     59  C   UNL A   1      47.317  26.015  32.428  1.00  0.00     0.049 A 
ATOM     60  H   UNL A   1      48.784  26.317  30.963  1.00  0.00     0.167 HD
ATOM     61  C   UNL A   1      51.665  26.896  27.692  1.00  0.00     0.037 A 
ATOM     62  C   UNL A   1      47.949  25.892  33.625  1.00  0.00     0.037 A 
ATOM     63  C   UNL A   1      52.433  26.515  28.848  1.00  0.00     0.049 A 
ATOM     64  C   UNL A   1      49.463  25.816  33.597  1.00  0.00     0.074 A 
ATOM     65  C   UNL A   1      53.791  26.268  28.938  1.00  0.00     0.029 A 
ATOM     66  N   UNL A   1      51.905  26.312  30.117  1.00  0.00    -0.354 N 
ATOM     67  N   UNL A   1      50.283  26.019  32.591  1.00  0.00    -0.248 NA
ATOM     68  C   UNL A   1      50.139  25.412  34.842  1.00  0.00     0.031 C 
ATOM     69  C   UNL A   1      54.074  25.858  30.243  1.00  0.00     0.029 A 
ATOM     70  C   UNL A   1      52.908  25.925  30.991  1.00  0.00     0.049 A 
ATOM     71  H   UNL A   1      50.959  26.427  30.360  1.00  0.00     0.167 HD
ATOM     72  C   UNL A   1      51.557  25.729  33.070  1.00  0.00     0.074 A 
ATOM     73  C   UNL A   1      51.415  25.435  34.481  1.00  0.00     0.031 C 
ATOM     74  C   UNL A   1      52.732  25.652  32.397  1.00  0.00     0.037 A 
BRANCH  61  75
ATOM     75  C   UNL A   1      52.351  26.997  26.354  1.00  0.00     0.058 A 
ATOM     76  C   UNL A   1      52.542  25.881  25.523  1.00  0.00     0.135 A 
ATOM     77  C   UNL A   1      52.861  28.230  25.913  1.00  0.00     0.135 A 
ATOM     78  F   UNL A   1      52.102  24.670  25.904  1.00  0.00    -0.206 F 
ATOM     79  C   UNL A   1      53.254  25.974  24.331  1.00  0.00     0.059 A 
ATOM     80  C   UNL A   1      53.537  28.356  24.702  1.00  0.00     0.059 A 
ATOM     81  F   UNL A   1      52.718  29.333  26.666  1.00  0.00    -0.206 F 
ATOM     82  C   UNL A   1      53.746  27.217  23.929  1.00  0.00     0.060 A 
BRANCH  82  83
ATOM     83  S   UNL A   1      54.668  27.313  22.380  1.00  0.00     0.124 S 
ATOM     84  O   UNL A   1      53.844  26.493  21.498  1.00  0.00    -0.237 OA
ATOM     85  O   UNL A   1      54.656  28.746  22.106  1.00  0.00    -0.237 OA
ATOM     86  O   UNL A   1      55.970  26.752  22.723  1.00  0.00    -0.744 OA
ENDBRANCH  82  83
ENDBRANCH  61  75
BRANCH  62  87
ATOM     87  C   UNL A   1      47.213  25.820  34.945  1.00  0.00     0.058 A 
ATOM     88  C   UNL A   1      46.868  24.576  35.514  1.00  0.00     0.135 A 
ATOM     89  C   UNL A   1      46.837  26.950  35.686  1.00  0.00     0.135 A 
ATOM     90  F   UNL A   1      47.139  23.435  34.859  1.00  0.00    -0.206 F 
ATOM     91  C   UNL A   1      46.256  24.455  36.763  1.00  0.00     0.059 A 
ATOM     92  C   UNL A   1      46.275  26.860  36.963  1.00  0.00     0.059 A 
ATOM     93  F   UNL A   1      47.016  28.180  35.180  1.00  0.00    -0.206 F 
ATOM     94  C   UNL A   1      45.996  25.606  37.498  1.00  0.00     0.060 A 
BRANCH  94  95
ATOM     95  S   UNL A   1      45.324  25.430  39.165  1.00  0.00     0.124 S 
ATOM     96  O   UNL A   1      45.020  24.005  39.218  1.00  0.00    -0.237 OA
ATOM     97  O   UNL A   1      46.449  25.871  39.988  1.00  0.00    -0.237 OA
ATOM     98  O   UNL A   1      44.169  26.322  39.163  1.00  0.00    -0.744 OA
ENDBRANCH  94  95
ENDBRANCH  62  87
BRANCH  74  99
ATOM     99  C   UNL A   1      53.949  25.231  33.177  1.00  0.00     0.058 A 
ATOM    100  C   UNL A   1      54.730  26.163  33.880  1.00  0.00     0.135 A 
ATOM    101  C   UNL A   1      54.292  23.874  33.285  1.00  0.00     0.135 A 
ATOM    102  F   UNL A   1      54.452  27.475  33.805  1.00  0.00    -0.206 F 
ATOM    103  C   UNL A   1      55.819  25.767  34.648  1.00  0.00     0.059 A 
ATOM    104  C   UNL A   1      55.353  23.451  34.077  1.00  0.00     0.059 A 
ATOM    105  F   UNL A   1      53.573  22.941  32.641  1.00  0.00    -0.206 F 
ATOM    106  C   UNL A   1      56.115  24.406  34.750  1.00  0.00     0.060 A 
BRANCH 106 107
ATOM    107  S   UNL A   1      57.492  23.903  35.802  1.00  0.00     0.124 S 
ATOM    108  O   UNL A   1      56.959  24.164  37.134  1.00  0.00    -0.237 OA
ATOM    109  O   UNL A   1      57.652  22.496  35.446  1.00  0.00    -0.237 OA
ATOM    110  O   UNL A   1      58.582  24.778  35.379  1.00  0.00    -0.744 OA
ENDBRANCH 106 107
ENDBRANCH  74  99
ENDBRANCH  48  49
ENDBRANCH  41  43
ENDBRANCH  40  41
ENDBRANCH  39  40
ENDBRANCH  38  39
ENDBRANCH  37  38
ENDBRANCH  36  37
ENDBRANCH  35  36
ENDBRANCH  34  35
ENDBRANCH   1  34
TORSDOF 29
ENDMDL
MODEL 2
REMARK VINA RESULT:      -9.4      5.462     10.547
REMARK SMILES COc1ccc(C2=NN(C(=O)CCC(=O)OCCOCCOCCOCCOC(=O)c3ccc(-c4c5nc(c(-c6c(F)cc(S(=O)(=O)[O-])cc6F)c6ccc([nH]6)c(-c6c(F)cc(S(=O)(=O)[O-])cc6F)c6nc(c(-c7c(F)cc(S(=O)(=O)[O-])cc7F)c7ccc4[nH]7)C=C6)C=C5)cc3)[C@H](c3ccc(Cl)cc3Cl)C2)cc1
REMARK SMILES IDX 21 1 20 2 19 3 18 4 17 5 16 6 14 7 15 8 13 9 12 10 10 11
REMARK SMILES IDX 11 12 9 13 7 14 8 15 106 16 97 17 6 18 3 19 4 20 108 21 5 22
REMARK SMILES IDX 107 23 2 24 1 25 98 26 99 27 104 28 100 29 103 30 105 31
REMARK SMILES IDX 101 32 102 33 22 34 23 35 24 36 25 37 26 38 27 39 28 40
REMARK SMILES IDX 29 41 30 42 31 43 32 44 96 45 33 46 95 47 34 48 35 49 36 50
REMARK SMILES IDX 89 51 37 52 94 53 88 54 90 55 38 56 93 57 87 58 86 59 39 61
REMARK SMILES IDX 73 62 52 63 72 64 53 65 56 66 71 67 91 68 54 69 55 70 70 72
REMARK SMILES IDX 92 73 57 74 40 75 41 76 50 77 42 78 43 79 49 80 51 81 44 82
REMARK SMILES IDX 45 83 46 84 47 85 48 86 74 87 75 88 84 89 76 90 77 91 83 92
REMARK SMILES IDX 85 93 78 94 79 95 80 96 81 97 82 98 58 99 59 100 68 101
REMARK SMILES IDX 60 102 61 103 67 104 69 105 62 106 63 107 64 108 65 109
REMARK SMILES IDX 66 110
REMARK H PARENT 90 60 56 71
REMARK Flexibility Score: inf
ROOT
ATOM      1  C   UNL A   1      38.538  28.504  30.382  1.00  0.00     0.188 C 
ENDROOT
BRANCH   1   2
ATOM      2  C   UNL A   1      39.191  29.697  28.989  1.00  0.00     0.188 C 
BRANCH   2   3
ATOM      3  O   UNL A   1      40.293  29.550  27.885  1.00  0.00    -0.376 OA
BRANCH   3   4
ATOM      4  C   UNL A   1      40.434  28.473  26.844  1.00  0.00     0.202 C 
BRANCH   4   5
ATOM      5  C   UNL A   1      41.621  28.416  25.812  1.00  0.00     0.261 C 
BRANCH   5   6
ATOM      6  O   UNL A   1      42.877  28.065  26.406  1.00  0.00    -0.463 OA
BRANCH   6   7
ATOM      7  C   UNL A   1      42.763  27.439  27.594  1.00  0.00     0.306 C 
ATOM      8  O   UNL A   1      43.093  27.938  28.666  1.00  0.00    -0.252 OA
BRANCH   7   9
ATOM      9  C   UNL A   1      41.962  26.161  27.548  1.00  0.00     0.132 C 
BRANCH   9  10
ATOM     10  C   UNL A   1      40.690  25.885  28.345  1.00  0.00     0.114 C 
BRANCH  10  11
ATOM     11  C   UNL A   1      39.580  24.834  28.141  1.00  0.00     0.243 C 
ATOM     12  O   UNL A   1      38.668  24.967  28.989  1.00  0.00    -0.273 OA
BRANCH  11  13
ATOM     13  N   UNL A   1      39.413  23.887  27.106  1.00  0.00    -0.225 N 
ATOM     14  C   UNL A   1      37.730  23.361  25.786  1.00  0.00     0.071 C 
ATOM     15  N   UNL A   1      38.327  24.336  26.361  1.00  0.00    -0.174 NA
ATOM     16  C   UNL A   1      38.365  21.983  25.905  1.00  0.00     0.091 C 
ATOM     17  C   UNL A   1      39.830  22.247  26.557  1.00  0.00     0.149 C 
BRANCH  14  18
ATOM     18  C   UNL A   1      36.501  23.601  25.014  1.00  0.00    -0.002 A 
ATOM     19  C   UNL A   1      34.164  23.919  23.536  1.00  0.00     0.118 A 
ATOM     20  C   UNL A   1      35.246  23.239  22.992  1.00  0.00     0.047 A 
ATOM     21  C   UNL A   1      34.274  24.504  24.800  1.00  0.00     0.047 A 
ATOM     22  C   UNL A   1      36.421  23.102  23.719  1.00  0.00     0.014 A 
ATOM     23  C   UNL A   1      35.457  24.360  25.540  1.00  0.00     0.014 A 
BRANCH  19  24
ATOM     24  O   UNL A   1      33.048  23.911  22.752  1.00  0.00    -0.497 OA
ATOM     25  C   UNL A   1      31.831  24.183  23.426  1.00  0.00     0.278 C 
ENDBRANCH  19  24
ENDBRANCH  14  18
BRANCH  17  26
ATOM     26  C   UNL A   1      41.610  21.496  26.073  1.00  0.00    -0.004 A 
ATOM     27  C   UNL A   1      42.597  22.814  25.709  1.00  0.00     0.009 A 
ATOM     28  C   UNL A   1      42.584  19.977  25.921  1.00  0.00     0.047 A 
ATOM     29  C   UNL A   1      44.325  22.874  24.913  1.00  0.00     0.021 A 
ATOM     30  C   UNL A   1      44.233  19.908  25.244  1.00  0.00     0.041 A 
ATOM     31  Cl  UNL A   1      42.535  18.454  26.865  1.00  0.00    -0.084 Cl
ATOM     32  C   UNL A   1      45.130  21.316  24.721  1.00  0.00     0.042 A 
ATOM     33  Cl  UNL A   1      46.736  21.128  24.169  1.00  0.00    -0.084 Cl
ENDBRANCH  17  26
ENDBRANCH  11  13
ENDBRANCH  10  11
ENDBRANCH   9  10
ENDBRANCH   7   9
ENDBRANCH   6   7
ENDBRANCH   5   6
ENDBRANCH   4   5
ENDBRANCH   3   4
ENDBRANCH   2   3
ENDBRANCH   1   2
BRANCH   1  34
ATOM     34  O   UNL A   1      39.301  27.950  31.921  1.00  0.00    -0.377 OA
BRANCH  34  35
ATOM     35  C   UNL A   1      40.347  28.569  33.247  1.00  0.00     0.188 C 
BRANCH  35  36
ATOM     36  C   UNL A   1      40.145  29.828  34.785  1.00  0.00     0.188 C 
BRANCH  36  37
ATOM     37  O   UNL A   1      38.623  30.854  34.994  1.00  0.00    -0.376 OA
BRANCH  37  38
ATOM     38  C   UNL A   1      38.054  31.317  36.718  1.00  0.00     0.202 C 
BRANCH  38  39
ATOM     39  C   UNL A   1      38.010  33.489  37.185  1.00  0.00     0.261 C 
BRANCH  39  40
ATOM     40  O   UNL A   1      39.337  34.262  38.159  1.00  0.00    -0.460 OA
BRANCH  40  41
ATOM     41  C   UNL A   1      40.657  34.700  37.960  1.00  0.00     0.338 C 
ATOM     42  O   UNL A   1      41.298  35.378  38.755  1.00  0.00    -0.246 OA
BRANCH  41  43
ATOM     43  C   UNL A   1      41.432  34.081  36.764  1.00  0.00     0.060 A 
ATOM     44  C   UNL A   1      42.835  33.837  36.825  1.00  0.00     0.016 A 
ATOM     45  C   UNL A   1      40.799  33.657  35.598  1.00  0.00     0.016 A 
ATOM     46  C   UNL A   1      43.517  33.032  35.875  1.00  0.00     0.010 A 
ATOM     47  C   UNL A   1      41.515  32.965  34.575  1.00  0.00     0.010 A 
ATOM     48  C   UNL A   1      42.866  32.599  34.713  1.00  0.00    -0.014 A 
BRANCH  48  49
ATOM     49  C   UNL A   1      43.652  31.973  33.587  1.00  0.00     0.031 A 
ATOM     50  C   UNL A   1      44.112  32.874  32.472  1.00  0.00     0.074 A 
ATOM     51  C   UNL A   1      43.942  30.652  33.516  1.00  0.00     0.049 A 
ATOM     52  N   UNL A   1      44.745  32.576  31.368  1.00  0.00    -0.248 NA
ATOM     53  C   UNL A   1      43.736  34.291  32.588  1.00  0.00     0.031 C 
ATOM     54  C   UNL A   1      43.496  29.663  34.487  1.00  0.00     0.029 A 
ATOM     55  N   UNL A   1      44.724  29.913  32.644  1.00  0.00    -0.354 N 
ATOM     56  C   UNL A   1      44.739  33.741  30.609  1.00  0.00     0.074 A 
ATOM     57  C   UNL A   1      44.098  34.762  31.405  1.00  0.00     0.031 C 
ATOM     58  C   UNL A   1      44.134  28.500  34.261  1.00  0.00     0.029 A 
ATOM     59  C   UNL A   1      44.947  28.603  33.053  1.00  0.00     0.049 A 
ATOM     60  H   UNL A   1      45.089  30.283  31.808  1.00  0.00     0.167 HD
ATOM     61  C   UNL A   1      45.164  33.917  29.334  1.00  0.00     0.037 A 
ATOM     62  C   UNL A   1      45.711  27.621  32.507  1.00  0.00     0.037 A 
ATOM     63  C   UNL A   1      45.771  32.876  28.547  1.00  0.00     0.049 A 
ATOM     64  C   UNL A   1      46.289  27.885  31.130  1.00  0.00     0.074 A 
ATOM     65  C   UNL A   1      46.209  32.931  27.236  1.00  0.00     0.029 A 
ATOM     66  N   UNL A   1      46.011  31.583  28.994  1.00  0.00    -0.354 N 
ATOM     67  N   UNL A   1      46.303  29.002  30.440  1.00  0.00    -0.248 NA
ATOM     68  C   UNL A   1      46.882  26.739  30.419  1.00  0.00     0.031 C 
ATOM     69  C   UNL A   1      46.659  31.659  26.873  1.00  0.00     0.029 A 
ATOM     70  C   UNL A   1      46.575  30.827  27.979  1.00  0.00     0.049 A 
ATOM     71  H   UNL A   1      45.811  31.252  29.899  1.00  0.00     0.167 HD
ATOM     72  C   UNL A   1      46.863  28.683  29.207  1.00  0.00     0.074 A 
ATOM     73  C   UNL A   1      47.269  27.295  29.279  1.00  0.00     0.031 C 
ATOM     74  C   UNL A   1      46.980  29.447  28.092  1.00  0.00     0.037 A 
BRANCH  61  75
ATOM     75  C   UNL A   1      44.880  35.252  28.695  1.00  0.00     0.058 A 
ATOM     76  C   UNL A   1      45.862  36.249  28.570  1.00  0.00     0.135 A 
ATOM     77  C   UNL A   1      43.588  35.552  28.230  1.00  0.00     0.135 A 
ATOM     78  F   UNL A   1      47.109  36.031  29.021  1.00  0.00    -0.206 F 
ATOM     79  C   UNL A   1      45.562  37.506  28.056  1.00  0.00     0.059 A 
ATOM     80  C   UNL A   1      43.276  36.788  27.671  1.00  0.00     0.059 A 
ATOM     81  F   UNL A   1      42.604  34.644  28.329  1.00  0.00    -0.206 F 
ATOM     82  C   UNL A   1      44.266  37.765  27.608  1.00  0.00     0.060 A 
BRANCH  82  83
ATOM     83  S   UNL A   1      43.899  39.404  26.947  1.00  0.00     0.124 S 
ATOM     84  O   UNL A   1      43.824  40.201  28.168  1.00  0.00    -0.237 OA
ATOM     85  O   UNL A   1      45.057  39.658  26.096  1.00  0.00    -0.237 OA
ATOM     86  O   UNL A   1      42.635  39.214  26.244  1.00  0.00    -0.744 OA
ENDBRANCH  82  83
ENDBRANCH  61  75
BRANCH  62  87
ATOM     87  C   UNL A   1      45.986  26.305  33.203  1.00  0.00     0.058 A 
ATOM     88  C   UNL A   1      45.113  25.208  33.047  1.00  0.00     0.135 A 
ATOM     89  C   UNL A   1      47.102  26.080  34.023  1.00  0.00     0.135 A 
ATOM     90  F   UNL A   1      43.990  25.336  32.322  1.00  0.00    -0.206 F 
ATOM     91  C   UNL A   1      45.362  23.953  33.607  1.00  0.00     0.059 A 
ATOM     92  C   UNL A   1      47.407  24.822  34.550  1.00  0.00     0.059 A 
ATOM     93  F   UNL A   1      47.931  27.091  34.327  1.00  0.00    -0.206 F 
ATOM     94  C   UNL A   1      46.534  23.760  34.328  1.00  0.00     0.060 A 
BRANCH  94  95
ATOM     95  S   UNL A   1      46.908  22.101  34.938  1.00  0.00     0.124 S 
ATOM     96  O   UNL A   1      46.386  22.156  36.298  1.00  0.00    -0.237 OA
ATOM     97  O   UNL A   1      46.159  21.265  34.002  1.00  0.00    -0.237 OA
ATOM     98  O   UNL A   1      48.360  22.014  34.822  1.00  0.00    -0.744 OA
ENDBRANCH  94  95
ENDBRANCH  62  87
BRANCH  74  99
ATOM     99  C   UNL A   1      47.564  28.796  26.866  1.00  0.00     0.058 A 
ATOM    100  C   UNL A   1      46.758  28.426  25.776  1.00  0.00     0.135 A 
ATOM    101  C   UNL A   1      48.950  28.612  26.749  1.00  0.00     0.135 A 
ATOM    102  F   UNL A   1      45.425  28.572  25.838  1.00  0.00    -0.206 F 
ATOM    103  C   UNL A   1      47.305  27.880  24.620  1.00  0.00     0.059 A 
ATOM    104  C   UNL A   1      49.523  28.103  25.588  1.00  0.00     0.059 A 
ATOM    105  F   UNL A   1      49.766  28.958  27.757  1.00  0.00    -0.206 F 
ATOM    106  C   UNL A   1      48.690  27.734  24.532  1.00  0.00     0.060 A 
BRANCH 106 107
ATOM    107  S   UNL A   1      49.390  27.083  23.001  1.00  0.00     0.124 S 
ATOM    108  O   UNL A   1      48.578  25.890  22.788  1.00  0.00    -0.237 OA
ATOM    109  O   UNL A   1      49.163  28.181  22.067  1.00  0.00    -0.237 OA
ATOM    110  O   UNL A   1      50.788  26.837  23.343  1.00  0.00    -0.744 OA
ENDBRANCH 106 107
ENDBRANCH  74  99
ENDBRANCH  48  49
ENDBRANCH  41  43
ENDBRANCH  40  41
ENDBRANCH  39  40
ENDBRANCH  38  39
ENDBRANCH  37  38
ENDBRANCH  36  37
ENDBRANCH  35  36
ENDBRANCH  34  35
ENDBRANCH   1  34
TORSDOF 29
ENDMDL
MODEL 3
REMARK VINA RESULT:      -9.0      7.127     11.838
REMARK SMILES COc1ccc(C2=NN(C(=O)CCC(=O)OCCOCCOCCOCCOC(=O)c3ccc(-c4c5nc(c(-c6c(F)cc(S(=O)(=O)[O-])cc6F)c6ccc([nH]6)c(-c6c(F)cc(S(=O)(=O)[O-])cc6F)c6nc(c(-c7c(F)cc(S(=O)(=O)[O-])cc7F)c7ccc4[nH]7)C=C6)C=C5)cc3)[C@H](c3ccc(Cl)cc3Cl)C2)cc1
REMARK SMILES IDX 21 1 20 2 19 3 18 4 17 5 16 6 14 7 15 8 13 9 12 10 10 11
REMARK SMILES IDX 11 12 9 13 7 14 8 15 106 16 97 17 6 18 3 19 4 20 108 21 5 22
REMARK SMILES IDX 107 23 2 24 1 25 98 26 99 27 104 28 100 29 103 30 105 31
REMARK SMILES IDX 101 32 102 33 22 34 23 35 24 36 25 37 26 38 27 39 28 40
REMARK SMILES IDX 29 41 30 42 31 43 32 44 96 45 33 46 95 47 34 48 35 49 36 50
REMARK SMILES IDX 89 51 37 52 94 53 88 54 90 55 38 56 93 57 87 58 86 59 39 61
REMARK SMILES IDX 73 62 52 63 72 64 53 65 56 66 71 67 91 68 54 69 55 70 70 72
REMARK SMILES IDX 92 73 57 74 40 75 41 76 50 77 42 78 43 79 49 80 51 81 44 82
REMARK SMILES IDX 45 83 46 84 47 85 48 86 74 87 75 88 84 89 76 90 77 91 83 92
REMARK SMILES IDX 85 93 78 94 79 95 80 96 81 97 82 98 58 99 59 100 68 101
REMARK SMILES IDX 60 102 61 103 67 104 69 105 62 106 63 107 64 108 65 109
REMARK SMILES IDX 66 110
REMARK H PARENT 90 60 56 71
REMARK Flexibility Score: inf
ROOT
ATOM      1  C   UNL A   1      41.794  33.718  34.591  1.00  0.00     0.188 C 
ENDROOT
BRANCH   1   2
ATOM      2  C   UNL A   1      42.064  35.152  35.881  1.00  0.00     0.188 C 
BRANCH   2   3
ATOM      3  O   UNL A   1      43.321  35.984  36.305  1.00  0.00    -0.376 OA
BRANCH   3   4
ATOM      4  C   UNL A   1      44.561  36.279  35.505  1.00  0.00     0.202 C 
BRANCH   4   5
ATOM      5  C   UNL A   1      44.720  37.548  34.589  1.00  0.00     0.261 C 
BRANCH   5   6
ATOM      6  O   UNL A   1      45.676  38.494  35.085  1.00  0.00    -0.463 OA
BRANCH   6   7
ATOM      7  C   UNL A   1      45.372  39.777  34.804  1.00  0.00     0.306 C 
ATOM      8  O   UNL A   1      45.665  40.335  33.750  1.00  0.00    -0.252 OA
BRANCH   7   9
ATOM      9  C   UNL A   1      44.417  40.417  35.781  1.00  0.00     0.132 C 
BRANCH   9  10
ATOM     10  C   UNL A   1      44.749  40.797  37.222  1.00  0.00     0.114 C 
BRANCH  10  11
ATOM     11  C   UNL A   1      44.323  40.154  38.558  1.00  0.00     0.243 C 
ATOM     12  O   UNL A   1      45.165  39.310  38.942  1.00  0.00    -0.273 OA
BRANCH  11  13
ATOM     13  N   UNL A   1      43.240  40.470  39.407  1.00  0.00    -0.225 N 
ATOM     14  C   UNL A   1      41.504  39.332  40.143  1.00  0.00     0.071 C 
ATOM     15  N   UNL A   1      42.748  39.249  39.856  1.00  0.00    -0.174 NA
ATOM     16  C   UNL A   1      40.862  40.711  40.076  1.00  0.00     0.091 C 
ATOM     17  C   UNL A   1      42.099  41.747  39.892  1.00  0.00     0.149 C 
BRANCH  14  18
ATOM     18  C   UNL A   1      40.761  38.132  40.556  1.00  0.00    -0.002 A 
ATOM     19  C   UNL A   1      39.322  35.841  41.207  1.00  0.00     0.118 A 
ATOM     20  C   UNL A   1      38.709  36.874  40.511  1.00  0.00     0.047 A 
ATOM     21  C   UNL A   1      40.642  35.980  41.641  1.00  0.00     0.047 A 
ATOM     22  C   UNL A   1      39.419  38.029  40.209  1.00  0.00     0.014 A 
ATOM     23  C   UNL A   1      41.365  37.142  41.330  1.00  0.00     0.014 A 
BRANCH  19  24
ATOM     24  O   UNL A   1      38.539  34.735  41.367  1.00  0.00    -0.497 OA
ATOM     25  C   UNL A   1      38.368  33.938  40.207  1.00  0.00     0.278 C 
ENDBRANCH  19  24
ENDBRANCH  14  18
BRANCH  17  26
ATOM     26  C   UNL A   1      42.464  43.490  40.783  1.00  0.00    -0.004 A 
ATOM     27  C   UNL A   1      40.964  44.212  41.044  1.00  0.00     0.009 A 
ATOM     28  C   UNL A   1      43.756  44.565  41.457  1.00  0.00     0.047 A 
ATOM     29  C   UNL A   1      40.528  45.983  41.592  1.00  0.00     0.021 A 
ATOM     30  C   UNL A   1      43.469  46.223  42.053  1.00  0.00     0.041 A 
ATOM     31  Cl  UNL A   1      45.305  44.171  42.268  1.00  0.00    -0.084 Cl
ATOM     32  C   UNL A   1      41.889  46.970  42.128  1.00  0.00     0.042 A 
ATOM     33  Cl  UNL A   1      41.733  48.533  42.800  1.00  0.00    -0.084 Cl
ENDBRANCH  17  26
ENDBRANCH  11  13
ENDBRANCH  10  11
ENDBRANCH   9  10
ENDBRANCH   7   9
ENDBRANCH   6   7
ENDBRANCH   5   6
ENDBRANCH   4   5
ENDBRANCH   3   4
ENDBRANCH   2   3
ENDBRANCH   1   2
BRANCH   1  34
ATOM     34  O   UNL A   1      40.982  33.712  32.979  1.00  0.00    -0.377 OA
BRANCH  34  35
ATOM     35  C   UNL A   1      40.262  32.562  31.797  1.00  0.00     0.188 C 
BRANCH  35  36
ATOM     36  C   UNL A   1      39.047  32.679  30.216  1.00  0.00     0.188 C 
BRANCH  36  37
ATOM     37  O   UNL A   1      37.748  33.987  30.096  1.00  0.00    -0.376 OA
BRANCH  37  38
ATOM     38  C   UNL A   1      36.027  33.636  30.748  1.00  0.00     0.202 C 
BRANCH  38  39
ATOM     39  C   UNL A   1      35.769  31.729  31.859  1.00  0.00     0.261 C 
BRANCH  39  40
ATOM     40  O   UNL A   1      36.103  30.130  31.059  1.00  0.00    -0.460 OA
BRANCH  40  41
ATOM     41  C   UNL A   1      36.343  29.642  29.764  1.00  0.00     0.338 C 
ATOM     42  O   UNL A   1      35.517  29.619  28.859  1.00  0.00    -0.246 OA
BRANCH  41  43
ATOM     43  C   UNL A   1      37.820  29.336  29.389  1.00  0.00     0.060 A 
ATOM     44  C   UNL A   1      38.294  29.460  28.050  1.00  0.00     0.016 A 
ATOM     45  C   UNL A   1      38.782  29.001  30.338  1.00  0.00     0.016 A 
ATOM     46  C   UNL A   1      39.676  29.458  27.722  1.00  0.00     0.010 A 
ATOM     47  C   UNL A   1      40.157  28.863  29.984  1.00  0.00     0.010 A 
ATOM     48  C   UNL A   1      40.635  29.134  28.689  1.00  0.00    -0.014 A 
BRANCH  48  49
ATOM     49  C   UNL A   1      42.067  28.876  28.286  1.00  0.00     0.031 A 
ATOM     50  C   UNL A   1      42.387  27.541  27.668  1.00  0.00     0.074 A 
ATOM     51  C   UNL A   1      43.072  29.765  28.470  1.00  0.00     0.049 A 
ATOM     52  N   UNL A   1      43.540  27.052  27.293  1.00  0.00    -0.248 NA
ATOM     53  C   UNL A   1      41.262  26.605  27.525  1.00  0.00     0.031 C 
ATOM     54  C   UNL A   1      42.912  31.057  29.121  1.00  0.00     0.029 A 
ATOM     55  N   UNL A   1      44.401  29.765  28.083  1.00  0.00    -0.354 N 
ATOM     56  C   UNL A   1      43.297  25.718  26.984  1.00  0.00     0.074 A 
ATOM     57  C   UNL A   1      41.879  25.497  27.152  1.00  0.00     0.031 C 
ATOM     58  C   UNL A   1      44.030  31.785  28.944  1.00  0.00     0.029 A 
ATOM     59  C   UNL A   1      45.049  30.979  28.276  1.00  0.00     0.049 A 
ATOM     60  H   UNL A   1      44.849  28.973  27.704  1.00  0.00     0.167 HD
ATOM     61  C   UNL A   1      44.191  24.753  26.661  1.00  0.00     0.037 A 
ATOM     62  C   UNL A   1      46.308  31.376  27.954  1.00  0.00     0.037 A 
ATOM     63  C   UNL A   1      45.605  24.989  26.531  1.00  0.00     0.049 A 
ATOM     64  C   UNL A   1      47.263  30.302  27.469  1.00  0.00     0.074 A 
ATOM     65  C   UNL A   1      46.608  24.081  26.241  1.00  0.00     0.029 A 
ATOM     66  N   UNL A   1      46.221  26.223  26.698  1.00  0.00    -0.354 N 
ATOM     67  N   UNL A   1      47.010  29.054  27.150  1.00  0.00    -0.248 NA
ATOM     68  C   UNL A   1      48.689  30.661  27.379  1.00  0.00     0.031 C 
ATOM     69  C   UNL A   1      47.832  24.753  26.291  1.00  0.00     0.029 A 
ATOM     70  C   UNL A   1      47.590  26.096  26.535  1.00  0.00     0.049 A 
ATOM     71  H   UNL A   1      45.752  27.065  26.902  1.00  0.00     0.167 HD
ATOM     72  C   UNL A   1      48.242  28.474  26.864  1.00  0.00     0.074 A 
ATOM     73  C   UNL A   1      49.229  29.530  26.948  1.00  0.00     0.031 C 
ATOM     74  C   UNL A   1      48.545  27.176  26.614  1.00  0.00     0.037 A 
BRANCH  61  75
ATOM     75  C   UNL A   1      43.667  23.345  26.541  1.00  0.00     0.058 A 
ATOM     76  C   UNL A   1      43.179  22.629  27.646  1.00  0.00     0.135 A 
ATOM     77  C   UNL A   1      43.689  22.687  25.298  1.00  0.00     0.135 A 
ATOM     78  F   UNL A   1      43.160  23.195  28.864  1.00  0.00    -0.206 F 
ATOM     79  C   UNL A   1      42.780  21.301  27.534  1.00  0.00     0.059 A 
ATOM     80  C   UNL A   1      43.251  21.374  25.154  1.00  0.00     0.059 A 
ATOM     81  F   UNL A   1      44.152  23.316  24.206  1.00  0.00    -0.206 F 
ATOM     82  C   UNL A   1      42.818  20.683  26.284  1.00  0.00     0.060 A 
BRANCH  82  83
ATOM     83  S   UNL A   1      42.297  18.959  26.163  1.00  0.00     0.124 S 
ATOM     84  O   UNL A   1      43.138  18.476  25.071  1.00  0.00    -0.237 OA
ATOM     85  O   UNL A   1      42.625  18.446  27.489  1.00  0.00    -0.237 OA
ATOM     86  O   UNL A   1      40.873  19.053  25.863  1.00  0.00    -0.744 OA
ENDBRANCH  82  83
ENDBRANCH  61  75
BRANCH  62  87
ATOM     87  C   UNL A   1      46.778  32.809  28.069  1.00  0.00     0.058 A 
ATOM     88  C   UNL A   1      47.326  33.296  29.275  1.00  0.00     0.135 A 
ATOM     89  C   UNL A   1      46.717  33.734  27.015  1.00  0.00     0.135 A 
ATOM     90  F   UNL A   1      47.383  32.505  30.359  1.00  0.00    -0.206 F 
ATOM     91  C   UNL A   1      47.841  34.587  29.410  1.00  0.00     0.059 A 
ATOM     92  C   UNL A   1      47.275  35.012  27.102  1.00  0.00     0.059 A 
ATOM     93  F   UNL A   1      46.110  33.405  25.865  1.00  0.00    -0.206 F 
ATOM     94  C   UNL A   1      47.845  35.427  28.303  1.00  0.00     0.060 A 
BRANCH  94  95
ATOM     95  S   UNL A   1      48.630  37.047  28.453  1.00  0.00     0.124 S 
ATOM     96  O   UNL A   1      49.247  37.204  27.141  1.00  0.00    -0.237 OA
ATOM     97  O   UNL A   1      47.482  37.910  28.724  1.00  0.00    -0.237 OA
ATOM     98  O   UNL A   1      49.556  36.876  29.568  1.00  0.00    -0.744 OA
ENDBRANCH  94  95
ENDBRANCH  62  87
BRANCH  74  99
ATOM     99  C   UNL A   1      49.997  26.829  26.418  1.00  0.00     0.058 A 
ATOM    100  C   UNL A   1      50.549  26.672  25.135  1.00  0.00     0.135 A 
ATOM    101  C   UNL A   1      50.860  26.730  27.520  1.00  0.00     0.135 A 
ATOM    102  F   UNL A   1      49.766  26.749  24.047  1.00  0.00    -0.206 F 
ATOM    103  C   UNL A   1      51.902  26.411  24.953  1.00  0.00     0.059 A 
ATOM    104  C   UNL A   1      52.224  26.507  27.360  1.00  0.00     0.059 A 
ATOM    105  F   UNL A   1      50.387  26.881  28.767  1.00  0.00    -0.206 F 
ATOM    106  C   UNL A   1      52.733  26.343  26.072  1.00  0.00     0.060 A 
BRANCH 106 107
ATOM    107  S   UNL A   1      54.498  26.066  25.816  1.00  0.00     0.124 S 
ATOM    108  O   UNL A   1      54.491  24.918  24.916  1.00  0.00    -0.237 OA
ATOM    109  O   UNL A   1      54.926  27.332  25.228  1.00  0.00    -0.237 OA
ATOM    110  O   UNL A   1      55.001  25.805  27.161  1.00  0.00    -0.744 OA
ENDBRANCH 106 107
ENDBRANCH  74  99
ENDBRANCH  48  49
ENDBRANCH  41  43
ENDBRANCH  40  41
ENDBRANCH  39  40
ENDBRANCH  38  39
ENDBRANCH  37  38
ENDBRANCH  36  37
ENDBRANCH  35  36
ENDBRANCH  34  35
ENDBRANCH   1  34
TORSDOF 29
ENDMDL
