MODEL 1
REMARK VINA RESULT:      -7.4      0.000      0.000
REMARK SMILES Cc1cc(C(=O)N[C@@H]2C(=O)N3C(C(=O)OCCOCCOCCOCCOC(=O)c4ccc(-c5c6nc(c(-c7c(F)cc(S(=O)(=O)[O-])cc7F)c7ccc([nH]7)c(-c7c(F)cc(S(=O)(=O)[O-])cc7F)c7nc(c(-c8c(F)cc(S(=O)(=O)[O-])cc8F)c8ccc5[nH]8)C=C7)C=C6)cc4)=C(CSc4nnc(C)s4)CS[C@H]23)n(C)n1
REMARK SMILES IDX 21 1 20 2 19 3 18 4 17 5 16 6 15 7 13 8 14 9 12 10 8 11 9 12
REMARK SMILES IDX 107 13 10 14 11 15 106 16 105 17 96 18 7 19 5 20 6 21 4 23
REMARK SMILES IDX 1 24 2 25 3 26 110 27 108 28 109 29 97 30 98 31 99 32 100 33
REMARK SMILES IDX 104 34 101 35 102 36 103 37 22 38 23 39 24 40 25 41 26 42
REMARK SMILES IDX 27 43 28 44 29 45 30 46 31 47 95 48 32 49 94 50 33 51 34 52
REMARK SMILES IDX 35 53 88 54 36 55 93 56 87 57 89 58 37 59 92 60 86 61 85 62
REMARK SMILES IDX 38 64 72 65 51 66 71 67 52 68 55 69 70 70 90 71 53 72 54 73
REMARK SMILES IDX 69 75 91 76 56 77 39 78 40 79 49 80 41 81 42 82 48 83 50 84
REMARK SMILES IDX 43 85 44 86 45 87 46 88 47 89 73 90 74 91 83 92 75 93 76 94
REMARK SMILES IDX 82 95 84 96 77 97 78 98 79 99 80 100 81 101 57 102 58 103
REMARK SMILES IDX 67 104 59 105 60 106 66 107 68 108 61 109 62 110 63 111
REMARK SMILES IDX 64 112 65 113
REMARK H PARENT 7 22 89 63 55 74
REMARK Flexibility Score: inf
ROOT
ATOM      1  O   UNL A   1      48.031  28.304  21.987  1.00  0.00    -0.377 OA
ENDROOT
BRANCH   1   2
ATOM      2  C   UNL A   1      48.887  27.432  21.258  1.00  0.00     0.188 C 
BRANCH   2   3
ATOM      3  C   UNL A   1      50.159  27.915  20.509  1.00  0.00     0.188 C 
BRANCH   3   4
ATOM      4  O   UNL A   1      50.973  28.818  21.232  1.00  0.00    -0.376 OA
BRANCH   4   5
ATOM      5  C   UNL A   1      52.105  28.379  21.946  1.00  0.00     0.202 C 
BRANCH   5   6
ATOM      6  C   UNL A   1      51.953  27.558  23.236  1.00  0.00     0.261 C 
BRANCH   6   7
ATOM      7  O   UNL A   1      52.995  27.697  24.205  1.00  0.00    -0.459 OA
BRANCH   7   8
ATOM      8  C   UNL A   1      53.593  26.563  24.618  1.00  0.00     0.355 C 
ATOM      9  O   UNL A   1      53.892  25.611  23.908  1.00  0.00    -0.244 OA
BRANCH   8  10
ATOM     10  C   UNL A   1      53.929  26.601  26.085  1.00  0.00     0.132 C 
ATOM     11  C   UNL A   1      51.379  26.584  28.356  1.00  0.00     0.206 C 
ATOM     12  C   UNL A   1      51.761  25.747  27.106  1.00  0.00     0.253 C 
ATOM     13  C   UNL A   1      52.821  27.160  28.208  1.00  0.00     0.181 C 
ATOM     14  O   UNL A   1      51.301  24.789  26.547  1.00  0.00    -0.272 OA
ATOM     15  N   UNL A   1      52.851  26.539  26.918  1.00  0.00    -0.289 N 
ATOM     16  S   UNL A   1      54.143  26.417  29.188  1.00  0.00    -0.129 SA
ATOM     17  C   UNL A   1      55.420  27.073  28.084  1.00  0.00     0.106 C 
ATOM     18  C   UNL A   1      55.174  26.797  26.600  1.00  0.00    -0.019 C 
BRANCH  11  19
ATOM     19  N   UNL A   1      51.009  25.939  29.640  1.00  0.00    -0.336 N 
ATOM     20  C   UNL A   1      49.748  25.886  30.211  1.00  0.00     0.270 C 
ATOM     21  O   UNL A   1      49.623  25.297  31.283  1.00  0.00    -0.268 OA
ATOM     22  H   UNL A   1      51.737  25.502  30.139  1.00  0.00     0.164 HD
BRANCH  20  23
ATOM     23  C   UNL A   1      48.664  26.592  29.553  1.00  0.00     0.126 A 
ATOM     24  C   UNL A   1      45.791  28.816  29.639  1.00  0.00     0.069 C 
ATOM     25  C   UNL A   1      46.866  27.857  29.282  1.00  0.00     0.060 A 
ATOM     26  C   UNL A   1      48.226  27.905  29.654  1.00  0.00     0.059 A 
ATOM     27  N   UNL A   1      46.598  26.734  28.615  1.00  0.00    -0.178 NA
ATOM     28  N   UNL A   1      47.754  26.034  28.682  1.00  0.00    -0.263 N 
ATOM     29  C   UNL A   1      47.867  24.845  27.873  1.00  0.00     0.174 C 
ENDBRANCH  20  23
ENDBRANCH  11  19
BRANCH  18  30
ATOM     30  C   UNL A   1      56.458  26.891  25.804  1.00  0.00     0.111 C 
BRANCH  30  31
ATOM     31  S   UNL A   1      57.179  25.366  25.159  1.00  0.00    -0.089 SA
BRANCH  31  32
ATOM     32  C   UNL A   1      57.221  24.153  26.412  1.00  0.00     0.174 A 
ATOM     33  N   UNL A   1      56.194  23.436  26.807  1.00  0.00    -0.132 NA
ATOM     34  S   UNL A   1      58.685  23.735  27.213  1.00  0.00    -0.091 S 
ATOM     35  N   UNL A   1      56.547  22.431  27.690  1.00  0.00    -0.143 NA
ATOM     36  C   UNL A   1      57.842  22.421  27.926  1.00  0.00     0.115 A 
ATOM     37  C   UNL A   1      58.551  21.387  28.722  1.00  0.00     0.081 C 
ENDBRANCH  31  32
ENDBRANCH  30  31
ENDBRANCH  18  30
ENDBRANCH   8  10
ENDBRANCH   7   8
ENDBRANCH   6   7
ENDBRANCH   5   6
ENDBRANCH   4   5
ENDBRANCH   3   4
ENDBRANCH   2   3
ENDBRANCH   1   2
BRANCH   1  38
ATOM     38  C   UNL A   1      47.562  27.878  23.252  1.00  0.00     0.188 C 
BRANCH  38  39
ATOM     39  C   UNL A   1      48.198  26.548  23.693  1.00  0.00     0.188 C 
BRANCH  39  40
ATOM     40  O   UNL A   1      47.304  25.625  24.287  1.00  0.00    -0.376 OA
BRANCH  40  41
ATOM     41  C   UNL A   1      46.200  26.069  25.061  1.00  0.00     0.202 C 
BRANCH  41  42
ATOM     42  C   UNL A   1      44.907  25.278  25.366  1.00  0.00     0.261 C 
BRANCH  42  43
ATOM     43  O   UNL A   1      43.670  25.975  25.535  1.00  0.00    -0.460 OA
BRANCH  43  44
ATOM     44  C   UNL A   1      42.662  25.340  26.167  1.00  0.00     0.338 C 
ATOM     45  O   UNL A   1      42.275  24.204  25.977  1.00  0.00    -0.246 OA
BRANCH  44  46
ATOM     46  C   UNL A   1      42.224  26.227  27.271  1.00  0.00     0.060 A 
ATOM     47  C   UNL A   1      42.765  27.516  27.374  1.00  0.00     0.016 A 
ATOM     48  C   UNL A   1      41.260  25.795  28.184  1.00  0.00     0.016 A 
ATOM     49  C   UNL A   1      42.360  28.368  28.401  1.00  0.00     0.010 A 
ATOM     50  C   UNL A   1      40.869  26.640  29.226  1.00  0.00     0.010 A 
ATOM     51  C   UNL A   1      41.446  27.916  29.361  1.00  0.00    -0.014 A 
BRANCH  51  52
ATOM     52  C   UNL A   1      41.273  28.680  30.620  1.00  0.00     0.031 A 
ATOM     53  C   UNL A   1      40.158  29.691  30.684  1.00  0.00     0.074 A 
ATOM     54  C   UNL A   1      42.057  28.467  31.691  1.00  0.00     0.049 A 
ATOM     55  N   UNL A   1      39.839  30.516  31.644  1.00  0.00    -0.248 NA
ATOM     56  C   UNL A   1      39.293  29.783  29.496  1.00  0.00     0.031 C 
ATOM     57  C   UNL A   1      43.134  27.482  31.769  1.00  0.00     0.029 A 
ATOM     58  N   UNL A   1      42.068  29.076  32.922  1.00  0.00    -0.354 N 
ATOM     59  C   UNL A   1      38.745  31.235  31.172  1.00  0.00     0.074 A 
ATOM     60  C   UNL A   1      38.481  30.774  29.828  1.00  0.00     0.031 C 
ATOM     61  C   UNL A   1      43.711  27.563  32.982  1.00  0.00     0.029 A 
ATOM     62  C   UNL A   1      43.069  28.630  33.750  1.00  0.00     0.049 A 
ATOM     63  H   UNL A   1      41.420  29.769  33.184  1.00  0.00     0.167 HD
ATOM     64  C   UNL A   1      38.020  32.185  31.807  1.00  0.00     0.037 A 
ATOM     65  C   UNL A   1      43.438  29.053  34.978  1.00  0.00     0.037 A 
ATOM     66  C   UNL A   1      38.290  32.638  33.146  1.00  0.00     0.049 A 
ATOM     67  C   UNL A   1      42.668  30.171  35.635  1.00  0.00     0.074 A 
ATOM     68  C   UNL A   1      37.606  33.586  33.887  1.00  0.00     0.029 A 
ATOM     69  N   UNL A   1      39.334  32.186  33.942  1.00  0.00    -0.354 N 
ATOM     70  N   UNL A   1      41.623  30.830  35.190  1.00  0.00    -0.248 NA
ATOM     71  C   UNL A   1      43.123  30.601  36.965  1.00  0.00     0.031 C 
ATOM     72  C   UNL A   1      38.276  33.755  35.103  1.00  0.00     0.029 A 
ATOM     73  C   UNL A   1      39.333  32.859  35.152  1.00  0.00     0.049 A 
ATOM     74  H   UNL A   1      39.980  31.490  33.683  1.00  0.00     0.167 HD
ATOM     75  C   UNL A   1      41.278  31.727  36.197  1.00  0.00     0.074 A 
ATOM     76  C   UNL A   1      42.218  31.519  37.279  1.00  0.00     0.031 C 
ATOM     77  C   UNL A   1      40.271  32.637  36.225  1.00  0.00     0.037 A 
BRANCH  64  78
ATOM     78  C   UNL A   1      36.889  32.823  31.047  1.00  0.00     0.058 A 
ATOM     79  C   UNL A   1      35.548  32.469  31.268  1.00  0.00     0.135 A 
ATOM     80  C   UNL A   1      37.151  33.819  30.091  1.00  0.00     0.135 A 
ATOM     81  F   UNL A   1      35.239  31.508  32.154  1.00  0.00    -0.206 F 
ATOM     82  C   UNL A   1      34.511  33.057  30.550  1.00  0.00     0.059 A 
ATOM     83  C   UNL A   1      36.128  34.445  29.386  1.00  0.00     0.059 A 
ATOM     84  F   UNL A   1      38.414  34.194  29.835  1.00  0.00    -0.206 F 
ATOM     85  C   UNL A   1      34.812  34.045  29.611  1.00  0.00     0.060 A 
BRANCH  85  86
ATOM     86  S   UNL A   1      33.456  34.799  28.689  1.00  0.00     0.124 S 
ATOM     87  O   UNL A   1      33.116  33.734  27.749  1.00  0.00    -0.237 OA
ATOM     88  O   UNL A   1      32.474  35.056  29.737  1.00  0.00    -0.237 OA
ATOM     89  O   UNL A   1      34.064  35.986  28.096  1.00  0.00    -0.744 OA
ENDBRANCH  85  86
ENDBRANCH  64  78
BRANCH  65  90
ATOM     90  C   UNL A   1      44.604  28.428  35.661  1.00  0.00     0.058 A 
ATOM     91  C   UNL A   1      45.911  28.889  35.437  1.00  0.00     0.135 A 
ATOM     92  C   UNL A   1      44.436  27.358  36.554  1.00  0.00     0.135 A 
ATOM     93  F   UNL A   1      46.128  29.899  34.582  1.00  0.00    -0.206 F 
ATOM     94  C   UNL A   1      47.008  28.306  36.065  1.00  0.00     0.059 A 
ATOM     95  C   UNL A   1      45.514  26.778  37.216  1.00  0.00     0.059 A 
ATOM     96  F   UNL A   1      43.208  26.881  36.809  1.00  0.00    -0.206 F 
ATOM     97  C   UNL A   1      46.797  27.256  36.959  1.00  0.00     0.060 A 
BRANCH  97  98
ATOM     98  S   UNL A   1      48.222  26.552  37.820  1.00  0.00     0.124 S 
ATOM     99  O   UNL A   1      47.577  25.671  38.786  1.00  0.00    -0.237 OA
ATOM    100  O   UNL A   1      48.938  25.894  36.731  1.00  0.00    -0.237 OA
ATOM    101  O   UNL A   1      48.888  27.725  38.379  1.00  0.00    -0.744 OA
ENDBRANCH  97  98
ENDBRANCH  65  90
BRANCH  77 102
ATOM    102  C   UNL A   1      40.097  33.453  37.481  1.00  0.00     0.058 A 
ATOM    103  C   UNL A   1      39.169  33.105  38.473  1.00  0.00     0.135 A 
ATOM    104  C   UNL A   1      40.921  34.567  37.719  1.00  0.00     0.135 A 
ATOM    105  F   UNL A   1      38.353  32.054  38.297  1.00  0.00    -0.206 F 
ATOM    106  C   UNL A   1      39.046  33.845  39.647  1.00  0.00     0.059 A 
ATOM    107  C   UNL A   1      40.839  35.300  38.900  1.00  0.00     0.059 A 
ATOM    108  F   UNL A   1      41.836  34.940  36.810  1.00  0.00    -0.206 F 
ATOM    109  C   UNL A   1      39.889  34.938  39.852  1.00  0.00     0.060 A 
BRANCH 109 110
ATOM    110  S   UNL A   1      39.743  35.865  41.394  1.00  0.00     0.124 S 
ATOM    111  O   UNL A   1      38.310  36.142  41.437  1.00  0.00    -0.237 OA
ATOM    112  O   UNL A   1      40.232  34.906  42.380  1.00  0.00    -0.237 OA
ATOM    113  O   UNL A   1      40.600  37.026  41.178  1.00  0.00    -0.744 OA
ENDBRANCH 109 110
ENDBRANCH  77 102
ENDBRANCH  51  52
ENDBRANCH  44  46
ENDBRANCH  43  44
ENDBRANCH  42  43
ENDBRANCH  41  42
ENDBRANCH  40  41
ENDBRANCH  39  40
ENDBRANCH  38  39
ENDBRANCH   1  38
TORSDOF 28
ENDMDL
MODEL 2
REMARK VINA RESULT:      -7.0      1.522      2.103
REMARK SMILES Cc1cc(C(=O)N[C@@H]2C(=O)N3C(C(=O)OCCOCCOCCOCCOC(=O)c4ccc(-c5c6nc(c(-c7c(F)cc(S(=O)(=O)[O-])cc7F)c7ccc([nH]7)c(-c7c(F)cc(S(=O)(=O)[O-])cc7F)c7nc(c(-c8c(F)cc(S(=O)(=O)[O-])cc8F)c8ccc5[nH]8)C=C7)C=C6)cc4)=C(CSc4nnc(C)s4)CS[C@H]23)n(C)n1
REMARK SMILES IDX 21 1 20 2 19 3 18 4 17 5 16 6 15 7 13 8 14 9 12 10 8 11 9 12
REMARK SMILES IDX 107 13 10 14 11 15 106 16 105 17 96 18 7 19 5 20 6 21 4 23
REMARK SMILES IDX 1 24 2 25 3 26 110 27 108 28 109 29 97 30 98 31 99 32 100 33
REMARK SMILES IDX 104 34 101 35 102 36 103 37 22 38 23 39 24 40 25 41 26 42
REMARK SMILES IDX 27 43 28 44 29 45 30 46 31 47 95 48 32 49 94 50 33 51 34 52
REMARK SMILES IDX 35 53 88 54 36 55 93 56 87 57 89 58 37 59 92 60 86 61 85 62
REMARK SMILES IDX 38 64 72 65 51 66 71 67 52 68 55 69 70 70 90 71 53 72 54 73
REMARK SMILES IDX 69 75 91 76 56 77 39 78 40 79 49 80 41 81 42 82 48 83 50 84
REMARK SMILES IDX 43 85 44 86 45 87 46 88 47 89 73 90 74 91 83 92 75 93 76 94
REMARK SMILES IDX 82 95 84 96 77 97 78 98 79 99 80 100 81 101 57 102 58 103
REMARK SMILES IDX 67 104 59 105 60 106 66 107 68 108 61 109 62 110 63 111
REMARK SMILES IDX 64 112 65 113
REMARK H PARENT 7 22 89 63 55 74
REMARK Flexibility Score: inf
ROOT
ATOM      1  O   UNL A   1      48.807  28.575  21.440  1.00  0.00    -0.377 OA
ENDROOT
BRANCH   1   2
ATOM      2  C   UNL A   1      49.864  27.697  21.073  1.00  0.00     0.188 C 
BRANCH   2   3
ATOM      3  C   UNL A   1      51.362  28.110  21.089  1.00  0.00     0.188 C 
BRANCH   3   4
ATOM      4  O   UNL A   1      51.866  28.484  22.356  1.00  0.00    -0.376 OA
BRANCH   4   5
ATOM      5  C   UNL A   1      52.632  27.594  23.136  1.00  0.00     0.202 C 
BRANCH   5   6
ATOM      6  C   UNL A   1      51.971  26.727  24.218  1.00  0.00     0.261 C 
BRANCH   6   7
ATOM      7  O   UNL A   1      52.531  26.811  25.531  1.00  0.00    -0.459 OA
BRANCH   7   8
ATOM      8  C   UNL A   1      52.580  25.669  26.244  1.00  0.00     0.355 C 
ATOM      9  O   UNL A   1      52.613  24.536  25.780  1.00  0.00    -0.244 OA
BRANCH   8  10
ATOM     10  C   UNL A   1      52.654  25.928  27.724  1.00  0.00     0.132 C 
ATOM     11  C   UNL A   1      49.747  26.189  29.496  1.00  0.00     0.206 C 
ATOM     12  C   UNL A   1      50.336  25.187  28.469  1.00  0.00     0.253 C 
ATOM     13  C   UNL A   1      51.195  26.768  29.517  1.00  0.00     0.181 C 
ATOM     14  O   UNL A   1      49.977  24.148  27.985  1.00  0.00    -0.272 OA
ATOM     15  N   UNL A   1      51.447  25.965  28.358  1.00  0.00    -0.289 N 
ATOM     16  S   UNL A   1      52.322  26.204  30.811  1.00  0.00    -0.129 SA
ATOM     17  C   UNL A   1      53.775  26.718  29.860  1.00  0.00     0.106 C 
ATOM     18  C   UNL A   1      53.791  26.223  28.414  1.00  0.00    -0.019 C 
BRANCH  11  19
ATOM     19  N   UNL A   1      49.155  25.731  30.777  1.00  0.00    -0.336 N 
ATOM     20  C   UNL A   1      48.457  26.502  31.694  1.00  0.00     0.270 C 
ATOM     21  O   UNL A   1      48.027  25.949  32.704  1.00  0.00    -0.268 OA
ATOM     22  H   UNL A   1      49.270  24.779  30.999  1.00  0.00     0.164 HD
BRANCH  20  23
ATOM     23  C   UNL A   1      48.341  27.927  31.448  1.00  0.00     0.126 A 
ATOM     24  C   UNL A   1      48.334  31.372  32.606  1.00  0.00     0.069 C 
ATOM     25  C   UNL A   1      48.232  30.104  31.841  1.00  0.00     0.060 A 
ATOM     26  C   UNL A   1      49.110  29.000  31.876  1.00  0.00     0.059 A 
ATOM     27  N   UNL A   1      47.173  29.841  31.075  1.00  0.00    -0.178 NA
ATOM     28  N   UNL A   1      47.331  28.539  30.739  1.00  0.00    -0.263 N 
ATOM     29  C   UNL A   1      46.451  27.994  29.735  1.00  0.00     0.174 C 
ENDBRANCH  20  23
ENDBRANCH  11  19
BRANCH  18  30
ATOM     30  C   UNL A   1      55.194  26.226  27.848  1.00  0.00     0.111 C 
BRANCH  30  31
ATOM     31  S   UNL A   1      56.222  24.763  28.096  1.00  0.00    -0.089 SA
BRANCH  31  32
ATOM     32  C   UNL A   1      56.631  24.604  29.785  1.00  0.00     0.174 A 
ATOM     33  N   UNL A   1      55.881  24.026  30.694  1.00  0.00    -0.132 NA
ATOM     34  S   UNL A   1      58.140  25.154  30.402  1.00  0.00    -0.091 S 
ATOM     35  N   UNL A   1      56.524  23.887  31.912  1.00  0.00    -0.143 NA
ATOM     36  C   UNL A   1      57.750  24.363  31.874  1.00  0.00     0.115 A 
ATOM     37  C   UNL A   1      58.741  24.244  32.974  1.00  0.00     0.081 C 
ENDBRANCH  31  32
ENDBRANCH  30  31
ENDBRANCH  18  30
ENDBRANCH   8  10
ENDBRANCH   7   8
ENDBRANCH   6   7
ENDBRANCH   5   6
ENDBRANCH   4   5
ENDBRANCH   3   4
ENDBRANCH   2   3
ENDBRANCH   1   2
BRANCH   1  38
ATOM     38  C   UNL A   1      47.827  28.103  22.342  1.00  0.00     0.188 C 
BRANCH  38  39
ATOM     39  C   UNL A   1      48.445  27.367  23.543  1.00  0.00     0.188 C 
BRANCH  39  40
ATOM     40  O   UNL A   1      47.644  26.336  24.092  1.00  0.00    -0.376 OA
BRANCH  40  41
ATOM     41  C   UNL A   1      46.334  26.603  24.569  1.00  0.00     0.202 C 
BRANCH  41  42
ATOM     42  C   UNL A   1      45.449  25.662  25.419  1.00  0.00     0.261 C 
BRANCH  42  43
ATOM     43  O   UNL A   1      44.094  26.021  25.701  1.00  0.00    -0.460 OA
BRANCH  43  44
ATOM     44  C   UNL A   1      43.399  25.255  26.566  1.00  0.00     0.338 C 
ATOM     45  O   UNL A   1      43.329  24.042  26.582  1.00  0.00    -0.246 OA
BRANCH  44  46
ATOM     46  C   UNL A   1      42.874  26.163  27.613  1.00  0.00     0.060 A 
ATOM     47  C   UNL A   1      43.354  27.478  27.689  1.00  0.00     0.016 A 
ATOM     48  C   UNL A   1      41.888  25.724  28.499  1.00  0.00     0.016 A 
ATOM     49  C   UNL A   1      42.867  28.349  28.662  1.00  0.00     0.010 A 
ATOM     50  C   UNL A   1      41.414  26.590  29.488  1.00  0.00     0.010 A 
ATOM     51  C   UNL A   1      41.930  27.894  29.597  1.00  0.00    -0.014 A 
BRANCH  51  52
ATOM     52  C   UNL A   1      41.667  28.697  30.816  1.00  0.00     0.031 A 
ATOM     53  C   UNL A   1      40.502  29.652  30.794  1.00  0.00     0.074 A 
ATOM     54  C   UNL A   1      42.414  28.565  31.926  1.00  0.00     0.049 A 
ATOM     55  N   UNL A   1      40.103  30.497  31.706  1.00  0.00    -0.248 NA
ATOM     56  C   UNL A   1      39.684  29.654  29.569  1.00  0.00     0.031 C 
ATOM     57  C   UNL A   1      43.534  27.640  32.088  1.00  0.00     0.029 A 
ATOM     58  N   UNL A   1      42.343  29.222  33.130  1.00  0.00    -0.354 N 
ATOM     59  C   UNL A   1      38.996  31.141  31.161  1.00  0.00     0.074 A 
ATOM     60  C   UNL A   1      38.812  30.615  29.827  1.00  0.00     0.031 C 
ATOM     61  C   UNL A   1      44.054  27.797  33.318  1.00  0.00     0.029 A 
ATOM     62  C   UNL A   1      43.329  28.859  34.016  1.00  0.00     0.049 A 
ATOM     63  H   UNL A   1      41.652  29.891  33.337  1.00  0.00     0.167 HD
ATOM     64  C   UNL A   1      38.199  32.077  31.727  1.00  0.00     0.037 A 
ATOM     65  C   UNL A   1      43.625  29.348  35.238  1.00  0.00     0.037 A 
ATOM     66  C   UNL A   1      38.390  32.595  33.056  1.00  0.00     0.049 A 
ATOM     67  C   UNL A   1      42.774  30.451  35.818  1.00  0.00     0.074 A 
ATOM     68  C   UNL A   1      37.631  33.535  33.729  1.00  0.00     0.029 A 
ATOM     69  N   UNL A   1      39.421  32.228  33.911  1.00  0.00    -0.354 N 
ATOM     70  N   UNL A   1      41.719  31.038  35.304  1.00  0.00    -0.248 NA
ATOM     71  C   UNL A   1      43.151  30.955  37.146  1.00  0.00     0.031 C 
ATOM     72  C   UNL A   1      38.239  33.785  34.963  1.00  0.00     0.029 A 
ATOM     73  C   UNL A   1      39.335  32.946  35.092  1.00  0.00     0.049 A 
ATOM     74  H   UNL A   1      40.110  31.556  33.707  1.00  0.00     0.167 HD
ATOM     75  C   UNL A   1      41.288  31.956  36.259  1.00  0.00     0.074 A 
ATOM     76  C   UNL A   1      42.191  31.837  37.385  1.00  0.00     0.031 C 
ATOM     77  C   UNL A   1      40.238  32.814  36.210  1.00  0.00     0.037 A 
BRANCH  64  78
ATOM     78  C   UNL A   1      37.072  32.627  30.896  1.00  0.00     0.058 A 
ATOM     79  C   UNL A   1      37.248  33.718  30.028  1.00  0.00     0.135 A 
ATOM     80  C   UNL A   1      35.797  32.041  30.956  1.00  0.00     0.135 A 
ATOM     81  F   UNL A   1      38.439  34.331  29.945  1.00  0.00    -0.206 F 
ATOM     82  C   UNL A   1      36.194  34.225  29.274  1.00  0.00     0.059 A 
ATOM     83  C   UNL A   1      34.738  32.510  30.185  1.00  0.00     0.059 A 
ATOM     84  F   UNL A   1      35.569  30.999  31.772  1.00  0.00    -0.206 F 
ATOM     85  C   UNL A   1      34.943  33.613  29.359  1.00  0.00     0.060 A 
BRANCH  85  86
ATOM     86  S   UNL A   1      33.587  34.283  28.373  1.00  0.00     0.124 S 
ATOM     87  O   UNL A   1      33.186  33.113  27.596  1.00  0.00    -0.237 OA
ATOM     88  O   UNL A   1      32.645  34.719  29.397  1.00  0.00    -0.237 OA
ATOM     89  O   UNL A   1      34.219  35.354  27.608  1.00  0.00    -0.744 OA
ENDBRANCH  85  86
ENDBRANCH  64  78
BRANCH  65  90
ATOM     90  C   UNL A   1      44.790  28.810  35.993  1.00  0.00     0.058 A 
ATOM     91  C   UNL A   1      46.078  29.341  35.819  1.00  0.00     0.135 A 
ATOM     92  C   UNL A   1      44.641  27.753  36.905  1.00  0.00     0.135 A 
ATOM     93  F   UNL A   1      46.278  30.342  34.948  1.00  0.00    -0.206 F 
ATOM     94  C   UNL A   1      47.175  28.839  36.514  1.00  0.00     0.059 A 
ATOM     95  C   UNL A   1      45.717  27.254  37.634  1.00  0.00     0.059 A 
ATOM     96  F   UNL A   1      43.431  27.211  37.115  1.00  0.00    -0.206 F 
ATOM     97  C   UNL A   1      46.981  27.801  37.425  1.00  0.00     0.060 A 
BRANCH  97  98
ATOM     98  S   UNL A   1      48.400  27.204  38.371  1.00  0.00     0.124 S 
ATOM     99  O   UNL A   1      49.488  27.986  37.796  1.00  0.00    -0.237 OA
ATOM    100  O   UNL A   1      48.019  27.545  39.738  1.00  0.00    -0.237 OA
ATOM    101  O   UNL A   1      48.424  25.774  38.075  1.00  0.00    -0.744 OA
ENDBRANCH  97  98
ENDBRANCH  65  90
BRANCH  77 102
ATOM    102  C   UNL A   1      39.972  33.669  37.423  1.00  0.00     0.058 A 
ATOM    103  C   UNL A   1      40.614  34.900  37.622  1.00  0.00     0.135 A 
ATOM    104  C   UNL A   1      39.009  33.274  38.368  1.00  0.00     0.135 A 
ATOM    105  F   UNL A   1      41.545  35.326  36.754  1.00  0.00    -0.206 F 
ATOM    106  C   UNL A   1      40.329  35.699  38.726  1.00  0.00     0.059 A 
ATOM    107  C   UNL A   1      38.684  34.072  39.460  1.00  0.00     0.059 A 
ATOM    108  F   UNL A   1      38.355  32.111  38.222  1.00  0.00    -0.206 F 
ATOM    109  C   UNL A   1      39.359  35.278  39.638  1.00  0.00     0.060 A 
BRANCH 109 110
ATOM    110  S   UNL A   1      38.975  36.341  41.045  1.00  0.00     0.124 S 
ATOM    111  O   UNL A   1      38.531  37.562  40.379  1.00  0.00    -0.237 OA
ATOM    112  O   UNL A   1      37.936  35.581  41.734  1.00  0.00    -0.237 OA
ATOM    113  O   UNL A   1      40.246  36.441  41.755  1.00  0.00    -0.744 OA
ENDBRANCH 109 110
ENDBRANCH  77 102
ENDBRANCH  51  52
ENDBRANCH  44  46
ENDBRANCH  43  44
ENDBRANCH  42  43
ENDBRANCH  41  42
ENDBRANCH  40  41
ENDBRANCH  39  40
ENDBRANCH  38  39
ENDBRANCH   1  38
TORSDOF 28
ENDMDL
MODEL 3
REMARK VINA RESULT:      -6.9      5.327     11.933
REMARK SMILES Cc1cc(C(=O)N[C@@H]2C(=O)N3C(C(=O)OCCOCCOCCOCCOC(=O)c4ccc(-c5c6nc(c(-c7c(F)cc(S(=O)(=O)[O-])cc7F)c7ccc([nH]7)c(-c7c(F)cc(S(=O)(=O)[O-])cc7F)c7nc(c(-c8c(F)cc(S(=O)(=O)[O-])cc8F)c8ccc5[nH]8)C=C7)C=C6)cc4)=C(CSc4nnc(C)s4)CS[C@H]23)n(C)n1
REMARK SMILES IDX 21 1 20 2 19 3 18 4 17 5 16 6 15 7 13 8 14 9 12 10 8 11 9 12
REMARK SMILES IDX 107 13 10 14 11 15 106 16 105 17 96 18 7 19 5 20 6 21 4 23
REMARK SMILES IDX 1 24 2 25 3 26 110 27 108 28 109 29 97 30 98 31 99 32 100 33
REMARK SMILES IDX 104 34 101 35 102 36 103 37 22 38 23 39 24 40 25 41 26 42
REMARK SMILES IDX 27 43 28 44 29 45 30 46 31 47 95 48 32 49 94 50 33 51 34 52
REMARK SMILES IDX 35 53 88 54 36 55 93 56 87 57 89 58 37 59 92 60 86 61 85 62
REMARK SMILES IDX 38 64 72 65 51 66 71 67 52 68 55 69 70 70 90 71 53 72 54 73
REMARK SMILES IDX 69 75 91 76 56 77 39 78 40 79 49 80 41 81 42 82 48 83 50 84
REMARK SMILES IDX 43 85 44 86 45 87 46 88 47 89 73 90 74 91 83 92 75 93 76 94
REMARK SMILES IDX 82 95 84 96 77 97 78 98 79 99 80 100 81 101 57 102 58 103
REMARK SMILES IDX 67 104 59 105 60 106 66 107 68 108 61 109 62 110 63 111
REMARK SMILES IDX 64 112 65 113
REMARK H PARENT 7 22 89 63 55 74
REMARK Flexibility Score: inf
ROOT
ATOM      1  O   UNL A   1      42.334  32.468  32.731  1.00  0.00    -0.377 OA
ENDROOT
BRANCH   1   2
ATOM      2  C   UNL A   1      42.048  31.074  32.747  1.00  0.00     0.188 C 
BRANCH   2   3
ATOM      3  C   UNL A   1      43.129  29.984  32.980  1.00  0.00     0.188 C 
BRANCH   3   4
ATOM      4  O   UNL A   1      43.240  29.020  31.952  1.00  0.00    -0.376 OA
BRANCH   4   5
ATOM      5  C   UNL A   1      43.407  27.651  32.241  1.00  0.00     0.202 C 
BRANCH   5   6
ATOM      6  C   UNL A   1      44.781  26.978  32.099  1.00  0.00     0.261 C 
BRANCH   6   7
ATOM      7  O   UNL A   1      45.902  27.706  32.606  1.00  0.00    -0.459 OA
BRANCH   7   8
ATOM      8  C   UNL A   1      46.806  28.133  31.703  1.00  0.00     0.355 C 
ATOM      9  O   UNL A   1      46.584  28.362  30.520  1.00  0.00    -0.244 OA
BRANCH   8  10
ATOM     10  C   UNL A   1      48.157  28.371  32.322  1.00  0.00     0.132 C 
ATOM     11  C   UNL A   1      49.040  31.559  33.168  1.00  0.00     0.206 C 
ATOM     12  C   UNL A   1      47.806  30.647  33.403  1.00  0.00     0.253 C 
ATOM     13  C   UNL A   1      49.713  30.243  32.671  1.00  0.00     0.181 C 
ATOM     14  O   UNL A   1      46.768  30.752  33.996  1.00  0.00    -0.272 OA
ATOM     15  N   UNL A   1      48.402  29.665  32.674  1.00  0.00    -0.289 N 
ATOM     16  S   UNL A   1      50.714  29.299  33.841  1.00  0.00    -0.129 SA
ATOM     17  C   UNL A   1      50.570  27.791  32.850  1.00  0.00     0.106 C 
ATOM     18  C   UNL A   1      49.141  27.436  32.442  1.00  0.00    -0.019 C 
BRANCH  11  19
ATOM     19  N   UNL A   1      49.683  32.299  34.281  1.00  0.00    -0.336 N 
ATOM     20  C   UNL A   1      50.712  33.222  34.181  1.00  0.00     0.270 C 
ATOM     21  O   UNL A   1      51.117  33.749  35.216  1.00  0.00    -0.268 OA
ATOM     22  H   UNL A   1      49.342  32.115  35.186  1.00  0.00     0.164 HD
BRANCH  20  23
ATOM     23  C   UNL A   1      51.302  33.457  32.877  1.00  0.00     0.126 A 
ATOM     24  C   UNL A   1      54.192  33.812  30.703  1.00  0.00     0.069 C 
ATOM     25  C   UNL A   1      52.842  33.773  31.316  1.00  0.00     0.060 A 
ATOM     26  C   UNL A   1      52.319  32.803  32.197  1.00  0.00     0.059 A 
ATOM     27  N   UNL A   1      51.980  34.777  31.155  1.00  0.00    -0.178 NA
ATOM     28  N   UNL A   1      50.983  34.492  32.026  1.00  0.00    -0.263 N 
ATOM     29  C   UNL A   1      49.780  35.284  31.952  1.00  0.00     0.174 C 
ENDBRANCH  20  23
ENDBRANCH  11  19
BRANCH  18  30
ATOM     30  C   UNL A   1      49.017  25.970  32.090  1.00  0.00     0.111 C 
BRANCH  30  31
ATOM     31  S   UNL A   1      48.562  24.810  33.397  1.00  0.00    -0.089 SA
BRANCH  31  32
ATOM     32  C   UNL A   1      49.916  23.773  33.768  1.00  0.00     0.174 A 
ATOM     33  N   UNL A   1      50.300  22.744  33.050  1.00  0.00    -0.132 NA
ATOM     34  S   UNL A   1      50.934  24.071  35.122  1.00  0.00    -0.091 S 
ATOM     35  N   UNL A   1      51.501  22.208  33.478  1.00  0.00    -0.143 NA
ATOM     36  C   UNL A   1      51.988  22.863  34.510  1.00  0.00     0.115 A 
ATOM     37  C   UNL A   1      53.322  22.621  35.118  1.00  0.00     0.081 C 
ENDBRANCH  31  32
ENDBRANCH  30  31
ENDBRANCH  18  30
ENDBRANCH   8  10
ENDBRANCH   7   8
ENDBRANCH   6   7
ENDBRANCH   5   6
ENDBRANCH   4   5
ENDBRANCH   3   4
ENDBRANCH   2   3
ENDBRANCH   1   2
BRANCH   1  38
ATOM     38  C   UNL A   1      41.679  33.275  31.772  1.00  0.00     0.188 C 
BRANCH  38  39
ATOM     39  C   UNL A   1      40.295  32.722  31.391  1.00  0.00     0.188 C 
BRANCH  39  40
ATOM     40  O   UNL A   1      39.196  33.421  31.946  1.00  0.00    -0.376 OA
BRANCH  40  41
ATOM     41  C   UNL A   1      38.196  33.991  31.116  1.00  0.00     0.202 C 
BRANCH  41  42
ATOM     42  C   UNL A   1      36.816  33.381  30.779  1.00  0.00     0.261 C 
BRANCH  42  43
ATOM     43  O   UNL A   1      36.735  32.205  29.968  1.00  0.00    -0.460 OA
BRANCH  43  44
ATOM     44  C   UNL A   1      36.775  31.005  30.580  1.00  0.00     0.338 C 
ATOM     45  O   UNL A   1      35.925  30.518  31.300  1.00  0.00    -0.246 OA
BRANCH  44  46
ATOM     46  C   UNL A   1      37.975  30.303  30.067  1.00  0.00     0.060 A 
ATOM     47  C   UNL A   1      38.760  29.547  30.948  1.00  0.00     0.016 A 
ATOM     48  C   UNL A   1      38.306  30.369  28.712  1.00  0.00     0.016 A 
ATOM     49  C   UNL A   1      39.888  28.873  30.482  1.00  0.00     0.010 A 
ATOM     50  C   UNL A   1      39.448  29.711  28.248  1.00  0.00     0.010 A 
ATOM     51  C   UNL A   1      40.265  28.992  29.139  1.00  0.00    -0.014 A 
BRANCH  51  52
ATOM     52  C   UNL A   1      41.622  28.564  28.722  1.00  0.00     0.031 A 
ATOM     53  C   UNL A   1      42.709  29.606  28.680  1.00  0.00     0.074 A 
ATOM     54  C   UNL A   1      41.899  27.283  28.419  1.00  0.00     0.049 A 
ATOM     55  N   UNL A   1      43.953  29.494  28.299  1.00  0.00    -0.248 NA
ATOM     56  C   UNL A   1      42.332  30.958  29.123  1.00  0.00     0.031 C 
ATOM     57  C   UNL A   1      40.947  26.176  28.472  1.00  0.00     0.029 A 
ATOM     58  N   UNL A   1      43.070  26.701  27.999  1.00  0.00    -0.354 N 
ATOM     59  C   UNL A   1      44.505  30.763  28.444  1.00  0.00     0.074 A 
ATOM     60  C   UNL A   1      43.450  31.634  28.910  1.00  0.00     0.031 C 
ATOM     61  C   UNL A   1      41.570  25.047  28.085  1.00  0.00     0.029 A 
ATOM     62  C   UNL A   1      42.952  25.360  27.723  1.00  0.00     0.049 A 
ATOM     63  H   UNL A   1      43.913  27.198  27.904  1.00  0.00     0.167 HD
ATOM     64  C   UNL A   1      45.778  31.163  28.219  1.00  0.00     0.037 A 
ATOM     65  C   UNL A   1      43.851  24.493  27.212  1.00  0.00     0.037 A 
ATOM     66  C   UNL A   1      46.822  30.288  27.754  1.00  0.00     0.049 A 
ATOM     67  C   UNL A   1      45.242  24.977  26.889  1.00  0.00     0.074 A 
ATOM     68  C   UNL A   1      48.149  30.590  27.508  1.00  0.00     0.029 A 
ATOM     69  N   UNL A   1      46.655  28.943  27.452  1.00  0.00    -0.354 N 
ATOM     70  N   UNL A   1      45.759  26.174  27.048  1.00  0.00    -0.248 NA
ATOM     71  C   UNL A   1      46.175  23.994  26.321  1.00  0.00     0.031 C 
ATOM     72  C   UNL A   1      48.769  29.446  26.995  1.00  0.00     0.029 A 
ATOM     73  C   UNL A   1      47.848  28.410  26.992  1.00  0.00     0.049 A 
ATOM     74  H   UNL A   1      45.814  28.443  27.551  1.00  0.00     0.167 HD
ATOM     75  C   UNL A   1      47.084  26.077  26.632  1.00  0.00     0.074 A 
ATOM     76  C   UNL A   1      47.292  24.703  26.224  1.00  0.00     0.031 C 
ATOM     77  C   UNL A   1      48.043  27.037  26.595  1.00  0.00     0.037 A 
BRANCH  64  78
ATOM     78  C   UNL A   1      46.101  32.616  28.437  1.00  0.00     0.058 A 
ATOM     79  C   UNL A   1      45.974  33.571  27.414  1.00  0.00     0.135 A 
ATOM     80  C   UNL A   1      46.529  33.065  29.697  1.00  0.00     0.135 A 
ATOM     81  F   UNL A   1      45.589  33.196  26.183  1.00  0.00    -0.206 F 
ATOM     82  C   UNL A   1      46.287  34.910  27.624  1.00  0.00     0.059 A 
ATOM     83  C   UNL A   1      46.815  34.404  29.940  1.00  0.00     0.059 A 
ATOM     84  F   UNL A   1      46.673  32.196  30.711  1.00  0.00    -0.206 F 
ATOM     85  C   UNL A   1      46.706  35.317  28.892  1.00  0.00     0.060 A 
BRANCH  85  86
ATOM     86  S   UNL A   1      47.108  37.058  29.148  1.00  0.00     0.124 S 
ATOM     87  O   UNL A   1      46.503  37.673  27.970  1.00  0.00    -0.237 OA
ATOM     88  O   UNL A   1      46.453  37.343  30.420  1.00  0.00    -0.237 OA
ATOM     89  O   UNL A   1      48.568  37.070  29.179  1.00  0.00    -0.744 OA
ENDBRANCH  85  86
ENDBRANCH  64  78
BRANCH  65  90
ATOM     90  C   UNL A   1      43.460  23.079  26.958  1.00  0.00     0.058 A 
ATOM     91  C   UNL A   1      43.322  22.585  25.651  1.00  0.00     0.135 A 
ATOM     92  C   UNL A   1      43.217  22.190  28.017  1.00  0.00     0.135 A 
ATOM     93  F   UNL A   1      43.529  23.397  24.603  1.00  0.00    -0.206 F 
ATOM     94  C   UNL A   1      42.950  21.268  25.403  1.00  0.00     0.059 A 
ATOM     95  C   UNL A   1      42.872  20.860  27.795  1.00  0.00     0.059 A 
ATOM     96  F   UNL A   1      43.338  22.607  29.287  1.00  0.00    -0.206 F 
ATOM     97  C   UNL A   1      42.734  20.410  26.484  1.00  0.00     0.060 A 
BRANCH  97  98
ATOM     98  S   UNL A   1      42.318  18.684  26.149  1.00  0.00     0.124 S 
ATOM     99  O   UNL A   1      42.508  18.076  27.461  1.00  0.00    -0.237 OA
ATOM    100  O   UNL A   1      40.938  18.790  25.687  1.00  0.00    -0.237 OA
ATOM    101  O   UNL A   1      43.285  18.298  25.126  1.00  0.00    -0.744 OA
ENDBRANCH  97  98
ENDBRANCH  65  90
BRANCH  77 102
ATOM    102  C   UNL A   1      49.423  26.635  26.139  1.00  0.00     0.058 A 
ATOM    103  C   UNL A   1      49.794  26.649  24.785  1.00  0.00     0.135 A 
ATOM    104  C   UNL A   1      50.406  26.291  27.082  1.00  0.00     0.135 A 
ATOM    105  F   UNL A   1      48.895  26.965  23.840  1.00  0.00    -0.206 F 
ATOM    106  C   UNL A   1      51.084  26.314  24.381  1.00  0.00     0.059 A 
ATOM    107  C   UNL A   1      51.711  25.986  26.703  1.00  0.00     0.059 A 
ATOM    108  F   UNL A   1      50.111  26.272  28.391  1.00  0.00    -0.206 F 
ATOM    109  C   UNL A   1      52.036  25.988  25.349  1.00  0.00     0.060 A 
BRANCH 109 110
ATOM    110  S   UNL A   1      53.713  25.592  24.812  1.00  0.00     0.124 S 
ATOM    111  O   UNL A   1      53.642  24.141  24.669  1.00  0.00    -0.237 OA
ATOM    112  O   UNL A   1      53.826  26.345  23.567  1.00  0.00    -0.237 OA
ATOM    113  O   UNL A   1      54.546  26.075  25.908  1.00  0.00    -0.744 OA
ENDBRANCH 109 110
ENDBRANCH  77 102
ENDBRANCH  51  52
ENDBRANCH  44  46
ENDBRANCH  43  44
ENDBRANCH  42  43
ENDBRANCH  41  42
ENDBRANCH  40  41
ENDBRANCH  39  40
ENDBRANCH  38  39
ENDBRANCH   1  38
TORSDOF 28
ENDMDL
