MODEL 1
REMARK VINA RESULT:      -9.6      0.000      0.000
REMARK SMILES O=C(CCOc1cccc(/C=C2\CCn3c2nc2cc(Cl)ccc2c3=O)c1)OCCOCCOCCOCCOC(=O)c1ccc(-c2c3nc(c(-c4c(F)cc(S(=O)(=O)[O-])cc4F)c4ccc([nH]4)c(-c4c(F)cc(S(=O)(=O)[O-])cc4F)c4nc(c(-c5c(F)cc(S(=O)(=O)[O-])cc5F)c5ccc2[nH]5)C=C4)C=C3)cc1
REMARK SMILES IDX 33 1 32 2 31 3 30 4 29 5 28 6 2 7 1 8 3 9 4 10 5 11 6 12
REMARK SMILES IDX 7 13 27 14 8 15 10 16 9 17 11 18 12 19 13 20 16 21 14 22
REMARK SMILES IDX 15 23 17 24 25 25 18 26 24 27 26 28 19 29 23 30 20 31 22 32
REMARK SMILES IDX 21 33 34 34 35 35 36 36 37 37 38 38 39 39 40 40 41 41 42 42
REMARK SMILES IDX 43 43 44 44 108 45 45 46 107 47 46 48 47 49 48 50 101 51
REMARK SMILES IDX 49 52 106 53 100 54 102 55 50 56 105 57 99 58 98 59 51 61
REMARK SMILES IDX 85 62 64 63 84 64 65 65 68 66 83 67 103 68 66 69 67 70 82 72
REMARK SMILES IDX 104 73 69 74 52 75 53 76 62 77 54 78 55 79 61 80 63 81 56 82
REMARK SMILES IDX 57 83 58 84 59 85 60 86 86 87 87 88 96 89 88 90 89 91 95 92
REMARK SMILES IDX 97 93 90 94 91 95 92 96 93 97 94 98 70 99 71 100 80 101
REMARK SMILES IDX 72 102 73 103 79 104 81 105 74 106 75 107 76 108 77 109
REMARK SMILES IDX 78 110
REMARK H PARENT 102 60 68 71
REMARK Flexibility Score: inf
ROOT
ATOM      1  C   UNL A   1      36.050  33.782  31.158  1.00  0.00     0.188 C 
ENDROOT
BRANCH   1   2
ATOM      2  C   UNL A   1      34.514  33.710  31.264  1.00  0.00     0.188 C 
BRANCH   2   3
ATOM      3  O   UNL A   1      33.689  33.924  30.110  1.00  0.00    -0.376 OA
BRANCH   3   4
ATOM      4  C   UNL A   1      34.314  33.888  28.830  1.00  0.00     0.202 C 
BRANCH   4   5
ATOM      5  C   UNL A   1      34.031  32.586  28.068  1.00  0.00     0.261 C 
BRANCH   5   6
ATOM      6  O   UNL A   1      35.193  31.742  27.919  1.00  0.00    -0.463 OA
BRANCH   6   7
ATOM      7  C   UNL A   1      35.124  30.402  27.764  1.00  0.00     0.309 C 
ATOM      8  O   UNL A   1      36.136  29.705  27.847  1.00  0.00    -0.252 OA
BRANCH   7   9
ATOM      9  C   UNL A   1      33.771  29.776  27.608  1.00  0.00     0.164 C 
BRANCH   9  10
ATOM     10  C   UNL A   1      33.513  29.427  26.152  1.00  0.00     0.241 C 
BRANCH  10  11
ATOM     11  O   UNL A   1      33.801  28.065  25.833  1.00  0.00    -0.493 OA
BRANCH  11  12
ATOM     12  C   UNL A   1      33.799  27.634  24.533  1.00  0.00     0.119 A 
ATOM     13  C   UNL A   1      33.985  28.666  23.613  1.00  0.00     0.046 A 
ATOM     14  C   UNL A   1      33.532  26.339  24.064  1.00  0.00     0.054 A 
ATOM     15  C   UNL A   1      33.897  28.415  22.252  1.00  0.00     0.004 A 
ATOM     16  C   UNL A   1      33.344  26.079  22.687  1.00  0.00    -0.022 A 
ATOM     17  C   UNL A   1      33.577  27.134  21.799  1.00  0.00     0.008 A 
BRANCH  16  18
ATOM     18  C   UNL A   1      32.658  24.805  22.309  1.00  0.00     0.015 C 
ATOM     19  C   UNL A   1      31.495  24.298  22.777  1.00  0.00    -0.003 C 
ATOM     20  C   UNL A   1      30.390  24.860  23.619  1.00  0.00     0.061 C 
ATOM     21  C   UNL A   1      31.677  22.914  23.322  1.00  0.00     0.139 A 
ATOM     22  C   UNL A   1      30.781  24.319  24.986  1.00  0.00     0.132 C 
ATOM     23  N   UNL A   1      31.423  23.058  24.680  1.00  0.00    -0.292 N 
ATOM     24  N   UNL A   1      32.063  21.818  22.770  1.00  0.00    -0.230 NA
ATOM     25  C   UNL A   1      32.000  22.231  25.598  1.00  0.00     0.261 A 
ATOM     26  C   UNL A   1      32.310  20.742  23.653  1.00  0.00     0.080 A 
ATOM     27  C   UNL A   1      32.459  20.949  25.028  1.00  0.00     0.066 A 
ATOM     28  O   UNL A   1      32.157  22.498  26.785  1.00  0.00    -0.269 OA
ATOM     29  C   UNL A   1      32.507  19.451  23.157  1.00  0.00     0.049 A 
ATOM     30  C   UNL A   1      32.954  19.949  25.859  1.00  0.00     0.017 A 
ATOM     31  C   UNL A   1      32.931  18.426  24.010  1.00  0.00     0.043 A 
ATOM     32  C   UNL A   1      33.204  18.681  25.352  1.00  0.00     0.021 A 
ATOM     33  Cl  UNL A   1      33.140  16.829  23.405  1.00  0.00    -0.084 Cl
ENDBRANCH  16  18
ENDBRANCH  11  12
ENDBRANCH  10  11
ENDBRANCH   9  10
ENDBRANCH   7   9
ENDBRANCH   6   7
ENDBRANCH   5   6
ENDBRANCH   4   5
ENDBRANCH   3   4
ENDBRANCH   2   3
ENDBRANCH   1   2
BRANCH   1  34
ATOM     34  O   UNL A   1      36.633  34.652  32.111  1.00  0.00    -0.377 OA
BRANCH  34  35
ATOM     35  C   UNL A   1      37.908  34.315  32.615  1.00  0.00     0.188 C 
BRANCH  35  36
ATOM     36  C   UNL A   1      38.978  33.894  31.598  1.00  0.00     0.188 C 
BRANCH  36  37
ATOM     37  O   UNL A   1      39.182  34.670  30.428  1.00  0.00    -0.376 OA
BRANCH  37  38
ATOM     38  C   UNL A   1      40.418  34.668  29.730  1.00  0.00     0.202 C 
BRANCH  38  39
ATOM     39  C   UNL A   1      40.634  35.538  28.489  1.00  0.00     0.261 C 
BRANCH  39  40
ATOM     40  O   UNL A   1      41.904  36.207  28.452  1.00  0.00    -0.460 OA
BRANCH  40  41
ATOM     41  C   UNL A   1      42.571  36.104  27.274  1.00  0.00     0.338 C 
ATOM     42  O   UNL A   1      42.686  36.970  26.426  1.00  0.00    -0.246 OA
BRANCH  41  43
ATOM     43  C   UNL A   1      43.320  34.833  27.219  1.00  0.00     0.060 A 
ATOM     44  C   UNL A   1      43.637  34.210  28.432  1.00  0.00     0.016 A 
ATOM     45  C   UNL A   1      43.765  34.298  26.009  1.00  0.00     0.016 A 
ATOM     46  C   UNL A   1      44.465  33.089  28.443  1.00  0.00     0.010 A 
ATOM     47  C   UNL A   1      44.568  33.153  26.017  1.00  0.00     0.010 A 
ATOM     48  C   UNL A   1      44.988  32.596  27.240  1.00  0.00    -0.014 A 
BRANCH  48  49
ATOM     49  C   UNL A   1      46.220  31.768  27.296  1.00  0.00     0.031 A 
ATOM     50  C   UNL A   1      46.046  30.271  27.188  1.00  0.00     0.074 A 
ATOM     51  C   UNL A   1      47.452  32.304  27.348  1.00  0.00     0.049 A 
ATOM     52  N   UNL A   1      46.948  29.326  27.147  1.00  0.00    -0.248 NA
ATOM     53  C   UNL A   1      44.660  29.774  27.120  1.00  0.00     0.031 C 
ATOM     54  C   UNL A   1      47.758  33.732  27.413  1.00  0.00     0.029 A 
ATOM     55  N   UNL A   1      48.684  31.697  27.339  1.00  0.00    -0.354 N 
ATOM     56  C   UNL A   1      46.239  28.133  27.056  1.00  0.00     0.074 A 
ATOM     57  C   UNL A   1      44.834  28.464  27.105  1.00  0.00     0.031 C 
ATOM     58  C   UNL A   1      49.094  33.891  27.433  1.00  0.00     0.029 A 
ATOM     59  C   UNL A   1      49.738  32.577  27.396  1.00  0.00     0.049 A 
ATOM     60  H   UNL A   1      48.802  30.720  27.297  1.00  0.00     0.167 HD
ATOM     61  C   UNL A   1      46.706  26.872  26.917  1.00  0.00     0.037 A 
ATOM     62  C   UNL A   1      51.067  32.344  27.410  1.00  0.00     0.037 A 
ATOM     63  C   UNL A   1      48.101  26.541  26.847  1.00  0.00     0.049 A 
ATOM     64  C   UNL A   1      51.569  30.924  27.305  1.00  0.00     0.074 A 
ATOM     65  C   UNL A   1      48.683  25.297  26.684  1.00  0.00     0.029 A 
ATOM     66  N   UNL A   1      49.135  27.460  26.941  1.00  0.00    -0.354 N 
ATOM     67  N   UNL A   1      50.886  29.809  27.182  1.00  0.00    -0.248 NA
ATOM     68  C   UNL A   1      53.027  30.732  27.323  1.00  0.00     0.031 C 
ATOM     69  C   UNL A   1      50.071  25.458  26.732  1.00  0.00     0.029 A 
ATOM     70  C   UNL A   1      50.353  26.809  26.863  1.00  0.00     0.049 A 
ATOM     71  H   UNL A   1      49.019  28.432  27.047  1.00  0.00     0.167 HD
ATOM     72  C   UNL A   1      51.830  28.793  27.064  1.00  0.00     0.074 A 
ATOM     73  C   UNL A   1      53.131  29.425  27.127  1.00  0.00     0.031 C 
ATOM     74  C   UNL A   1      51.640  27.457  26.910  1.00  0.00     0.037 A 
BRANCH  61  75
ATOM     75  C   UNL A   1      45.694  25.763  26.855  1.00  0.00     0.058 A 
ATOM     76  C   UNL A   1      45.324  25.029  27.994  1.00  0.00     0.135 A 
ATOM     77  C   UNL A   1      45.089  25.428  25.634  1.00  0.00     0.135 A 
ATOM     78  F   UNL A   1      45.895  25.288  29.181  1.00  0.00    -0.206 F 
ATOM     79  C   UNL A   1      44.413  23.981  27.919  1.00  0.00     0.059 A 
ATOM     80  C   UNL A   1      44.152  24.404  25.540  1.00  0.00     0.059 A 
ATOM     81  F   UNL A   1      45.413  26.092  24.513  1.00  0.00    -0.206 F 
ATOM     82  C   UNL A   1      43.832  23.676  26.686  1.00  0.00     0.060 A 
BRANCH  82  83
ATOM     83  S   UNL A   1      42.650  22.315  26.603  1.00  0.00     0.124 S 
ATOM     84  O   UNL A   1      41.408  23.025  26.312  1.00  0.00    -0.237 OA
ATOM     85  O   UNL A   1      43.185  21.504  25.515  1.00  0.00    -0.237 OA
ATOM     86  O   UNL A   1      42.731  21.712  27.929  1.00  0.00    -0.744 OA
ENDBRANCH  82  83
ENDBRANCH  61  75
BRANCH  62  87
ATOM     87  C   UNL A   1      52.028  33.478  27.506  1.00  0.00     0.058 A 
ATOM     88  C   UNL A   1      52.531  34.105  26.356  1.00  0.00     0.135 A 
ATOM     89  C   UNL A   1      52.480  33.941  28.751  1.00  0.00     0.135 A 
ATOM     90  F   UNL A   1      52.140  33.690  25.141  1.00  0.00    -0.206 F 
ATOM     91  C   UNL A   1      53.461  35.137  26.433  1.00  0.00     0.059 A 
ATOM     92  C   UNL A   1      53.391  34.988  28.855  1.00  0.00     0.059 A 
ATOM     93  F   UNL A   1      52.023  33.385  29.884  1.00  0.00    -0.206 F 
ATOM     94  C   UNL A   1      53.883  35.574  27.691  1.00  0.00     0.060 A 
BRANCH  94  95
ATOM     95  S   UNL A   1      55.049  36.951  27.784  1.00  0.00     0.124 S 
ATOM     96  O   UNL A   1      54.188  38.037  28.232  1.00  0.00    -0.237 OA
ATOM     97  O   UNL A   1      56.022  36.460  28.754  1.00  0.00    -0.237 OA
ATOM     98  O   UNL A   1      55.545  37.059  26.414  1.00  0.00    -0.744 OA
ENDBRANCH  94  95
ENDBRANCH  62  87
BRANCH  74  99
ATOM     99  C   UNL A   1      52.859  26.593  26.738  1.00  0.00     0.058 A 
ATOM    100  C   UNL A   1      53.636  26.174  27.829  1.00  0.00     0.135 A 
ATOM    101  C   UNL A   1      53.224  26.134  25.460  1.00  0.00     0.135 A 
ATOM    102  F   UNL A   1      53.331  26.580  29.071  1.00  0.00    -0.206 F 
ATOM    103  C   UNL A   1      54.754  25.364  27.656  1.00  0.00     0.059 A 
ATOM    104  C   UNL A   1      54.318  25.298  25.268  1.00  0.00     0.059 A 
ATOM    105  F   UNL A   1      52.503  26.488  24.383  1.00  0.00    -0.206 F 
ATOM    106  C   UNL A   1      55.088  24.933  26.369  1.00  0.00     0.060 A 
BRANCH 106 107
ATOM    107  S   UNL A   1      56.535  23.874  26.158  1.00  0.00     0.124 S 
ATOM    108  O   UNL A   1      57.460  24.445  27.131  1.00  0.00    -0.237 OA
ATOM    109  O   UNL A   1      56.007  22.552  26.484  1.00  0.00    -0.237 OA
ATOM    110  O   UNL A   1      56.898  24.070  24.757  1.00  0.00    -0.744 OA
ENDBRANCH 106 107
ENDBRANCH  74  99
ENDBRANCH  48  49
ENDBRANCH  41  43
ENDBRANCH  40  41
ENDBRANCH  39  40
ENDBRANCH  38  39
ENDBRANCH  37  38
ENDBRANCH  36  37
ENDBRANCH  35  36
ENDBRANCH  34  35
ENDBRANCH   1  34
TORSDOF 27
ENDMDL
MODEL 2
REMARK VINA RESULT:      -9.5      8.238     15.444
REMARK SMILES O=C(CCOc1cccc(/C=C2\CCn3c2nc2cc(Cl)ccc2c3=O)c1)OCCOCCOCCOCCOC(=O)c1ccc(-c2c3nc(c(-c4c(F)cc(S(=O)(=O)[O-])cc4F)c4ccc([nH]4)c(-c4c(F)cc(S(=O)(=O)[O-])cc4F)c4nc(c(-c5c(F)cc(S(=O)(=O)[O-])cc5F)c5ccc2[nH]5)C=C4)C=C3)cc1
REMARK SMILES IDX 33 1 32 2 31 3 30 4 29 5 28 6 2 7 1 8 3 9 4 10 5 11 6 12
REMARK SMILES IDX 7 13 27 14 8 15 10 16 9 17 11 18 12 19 13 20 16 21 14 22
REMARK SMILES IDX 15 23 17 24 25 25 18 26 24 27 26 28 19 29 23 30 20 31 22 32
REMARK SMILES IDX 21 33 34 34 35 35 36 36 37 37 38 38 39 39 40 40 41 41 42 42
REMARK SMILES IDX 43 43 44 44 108 45 45 46 107 47 46 48 47 49 48 50 101 51
REMARK SMILES IDX 49 52 106 53 100 54 102 55 50 56 105 57 99 58 98 59 51 61
REMARK SMILES IDX 85 62 64 63 84 64 65 65 68 66 83 67 103 68 66 69 67 70 82 72
REMARK SMILES IDX 104 73 69 74 52 75 53 76 62 77 54 78 55 79 61 80 63 81 56 82
REMARK SMILES IDX 57 83 58 84 59 85 60 86 86 87 87 88 96 89 88 90 89 91 95 92
REMARK SMILES IDX 97 93 90 94 91 95 92 96 93 97 94 98 70 99 71 100 80 101
REMARK SMILES IDX 72 102 73 103 79 104 81 105 74 106 75 107 76 108 77 109
REMARK SMILES IDX 78 110
REMARK H PARENT 102 60 68 71
REMARK Flexibility Score: inf
ROOT
ATOM      1  C   UNL A   1      44.681  42.438  24.735  1.00  0.00     0.188 C 
ENDROOT
BRANCH   1   2
ATOM      2  C   UNL A   1      43.681  43.593  24.531  1.00  0.00     0.188 C 
BRANCH   2   3
ATOM      3  O   UNL A   1      43.079  43.822  23.249  1.00  0.00    -0.376 OA
BRANCH   3   4
ATOM      4  C   UNL A   1      42.095  42.895  22.801  1.00  0.00     0.202 C 
BRANCH   4   5
ATOM      5  C   UNL A   1      41.638  43.165  21.360  1.00  0.00     0.261 C 
BRANCH   5   6
ATOM      6  O   UNL A   1      42.719  43.172  20.404  1.00  0.00    -0.463 OA
BRANCH   6   7
ATOM      7  C   UNL A   1      42.549  43.434  19.090  1.00  0.00     0.309 C 
ATOM      8  O   UNL A   1      43.513  43.469  18.325  1.00  0.00    -0.252 OA
BRANCH   7   9
ATOM      9  C   UNL A   1      41.150  43.563  18.569  1.00  0.00     0.164 C 
BRANCH   9  10
ATOM     10  C   UNL A   1      40.845  45.010  18.220  1.00  0.00     0.241 C 
BRANCH  10  11
ATOM     11  O   UNL A   1      41.628  45.512  17.138  1.00  0.00    -0.493 OA
BRANCH  11  12
ATOM     12  C   UNL A   1      42.252  46.728  17.228  1.00  0.00     0.119 A 
ATOM     13  C   UNL A   1      41.865  47.619  16.227  1.00  0.00     0.046 A 
ATOM     14  C   UNL A   1      43.268  47.101  18.121  1.00  0.00     0.054 A 
ATOM     15  C   UNL A   1      42.485  48.854  16.110  1.00  0.00     0.004 A 
ATOM     16  C   UNL A   1      43.979  48.314  17.962  1.00  0.00    -0.022 A 
ATOM     17  C   UNL A   1      43.532  49.192  16.969  1.00  0.00     0.008 A 
BRANCH  16  18
ATOM     18  C   UNL A   1      45.293  48.445  18.662  1.00  0.00     0.015 C 
ATOM     19  C   UNL A   1      46.493  47.926  18.315  1.00  0.00    -0.003 C 
ATOM     20  C   UNL A   1      47.010  47.265  17.074  1.00  0.00     0.061 C 
ATOM     21  C   UNL A   1      47.077  47.098  19.419  1.00  0.00     0.139 A 
ATOM     22  C   UNL A   1      46.875  45.801  17.465  1.00  0.00     0.132 C 
ATOM     23  N   UNL A   1      47.085  45.811  18.897  1.00  0.00    -0.292 N 
ATOM     24  N   UNL A   1      47.425  47.394  20.622  1.00  0.00    -0.230 NA
ATOM     25  C   UNL A   1      46.997  44.719  19.709  1.00  0.00     0.261 A 
ATOM     26  C   UNL A   1      47.752  46.297  21.451  1.00  0.00     0.080 A 
ATOM     27  C   UNL A   1      47.393  44.990  21.104  1.00  0.00     0.066 A 
ATOM     28  O   UNL A   1      46.614  43.608  19.354  1.00  0.00    -0.269 OA
ATOM     29  C   UNL A   1      48.362  46.504  22.691  1.00  0.00     0.049 A 
ATOM     30  C   UNL A   1      47.477  43.950  22.024  1.00  0.00     0.017 A 
ATOM     31  C   UNL A   1      48.517  45.440  23.587  1.00  0.00     0.043 A 
ATOM     32  C   UNL A   1      48.032  44.171  23.278  1.00  0.00     0.021 A 
ATOM     33  Cl  UNL A   1      49.299  45.690  25.099  1.00  0.00    -0.084 Cl
ENDBRANCH  16  18
ENDBRANCH  11  12
ENDBRANCH  10  11
ENDBRANCH   9  10
ENDBRANCH   7   9
ENDBRANCH   6   7
ENDBRANCH   5   6
ENDBRANCH   4   5
ENDBRANCH   3   4
ENDBRANCH   2   3
ENDBRANCH   1   2
BRANCH   1  34
ATOM     34  O   UNL A   1      45.656  42.715  25.725  1.00  0.00    -0.377 OA
BRANCH  34  35
ATOM     35  C   UNL A   1      45.295  42.515  27.076  1.00  0.00     0.188 C 
BRANCH  35  36
ATOM     36  C   UNL A   1      44.135  41.549  27.358  1.00  0.00     0.188 C 
BRANCH  36  37
ATOM     37  O   UNL A   1      44.056  40.889  28.610  1.00  0.00    -0.376 OA
BRANCH  37  38
ATOM     38  C   UNL A   1      44.329  39.503  28.749  1.00  0.00     0.202 C 
BRANCH  38  39
ATOM     39  C   UNL A   1      44.932  38.690  27.600  1.00  0.00     0.261 C 
BRANCH  39  40
ATOM     40  O   UNL A   1      45.248  37.331  27.943  1.00  0.00    -0.460 OA
BRANCH  40  41
ATOM     41  C   UNL A   1      46.185  36.745  27.153  1.00  0.00     0.338 C 
ATOM     42  O   UNL A   1      46.906  37.302  26.347  1.00  0.00    -0.246 OA
BRANCH  41  43
ATOM     43  C   UNL A   1      46.356  35.328  27.529  1.00  0.00     0.060 A 
ATOM     44  C   UNL A   1      47.110  34.513  26.675  1.00  0.00     0.016 A 
ATOM     45  C   UNL A   1      45.734  34.789  28.656  1.00  0.00     0.016 A 
ATOM     46  C   UNL A   1      47.181  33.141  26.905  1.00  0.00     0.010 A 
ATOM     47  C   UNL A   1      45.833  33.416  28.906  1.00  0.00     0.010 A 
ATOM     48  C   UNL A   1      46.487  32.578  27.984  1.00  0.00    -0.014 A 
BRANCH  48  49
ATOM     49  C   UNL A   1      46.154  31.132  27.928  1.00  0.00     0.031 A 
ATOM     50  C   UNL A   1      44.714  30.749  28.178  1.00  0.00     0.074 A 
ATOM     51  C   UNL A   1      47.054  30.193  27.584  1.00  0.00     0.049 A 
ATOM     52  N   UNL A   1      44.141  29.575  28.129  1.00  0.00    -0.248 NA
ATOM     53  C   UNL A   1      43.795  31.846  28.534  1.00  0.00     0.031 C 
ATOM     54  C   UNL A   1      48.462  30.434  27.278  1.00  0.00     0.029 A 
ATOM     55  N   UNL A   1      46.902  28.837  27.420  1.00  0.00    -0.354 N 
ATOM     56  C   UNL A   1      42.806  29.795  28.454  1.00  0.00     0.074 A 
ATOM     57  C   UNL A   1      42.663  31.200  28.753  1.00  0.00     0.031 C 
ATOM     58  C   UNL A   1      49.046  29.265  26.958  1.00  0.00     0.029 A 
ATOM     59  C   UNL A   1      48.056  28.190  27.049  1.00  0.00     0.049 A 
ATOM     60  H   UNL A   1      46.045  28.372  27.557  1.00  0.00     0.167 HD
ATOM     61  C   UNL A   1      41.779  28.916  28.478  1.00  0.00     0.037 A 
ATOM     62  C   UNL A   1      48.281  26.882  26.808  1.00  0.00     0.037 A 
ATOM     63  C   UNL A   1      41.913  27.522  28.161  1.00  0.00     0.049 A 
ATOM     64  C   UNL A   1      47.130  25.907  26.888  1.00  0.00     0.074 A 
ATOM     65  C   UNL A   1      40.932  26.548  28.132  1.00  0.00     0.029 A 
ATOM     66  N   UNL A   1      43.107  26.903  27.822  1.00  0.00    -0.354 N 
ATOM     67  N   UNL A   1      45.867  26.136  27.161  1.00  0.00    -0.248 NA
ATOM     68  C   UNL A   1      47.435  24.496  26.612  1.00  0.00     0.031 C 
ATOM     69  C   UNL A   1      41.542  25.327  27.826  1.00  0.00     0.029 A 
ATOM     70  C   UNL A   1      42.892  25.554  27.605  1.00  0.00     0.049 A 
ATOM     71  H   UNL A   1      43.977  27.356  27.746  1.00  0.00     0.167 HD
ATOM     72  C   UNL A   1      45.221  24.908  27.044  1.00  0.00     0.074 A 
ATOM     73  C   UNL A   1      46.232  23.940  26.674  1.00  0.00     0.031 C 
ATOM     74  C   UNL A   1      43.909  24.607  27.219  1.00  0.00     0.037 A 
BRANCH  61  75
ATOM     75  C   UNL A   1      40.430  29.441  28.882  1.00  0.00     0.058 A 
ATOM     76  C   UNL A   1      40.115  29.732  30.220  1.00  0.00     0.135 A 
ATOM     77  C   UNL A   1      39.436  29.650  27.913  1.00  0.00     0.135 A 
ATOM     78  F   UNL A   1      41.020  29.522  31.189  1.00  0.00    -0.206 F 
ATOM     79  C   UNL A   1      38.852  30.183  30.587  1.00  0.00     0.059 A 
ATOM     80  C   UNL A   1      38.175  30.130  28.254  1.00  0.00     0.059 A 
ATOM     81  F   UNL A   1      39.681  29.379  26.622  1.00  0.00    -0.206 F 
ATOM     82  C   UNL A   1      37.889  30.379  29.596  1.00  0.00     0.060 A 
BRANCH  82  83
ATOM     83  S   UNL A   1      36.254  30.967  30.086  1.00  0.00     0.124 S 
ATOM     84  O   UNL A   1      36.504  32.391  30.283  1.00  0.00    -0.237 OA
ATOM     85  O   UNL A   1      35.438  30.622  28.927  1.00  0.00    -0.237 OA
ATOM     86  O   UNL A   1      35.968  30.206  31.299  1.00  0.00    -0.744 OA
ENDBRANCH  82  83
ENDBRANCH  61  75
BRANCH  62  87
ATOM     87  C   UNL A   1      49.645  26.409  26.442  1.00  0.00     0.058 A 
ATOM     88  C   UNL A   1      50.104  26.463  25.117  1.00  0.00     0.135 A 
ATOM     89  C   UNL A   1      50.509  25.871  27.409  1.00  0.00     0.135 A 
ATOM     90  F   UNL A   1      49.311  26.955  24.153  1.00  0.00    -0.206 F 
ATOM     91  C   UNL A   1      51.360  25.984  24.758  1.00  0.00     0.059 A 
ATOM     92  C   UNL A   1      51.779  25.409  27.079  1.00  0.00     0.059 A 
ATOM     93  F   UNL A   1      50.125  25.806  28.694  1.00  0.00    -0.206 F 
ATOM     94  C   UNL A   1      52.193  25.461  25.750  1.00  0.00     0.060 A 
BRANCH  94  95
ATOM     95  S   UNL A   1      53.843  24.892  25.285  1.00  0.00     0.124 S 
ATOM     96  O   UNL A   1      53.636  23.455  25.160  1.00  0.00    -0.237 OA
ATOM     97  O   UNL A   1      54.075  25.618  24.041  1.00  0.00    -0.237 OA
ATOM     98  O   UNL A   1      54.671  25.318  26.411  1.00  0.00    -0.744 OA
ENDBRANCH  94  95
ENDBRANCH  62  87
BRANCH  74  99
ATOM     99  C   UNL A   1      43.475  23.191  26.957  1.00  0.00     0.058 A 
ATOM    100  C   UNL A   1      43.477  22.637  25.668  1.00  0.00     0.135 A 
ATOM    101  C   UNL A   1      43.101  22.359  28.027  1.00  0.00     0.135 A 
ATOM    102  F   UNL A   1      43.828  23.386  24.612  1.00  0.00    -0.206 F 
ATOM    103  C   UNL A   1      43.085  21.321  25.442  1.00  0.00     0.059 A 
ATOM    104  C   UNL A   1      42.736  21.031  27.828  1.00  0.00     0.059 A 
ATOM    105  F   UNL A   1      43.100  22.832  29.284  1.00  0.00    -0.206 F 
ATOM    106  C   UNL A   1      42.714  20.527  26.530  1.00  0.00     0.060 A 
BRANCH 106 107
ATOM    107  S   UNL A   1      42.217  18.817  26.227  1.00  0.00     0.124 S 
ATOM    108  O   UNL A   1      42.639  18.166  27.462  1.00  0.00    -0.237 OA
ATOM    109  O   UNL A   1      40.774  18.939  26.035  1.00  0.00    -0.237 OA
ATOM    110  O   UNL A   1      42.973  18.451  25.033  1.00  0.00    -0.744 OA
ENDBRANCH 106 107
ENDBRANCH  74  99
ENDBRANCH  48  49
ENDBRANCH  41  43
ENDBRANCH  40  41
ENDBRANCH  39  40
ENDBRANCH  38  39
ENDBRANCH  37  38
ENDBRANCH  36  37
ENDBRANCH  35  36
ENDBRANCH  34  35
ENDBRANCH   1  34
TORSDOF 27
ENDMDL
MODEL 3
REMARK VINA RESULT:      -9.5      4.550      8.538
REMARK SMILES O=C(CCOc1cccc(/C=C2\CCn3c2nc2cc(Cl)ccc2c3=O)c1)OCCOCCOCCOCCOC(=O)c1ccc(-c2c3nc(c(-c4c(F)cc(S(=O)(=O)[O-])cc4F)c4ccc([nH]4)c(-c4c(F)cc(S(=O)(=O)[O-])cc4F)c4nc(c(-c5c(F)cc(S(=O)(=O)[O-])cc5F)c5ccc2[nH]5)C=C4)C=C3)cc1
REMARK SMILES IDX 33 1 32 2 31 3 30 4 29 5 28 6 2 7 1 8 3 9 4 10 5 11 6 12
REMARK SMILES IDX 7 13 27 14 8 15 10 16 9 17 11 18 12 19 13 20 16 21 14 22
REMARK SMILES IDX 15 23 17 24 25 25 18 26 24 27 26 28 19 29 23 30 20 31 22 32
REMARK SMILES IDX 21 33 34 34 35 35 36 36 37 37 38 38 39 39 40 40 41 41 42 42
REMARK SMILES IDX 43 43 44 44 108 45 45 46 107 47 46 48 47 49 48 50 101 51
REMARK SMILES IDX 49 52 106 53 100 54 102 55 50 56 105 57 99 58 98 59 51 61
REMARK SMILES IDX 85 62 64 63 84 64 65 65 68 66 83 67 103 68 66 69 67 70 82 72
REMARK SMILES IDX 104 73 69 74 52 75 53 76 62 77 54 78 55 79 61 80 63 81 56 82
REMARK SMILES IDX 57 83 58 84 59 85 60 86 86 87 87 88 96 89 88 90 89 91 95 92
REMARK SMILES IDX 97 93 90 94 91 95 92 96 93 97 94 98 70 99 71 100 80 101
REMARK SMILES IDX 72 102 73 103 79 104 81 105 74 106 75 107 76 108 77 109
REMARK SMILES IDX 78 110
REMARK H PARENT 102 60 68 71
REMARK Flexibility Score: inf
ROOT
ATOM      1  C   UNL A   1      32.653  28.683  23.720  1.00  0.00     0.188 C 
ENDROOT
BRANCH   1   2
ATOM      2  C   UNL A   1      31.118  28.794  23.639  1.00  0.00     0.188 C 
BRANCH   2   3
ATOM      3  O   UNL A   1      30.280  27.747  24.151  1.00  0.00    -0.376 OA
BRANCH   3   4
ATOM      4  C   UNL A   1      30.837  26.862  25.118  1.00  0.00     0.202 C 
BRANCH   4   5
ATOM      5  C   UNL A   1      29.871  25.739  25.521  1.00  0.00     0.261 C 
BRANCH   5   6
ATOM      6  O   UNL A   1      30.296  25.006  26.690  1.00  0.00    -0.463 OA
BRANCH   6   7
ATOM      7  C   UNL A   1      30.506  23.672  26.695  1.00  0.00     0.309 C 
ATOM      8  O   UNL A   1      29.947  22.950  27.522  1.00  0.00    -0.252 OA
BRANCH   7   9
ATOM      9  C   UNL A   1      31.339  23.081  25.599  1.00  0.00     0.164 C 
BRANCH   9  10
ATOM     10  C   UNL A   1      32.682  23.786  25.515  1.00  0.00     0.241 C 
BRANCH  10  11
ATOM     11  O   UNL A   1      33.761  23.021  26.052  1.00  0.00    -0.493 OA
BRANCH  11  12
ATOM     12  C   UNL A   1      35.007  23.072  25.485  1.00  0.00     0.119 A 
ATOM     13  C   UNL A   1      34.973  23.156  24.094  1.00  0.00     0.046 A 
ATOM     14  C   UNL A   1      36.245  22.944  26.133  1.00  0.00     0.054 A 
ATOM     15  C   UNL A   1      36.149  23.104  23.359  1.00  0.00     0.004 A 
ATOM     16  C   UNL A   1      37.446  22.792  25.402  1.00  0.00    -0.022 A 
ATOM     17  C   UNL A   1      37.369  22.920  24.011  1.00  0.00     0.008 A 
BRANCH  16  18
ATOM     18  C   UNL A   1      38.635  22.244  26.125  1.00  0.00     0.015 C 
ATOM     19  C   UNL A   1      39.453  22.866  27.004  1.00  0.00    -0.003 C 
ATOM     20  C   UNL A   1      39.378  24.173  27.735  1.00  0.00     0.061 C 
ATOM     21  C   UNL A   1      40.886  22.792  26.572  1.00  0.00     0.139 A 
ATOM     22  C   UNL A   1      40.245  25.042  26.836  1.00  0.00     0.132 C 
ATOM     23  N   UNL A   1      41.218  24.113  26.303  1.00  0.00    -0.292 N 
ATOM     24  N   UNL A   1      41.672  21.792  26.375  1.00  0.00    -0.230 NA
ATOM     25  C   UNL A   1      42.181  24.426  25.388  1.00  0.00     0.261 A 
ATOM     26  C   UNL A   1      42.911  22.099  25.769  1.00  0.00     0.080 A 
ATOM     27  C   UNL A   1      43.122  23.322  25.124  1.00  0.00     0.066 A 
ATOM     28  O   UNL A   1      42.275  25.504  24.809  1.00  0.00    -0.269 OA
ATOM     29  C   UNL A   1      43.929  21.144  25.718  1.00  0.00     0.049 A 
ATOM     30  C   UNL A   1      44.232  23.526  24.310  1.00  0.00     0.017 A 
ATOM     31  C   UNL A   1      45.082  21.383  24.961  1.00  0.00     0.043 A 
ATOM     32  C   UNL A   1      45.217  22.551  24.216  1.00  0.00     0.021 A 
ATOM     33  Cl  UNL A   1      46.350  20.220  24.928  1.00  0.00    -0.084 Cl
ENDBRANCH  16  18
ENDBRANCH  11  12
ENDBRANCH  10  11
ENDBRANCH   9  10
ENDBRANCH   7   9
ENDBRANCH   6   7
ENDBRANCH   5   6
ENDBRANCH   4   5
ENDBRANCH   3   4
ENDBRANCH   2   3
ENDBRANCH   1   2
BRANCH   1  34
ATOM     34  O   UNL A   1      33.239  29.686  24.531  1.00  0.00    -0.377 OA
BRANCH  34  35
ATOM     35  C   UNL A   1      32.749  29.837  25.847  1.00  0.00     0.188 C 
BRANCH  35  36
ATOM     36  C   UNL A   1      33.652  30.561  26.856  1.00  0.00     0.188 C 
BRANCH  36  37
ATOM     37  O   UNL A   1      33.092  31.513  27.746  1.00  0.00    -0.376 OA
BRANCH  37  38
ATOM     38  C   UNL A   1      33.357  32.902  27.625  1.00  0.00     0.202 C 
BRANCH  38  39
ATOM     39  C   UNL A   1      33.537  33.790  28.859  1.00  0.00     0.261 C 
BRANCH  39  40
ATOM     40  O   UNL A   1      34.870  33.791  29.394  1.00  0.00    -0.460 OA
BRANCH  40  41
ATOM     41  C   UNL A   1      35.030  33.069  30.532  1.00  0.00     0.338 C 
ATOM     42  O   UNL A   1      34.151  32.697  31.287  1.00  0.00    -0.246 OA
BRANCH  41  43
ATOM     43  C   UNL A   1      36.430  32.617  30.658  1.00  0.00     0.060 A 
ATOM     44  C   UNL A   1      37.129  32.974  31.818  1.00  0.00     0.016 A 
ATOM     45  C   UNL A   1      37.069  31.919  29.632  1.00  0.00     0.016 A 
ATOM     46  C   UNL A   1      38.491  32.700  31.922  1.00  0.00     0.010 A 
ATOM     47  C   UNL A   1      38.429  31.613  29.752  1.00  0.00     0.010 A 
ATOM     48  C   UNL A   1      39.160  32.077  30.861  1.00  0.00    -0.014 A 
BRANCH  48  49
ATOM     49  C   UNL A   1      40.633  32.247  30.762  1.00  0.00     0.031 A 
ATOM     50  C   UNL A   1      41.490  31.089  31.215  1.00  0.00     0.074 A 
ATOM     51  C   UNL A   1      41.202  33.336  30.212  1.00  0.00     0.049 A 
ATOM     52  N   UNL A   1      42.788  30.947  31.181  1.00  0.00    -0.248 NA
ATOM     53  C   UNL A   1      40.779  29.932  31.789  1.00  0.00     0.031 C 
ATOM     54  C   UNL A   1      40.488  34.503  29.699  1.00  0.00     0.029 A 
ATOM     55  N   UNL A   1      42.525  33.624  29.984  1.00  0.00    -0.354 N 
ATOM     56  C   UNL A   1      43.044  29.696  31.733  1.00  0.00     0.074 A 
ATOM     57  C   UNL A   1      41.777  29.141  32.145  1.00  0.00     0.031 C 
ATOM     58  C   UNL A   1      41.383  35.381  29.210  1.00  0.00     0.029 A 
ATOM     59  C   UNL A   1      42.733  34.845  29.388  1.00  0.00     0.049 A 
ATOM     60  H   UNL A   1      43.258  33.013  30.227  1.00  0.00     0.167 HD
ATOM     61  C   UNL A   1      44.223  29.046  31.864  1.00  0.00     0.037 A 
ATOM     62  C   UNL A   1      43.882  35.452  29.025  1.00  0.00     0.037 A 
ATOM     63  C   UNL A   1      45.483  29.585  31.435  1.00  0.00     0.049 A 
ATOM     64  C   UNL A   1      45.194  34.731  29.225  1.00  0.00     0.074 A 
ATOM     65  C   UNL A   1      46.735  29.002  31.501  1.00  0.00     0.029 A 
ATOM     66  N   UNL A   1      45.651  30.838  30.866  1.00  0.00    -0.354 N 
ATOM     67  N   UNL A   1      45.416  33.533  29.714  1.00  0.00    -0.248 NA
ATOM     68  C   UNL A   1      46.412  35.440  28.808  1.00  0.00     0.031 C 
ATOM     69  C   UNL A   1      47.669  29.924  31.018  1.00  0.00     0.029 A 
ATOM     70  C   UNL A   1      46.990  31.057  30.596  1.00  0.00     0.049 A 
ATOM     71  H   UNL A   1      44.925  31.477  30.681  1.00  0.00     0.167 HD
ATOM     72  C   UNL A   1      46.790  33.330  29.621  1.00  0.00     0.074 A 
ATOM     73  C   UNL A   1      47.348  34.527  29.027  1.00  0.00     0.031 C 
ATOM     74  C   UNL A   1      47.526  32.249  29.987  1.00  0.00     0.037 A 
BRANCH  61  75
ATOM     75  C   UNL A   1      44.197  27.693  32.516  1.00  0.00     0.058 A 
ATOM     76  C   UNL A   1      44.199  27.540  33.913  1.00  0.00     0.135 A 
ATOM     77  C   UNL A   1      44.177  26.531  31.729  1.00  0.00     0.135 A 
ATOM     78  F   UNL A   1      44.248  28.618  34.712  1.00  0.00    -0.206 F 
ATOM     79  C   UNL A   1      44.212  26.283  34.506  1.00  0.00     0.059 A 
ATOM     80  C   UNL A   1      44.158  25.263  32.301  1.00  0.00     0.059 A 
ATOM     81  F   UNL A   1      44.185  26.620  30.391  1.00  0.00    -0.206 F 
ATOM     82  C   UNL A   1      44.191  25.150  33.691  1.00  0.00     0.060 A 
BRANCH  82  83
ATOM     83  S   UNL A   1      44.206  23.523  34.474  1.00  0.00     0.124 S 
ATOM     84  O   UNL A   1      44.658  22.675  33.375  1.00  0.00    -0.237 OA
ATOM     85  O   UNL A   1      45.159  23.710  35.562  1.00  0.00    -0.237 OA
ATOM     86  O   UNL A   1      42.818  23.331  34.885  1.00  0.00    -0.744 OA
ENDBRANCH  82  83
ENDBRANCH  61  75
BRANCH  62  87
ATOM     87  C   UNL A   1      43.854  36.808  28.411  1.00  0.00     0.058 A 
ATOM     88  C   UNL A   1      44.215  37.948  29.146  1.00  0.00     0.135 A 
ATOM     89  C   UNL A   1      43.443  36.994  27.082  1.00  0.00     0.135 A 
ATOM     90  F   UNL A   1      44.603  37.825  30.425  1.00  0.00    -0.206 F 
ATOM     91  C   UNL A   1      44.152  39.224  28.595  1.00  0.00     0.059 A 
ATOM     92  C   UNL A   1      43.395  38.258  26.501  1.00  0.00     0.059 A 
ATOM     93  F   UNL A   1      43.097  35.938  26.329  1.00  0.00    -0.206 F 
ATOM     94  C   UNL A   1      43.743  39.368  27.268  1.00  0.00     0.060 A 
BRANCH  94  95
ATOM     95  S   UNL A   1      43.716  41.023  26.543  1.00  0.00     0.124 S 
ATOM     96  O   UNL A   1      44.120  41.847  27.675  1.00  0.00    -0.237 OA
ATOM     97  O   UNL A   1      44.688  40.896  25.462  1.00  0.00    -0.237 OA
ATOM     98  O   UNL A   1      42.329  41.174  26.112  1.00  0.00    -0.744 OA
ENDBRANCH  94  95
ENDBRANCH  62  87
BRANCH  74  99
ATOM     99  C   UNL A   1      49.003  32.280  29.703  1.00  0.00     0.058 A 
ATOM    100  C   UNL A   1      49.933  32.740  30.647  1.00  0.00     0.135 A 
ATOM    101  C   UNL A   1      49.497  31.791  28.481  1.00  0.00     0.135 A 
ATOM    102  F   UNL A   1      49.517  33.215  31.831  1.00  0.00    -0.206 F 
ATOM    103  C   UNL A   1      51.298  32.752  30.376  1.00  0.00     0.059 A 
ATOM    104  C   UNL A   1      50.859  31.763  28.201  1.00  0.00     0.059 A 
ATOM    105  F   UNL A   1      48.651  31.320  27.550  1.00  0.00    -0.206 F 
ATOM    106  C   UNL A   1      51.750  32.263  29.147  1.00  0.00     0.060 A 
BRANCH 106 107
ATOM    107  S   UNL A   1      53.524  32.273  28.810  1.00  0.00     0.124 S 
ATOM    108  O   UNL A   1      53.924  33.554  29.382  1.00  0.00    -0.237 OA
ATOM    109  O   UNL A   1      53.987  31.087  29.526  1.00  0.00    -0.237 OA
ATOM    110  O   UNL A   1      53.593  32.185  27.354  1.00  0.00    -0.744 OA
ENDBRANCH 106 107
ENDBRANCH  74  99
ENDBRANCH  48  49
ENDBRANCH  41  43
ENDBRANCH  40  41
ENDBRANCH  39  40
ENDBRANCH  38  39
ENDBRANCH  37  38
ENDBRANCH  36  37
ENDBRANCH  35  36
ENDBRANCH  34  35
ENDBRANCH   1  34
TORSDOF 27
ENDMDL
