MODEL 1
REMARK VINA RESULT:      -9.6      0.000      0.000
REMARK SMILES O=C(CCC(=O)N1CCC[C@@]2(CCC(=O)N(Cc3ccncc3)C2)C1)OCCOCCOCCOCCOC(=O)c1ccc(-c2c3nc(c(-c4c(F)cc(S(=O)(=O)[O-])cc4F)c4ccc([nH]4)c(-c4c(F)cc(S(=O)(=O)[O-])cc4F)c4nc(c(-c5c(F)cc(S(=O)(=O)[O-])cc5F)c5ccc2[nH]5)C=C4)C=C3)cc1
REMARK SMILES IDX 31 1 30 2 29 3 28 4 27 5 26 6 2 7 1 8 3 9 4 10 5 11 6 12
REMARK SMILES IDX 7 13 8 14 25 15 9 16 11 17 10 18 12 19 24 20 13 21 16 22
REMARK SMILES IDX 14 23 15 24 17 25 18 26 19 27 23 28 20 29 22 30 21 31 32 32
REMARK SMILES IDX 33 33 34 34 35 35 36 36 37 37 38 38 39 39 40 40 41 41 42 42
REMARK SMILES IDX 106 43 43 44 105 45 44 46 45 47 46 48 99 49 47 50 104 51
REMARK SMILES IDX 98 52 100 53 48 54 103 55 97 56 96 57 49 59 83 60 62 61
REMARK SMILES IDX 82 62 63 63 66 64 81 65 101 66 64 67 65 68 80 70 102 71
REMARK SMILES IDX 67 72 50 73 51 74 60 75 52 76 53 77 59 78 61 79 54 80 55 81
REMARK SMILES IDX 56 82 57 83 58 84 84 85 85 86 94 87 86 88 87 89 93 90 95 91
REMARK SMILES IDX 88 92 89 93 90 94 91 95 92 96 68 97 69 98 78 99 70 100
REMARK SMILES IDX 71 101 77 102 79 103 72 104 73 105 74 106 75 107 76 108
REMARK H PARENT 100 58 66 69
REMARK Flexibility Score: inf
ROOT
ATOM      1  C   UNL A   1      37.164  20.789  25.447  1.00  0.00     0.188 C 
ENDROOT
BRANCH   1   2
ATOM      2  C   UNL A   1      35.965  21.243  24.585  1.00  0.00     0.188 C 
BRANCH   2   3
ATOM      3  O   UNL A   1      36.096  22.494  23.933  1.00  0.00    -0.376 OA
BRANCH   3   4
ATOM      4  C   UNL A   1      35.899  23.710  24.630  1.00  0.00     0.202 C 
BRANCH   4   5
ATOM      5  C   UNL A   1      35.590  23.728  26.119  1.00  0.00     0.261 C 
BRANCH   5   6
ATOM      6  O   UNL A   1      34.212  23.978  26.461  1.00  0.00    -0.463 OA
BRANCH   6   7
ATOM      7  C   UNL A   1      33.212  23.081  26.438  1.00  0.00     0.306 C 
ATOM      8  O   UNL A   1      33.421  21.915  26.770  1.00  0.00    -0.252 OA
BRANCH   7   9
ATOM      9  C   UNL A   1      31.838  23.563  26.103  1.00  0.00     0.132 C 
BRANCH   9  10
ATOM     10  C   UNL A   1      31.217  22.802  24.942  1.00  0.00     0.112 C 
BRANCH  10  11
ATOM     11  C   UNL A   1      31.767  23.214  23.585  1.00  0.00     0.223 C 
ATOM     12  O   UNL A   1      32.090  22.327  22.790  1.00  0.00    -0.275 OA
BRANCH  11  13
ATOM     13  N   UNL A   1      32.000  24.569  23.321  1.00  0.00    -0.342 N 
ATOM     14  C   UNL A   1      33.249  24.882  22.619  1.00  0.00     0.119 C 
ATOM     15  C   UNL A   1      30.968  25.597  23.442  1.00  0.00     0.128 C 
ATOM     16  C   UNL A   1      33.534  26.357  22.370  1.00  0.00     0.022 C 
ATOM     17  C   UNL A   1      31.400  27.095  23.525  1.00  0.00     0.006 C 
ATOM     18  C   UNL A   1      32.935  27.245  23.441  1.00  0.00     0.012 C 
ATOM     19  C   UNL A   1      30.648  27.744  22.339  1.00  0.00     0.020 C 
ATOM     20  C   UNL A   1      30.936  27.801  24.842  1.00  0.00     0.128 C 
ATOM     21  C   UNL A   1      30.702  29.243  22.312  1.00  0.00     0.101 C 
ATOM     22  N   UNL A   1      30.773  29.266  24.735  1.00  0.00    -0.338 N 
ATOM     23  C   UNL A   1      30.226  29.845  23.600  1.00  0.00     0.222 C 
ATOM     24  O   UNL A   1      29.548  30.868  23.580  1.00  0.00    -0.275 OA
BRANCH  22  25
ATOM     25  C   UNL A   1      31.216  30.138  25.828  1.00  0.00     0.155 C 
BRANCH  25  26
ATOM     26  C   UNL A   1      32.576  29.831  26.411  1.00  0.00    -0.026 A 
ATOM     27  C   UNL A   1      33.369  30.835  26.964  1.00  0.00     0.025 A 
ATOM     28  C   UNL A   1      33.103  28.532  26.352  1.00  0.00     0.025 A 
ATOM     29  C   UNL A   1      34.638  30.502  27.422  1.00  0.00     0.111 A 
ATOM     30  C   UNL A   1      34.388  28.304  26.819  1.00  0.00     0.111 A 
ATOM     31  N   UNL A   1      35.165  29.259  27.370  1.00  0.00    -0.265 NA
ENDBRANCH  25  26
ENDBRANCH  22  25
ENDBRANCH  11  13
ENDBRANCH  10  11
ENDBRANCH   9  10
ENDBRANCH   7   9
ENDBRANCH   6   7
ENDBRANCH   5   6
ENDBRANCH   4   5
ENDBRANCH   3   4
ENDBRANCH   2   3
ENDBRANCH   1   2
BRANCH   1  32
ATOM     32  O   UNL A   1      38.351  21.539  25.249  1.00  0.00    -0.377 OA
BRANCH  32  33
ATOM     33  C   UNL A   1      39.551  21.042  25.832  1.00  0.00     0.188 C 
BRANCH  33  34
ATOM     34  C   UNL A   1      40.293  21.911  26.864  1.00  0.00     0.188 C 
BRANCH  34  35
ATOM     35  O   UNL A   1      41.161  21.239  27.747  1.00  0.00    -0.376 OA
BRANCH  35  36
ATOM     36  C   UNL A   1      42.458  21.661  28.084  1.00  0.00     0.202 C 
BRANCH  36  37
ATOM     37  C   UNL A   1      42.896  23.104  28.381  1.00  0.00     0.261 C 
BRANCH  37  38
ATOM     38  O   UNL A   1      43.537  23.861  27.359  1.00  0.00    -0.460 OA
BRANCH  38  39
ATOM     39  C   UNL A   1      42.744  24.608  26.555  1.00  0.00     0.338 C 
ATOM     40  O   UNL A   1      42.398  24.341  25.426  1.00  0.00    -0.246 OA
BRANCH  39  41
ATOM     41  C   UNL A   1      42.193  25.710  27.385  1.00  0.00     0.060 A 
ATOM     42  C   UNL A   1      42.889  26.924  27.452  1.00  0.00     0.016 A 
ATOM     43  C   UNL A   1      41.004  25.539  28.099  1.00  0.00     0.016 A 
ATOM     44  C   UNL A   1      42.435  27.948  28.280  1.00  0.00     0.010 A 
ATOM     45  C   UNL A   1      40.567  26.553  28.957  1.00  0.00     0.010 A 
ATOM     46  C   UNL A   1      41.311  27.740  29.087  1.00  0.00    -0.014 A 
BRANCH  46  47
ATOM     47  C   UNL A   1      41.077  28.642  30.239  1.00  0.00     0.031 A 
ATOM     48  C   UNL A   1      41.946  28.462  31.457  1.00  0.00     0.074 A 
ATOM     49  C   UNL A   1      40.158  29.623  30.193  1.00  0.00     0.049 A 
ATOM     50  N   UNL A   1      41.908  29.085  32.604  1.00  0.00    -0.248 NA
ATOM     51  C   UNL A   1      43.000  27.436  31.365  1.00  0.00     0.031 C 
ATOM     52  C   UNL A   1      39.300  29.927  29.050  1.00  0.00     0.029 A 
ATOM     53  N   UNL A   1      39.792  30.543  31.143  1.00  0.00    -0.354 N 
ATOM     54  C   UNL A   1      42.928  28.529  33.369  1.00  0.00     0.074 A 
ATOM     55  C   UNL A   1      43.544  27.493  32.572  1.00  0.00     0.031 C 
ATOM     56  C   UNL A   1      38.489  30.951  29.375  1.00  0.00     0.029 A 
ATOM     57  C   UNL A   1      38.751  31.351  30.757  1.00  0.00     0.049 A 
ATOM     58  H   UNL A   1      40.235  30.616  32.019  1.00  0.00     0.167 HD
ATOM     59  C   UNL A   1      43.323  28.861  34.620  1.00  0.00     0.037 A 
ATOM     60  C   UNL A   1      38.071  32.285  31.453  1.00  0.00     0.037 A 
ATOM     61  C   UNL A   1      42.704  29.892  35.410  1.00  0.00     0.049 A 
ATOM     62  C   UNL A   1      38.480  32.580  32.877  1.00  0.00     0.074 A 
ATOM     63  C   UNL A   1      43.027  30.307  36.689  1.00  0.00     0.029 A 
ATOM     64  N   UNL A   1      41.633  30.670  34.995  1.00  0.00    -0.354 N 
ATOM     65  N   UNL A   1      39.452  32.054  33.585  1.00  0.00    -0.248 NA
ATOM     66  C   UNL A   1      37.702  33.600  33.593  1.00  0.00     0.031 C 
ATOM     67  C   UNL A   1      42.117  31.299  37.069  1.00  0.00     0.029 A 
ATOM     68  C   UNL A   1      41.267  31.547  36.003  1.00  0.00     0.049 A 
ATOM     69  H   UNL A   1      41.198  30.609  34.114  1.00  0.00     0.167 HD
ATOM     70  C   UNL A   1      39.419  32.701  34.818  1.00  0.00     0.074 A 
ATOM     71  C   UNL A   1      38.348  33.674  34.747  1.00  0.00     0.031 C 
ATOM     72  C   UNL A   1      40.200  32.511  35.911  1.00  0.00     0.037 A 
BRANCH  59  73
ATOM     73  C   UNL A   1      44.467  28.093  35.223  1.00  0.00     0.058 A 
ATOM     74  C   UNL A   1      45.795  28.538  35.116  1.00  0.00     0.135 A 
ATOM     75  C   UNL A   1      44.227  26.928  35.970  1.00  0.00     0.135 A 
ATOM     76  F   UNL A   1      46.086  29.630  34.391  1.00  0.00    -0.206 F 
ATOM     77  C   UNL A   1      46.842  27.853  35.722  1.00  0.00     0.059 A 
ATOM     78  C   UNL A   1      45.255  26.242  36.609  1.00  0.00     0.059 A 
ATOM     79  F   UNL A   1      42.978  26.452  36.095  1.00  0.00    -0.206 F 
ATOM     80  C   UNL A   1      46.562  26.711  36.475  1.00  0.00     0.060 A 
BRANCH  80  81
ATOM     81  S   UNL A   1      47.929  25.862  37.292  1.00  0.00     0.124 S 
ATOM     82  O   UNL A   1      47.765  24.500  36.794  1.00  0.00    -0.237 OA
ATOM     83  O   UNL A   1      49.089  26.587  36.786  1.00  0.00    -0.237 OA
ATOM     84  O   UNL A   1      47.646  26.048  38.712  1.00  0.00    -0.744 OA
ENDBRANCH  80  81
ENDBRANCH  59  73
BRANCH  60  85
ATOM     85  C   UNL A   1      36.913  32.990  30.838  1.00  0.00     0.058 A 
ATOM     86  C   UNL A   1      35.593  32.687  31.204  1.00  0.00     0.135 A 
ATOM     87  C   UNL A   1      37.104  33.956  29.835  1.00  0.00     0.135 A 
ATOM     88  F   UNL A   1      35.355  31.765  32.150  1.00  0.00    -0.206 F 
ATOM     89  C   UNL A   1      34.504  33.290  30.579  1.00  0.00     0.059 A 
ATOM     90  C   UNL A   1      36.034  34.595  29.218  1.00  0.00     0.059 A 
ATOM     91  F   UNL A   1      38.346  34.293  29.452  1.00  0.00    -0.206 F 
ATOM     92  C   UNL A   1      34.736  34.242  29.586  1.00  0.00     0.060 A 
BRANCH  92  93
ATOM     93  S   UNL A   1      33.320  35.036  28.798  1.00  0.00     0.124 S 
ATOM     94  O   UNL A   1      32.364  35.091  29.899  1.00  0.00    -0.237 OA
ATOM     95  O   UNL A   1      33.883  36.314  28.375  1.00  0.00    -0.237 OA
ATOM     96  O   UNL A   1      32.983  34.119  27.712  1.00  0.00    -0.744 OA
ENDBRANCH  92  93
ENDBRANCH  60  85
BRANCH  72  97
ATOM     97  C   UNL A   1      39.949  33.397  37.104  1.00  0.00     0.058 A 
ATOM     98  C   UNL A   1      38.976  33.086  38.067  1.00  0.00     0.135 A 
ATOM     99  C   UNL A   1      40.714  34.560  37.299  1.00  0.00     0.135 A 
ATOM    100  F   UNL A   1      38.216  31.987  37.929  1.00  0.00    -0.206 F 
ATOM    101  C   UNL A   1      38.737  33.920  39.154  1.00  0.00     0.059 A 
ATOM    102  C   UNL A   1      40.517  35.389  38.399  1.00  0.00     0.059 A 
ATOM    103  F   UNL A   1      41.671  34.897  36.419  1.00  0.00    -0.206 F 
ATOM    104  C   UNL A   1      39.511  35.070  39.311  1.00  0.00     0.060 A 
BRANCH 104 105
ATOM    105  S   UNL A   1      39.192  36.142  40.727  1.00  0.00     0.124 S 
ATOM    106  O   UNL A   1      38.303  35.309  41.531  1.00  0.00    -0.237 OA
ATOM    107  O   UNL A   1      40.531  36.349  41.270  1.00  0.00    -0.237 OA
ATOM    108  O   UNL A   1      38.575  37.322  40.129  1.00  0.00    -0.744 OA
ENDBRANCH 104 105
ENDBRANCH  72  97
ENDBRANCH  46  47
ENDBRANCH  39  41
ENDBRANCH  38  39
ENDBRANCH  37  38
ENDBRANCH  36  37
ENDBRANCH  35  36
ENDBRANCH  34  35
ENDBRANCH  33  34
ENDBRANCH  32  33
ENDBRANCH   1  32
TORSDOF 28
ENDMDL
MODEL 2
REMARK VINA RESULT:      -9.4      5.544      7.744
REMARK SMILES O=C(CCC(=O)N1CCC[C@@]2(CCC(=O)N(Cc3ccncc3)C2)C1)OCCOCCOCCOCCOC(=O)c1ccc(-c2c3nc(c(-c4c(F)cc(S(=O)(=O)[O-])cc4F)c4ccc([nH]4)c(-c4c(F)cc(S(=O)(=O)[O-])cc4F)c4nc(c(-c5c(F)cc(S(=O)(=O)[O-])cc5F)c5ccc2[nH]5)C=C4)C=C3)cc1
REMARK SMILES IDX 31 1 30 2 29 3 28 4 27 5 26 6 2 7 1 8 3 9 4 10 5 11 6 12
REMARK SMILES IDX 7 13 8 14 25 15 9 16 11 17 10 18 12 19 24 20 13 21 16 22
REMARK SMILES IDX 14 23 15 24 17 25 18 26 19 27 23 28 20 29 22 30 21 31 32 32
REMARK SMILES IDX 33 33 34 34 35 35 36 36 37 37 38 38 39 39 40 40 41 41 42 42
REMARK SMILES IDX 106 43 43 44 105 45 44 46 45 47 46 48 99 49 47 50 104 51
REMARK SMILES IDX 98 52 100 53 48 54 103 55 97 56 96 57 49 59 83 60 62 61
REMARK SMILES IDX 82 62 63 63 66 64 81 65 101 66 64 67 65 68 80 70 102 71
REMARK SMILES IDX 67 72 50 73 51 74 60 75 52 76 53 77 59 78 61 79 54 80 55 81
REMARK SMILES IDX 56 82 57 83 58 84 84 85 85 86 94 87 86 88 87 89 93 90 95 91
REMARK SMILES IDX 88 92 89 93 90 94 91 95 92 96 68 97 69 98 78 99 70 100
REMARK SMILES IDX 71 101 77 102 79 103 72 104 73 105 74 106 75 107 76 108
REMARK H PARENT 100 58 66 69
REMARK Flexibility Score: inf
ROOT
ATOM      1  C   UNL A   1      36.621  22.510  23.538  1.00  0.00     0.188 C 
ENDROOT
BRANCH   1   2
ATOM      2  C   UNL A   1      35.524  23.512  23.115  1.00  0.00     0.188 C 
BRANCH   2   3
ATOM      3  O   UNL A   1      34.475  22.996  22.315  1.00  0.00    -0.376 OA
BRANCH   3   4
ATOM      4  C   UNL A   1      33.156  22.880  22.816  1.00  0.00     0.202 C 
BRANCH   4   5
ATOM      5  C   UNL A   1      32.517  21.520  23.051  1.00  0.00     0.261 C 
BRANCH   5   6
ATOM      6  O   UNL A   1      32.311  21.165  24.434  1.00  0.00    -0.463 OA
BRANCH   6   7
ATOM      7  C   UNL A   1      33.235  20.663  25.270  1.00  0.00     0.306 C 
ATOM      8  O   UNL A   1      34.347  20.352  24.848  1.00  0.00    -0.252 OA
BRANCH   7   9
ATOM      9  C   UNL A   1      32.906  20.595  26.726  1.00  0.00     0.132 C 
BRANCH   9  10
ATOM     10  C   UNL A   1      33.268  21.872  27.468  1.00  0.00     0.112 C 
BRANCH  10  11
ATOM     11  C   UNL A   1      32.294  23.014  27.219  1.00  0.00     0.223 C 
ATOM     12  O   UNL A   1      31.133  22.892  27.621  1.00  0.00    -0.275 OA
BRANCH  11  13
ATOM     13  N   UNL A   1      32.700  24.108  26.447  1.00  0.00    -0.342 N 
ATOM     14  C   UNL A   1      34.140  24.211  26.184  1.00  0.00     0.119 C 
ATOM     15  C   UNL A   1      31.770  24.939  25.685  1.00  0.00     0.128 C 
ATOM     16  C   UNL A   1      34.597  25.423  25.384  1.00  0.00     0.022 C 
ATOM     17  C   UNL A   1      32.241  26.345  25.194  1.00  0.00     0.006 C 
ATOM     18  C   UNL A   1      33.703  26.626  25.607  1.00  0.00     0.012 C 
ATOM     19  C   UNL A   1      32.033  26.271  23.664  1.00  0.00     0.020 C 
ATOM     20  C   UNL A   1      31.368  27.518  25.749  1.00  0.00     0.128 C 
ATOM     21  C   UNL A   1      32.194  27.580  22.948  1.00  0.00     0.101 C 
ATOM     22  N   UNL A   1      31.357  28.734  24.909  1.00  0.00    -0.338 N 
ATOM     23  C   UNL A   1      31.314  28.647  23.526  1.00  0.00     0.222 C 
ATOM     24  O   UNL A   1      30.764  29.452  22.780  1.00  0.00    -0.275 OA
BRANCH  22  25
ATOM     25  C   UNL A   1      31.418  30.060  25.531  1.00  0.00     0.155 C 
BRANCH  25  26
ATOM     26  C   UNL A   1      32.609  30.320  26.424  1.00  0.00    -0.026 A 
ATOM     27  C   UNL A   1      32.652  31.428  27.269  1.00  0.00     0.025 A 
ATOM     28  C   UNL A   1      33.733  29.483  26.377  1.00  0.00     0.025 A 
ATOM     29  C   UNL A   1      33.803  31.650  28.014  1.00  0.00     0.111 A 
ATOM     30  C   UNL A   1      34.842  29.800  27.146  1.00  0.00     0.111 A 
ATOM     31  N   UNL A   1      34.898  30.858  27.981  1.00  0.00    -0.265 NA
ENDBRANCH  25  26
ENDBRANCH  22  25
ENDBRANCH  11  13
ENDBRANCH  10  11
ENDBRANCH   9  10
ENDBRANCH   7   9
ENDBRANCH   6   7
ENDBRANCH   5   6
ENDBRANCH   4   5
ENDBRANCH   3   4
ENDBRANCH   2   3
ENDBRANCH   1   2
BRANCH   1  32
ATOM     32  O   UNL A   1      37.216  22.783  24.796  1.00  0.00    -0.377 OA
BRANCH  32  33
ATOM     33  C   UNL A   1      38.062  21.785  25.357  1.00  0.00     0.188 C 
BRANCH  33  34
ATOM     34  C   UNL A   1      37.799  20.307  25.017  1.00  0.00     0.188 C 
BRANCH  34  35
ATOM     35  O   UNL A   1      38.891  19.426  25.145  1.00  0.00    -0.376 OA
BRANCH  35  36
ATOM     36  C   UNL A   1      40.050  19.678  25.899  1.00  0.00     0.202 C 
BRANCH  36  37
ATOM     37  C   UNL A   1      41.303  18.792  25.962  1.00  0.00     0.261 C 
BRANCH  37  38
ATOM     38  O   UNL A   1      42.512  19.332  26.486  1.00  0.00    -0.460 OA
BRANCH  38  39
ATOM     39  C   UNL A   1      43.296  20.032  25.634  1.00  0.00     0.338 C 
ATOM     40  O   UNL A   1      43.808  19.623  24.616  1.00  0.00    -0.246 OA
BRANCH  39  41
ATOM     41  C   UNL A   1      43.235  21.456  26.052  1.00  0.00     0.060 A 
ATOM     42  C   UNL A   1      43.029  22.442  25.077  1.00  0.00     0.016 A 
ATOM     43  C   UNL A   1      43.391  21.814  27.394  1.00  0.00     0.016 A 
ATOM     44  C   UNL A   1      43.041  23.790  25.429  1.00  0.00     0.010 A 
ATOM     45  C   UNL A   1      43.438  23.167  27.742  1.00  0.00     0.010 A 
ATOM     46  C   UNL A   1      43.314  24.158  26.751  1.00  0.00    -0.014 A 
BRANCH  46  47
ATOM     47  C   UNL A   1      43.728  25.552  27.037  1.00  0.00     0.031 A 
ATOM     48  C   UNL A   1      45.118  25.967  26.630  1.00  0.00     0.074 A 
ATOM     49  C   UNL A   1      42.885  26.439  27.595  1.00  0.00     0.049 A 
ATOM     50  N   UNL A   1      45.733  27.105  26.812  1.00  0.00    -0.248 NA
ATOM     51  C   UNL A   1      45.924  24.956  25.922  1.00  0.00     0.031 C 
ATOM     52  C   UNL A   1      41.501  26.168  27.979  1.00  0.00     0.029 A 
ATOM     53  N   UNL A   1      43.079  27.753  27.941  1.00  0.00    -0.354 N 
ATOM     54  C   UNL A   1      46.993  26.948  26.244  1.00  0.00     0.074 A 
ATOM     55  C   UNL A   1      47.071  25.595  25.744  1.00  0.00     0.031 C 
ATOM     56  C   UNL A   1      40.977  27.278  28.529  1.00  0.00     0.029 A 
ATOM     57  C   UNL A   1      41.997  28.325  28.564  1.00  0.00     0.049 A 
ATOM     58  H   UNL A   1      43.915  28.239  27.759  1.00  0.00     0.167 HD
ATOM     59  C   UNL A   1      47.991  27.856  26.139  1.00  0.00     0.037 A 
ATOM     60  C   UNL A   1      41.861  29.545  29.123  1.00  0.00     0.037 A 
ATOM     61  C   UNL A   1      47.908  29.202  26.641  1.00  0.00     0.049 A 
ATOM     62  C   UNL A   1      43.020  30.512  29.064  1.00  0.00     0.074 A 
ATOM     63  C   UNL A   1      48.862  30.201  26.587  1.00  0.00     0.029 A 
ATOM     64  N   UNL A   1      46.806  29.736  27.293  1.00  0.00    -0.354 N 
ATOM     65  N   UNL A   1      44.202  30.355  28.516  1.00  0.00    -0.248 NA
ATOM     66  C   UNL A   1      42.822  31.824  29.695  1.00  0.00     0.031 C 
ATOM     67  C   UNL A   1      48.358  31.322  27.253  1.00  0.00     0.029 A 
ATOM     68  C   UNL A   1      47.066  31.044  27.666  1.00  0.00     0.049 A 
ATOM     69  H   UNL A   1      45.963  29.256  27.463  1.00  0.00     0.167 HD
ATOM     70  C   UNL A   1      44.876  31.558  28.710  1.00  0.00     0.074 A 
ATOM     71  C   UNL A   1      43.958  32.439  29.404  1.00  0.00     0.031 C 
ATOM     72  C   UNL A   1      46.137  31.906  28.352  1.00  0.00     0.037 A 
BRANCH  59  73
ATOM     73  C   UNL A   1      49.267  27.423  25.471  1.00  0.00     0.058 A 
ATOM     74  C   UNL A   1      49.419  27.455  24.075  1.00  0.00     0.135 A 
ATOM     75  C   UNL A   1      50.374  27.029  26.239  1.00  0.00     0.135 A 
ATOM     76  F   UNL A   1      48.385  27.798  23.289  1.00  0.00    -0.206 F 
ATOM     77  C   UNL A   1      50.619  27.105  23.466  1.00  0.00     0.059 A 
ATOM     78  C   UNL A   1      51.594  26.702  25.654  1.00  0.00     0.059 A 
ATOM     79  F   UNL A   1      50.281  26.969  27.577  1.00  0.00    -0.206 F 
ATOM     80  C   UNL A   1      51.705  26.739  24.264  1.00  0.00     0.060 A 
BRANCH  80  81
ATOM     81  S   UNL A   1      53.269  26.334  23.458  1.00  0.00     0.124 S 
ATOM     82  O   UNL A   1      52.822  25.989  22.113  1.00  0.00    -0.237 OA
ATOM     83  O   UNL A   1      54.010  27.585  23.579  1.00  0.00    -0.237 OA
ATOM     84  O   UNL A   1      53.784  25.223  24.252  1.00  0.00    -0.744 OA
ENDBRANCH  80  81
ENDBRANCH  59  73
BRANCH  60  85
ATOM     85  C   UNL A   1      40.599  29.919  29.818  1.00  0.00     0.058 A 
ATOM     86  C   UNL A   1      39.421  30.189  29.104  1.00  0.00     0.135 A 
ATOM     87  C   UNL A   1      40.557  30.059  31.216  1.00  0.00     0.135 A 
ATOM     88  F   UNL A   1      39.410  30.081  27.766  1.00  0.00    -0.206 F 
ATOM     89  C   UNL A   1      38.259  30.612  29.742  1.00  0.00     0.059 A 
ATOM     90  C   UNL A   1      39.399  30.449  31.880  1.00  0.00     0.059 A 
ATOM     91  F   UNL A   1      41.650  29.803  31.951  1.00  0.00    -0.206 F 
ATOM     92  C   UNL A   1      38.259  30.740  31.132  1.00  0.00     0.060 A 
BRANCH  92  93
ATOM     93  S   UNL A   1      36.740  31.266  31.954  1.00  0.00     0.124 S 
ATOM     94  O   UNL A   1      35.903  30.080  31.811  1.00  0.00    -0.237 OA
ATOM     95  O   UNL A   1      37.211  31.559  33.304  1.00  0.00    -0.237 OA
ATOM     96  O   UNL A   1      36.326  32.431  31.178  1.00  0.00    -0.744 OA
ENDBRANCH  92  93
ENDBRANCH  60  85
BRANCH  72  97
ATOM     97  C   UNL A   1      46.585  33.310  28.670  1.00  0.00     0.058 A 
ATOM     98  C   UNL A   1      47.255  33.622  29.863  1.00  0.00     0.135 A 
ATOM     99  C   UNL A   1      46.363  34.351  27.752  1.00  0.00     0.135 A 
ATOM    100  F   UNL A   1      47.492  32.666  30.776  1.00  0.00    -0.206 F 
ATOM    101  C   UNL A   1      47.646  34.924  30.157  1.00  0.00     0.059 A 
ATOM    102  C   UNL A   1      46.780  35.654  28.010  1.00  0.00     0.059 A 
ATOM    103  F   UNL A   1      45.743  34.107  26.587  1.00  0.00    -0.206 F 
ATOM    104  C   UNL A   1      47.403  35.934  29.225  1.00  0.00     0.060 A 
BRANCH 104 105
ATOM    105  S   UNL A   1      47.918  37.618  29.619  1.00  0.00     0.124 S 
ATOM    106  O   UNL A   1      46.644  38.330  29.585  1.00  0.00    -0.237 OA
ATOM    107  O   UNL A   1      48.520  37.459  30.939  1.00  0.00    -0.237 OA
ATOM    108  O   UNL A   1      48.850  37.949  28.546  1.00  0.00    -0.744 OA
ENDBRANCH 104 105
ENDBRANCH  72  97
ENDBRANCH  46  47
ENDBRANCH  39  41
ENDBRANCH  38  39
ENDBRANCH  37  38
ENDBRANCH  36  37
ENDBRANCH  35  36
ENDBRANCH  34  35
ENDBRANCH  33  34
ENDBRANCH  32  33
ENDBRANCH   1  32
TORSDOF 28
ENDMDL
MODEL 3
REMARK VINA RESULT:      -9.4      4.794      9.608
REMARK SMILES O=C(CCC(=O)N1CCC[C@@]2(CCC(=O)N(Cc3ccncc3)C2)C1)OCCOCCOCCOCCOC(=O)c1ccc(-c2c3nc(c(-c4c(F)cc(S(=O)(=O)[O-])cc4F)c4ccc([nH]4)c(-c4c(F)cc(S(=O)(=O)[O-])cc4F)c4nc(c(-c5c(F)cc(S(=O)(=O)[O-])cc5F)c5ccc2[nH]5)C=C4)C=C3)cc1
REMARK SMILES IDX 31 1 30 2 29 3 28 4 27 5 26 6 2 7 1 8 3 9 4 10 5 11 6 12
REMARK SMILES IDX 7 13 8 14 25 15 9 16 11 17 10 18 12 19 24 20 13 21 16 22
REMARK SMILES IDX 14 23 15 24 17 25 18 26 19 27 23 28 20 29 22 30 21 31 32 32
REMARK SMILES IDX 33 33 34 34 35 35 36 36 37 37 38 38 39 39 40 40 41 41 42 42
REMARK SMILES IDX 106 43 43 44 105 45 44 46 45 47 46 48 99 49 47 50 104 51
REMARK SMILES IDX 98 52 100 53 48 54 103 55 97 56 96 57 49 59 83 60 62 61
REMARK SMILES IDX 82 62 63 63 66 64 81 65 101 66 64 67 65 68 80 70 102 71
REMARK SMILES IDX 67 72 50 73 51 74 60 75 52 76 53 77 59 78 61 79 54 80 55 81
REMARK SMILES IDX 56 82 57 83 58 84 84 85 85 86 94 87 86 88 87 89 93 90 95 91
REMARK SMILES IDX 88 92 89 93 90 94 91 95 92 96 68 97 69 98 78 99 70 100
REMARK SMILES IDX 71 101 77 102 79 103 72 104 73 105 74 106 75 107 76 108
REMARK H PARENT 100 58 66 69
REMARK Flexibility Score: inf
ROOT
ATOM      1  C   UNL A   1      34.013  24.671  23.156  1.00  0.00     0.188 C 
ENDROOT
BRANCH   1   2
ATOM      2  C   UNL A   1      32.707  23.850  23.082  1.00  0.00     0.188 C 
BRANCH   2   3
ATOM      3  O   UNL A   1      32.727  22.705  22.248  1.00  0.00    -0.376 OA
BRANCH   3   4
ATOM      4  C   UNL A   1      32.218  21.461  22.692  1.00  0.00     0.202 C 
BRANCH   4   5
ATOM      5  C   UNL A   1      32.638  20.865  24.027  1.00  0.00     0.261 C 
BRANCH   5   6
ATOM      6  O   UNL A   1      31.753  21.138  25.132  1.00  0.00    -0.463 OA
BRANCH   6   7
ATOM      7  C   UNL A   1      32.001  21.963  26.163  1.00  0.00     0.306 C 
ATOM      8  O   UNL A   1      33.023  21.825  26.833  1.00  0.00    -0.252 OA
BRANCH   7   9
ATOM      9  C   UNL A   1      31.062  23.101  26.398  1.00  0.00     0.132 C 
BRANCH   9  10
ATOM     10  C   UNL A   1      31.776  24.441  26.488  1.00  0.00     0.112 C 
BRANCH  10  11
ATOM     11  C   UNL A   1      30.865  25.630  26.222  1.00  0.00     0.223 C 
ATOM     12  O   UNL A   1      29.650  25.431  26.141  1.00  0.00    -0.275 OA
BRANCH  11  13
ATOM     13  N   UNL A   1      31.431  26.884  25.962  1.00  0.00    -0.342 N 
ATOM     14  C   UNL A   1      31.260  27.397  24.599  1.00  0.00     0.119 C 
ATOM     15  C   UNL A   1      31.898  27.784  27.015  1.00  0.00     0.128 C 
ATOM     16  C   UNL A   1      31.912  28.739  24.294  1.00  0.00     0.022 C 
ATOM     17  C   UNL A   1      32.863  28.953  26.636  1.00  0.00     0.006 C 
ATOM     18  C   UNL A   1      33.162  28.969  25.120  1.00  0.00     0.012 C 
ATOM     19  C   UNL A   1      32.108  30.207  27.132  1.00  0.00     0.020 C 
ATOM     20  C   UNL A   1      34.238  28.885  27.379  1.00  0.00     0.128 C 
ATOM     21  C   UNL A   1      32.913  31.474  27.101  1.00  0.00     0.101 C 
ATOM     22  N   UNL A   1      34.920  30.186  27.541  1.00  0.00    -0.338 N 
ATOM     23  C   UNL A   1      34.205  31.335  27.848  1.00  0.00     0.222 C 
ATOM     24  O   UNL A   1      34.621  32.271  28.524  1.00  0.00    -0.275 OA
BRANCH  22  25
ATOM     25  C   UNL A   1      36.371  30.287  27.353  1.00  0.00     0.155 C 
BRANCH  25  26
ATOM     26  C   UNL A   1      37.223  29.800  28.501  1.00  0.00    -0.026 A 
ATOM     27  C   UNL A   1      38.570  29.492  28.322  1.00  0.00     0.025 A 
ATOM     28  C   UNL A   1      36.660  29.584  29.768  1.00  0.00     0.025 A 
ATOM     29  C   UNL A   1      39.284  28.983  29.400  1.00  0.00     0.111 A 
ATOM     30  C   UNL A   1      37.451  29.054  30.776  1.00  0.00     0.111 A 
ATOM     31  N   UNL A   1      38.760  28.764  30.626  1.00  0.00    -0.265 NA
ENDBRANCH  25  26
ENDBRANCH  22  25
ENDBRANCH  11  13
ENDBRANCH  10  11
ENDBRANCH   9  10
ENDBRANCH   7   9
ENDBRANCH   6   7
ENDBRANCH   5   6
ENDBRANCH   4   5
ENDBRANCH   3   4
ENDBRANCH   2   3
ENDBRANCH   1   2
BRANCH   1  32
ATOM     32  O   UNL A   1      34.586  24.753  24.450  1.00  0.00    -0.377 OA
BRANCH  32  33
ATOM     33  C   UNL A   1      35.673  23.884  24.748  1.00  0.00     0.188 C 
BRANCH  33  34
ATOM     34  C   UNL A   1      36.162  22.905  23.666  1.00  0.00     0.188 C 
BRANCH  34  35
ATOM     35  O   UNL A   1      37.228  22.054  24.021  1.00  0.00    -0.376 OA
BRANCH  35  36
ATOM     36  C   UNL A   1      37.720  21.873  25.325  1.00  0.00     0.202 C 
BRANCH  36  37
ATOM     37  C   UNL A   1      39.045  21.199  25.710  1.00  0.00     0.261 C 
BRANCH  37  38
ATOM     38  O   UNL A   1      39.924  21.858  26.617  1.00  0.00    -0.460 OA
BRANCH  38  39
ATOM     39  C   UNL A   1      41.244  21.576  26.512  1.00  0.00     0.338 C 
ATOM     40  O   UNL A   1      41.748  20.692  25.857  1.00  0.00    -0.246 OA
BRANCH  39  41
ATOM     41  C   UNL A   1      41.982  22.685  27.169  1.00  0.00     0.060 A 
ATOM     42  C   UNL A   1      43.382  22.703  27.103  1.00  0.00     0.016 A 
ATOM     43  C   UNL A   1      41.297  23.692  27.855  1.00  0.00     0.016 A 
ATOM     44  C   UNL A   1      44.104  23.689  27.772  1.00  0.00     0.010 A 
ATOM     45  C   UNL A   1      42.022  24.661  28.556  1.00  0.00     0.010 A 
ATOM     46  C   UNL A   1      43.428  24.630  28.556  1.00  0.00    -0.014 A 
BRANCH  46  47
ATOM     47  C   UNL A   1      44.188  25.398  29.571  1.00  0.00     0.031 A 
ATOM     48  C   UNL A   1      44.568  26.817  29.236  1.00  0.00     0.074 A 
ATOM     49  C   UNL A   1      44.490  24.874  30.772  1.00  0.00     0.049 A 
ATOM     50  N   UNL A   1      45.270  27.674  29.927  1.00  0.00    -0.248 NA
ATOM     51  C   UNL A   1      44.091  27.336  27.941  1.00  0.00     0.031 C 
ATOM     52  C   UNL A   1      44.126  23.534  31.229  1.00  0.00     0.029 A 
ATOM     53  N   UNL A   1      45.182  25.413  31.827  1.00  0.00    -0.354 N 
ATOM     54  C   UNL A   1      45.320  28.830  29.155  1.00  0.00     0.074 A 
ATOM     55  C   UNL A   1      44.609  28.555  27.927  1.00  0.00     0.031 C 
ATOM     56  C   UNL A   1      44.619  23.347  32.466  1.00  0.00     0.029 A 
ATOM     57  C   UNL A   1      45.358  24.541  32.875  1.00  0.00     0.049 A 
ATOM     58  H   UNL A   1      45.521  26.337  31.833  1.00  0.00     0.167 HD
ATOM     59  C   UNL A   1      45.896  30.019  29.449  1.00  0.00     0.037 A 
ATOM     60  C   UNL A   1      46.061  24.685  34.016  1.00  0.00     0.037 A 
ATOM     61  C   UNL A   1      46.603  30.286  30.673  1.00  0.00     0.049 A 
ATOM     62  C   UNL A   1      46.764  25.995  34.284  1.00  0.00     0.074 A 
ATOM     63  C   UNL A   1      47.225  31.456  31.069  1.00  0.00     0.029 A 
ATOM     64  N   UNL A   1      46.786  29.369  31.698  1.00  0.00    -0.354 N 
ATOM     65  N   UNL A   1      46.795  27.083  33.551  1.00  0.00    -0.248 NA
ATOM     66  C   UNL A   1      47.523  26.097  35.539  1.00  0.00     0.031 C 
ATOM     67  C   UNL A   1      47.830  31.230  32.310  1.00  0.00     0.029 A 
ATOM     68  C   UNL A   1      47.531  29.939  32.716  1.00  0.00     0.049 A 
ATOM     69  H   UNL A   1      46.436  28.449  31.700  1.00  0.00     0.167 HD
ATOM     70  C   UNL A   1      47.550  28.007  34.270  1.00  0.00     0.074 A 
ATOM     71  C   UNL A   1      47.934  27.355  35.506  1.00  0.00     0.031 C 
ATOM     72  C   UNL A   1      47.899  29.276  33.941  1.00  0.00     0.037 A 
BRANCH  59  73
ATOM     73  C   UNL A   1      45.802  31.118  28.427  1.00  0.00     0.058 A 
ATOM     74  C   UNL A   1      44.679  31.958  28.343  1.00  0.00     0.135 A 
ATOM     75  C   UNL A   1      46.875  31.374  27.557  1.00  0.00     0.135 A 
ATOM     76  F   UNL A   1      43.613  31.742  29.132  1.00  0.00    -0.206 F 
ATOM     77  C   UNL A   1      44.621  33.006  27.432  1.00  0.00     0.059 A 
ATOM     78  C   UNL A   1      46.851  32.435  26.657  1.00  0.00     0.059 A 
ATOM     79  F   UNL A   1      47.968  30.595  27.586  1.00  0.00    -0.206 F 
ATOM     80  C   UNL A   1      45.716  33.244  26.599  1.00  0.00     0.060 A 
BRANCH  80  81
ATOM     81  S   UNL A   1      45.641  34.638  25.456  1.00  0.00     0.124 S 
ATOM     82  O   UNL A   1      47.048  34.799  25.100  1.00  0.00    -0.237 OA
ATOM     83  O   UNL A   1      44.775  34.125  24.400  1.00  0.00    -0.237 OA
ATOM     84  O   UNL A   1      45.073  35.712  26.263  1.00  0.00    -0.744 OA
ENDBRANCH  80  81
ENDBRANCH  59  73
BRANCH  60  85
ATOM     85  C   UNL A   1      46.171  23.557  34.982  1.00  0.00     0.058 A 
ATOM     86  C   UNL A   1      47.240  22.649  34.930  1.00  0.00     0.135 A 
ATOM     87  C   UNL A   1      45.181  23.339  35.955  1.00  0.00     0.135 A 
ATOM     88  F   UNL A   1      48.208  22.806  34.013  1.00  0.00    -0.206 F 
ATOM     89  C   UNL A   1      47.308  21.551  35.781  1.00  0.00     0.059 A 
ATOM     90  C   UNL A   1      45.244  22.267  36.838  1.00  0.00     0.059 A 
ATOM     91  F   UNL A   1      44.141  24.182  36.059  1.00  0.00    -0.206 F 
ATOM     92  C   UNL A   1      46.303  21.368  36.732  1.00  0.00     0.060 A 
BRANCH  92  93
ATOM     93  S   UNL A   1      46.413  19.954  37.850  1.00  0.00     0.124 S 
ATOM     94  O   UNL A   1      45.501  19.009  37.218  1.00  0.00    -0.237 OA
ATOM     95  O   UNL A   1      47.832  19.620  37.779  1.00  0.00    -0.237 OA
ATOM     96  O   UNL A   1      45.971  20.504  39.129  1.00  0.00    -0.744 OA
ENDBRANCH  92  93
ENDBRANCH  60  85
BRANCH  72  97
ATOM     97  C   UNL A   1      48.703  30.056  34.949  1.00  0.00     0.058 A 
ATOM     98  C   UNL A   1      48.090  30.814  35.959  1.00  0.00     0.135 A 
ATOM     99  C   UNL A   1      50.108  30.022  34.918  1.00  0.00     0.135 A 
ATOM    100  F   UNL A   1      46.751  30.883  36.035  1.00  0.00    -0.206 F 
ATOM    101  C   UNL A   1      48.840  31.548  36.873  1.00  0.00     0.059 A 
ATOM    102  C   UNL A   1      50.877  30.718  35.845  1.00  0.00     0.059 A 
ATOM    103  F   UNL A   1      50.747  29.299  33.984  1.00  0.00    -0.206 F 
ATOM    104  C   UNL A   1      50.233  31.495  36.806  1.00  0.00     0.060 A 
BRANCH 104 105
ATOM    105  S   UNL A   1      51.193  32.450  37.999  1.00  0.00     0.124 S 
ATOM    106  O   UNL A   1      51.440  33.682  37.257  1.00  0.00    -0.237 OA
ATOM    107  O   UNL A   1      50.269  32.562  39.124  1.00  0.00    -0.237 OA
ATOM    108  O   UNL A   1      52.366  31.616  38.239  1.00  0.00    -0.744 OA
ENDBRANCH 104 105
ENDBRANCH  72  97
ENDBRANCH  46  47
ENDBRANCH  39  41
ENDBRANCH  38  39
ENDBRANCH  37  38
ENDBRANCH  36  37
ENDBRANCH  35  36
ENDBRANCH  34  35
ENDBRANCH  33  34
ENDBRANCH  32  33
ENDBRANCH   1  32
TORSDOF 28
ENDMDL
