MODEL 1
REMARK VINA RESULT:     -10.0      0.000      0.000
REMARK SMILES CCN1C(=O)C[C@@H](C(=O)OCCOCCOCCOCCOC(=O)c2ccc(-c3c4nc(c(-c5c(F)cc(S(=O)(=O)[O-])cc5F)c5ccc([nH]5)c(-c5c(F)cc(S(=O)(=O)[O-])cc5F)c5nc(c(-c6c(F)cc(S(=O)(=O)[O-])cc6F)c6ccc3[nH]6)C=C5)C=C4)cc2)[C@H]1c1ccccc1C1CC1
REMARK SMILES IDX 17 1 16 2 15 3 14 4 13 5 12 6 11 7 10 8 8 9 9 10 7 11 3 12
REMARK SMILES IDX 4 13 91 14 5 15 6 16 2 17 1 18 92 19 93 20 97 21 94 22 96 23
REMARK SMILES IDX 95 24 98 25 99 26 100 27 18 28 19 29 20 30 21 31 22 32 23 33
REMARK SMILES IDX 24 34 25 35 26 36 90 37 27 38 89 39 28 40 29 41 30 42 83 43
REMARK SMILES IDX 31 44 88 45 82 46 84 47 32 48 87 49 81 50 80 51 33 53 67 54
REMARK SMILES IDX 46 55 66 56 47 57 50 58 65 59 85 60 48 61 49 62 64 64 86 65
REMARK SMILES IDX 51 66 34 67 35 68 44 69 36 70 37 71 43 72 45 73 38 74 39 75
REMARK SMILES IDX 40 76 41 77 42 78 68 79 69 80 78 81 70 82 71 83 77 84 79 85
REMARK SMILES IDX 72 86 73 87 74 88 75 89 76 90 52 91 53 92 62 93 54 94 55 95
REMARK SMILES IDX 61 96 63 97 56 98 57 99 58 100 59 101 60 102
REMARK H PARENT 84 52 50 63
REMARK Flexibility Score: inf
ROOT
ATOM      1  C   UNL A   1      36.726  21.582  24.947  1.00  0.00     0.188 C 
ENDROOT
BRANCH   1   2
ATOM      2  O   UNL A   1      35.396  21.302  24.540  1.00  0.00    -0.377 OA
BRANCH   2   3
ATOM      3  C   UNL A   1      34.412  21.099  25.551  1.00  0.00     0.188 C 
BRANCH   3   4
ATOM      4  C   UNL A   1      33.069  20.367  25.277  1.00  0.00     0.188 C 
BRANCH   4   5
ATOM      5  O   UNL A   1      31.933  21.212  25.206  1.00  0.00    -0.376 OA
BRANCH   5   6
ATOM      6  C   UNL A   1      31.791  22.165  24.176  1.00  0.00     0.202 C 
BRANCH   6   7
ATOM      7  C   UNL A   1      31.032  23.449  24.524  1.00  0.00     0.261 C 
BRANCH   7   8
ATOM      8  O   UNL A   1      30.366  24.099  23.435  1.00  0.00    -0.463 OA
BRANCH   8   9
ATOM      9  C   UNL A   1      30.897  25.271  23.010  1.00  0.00     0.312 C 
ATOM     10  O   UNL A   1      31.559  25.413  21.990  1.00  0.00    -0.252 OA
BRANCH   9  11
ATOM     11  C   UNL A   1      30.518  26.386  23.952  1.00  0.00     0.135 C 
ATOM     12  N   UNL A   1      31.655  28.230  23.102  1.00  0.00    -0.335 N 
ATOM     13  C   UNL A   1      30.367  28.319  22.580  1.00  0.00     0.224 C 
ATOM     14  C   UNL A   1      31.698  27.310  24.223  1.00  0.00     0.130 C 
ATOM     15  O   UNL A   1      29.969  29.090  21.723  1.00  0.00    -0.275 OA
ATOM     16  C   UNL A   1      29.496  27.324  23.307  1.00  0.00     0.118 C 
BRANCH  12  17
ATOM     17  C   UNL A   1      32.754  29.050  22.634  1.00  0.00     0.117 C 
ATOM     18  C   UNL A   1      33.784  28.291  21.822  1.00  0.00     0.027 C 
ENDBRANCH  12  17
BRANCH  14  19
ATOM     19  C   UNL A   1      32.992  26.615  24.595  1.00  0.00    -0.021 A 
ATOM     20  C   UNL A   1      33.481  25.605  23.726  1.00  0.00     0.006 A 
ATOM     21  C   UNL A   1      33.644  26.828  25.835  1.00  0.00    -0.040 A 
ATOM     22  C   UNL A   1      34.438  24.679  24.125  1.00  0.00     0.000 A 
ATOM     23  C   UNL A   1      34.610  25.854  26.204  1.00  0.00     0.004 A 
ATOM     24  C   UNL A   1      34.979  24.782  25.389  1.00  0.00     0.000 A 
BRANCH  21  25
ATOM     25  C   UNL A   1      33.505  27.986  26.827  1.00  0.00     0.019 C 
ATOM     26  C   UNL A   1      34.545  28.878  27.445  1.00  0.00     0.009 C 
ATOM     27  C   UNL A   1      33.654  29.410  26.358  1.00  0.00     0.009 C 
ENDBRANCH  21  25
ENDBRANCH  14  19
ENDBRANCH   9  11
ENDBRANCH   8   9
ENDBRANCH   7   8
ENDBRANCH   6   7
ENDBRANCH   5   6
ENDBRANCH   4   5
ENDBRANCH   3   4
ENDBRANCH   2   3
ENDBRANCH   1   2
BRANCH   1  28
ATOM     28  C   UNL A   1      37.620  20.327  25.061  1.00  0.00     0.188 C 
BRANCH  28  29
ATOM     29  O   UNL A   1      38.943  20.607  25.488  1.00  0.00    -0.376 OA
BRANCH  29  30
ATOM     30  C   UNL A   1      39.232  21.807  26.181  1.00  0.00     0.202 C 
BRANCH  30  31
ATOM     31  C   UNL A   1      40.656  22.158  26.645  1.00  0.00     0.261 C 
BRANCH  31  32
ATOM     32  O   UNL A   1      40.819  23.311  27.478  1.00  0.00    -0.460 OA
BRANCH  32  33
ATOM     33  C   UNL A   1      41.474  24.373  26.968  1.00  0.00     0.338 C 
ATOM     34  O   UNL A   1      42.088  24.421  25.913  1.00  0.00    -0.246 OA
BRANCH  33  35
ATOM     35  C   UNL A   1      41.111  25.540  27.802  1.00  0.00     0.060 A 
ATOM     36  C   UNL A   1      41.981  26.641  27.851  1.00  0.00     0.016 A 
ATOM     37  C   UNL A   1      39.894  25.571  28.485  1.00  0.00     0.016 A 
ATOM     38  C   UNL A   1      41.646  27.765  28.601  1.00  0.00     0.010 A 
ATOM     39  C   UNL A   1      39.580  26.676  29.277  1.00  0.00     0.010 A 
ATOM     40  C   UNL A   1      40.473  27.758  29.364  1.00  0.00    -0.014 A 
BRANCH  40  41
ATOM     41  C   UNL A   1      40.327  28.749  30.455  1.00  0.00     0.031 A 
ATOM     42  C   UNL A   1      41.232  28.602  31.647  1.00  0.00     0.074 A 
ATOM     43  C   UNL A   1      39.452  29.766  30.375  1.00  0.00     0.049 A 
ATOM     44  N   UNL A   1      41.278  29.302  32.747  1.00  0.00    -0.248 NA
ATOM     45  C   UNL A   1      42.222  27.511  31.584  1.00  0.00     0.031 C 
ATOM     46  C   UNL A   1      38.568  30.038  29.244  1.00  0.00     0.029 A 
ATOM     47  N   UNL A   1      39.163  30.758  31.277  1.00  0.00    -0.354 N 
ATOM     48  C   UNL A   1      42.293  28.735  33.509  1.00  0.00     0.074 A 
ATOM     49  C   UNL A   1      42.816  27.615  32.762  1.00  0.00     0.031 C 
ATOM     50  C   UNL A   1      37.821  31.120  29.528  1.00  0.00     0.029 A 
ATOM     51  C   UNL A   1      38.151  31.593  30.872  1.00  0.00     0.049 A 
ATOM     52  H   UNL A   1      39.637  30.861  32.134  1.00  0.00     0.167 HD
ATOM     53  C   UNL A   1      42.752  29.121  34.722  1.00  0.00     0.037 A 
ATOM     54  C   UNL A   1      37.547  32.605  31.528  1.00  0.00     0.037 A 
ATOM     55  C   UNL A   1      42.218  30.233  35.461  1.00  0.00     0.049 A 
ATOM     56  C   UNL A   1      38.018  32.964  32.916  1.00  0.00     0.074 A 
ATOM     57  C   UNL A   1      42.610  30.711  36.697  1.00  0.00     0.029 A 
ATOM     58  N   UNL A   1      41.167  31.033  35.035  1.00  0.00    -0.354 N 
ATOM     59  N   UNL A   1      38.986  32.431  33.625  1.00  0.00    -0.248 NA
ATOM     60  C   UNL A   1      37.319  34.066  33.592  1.00  0.00     0.031 C 
ATOM     61  C   UNL A   1      41.758  31.765  37.045  1.00  0.00     0.029 A 
ATOM     62  C   UNL A   1      40.879  31.987  35.996  1.00  0.00     0.049 A 
ATOM     63  H   UNL A   1      40.696  30.937  34.175  1.00  0.00     0.167 HD
ATOM     64  C   UNL A   1      39.031  33.153  34.814  1.00  0.00     0.074 A 
ATOM     65  C   UNL A   1      38.001  34.167  34.724  1.00  0.00     0.031 C 
ATOM     66  C   UNL A   1      39.853  32.995  35.883  1.00  0.00     0.037 A 
BRANCH  53  67
ATOM     67  C   UNL A   1      43.861  28.310  35.335  1.00  0.00     0.058 A 
ATOM     68  C   UNL A   1      43.605  27.173  36.117  1.00  0.00     0.135 A 
ATOM     69  C   UNL A   1      45.201  28.667  35.119  1.00  0.00     0.135 A 
ATOM     70  F   UNL A   1      42.341  26.801  36.377  1.00  0.00    -0.206 F 
ATOM     71  C   UNL A   1      44.637  26.431  36.682  1.00  0.00     0.059 A 
ATOM     72  C   UNL A   1      46.251  27.922  35.647  1.00  0.00     0.059 A 
ATOM     73  F   UNL A   1      45.503  29.752  34.387  1.00  0.00    -0.206 F 
ATOM     74  C   UNL A   1      45.957  26.813  36.438  1.00  0.00     0.060 A 
BRANCH  74  75
ATOM     75  S   UNL A   1      47.286  25.831  37.166  1.00  0.00     0.124 S 
ATOM     76  O   UNL A   1      46.950  24.490  36.696  1.00  0.00    -0.237 OA
ATOM     77  O   UNL A   1      48.476  26.431  36.572  1.00  0.00    -0.237 OA
ATOM     78  O   UNL A   1      47.126  26.050  38.600  1.00  0.00    -0.744 OA
ENDBRANCH  74  75
ENDBRANCH  53  67
BRANCH  54  79
ATOM     79  C   UNL A   1      36.422  33.343  30.890  1.00  0.00     0.058 A 
ATOM     80  C   UNL A   1      36.639  34.201  29.802  1.00  0.00     0.135 A 
ATOM     81  C   UNL A   1      35.106  33.208  31.361  1.00  0.00     0.135 A 
ATOM     82  F   UNL A   1      37.880  34.376  29.322  1.00  0.00    -0.206 F 
ATOM     83  C   UNL A   1      35.597  34.910  29.212  1.00  0.00     0.059 A 
ATOM     84  C   UNL A   1      34.042  33.883  30.769  1.00  0.00     0.059 A 
ATOM     85  F   UNL A   1      34.841  32.394  32.395  1.00  0.00    -0.206 F 
ATOM     86  C   UNL A   1      34.300  34.740  29.700  1.00  0.00     0.060 A 
BRANCH  86  87
ATOM     87  S   UNL A   1      32.947  35.623  28.892  1.00  0.00     0.124 S 
ATOM     88  O   UNL A   1      32.381  34.581  28.044  1.00  0.00    -0.237 OA
ATOM     89  O   UNL A   1      32.132  36.037  30.030  1.00  0.00    -0.237 OA
ATOM     90  O   UNL A   1      33.627  36.709  28.190  1.00  0.00    -0.744 OA
ENDBRANCH  86  87
ENDBRANCH  54  79
BRANCH  66  91
ATOM     91  C   UNL A   1      39.707  33.966  37.025  1.00  0.00     0.058 A 
ATOM     92  C   UNL A   1      38.934  33.672  38.158  1.00  0.00     0.135 A 
ATOM     93  C   UNL A   1      40.402  35.188  37.007  1.00  0.00     0.135 A 
ATOM     94  F   UNL A   1      38.246  32.520  38.225  1.00  0.00    -0.206 F 
ATOM     95  C   UNL A   1      38.831  34.564  39.220  1.00  0.00     0.059 A 
ATOM     96  C   UNL A   1      40.341  36.080  38.072  1.00  0.00     0.059 A 
ATOM     97  F   UNL A   1      41.169  35.515  35.955  1.00  0.00    -0.206 F 
ATOM     98  C   UNL A   1      39.541  35.766  39.168  1.00  0.00     0.060 A 
BRANCH  98  99
ATOM     99  S   UNL A   1      39.421  36.901  40.566  1.00  0.00     0.124 S 
ATOM    100  O   UNL A   1      38.523  36.177  41.458  1.00  0.00    -0.237 OA
ATOM    101  O   UNL A   1      40.810  37.000  41.008  1.00  0.00    -0.237 OA
ATOM    102  O   UNL A   1      38.871  38.116  39.973  1.00  0.00    -0.744 OA
ENDBRANCH  98  99
ENDBRANCH  66  91
ENDBRANCH  40  41
ENDBRANCH  33  35
ENDBRANCH  32  33
ENDBRANCH  31  32
ENDBRANCH  30  31
ENDBRANCH  29  30
ENDBRANCH  28  29
ENDBRANCH   1  28
TORSDOF 26
ENDMDL
MODEL 2
REMARK VINA RESULT:     -10.0      1.264      8.187
REMARK SMILES CCN1C(=O)C[C@@H](C(=O)OCCOCCOCCOCCOC(=O)c2ccc(-c3c4nc(c(-c5c(F)cc(S(=O)(=O)[O-])cc5F)c5ccc([nH]5)c(-c5c(F)cc(S(=O)(=O)[O-])cc5F)c5nc(c(-c6c(F)cc(S(=O)(=O)[O-])cc6F)c6ccc3[nH]6)C=C5)C=C4)cc2)[C@H]1c1ccccc1C1CC1
REMARK SMILES IDX 17 1 16 2 15 3 14 4 13 5 12 6 11 7 10 8 8 9 9 10 7 11 3 12
REMARK SMILES IDX 4 13 91 14 5 15 6 16 2 17 1 18 92 19 93 20 97 21 94 22 96 23
REMARK SMILES IDX 95 24 98 25 99 26 100 27 18 28 19 29 20 30 21 31 22 32 23 33
REMARK SMILES IDX 24 34 25 35 26 36 90 37 27 38 89 39 28 40 29 41 30 42 83 43
REMARK SMILES IDX 31 44 88 45 82 46 84 47 32 48 87 49 81 50 80 51 33 53 67 54
REMARK SMILES IDX 46 55 66 56 47 57 50 58 65 59 85 60 48 61 49 62 64 64 86 65
REMARK SMILES IDX 51 66 34 67 35 68 44 69 36 70 37 71 43 72 45 73 38 74 39 75
REMARK SMILES IDX 40 76 41 77 42 78 68 79 69 80 78 81 70 82 71 83 77 84 79 85
REMARK SMILES IDX 72 86 73 87 74 88 75 89 76 90 52 91 53 92 62 93 54 94 55 95
REMARK SMILES IDX 61 96 63 97 56 98 57 99 58 100 59 101 60 102
REMARK H PARENT 84 52 50 63
REMARK Flexibility Score: inf
ROOT
ATOM      1  C   UNL A   1      37.602  22.375  25.269  1.00  0.00     0.188 C 
ENDROOT
BRANCH   1   2
ATOM      2  O   UNL A   1      36.381  22.539  25.973  1.00  0.00    -0.377 OA
BRANCH   2   3
ATOM      3  C   UNL A   1      35.455  21.456  25.973  1.00  0.00     0.188 C 
BRANCH   3   4
ATOM      4  C   UNL A   1      33.917  21.669  26.041  1.00  0.00     0.188 C 
BRANCH   4   5
ATOM      5  O   UNL A   1      33.381  21.724  27.352  1.00  0.00    -0.376 OA
BRANCH   5   6
ATOM      6  C   UNL A   1      32.315  22.590  27.674  1.00  0.00     0.202 C 
BRANCH   6   7
ATOM      7  C   UNL A   1      32.177  23.859  26.826  1.00  0.00     0.261 C 
BRANCH   7   8
ATOM      8  O   UNL A   1      31.094  23.874  25.889  1.00  0.00    -0.463 OA
BRANCH   8   9
ATOM      9  C   UNL A   1      30.588  25.088  25.566  1.00  0.00     0.312 C 
ATOM     10  O   UNL A   1      30.205  25.927  26.372  1.00  0.00    -0.252 OA
BRANCH   9  11
ATOM     11  C   UNL A   1      30.603  25.277  24.070  1.00  0.00     0.135 C 
ATOM     12  N   UNL A   1      32.764  24.661  23.465  1.00  0.00    -0.335 N 
ATOM     13  C   UNL A   1      31.985  23.528  23.250  1.00  0.00     0.224 C 
ATOM     14  C   UNL A   1      31.934  25.844  23.596  1.00  0.00     0.130 C 
ATOM     15  O   UNL A   1      32.375  22.404  22.977  1.00  0.00    -0.275 OA
ATOM     16  C   UNL A   1      30.534  23.929  23.348  1.00  0.00     0.118 C 
BRANCH  12  17
ATOM     17  C   UNL A   1      34.213  24.640  23.439  1.00  0.00     0.117 C 
ATOM     18  C   UNL A   1      34.797  23.378  22.833  1.00  0.00     0.027 C 
ENDBRANCH  12  17
BRANCH  14  19
ATOM     19  C   UNL A   1      32.434  27.051  24.363  1.00  0.00    -0.021 A 
ATOM     20  C   UNL A   1      33.436  26.847  25.349  1.00  0.00     0.006 A 
ATOM     21  C   UNL A   1      31.842  28.333  24.243  1.00  0.00    -0.040 A 
ATOM     22  C   UNL A   1      33.714  27.787  26.334  1.00  0.00     0.000 A 
ATOM     23  C   UNL A   1      32.150  29.259  25.276  1.00  0.00     0.004 A 
ATOM     24  C   UNL A   1      33.037  28.988  26.319  1.00  0.00     0.000 A 
BRANCH  21  25
ATOM     25  C   UNL A   1      30.954  28.899  23.132  1.00  0.00     0.019 C 
ATOM     26  C   UNL A   1      29.586  28.487  22.664  1.00  0.00     0.009 C 
ATOM     27  C   UNL A   1      29.753  29.742  23.475  1.00  0.00     0.009 C 
ENDBRANCH  21  25
ENDBRANCH  14  19
ENDBRANCH   9  11
ENDBRANCH   8   9
ENDBRANCH   7   8
ENDBRANCH   6   7
ENDBRANCH   5   6
ENDBRANCH   4   5
ENDBRANCH   3   4
ENDBRANCH   2   3
ENDBRANCH   1   2
BRANCH   1  28
ATOM     28  C   UNL A   1      38.217  20.964  25.407  1.00  0.00     0.188 C 
BRANCH  28  29
ATOM     29  O   UNL A   1      39.568  20.971  25.837  1.00  0.00    -0.376 OA
BRANCH  29  30
ATOM     30  C   UNL A   1      40.070  22.055  26.597  1.00  0.00     0.202 C 
BRANCH  30  31
ATOM     31  C   UNL A   1      41.525  22.538  26.464  1.00  0.00     0.261 C 
BRANCH  31  32
ATOM     32  O   UNL A   1      41.957  23.594  27.329  1.00  0.00    -0.460 OA
BRANCH  32  33
ATOM     33  C   UNL A   1      42.256  24.785  26.774  1.00  0.00     0.338 C 
ATOM     34  O   UNL A   1      42.596  24.993  25.620  1.00  0.00    -0.246 OA
BRANCH  33  35
ATOM     35  C   UNL A   1      41.865  25.823  27.752  1.00  0.00     0.060 A 
ATOM     36  C   UNL A   1      42.707  26.930  27.948  1.00  0.00     0.016 A 
ATOM     37  C   UNL A   1      40.647  25.734  28.430  1.00  0.00     0.016 A 
ATOM     38  C   UNL A   1      42.345  27.937  28.838  1.00  0.00     0.010 A 
ATOM     39  C   UNL A   1      40.306  26.718  29.359  1.00  0.00     0.010 A 
ATOM     40  C   UNL A   1      41.172  27.802  29.590  1.00  0.00    -0.014 A 
BRANCH  40  41
ATOM     41  C   UNL A   1      41.002  28.637  30.800  1.00  0.00     0.031 A 
ATOM     42  C   UNL A   1      39.917  29.679  30.773  1.00  0.00     0.074 A 
ATOM     43  C   UNL A   1      41.753  28.452  31.899  1.00  0.00     0.049 A 
ATOM     44  N   UNL A   1      39.591  30.563  31.675  1.00  0.00    -0.248 NA
ATOM     45  C   UNL A   1      39.089  29.727  29.554  1.00  0.00     0.031 C 
ATOM     46  C   UNL A   1      42.790  27.436  32.058  1.00  0.00     0.029 A 
ATOM     47  N   UNL A   1      41.755  29.128  33.093  1.00  0.00    -0.354 N 
ATOM     48  C   UNL A   1      38.528  31.276  31.134  1.00  0.00     0.074 A 
ATOM     49  C   UNL A   1      38.283  30.744  29.813  1.00  0.00     0.031 C 
ATOM     50  C   UNL A   1      43.342  27.565  33.277  1.00  0.00     0.029 A 
ATOM     51  C   UNL A   1      42.720  28.695  33.969  1.00  0.00     0.049 A 
ATOM     52  H   UNL A   1      41.125  29.855  33.302  1.00  0.00     0.167 HD
ATOM     53  C   UNL A   1      37.814  32.280  31.694  1.00  0.00     0.037 A 
ATOM     54  C   UNL A   1      43.073  29.176  35.178  1.00  0.00     0.037 A 
ATOM     55  C   UNL A   1      38.072  32.807  33.007  1.00  0.00     0.049 A 
ATOM     56  C   UNL A   1      42.319  30.353  35.747  1.00  0.00     0.074 A 
ATOM     57  C   UNL A   1      37.409  33.822  33.671  1.00  0.00     0.029 A 
ATOM     58  N   UNL A   1      39.083  32.367  33.850  1.00  0.00    -0.354 N 
ATOM     59  N   UNL A   1      41.306  31.013  35.235  1.00  0.00    -0.248 NA
ATOM     60  C   UNL A   1      42.751  30.847  37.062  1.00  0.00     0.031 C 
ATOM     61  C   UNL A   1      38.055  34.035  34.893  1.00  0.00     0.029 A 
ATOM     62  C   UNL A   1      39.078  33.109  35.019  1.00  0.00     0.049 A 
ATOM     63  H   UNL A   1      39.710  31.635  33.647  1.00  0.00     0.167 HD
ATOM     64  C   UNL A   1      40.962  31.978  36.178  1.00  0.00     0.074 A 
ATOM     65  C   UNL A   1      41.867  31.807  37.295  1.00  0.00     0.031 C 
ATOM     66  C   UNL A   1      39.983  32.917  36.127  1.00  0.00     0.037 A 
BRANCH  53  67
ATOM     67  C   UNL A   1      36.714  32.892  30.871  1.00  0.00     0.058 A 
ATOM     68  C   UNL A   1      35.369  32.526  31.039  1.00  0.00     0.135 A 
ATOM     69  C   UNL A   1      37.009  33.875  29.914  1.00  0.00     0.135 A 
ATOM     70  F   UNL A   1      35.032  31.572  31.923  1.00  0.00    -0.206 F 
ATOM     71  C   UNL A   1      34.359  33.096  30.272  1.00  0.00     0.059 A 
ATOM     72  C   UNL A   1      36.013  34.482  29.157  1.00  0.00     0.059 A 
ATOM     73  F   UNL A   1      38.280  34.256  29.706  1.00  0.00    -0.206 F 
ATOM     74  C   UNL A   1      34.691  34.076  29.335  1.00  0.00     0.060 A 
BRANCH  74  75
ATOM     75  S   UNL A   1      33.367  34.817  28.356  1.00  0.00     0.124 S 
ATOM     76  O   UNL A   1      34.126  35.599  27.384  1.00  0.00    -0.237 OA
ATOM     77  O   UNL A   1      32.678  33.645  27.828  1.00  0.00    -0.237 OA
ATOM     78  O   UNL A   1      32.614  35.596  29.335  1.00  0.00    -0.744 OA
ENDBRANCH  74  75
ENDBRANCH  53  67
BRANCH  54  79
ATOM     79  C   UNL A   1      44.203  28.559  35.928  1.00  0.00     0.058 A 
ATOM     80  C   UNL A   1      43.981  27.544  36.870  1.00  0.00     0.135 A 
ATOM     81  C   UNL A   1      45.526  28.979  35.720  1.00  0.00     0.135 A 
ATOM     82  F   UNL A   1      42.734  27.116  37.116  1.00  0.00    -0.206 F 
ATOM     83  C   UNL A   1      45.029  26.976  37.589  1.00  0.00     0.059 A 
ATOM     84  C   UNL A   1      46.593  28.406  36.406  1.00  0.00     0.059 A 
ATOM     85  F   UNL A   1      45.795  29.943  34.826  1.00  0.00    -0.206 F 
ATOM     86  C   UNL A   1      46.333  27.411  37.346  1.00  0.00     0.060 A 
BRANCH  86  87
ATOM     87  S   UNL A   1      47.689  26.628  38.246  1.00  0.00     0.124 S 
ATOM     88  O   UNL A   1      46.974  25.678  39.090  1.00  0.00    -0.237 OA
ATOM     89  O   UNL A   1      48.481  26.053  37.162  1.00  0.00    -0.237 OA
ATOM     90  O   UNL A   1      48.318  27.746  38.945  1.00  0.00    -0.744 OA
ENDBRANCH  86  87
ENDBRANCH  54  79
BRANCH  66  91
ATOM     91  C   UNL A   1      39.806  33.806  37.329  1.00  0.00     0.058 A 
ATOM     92  C   UNL A   1      40.434  35.056  37.429  1.00  0.00     0.135 A 
ATOM     93  C   UNL A   1      38.944  33.422  38.371  1.00  0.00     0.135 A 
ATOM     94  F   UNL A   1      41.271  35.471  36.464  1.00  0.00    -0.206 F 
ATOM     95  C   UNL A   1      40.238  35.882  38.532  1.00  0.00     0.059 A 
ATOM     96  C   UNL A   1      38.707  34.245  39.465  1.00  0.00     0.059 A 
ATOM     97  F   UNL A   1      38.305  32.242  38.319  1.00  0.00    -0.206 F 
ATOM     98  C   UNL A   1      39.369  35.468  39.544  1.00  0.00     0.060 A 
BRANCH  98  99
ATOM     99  S   UNL A   1      39.102  36.562  40.955  1.00  0.00     0.124 S 
ATOM    100  O   UNL A   1      40.435  36.609  41.548  1.00  0.00    -0.237 OA
ATOM    101  O   UNL A   1      38.650  37.793  40.314  1.00  0.00    -0.237 OA
ATOM    102  O   UNL A   1      38.090  35.864  41.741  1.00  0.00    -0.744 OA
ENDBRANCH  98  99
ENDBRANCH  66  91
ENDBRANCH  40  41
ENDBRANCH  33  35
ENDBRANCH  32  33
ENDBRANCH  31  32
ENDBRANCH  30  31
ENDBRANCH  29  30
ENDBRANCH  28  29
ENDBRANCH   1  28
TORSDOF 26
ENDMDL
MODEL 3
REMARK VINA RESULT:     -10.0      1.354      2.484
REMARK SMILES CCN1C(=O)C[C@@H](C(=O)OCCOCCOCCOCCOC(=O)c2ccc(-c3c4nc(c(-c5c(F)cc(S(=O)(=O)[O-])cc5F)c5ccc([nH]5)c(-c5c(F)cc(S(=O)(=O)[O-])cc5F)c5nc(c(-c6c(F)cc(S(=O)(=O)[O-])cc6F)c6ccc3[nH]6)C=C5)C=C4)cc2)[C@H]1c1ccccc1C1CC1
REMARK SMILES IDX 17 1 16 2 15 3 14 4 13 5 12 6 11 7 10 8 8 9 9 10 7 11 3 12
REMARK SMILES IDX 4 13 91 14 5 15 6 16 2 17 1 18 92 19 93 20 97 21 94 22 96 23
REMARK SMILES IDX 95 24 98 25 99 26 100 27 18 28 19 29 20 30 21 31 22 32 23 33
REMARK SMILES IDX 24 34 25 35 26 36 90 37 27 38 89 39 28 40 29 41 30 42 83 43
REMARK SMILES IDX 31 44 88 45 82 46 84 47 32 48 87 49 81 50 80 51 33 53 67 54
REMARK SMILES IDX 46 55 66 56 47 57 50 58 65 59 85 60 48 61 49 62 64 64 86 65
REMARK SMILES IDX 51 66 34 67 35 68 44 69 36 70 37 71 43 72 45 73 38 74 39 75
REMARK SMILES IDX 40 76 41 77 42 78 68 79 69 80 78 81 70 82 71 83 77 84 79 85
REMARK SMILES IDX 72 86 73 87 74 88 75 89 76 90 52 91 53 92 62 93 54 94 55 95
REMARK SMILES IDX 61 96 63 97 56 98 57 99 58 100 59 101 60 102
REMARK H PARENT 84 52 50 63
REMARK Flexibility Score: inf
ROOT
ATOM      1  C   UNL A   1      37.970  22.071  25.266  1.00  0.00     0.188 C 
ENDROOT
BRANCH   1   2
ATOM      2  O   UNL A   1      36.852  22.474  26.041  1.00  0.00    -0.377 OA
BRANCH   2   3
ATOM      3  C   UNL A   1      35.693  21.645  26.031  1.00  0.00     0.188 C 
BRANCH   3   4
ATOM      4  C   UNL A   1      34.255  22.218  25.891  1.00  0.00     0.188 C 
BRANCH   4   5
ATOM      5  O   UNL A   1      33.403  21.965  26.996  1.00  0.00    -0.376 OA
BRANCH   5   6
ATOM      6  C   UNL A   1      32.211  22.696  27.185  1.00  0.00     0.202 C 
BRANCH   6   7
ATOM      7  C   UNL A   1      32.259  24.191  26.858  1.00  0.00     0.261 C 
BRANCH   7   8
ATOM      8  O   UNL A   1      31.640  24.586  25.629  1.00  0.00    -0.463 OA
BRANCH   8   9
ATOM      9  C   UNL A   1      30.727  25.584  25.701  1.00  0.00     0.312 C 
ATOM     10  O   UNL A   1      30.330  26.100  26.739  1.00  0.00    -0.252 OA
BRANCH   9  11
ATOM     11  C   UNL A   1      30.300  26.001  24.316  1.00  0.00     0.135 C 
ATOM     12  N   UNL A   1      32.293  26.024  23.115  1.00  0.00    -0.335 N 
ATOM     13  C   UNL A   1      31.719  24.784  22.850  1.00  0.00     0.224 C 
ATOM     14  C   UNL A   1      31.318  26.938  23.680  1.00  0.00     0.130 C 
ATOM     15  O   UNL A   1      32.229  23.844  22.264  1.00  0.00    -0.275 OA
ATOM     16  C   UNL A   1      30.299  24.805  23.361  1.00  0.00     0.118 C 
BRANCH  12  17
ATOM     17  C   UNL A   1      33.657  26.356  22.753  1.00  0.00     0.117 C 
ATOM     18  C   UNL A   1      33.800  27.703  22.072  1.00  0.00     0.027 C 
ENDBRANCH  12  17
BRANCH  14  19
ATOM     19  C   UNL A   1      31.764  28.095  24.550  1.00  0.00    -0.021 A 
ATOM     20  C   UNL A   1      32.822  27.870  25.470  1.00  0.00     0.006 A 
ATOM     21  C   UNL A   1      31.077  29.334  24.586  1.00  0.00    -0.040 A 
ATOM     22  C   UNL A   1      33.076  28.724  26.536  1.00  0.00     0.000 A 
ATOM     23  C   UNL A   1      31.364  30.172  25.697  1.00  0.00     0.004 A 
ATOM     24  C   UNL A   1      32.315  29.866  26.672  1.00  0.00     0.000 A 
BRANCH  21  25
ATOM     25  C   UNL A   1      30.100  29.940  23.575  1.00  0.00     0.019 C 
ATOM     26  C   UNL A   1      29.881  29.637  22.119  1.00  0.00     0.009 C 
ATOM     27  C   UNL A   1      28.881  29.169  23.140  1.00  0.00     0.009 C 
ENDBRANCH  21  25
ENDBRANCH  14  19
ENDBRANCH   9  11
ENDBRANCH   8   9
ENDBRANCH   7   8
ENDBRANCH   6   7
ENDBRANCH   5   6
ENDBRANCH   4   5
ENDBRANCH   3   4
ENDBRANCH   2   3
ENDBRANCH   1   2
BRANCH   1  28
ATOM     28  C   UNL A   1      38.440  20.627  25.555  1.00  0.00     0.188 C 
BRANCH  28  29
ATOM     29  O   UNL A   1      39.842  20.508  25.731  1.00  0.00    -0.376 OA
BRANCH  29  30
ATOM     30  C   UNL A   1      40.523  21.360  26.632  1.00  0.00     0.202 C 
BRANCH  30  31
ATOM     31  C   UNL A   1      41.933  21.900  26.335  1.00  0.00     0.261 C 
BRANCH  31  32
ATOM     32  O   UNL A   1      42.351  23.084  27.024  1.00  0.00    -0.460 OA
BRANCH  32  33
ATOM     33  C   UNL A   1      42.438  24.229  26.320  1.00  0.00     0.338 C 
ATOM     34  O   UNL A   1      42.648  24.341  25.122  1.00  0.00    -0.246 OA
BRANCH  33  35
ATOM     35  C   UNL A   1      41.995  25.318  27.217  1.00  0.00     0.060 A 
ATOM     36  C   UNL A   1      42.747  26.502  27.279  1.00  0.00     0.016 A 
ATOM     37  C   UNL A   1      40.812  25.195  27.950  1.00  0.00     0.016 A 
ATOM     38  C   UNL A   1      42.332  27.554  28.090  1.00  0.00     0.010 A 
ATOM     39  C   UNL A   1      40.421  26.229  28.800  1.00  0.00     0.010 A 
ATOM     40  C   UNL A   1      41.201  27.395  28.898  1.00  0.00    -0.014 A 
BRANCH  40  41
ATOM     41  C   UNL A   1      41.002  28.322  30.036  1.00  0.00     0.031 A 
ATOM     42  C   UNL A   1      41.903  28.155  31.229  1.00  0.00     0.074 A 
ATOM     43  C   UNL A   1      40.084  29.303  29.997  1.00  0.00     0.049 A 
ATOM     44  N   UNL A   1      41.908  28.799  32.363  1.00  0.00    -0.248 NA
ATOM     45  C   UNL A   1      42.940  27.112  31.122  1.00  0.00     0.031 C 
ATOM     46  C   UNL A   1      39.200  29.594  28.872  1.00  0.00     0.029 A 
ATOM     47  N   UNL A   1      39.745  30.235  30.945  1.00  0.00    -0.354 N 
ATOM     48  C   UNL A   1      42.940  28.238  33.107  1.00  0.00     0.074 A 
ATOM     49  C   UNL A   1      43.518  27.181  32.310  1.00  0.00     0.031 C 
ATOM     50  C   UNL A   1      38.404  30.627  29.201  1.00  0.00     0.029 A 
ATOM     51  C   UNL A   1      38.701  31.045  30.572  1.00  0.00     0.049 A 
ATOM     52  H   UNL A   1      40.206  30.315  31.812  1.00  0.00     0.167 HD
ATOM     53  C   UNL A   1      43.371  28.582  34.343  1.00  0.00     0.037 A 
ATOM     54  C   UNL A   1      38.048  31.996  31.271  1.00  0.00     0.037 A 
ATOM     55  C   UNL A   1      42.782  29.631  35.131  1.00  0.00     0.049 A 
ATOM     56  C   UNL A   1      38.490  32.304  32.680  1.00  0.00     0.074 A 
ATOM     57  C   UNL A   1      43.142  30.063  36.394  1.00  0.00     0.029 A 
ATOM     58  N   UNL A   1      41.701  30.405  34.733  1.00  0.00    -0.354 N 
ATOM     59  N   UNL A   1      39.474  31.778  33.372  1.00  0.00    -0.248 NA
ATOM     60  C   UNL A   1      37.737  33.338  33.403  1.00  0.00     0.031 C 
ATOM     61  C   UNL A   1      42.242  31.059  36.784  1.00  0.00     0.029 A 
ATOM     62  C   UNL A   1      41.364  31.296  35.739  1.00  0.00     0.049 A 
ATOM     63  H   UNL A   1      41.243  30.333  33.865  1.00  0.00     0.167 HD
ATOM     64  C   UNL A   1      39.477  32.440  34.597  1.00  0.00     0.074 A 
ATOM     65  C   UNL A   1      38.404  33.411  34.546  1.00  0.00     0.031 C 
ATOM     66  C   UNL A   1      40.296  32.264  35.665  1.00  0.00     0.037 A 
BRANCH  53  67
ATOM     67  C   UNL A   1      44.509  27.790  34.926  1.00  0.00     0.058 A 
ATOM     68  C   UNL A   1      45.849  28.145  34.710  1.00  0.00     0.135 A 
ATOM     69  C   UNL A   1      44.251  26.670  35.732  1.00  0.00     0.135 A 
ATOM     70  F   UNL A   1      46.154  29.193  33.927  1.00  0.00    -0.206 F 
ATOM     71  C   UNL A   1      46.895  27.405  35.252  1.00  0.00     0.059 A 
ATOM     72  C   UNL A   1      45.279  25.932  36.310  1.00  0.00     0.059 A 
ATOM     73  F   UNL A   1      42.987  26.279  35.964  1.00  0.00    -0.206 F 
ATOM     74  C   UNL A   1      46.599  26.301  36.053  1.00  0.00     0.060 A 
BRANCH  74  75
ATOM     75  S   UNL A   1      47.966  25.359  36.761  1.00  0.00     0.124 S 
ATOM     76  O   UNL A   1      48.456  26.279  37.783  1.00  0.00    -0.237 OA
ATOM     77  O   UNL A   1      47.295  24.162  37.256  1.00  0.00    -0.237 OA
ATOM     78  O   UNL A   1      48.860  25.150  35.627  1.00  0.00    -0.744 OA
ENDBRANCH  74  75
ENDBRANCH  53  67
BRANCH  54  79
ATOM     79  C   UNL A   1      36.897  32.715  30.658  1.00  0.00     0.058 A 
ATOM     80  C   UNL A   1      35.573  32.368  30.970  1.00  0.00     0.135 A 
ATOM     81  C   UNL A   1      37.098  33.761  29.743  1.00  0.00     0.135 A 
ATOM     82  F   UNL A   1      35.326  31.367  31.828  1.00  0.00    -0.206 F 
ATOM     83  C   UNL A   1      34.492  33.021  30.386  1.00  0.00     0.059 A 
ATOM     84  C   UNL A   1      36.033  34.448  29.169  1.00  0.00     0.059 A 
ATOM     85  F   UNL A   1      38.344  34.138  29.415  1.00  0.00    -0.206 F 
ATOM     86  C   UNL A   1      34.732  34.065  29.490  1.00  0.00     0.060 A 
BRANCH  86  87
ATOM     87  S   UNL A   1      33.320  34.941  28.782  1.00  0.00     0.124 S 
ATOM     88  O   UNL A   1      32.528  35.232  29.970  1.00  0.00    -0.237 OA
ATOM     89  O   UNL A   1      33.963  36.086  28.144  1.00  0.00    -0.237 OA
ATOM     90  O   UNL A   1      32.745  33.963  27.862  1.00  0.00    -0.744 OA
ENDBRANCH  86  87
ENDBRANCH  54  79
BRANCH  66  91
ATOM     91  C   UNL A   1      40.098  33.169  36.852  1.00  0.00     0.058 A 
ATOM     92  C   UNL A   1      39.163  32.881  37.859  1.00  0.00     0.135 A 
ATOM     93  C   UNL A   1      40.900  34.311  37.012  1.00  0.00     0.135 A 
ATOM     94  F   UNL A   1      38.368  31.804  37.754  1.00  0.00    -0.206 F 
ATOM     95  C   UNL A   1      39.010  33.709  38.966  1.00  0.00     0.059 A 
ATOM     96  C   UNL A   1      40.788  35.134  38.127  1.00  0.00     0.059 A 
ATOM     97  F   UNL A   1      41.821  34.626  36.087  1.00  0.00    -0.206 F 
ATOM     98  C   UNL A   1      39.830  34.832  39.093  1.00  0.00     0.060 A 
BRANCH  98  99
ATOM     99  S   UNL A   1      39.640  35.881  40.549  1.00  0.00     0.124 S 
ATOM    100  O   UNL A   1      38.203  35.803  40.784  1.00  0.00    -0.237 OA
ATOM    101  O   UNL A   1      40.481  35.205  41.533  1.00  0.00    -0.237 OA
ATOM    102  O   UNL A   1      40.133  37.180  40.101  1.00  0.00    -0.744 OA
ENDBRANCH  98  99
ENDBRANCH  66  91
ENDBRANCH  40  41
ENDBRANCH  33  35
ENDBRANCH  32  33
ENDBRANCH  31  32
ENDBRANCH  30  31
ENDBRANCH  29  30
ENDBRANCH  28  29
ENDBRANCH   1  28
TORSDOF 26
ENDMDL
