MODEL 1
REMARK VINA RESULT:     -10.3      0.000      0.000
REMARK SMILES Cc1ccc(S(=O)(=O)N2c3ccc(C(=O)OCCOCCOCCOCCOC(=O)c4ccc(-c5c6nc(c(-c7c(F)cc(S(=O)(=O)[O-])cc7F)c7ccc([nH]7)c(-c7c(F)cc(S(=O)(=O)[O-])cc7F)c7nc(c(-c8c(F)cc(S(=O)(=O)[O-])cc8F)c8ccc5[nH]8)C=C7)C=C6)cc4)cc3C[C@H]2C)cc1
REMARK SMILES IDX 23 1 22 2 21 3 20 4 19 5 18 6 17 7 16 8 14 9 15 10 13 11
REMARK SMILES IDX 9 12 10 13 100 14 11 15 98 16 99 17 101 18 12 19 97 20 6 21
REMARK SMILES IDX 7 22 8 23 5 24 1 25 2 26 3 27 103 28 4 29 102 30 24 31 25 32
REMARK SMILES IDX 26 33 27 34 28 35 29 36 30 37 31 38 32 39 96 40 33 41 95 42
REMARK SMILES IDX 34 43 35 44 36 45 89 46 37 47 94 48 88 49 90 50 38 51 93 52
REMARK SMILES IDX 87 53 86 54 39 56 73 57 52 58 72 59 53 60 56 61 71 62 91 63
REMARK SMILES IDX 54 64 55 65 70 67 92 68 57 69 40 70 41 71 50 72 42 73 43 74
REMARK SMILES IDX 49 75 51 76 44 77 45 78 46 79 47 80 48 81 74 82 75 83 84 84
REMARK SMILES IDX 76 85 77 86 83 87 85 88 78 89 79 90 80 91 81 92 82 93 58 94
REMARK SMILES IDX 59 95 68 96 60 97 61 98 67 99 69 100 62 101 63 102 64 103
REMARK SMILES IDX 65 104 66 105
REMARK H PARENT 90 55 56 66
REMARK Flexibility Score: inf
ROOT
ATOM      1  C   UNL A   1      34.163  32.577  28.799  1.00  0.00     0.188 C 
ENDROOT
BRANCH   1   2
ATOM      2  O   UNL A   1      34.549  31.569  27.889  1.00  0.00    -0.377 OA
BRANCH   2   3
ATOM      3  C   UNL A   1      33.655  30.926  27.006  1.00  0.00     0.188 C 
BRANCH   3   4
ATOM      4  C   UNL A   1      33.073  29.523  27.239  1.00  0.00     0.188 C 
BRANCH   4   5
ATOM      5  O   UNL A   1      33.045  28.575  26.184  1.00  0.00    -0.376 OA
BRANCH   5   6
ATOM      6  C   UNL A   1      32.607  29.046  24.927  1.00  0.00     0.202 C 
BRANCH   6   7
ATOM      7  C   UNL A   1      31.122  28.970  24.727  1.00  0.00     0.261 C 
BRANCH   7   8
ATOM      8  O   UNL A   1      30.711  27.684  25.158  1.00  0.00    -0.460 OA
BRANCH   8   9
ATOM      9  C   UNL A   1      30.113  26.972  24.201  1.00  0.00     0.338 C 
ATOM     10  O   UNL A   1      29.250  27.315  23.429  1.00  0.00    -0.246 OA
BRANCH   9  11
ATOM     11  C   UNL A   1      31.014  25.834  24.003  1.00  0.00     0.060 A 
ATOM     12  N   UNL A   1      33.680  22.669  24.122  1.00  0.00    -0.263 N 
ATOM     13  C   UNL A   1      32.623  23.629  23.872  1.00  0.00     0.055 A 
ATOM     14  C   UNL A   1      33.376  22.196  25.538  1.00  0.00     0.101 C 
ATOM     15  C   UNL A   1      32.320  24.262  22.681  1.00  0.00     0.028 A 
ATOM     16  C   UNL A   1      32.054  24.031  25.079  1.00  0.00    -0.021 A 
ATOM     17  C   UNL A   1      32.544  23.264  26.239  1.00  0.00     0.063 C 
ATOM     18  C   UNL A   1      32.591  20.884  25.403  1.00  0.00     0.032 C 
ATOM     19  C   UNL A   1      31.498  25.388  22.754  1.00  0.00     0.018 A 
ATOM     20  C   UNL A   1      31.256  25.134  25.170  1.00  0.00     0.021 A 
BRANCH  12  21
ATOM     21  S   UNL A   1      35.187  23.482  23.833  1.00  0.00     0.264 S 
ATOM     22  O   UNL A   1      35.038  24.860  24.264  1.00  0.00    -0.201 OA
ATOM     23  O   UNL A   1      35.606  23.169  22.479  1.00  0.00    -0.201 OA
BRANCH  21  24
ATOM     24  C   UNL A   1      36.459  22.828  24.881  1.00  0.00     0.088 A 
ATOM     25  C   UNL A   1      40.150  21.341  26.475  1.00  0.00     0.044 C 
ATOM     26  C   UNL A   1      38.835  21.836  25.958  1.00  0.00    -0.051 A 
ATOM     27  C   UNL A   1      38.042  21.018  25.146  1.00  0.00     0.005 A 
ATOM     28  C   UNL A   1      38.371  23.108  26.309  1.00  0.00     0.005 A 
ATOM     29  C   UNL A   1      36.871  21.521  24.588  1.00  0.00     0.022 A 
ATOM     30  C   UNL A   1      37.156  23.580  25.818  1.00  0.00     0.022 A 
ENDBRANCH  21  24
ENDBRANCH  12  21
ENDBRANCH   9  11
ENDBRANCH   8   9
ENDBRANCH   7   8
ENDBRANCH   6   7
ENDBRANCH   5   6
ENDBRANCH   4   5
ENDBRANCH   3   4
ENDBRANCH   2   3
ENDBRANCH   1   2
BRANCH   1  31
ATOM     31  C   UNL A   1      33.706  33.902  28.184  1.00  0.00     0.188 C 
BRANCH  31  32
ATOM     32  O   UNL A   1      33.977  35.092  28.930  1.00  0.00    -0.376 OA
BRANCH  32  33
ATOM     33  C   UNL A   1      32.837  35.731  29.515  1.00  0.00     0.202 C 
BRANCH  33  34
ATOM     34  C   UNL A   1      32.830  35.863  31.055  1.00  0.00     0.261 C 
BRANCH  34  35
ATOM     35  O   UNL A   1      34.148  36.075  31.565  1.00  0.00    -0.460 OA
BRANCH  35  36
ATOM     36  C   UNL A   1      34.464  35.764  32.853  1.00  0.00     0.338 C 
ATOM     37  O   UNL A   1      34.400  36.478  33.834  1.00  0.00    -0.246 OA
BRANCH  36  38
ATOM     38  C   UNL A   1      34.953  34.353  32.784  1.00  0.00     0.060 A 
ATOM     39  C   UNL A   1      35.068  33.574  33.939  1.00  0.00     0.016 A 
ATOM     40  C   UNL A   1      35.667  34.002  31.647  1.00  0.00     0.016 A 
ATOM     41  C   UNL A   1      36.104  32.625  34.033  1.00  0.00     0.010 A 
ATOM     42  C   UNL A   1      36.774  33.190  31.800  1.00  0.00     0.010 A 
ATOM     43  C   UNL A   1      37.052  32.529  33.005  1.00  0.00    -0.014 A 
BRANCH  43  44
ATOM     44  C   UNL A   1      38.446  32.025  33.178  1.00  0.00     0.031 A 
ATOM     45  C   UNL A   1      38.933  30.785  32.444  1.00  0.00     0.074 A 
ATOM     46  C   UNL A   1      39.346  32.907  33.693  1.00  0.00     0.049 A 
ATOM     47  N   UNL A   1      40.108  30.240  32.516  1.00  0.00    -0.248 NA
ATOM     48  C   UNL A   1      38.108  30.085  31.466  1.00  0.00     0.031 C 
ATOM     49  C   UNL A   1      40.796  32.860  33.577  1.00  0.00     0.029 A 
ATOM     50  N   UNL A   1      39.145  34.076  34.441  1.00  0.00    -0.354 N 
ATOM     51  C   UNL A   1      40.309  29.405  31.408  1.00  0.00     0.074 A 
ATOM     52  C   UNL A   1      39.003  29.347  30.805  1.00  0.00     0.031 C 
ATOM     53  C   UNL A   1      41.369  33.880  34.229  1.00  0.00     0.029 A 
ATOM     54  C   UNL A   1      40.350  34.410  35.097  1.00  0.00     0.049 A 
ATOM     55  H   UNL A   1      38.303  34.581  34.498  1.00  0.00     0.167 HD
ATOM     56  C   UNL A   1      41.580  28.979  31.063  1.00  0.00     0.037 A 
ATOM     57  C   UNL A   1      40.465  34.194  36.447  1.00  0.00     0.037 A 
ATOM     58  C   UNL A   1      42.570  29.401  32.102  1.00  0.00     0.049 A 
ATOM     59  C   UNL A   1      41.314  32.966  36.798  1.00  0.00     0.074 A 
ATOM     60  C   UNL A   1      43.750  30.134  32.090  1.00  0.00     0.029 A 
ATOM     61  N   UNL A   1      42.252  29.275  33.464  1.00  0.00    -0.354 N 
ATOM     62  N   UNL A   1      41.521  31.979  35.950  1.00  0.00    -0.248 NA
ATOM     63  C   UNL A   1      42.090  32.768  38.020  1.00  0.00     0.031 C 
ATOM     64  C   UNL A   1      43.993  30.626  33.406  1.00  0.00     0.029 A 
ATOM     65  C   UNL A   1      43.034  30.100  34.257  1.00  0.00     0.049 A 
ATOM     66  H   UNL A   1      41.556  28.672  33.814  1.00  0.00     0.167 HD
ATOM     67  C   UNL A   1      42.459  31.108  36.418  1.00  0.00     0.074 A 
ATOM     68  C   UNL A   1      42.753  31.625  37.747  1.00  0.00     0.031 C 
ATOM     69  C   UNL A   1      42.959  30.043  35.714  1.00  0.00     0.037 A 
BRANCH  56  70
ATOM     70  C   UNL A   1      42.008  28.389  29.665  1.00  0.00     0.058 A 
ATOM     71  C   UNL A   1      41.816  29.105  28.449  1.00  0.00     0.135 A 
ATOM     72  C   UNL A   1      42.600  27.123  29.433  1.00  0.00     0.135 A 
ATOM     73  F   UNL A   1      41.375  30.366  28.438  1.00  0.00    -0.206 F 
ATOM     74  C   UNL A   1      42.114  28.599  27.163  1.00  0.00     0.059 A 
ATOM     75  C   UNL A   1      42.903  26.591  28.162  1.00  0.00     0.059 A 
ATOM     76  F   UNL A   1      43.004  26.335  30.429  1.00  0.00    -0.206 F 
ATOM     77  C   UNL A   1      42.661  27.336  27.024  1.00  0.00     0.060 A 
BRANCH  77  78
ATOM     78  S   UNL A   1      43.162  26.745  25.390  1.00  0.00     0.124 S 
ATOM     79  O   UNL A   1      44.612  26.641  25.521  1.00  0.00    -0.237 OA
ATOM     80  O   UNL A   1      42.443  25.479  25.284  1.00  0.00    -0.237 OA
ATOM     81  O   UNL A   1      42.697  27.795  24.487  1.00  0.00    -0.744 OA
ENDBRANCH  77  78
ENDBRANCH  56  70
BRANCH  57  82
ATOM     82  C   UNL A   1      39.521  35.079  37.226  1.00  0.00     0.058 A 
ATOM     83  C   UNL A   1      38.544  34.327  37.919  1.00  0.00     0.135 A 
ATOM     84  C   UNL A   1      40.102  36.135  37.953  1.00  0.00     0.135 A 
ATOM     85  F   UNL A   1      37.834  33.399  37.258  1.00  0.00    -0.206 F 
ATOM     86  C   UNL A   1      38.494  34.309  39.315  1.00  0.00     0.059 A 
ATOM     87  C   UNL A   1      40.060  36.147  39.354  1.00  0.00     0.059 A 
ATOM     88  F   UNL A   1      40.942  36.985  37.340  1.00  0.00    -0.206 F 
ATOM     89  C   UNL A   1      39.355  35.142  40.020  1.00  0.00     0.060 A 
BRANCH  89  90
ATOM     90  S   UNL A   1      39.877  34.667  41.699  1.00  0.00     0.124 S 
ATOM     91  O   UNL A   1      38.988  35.462  42.534  1.00  0.00    -0.237 OA
ATOM     92  O   UNL A   1      39.657  33.225  41.731  1.00  0.00    -0.237 OA
ATOM     93  O   UNL A   1      41.282  35.063  41.692  1.00  0.00    -0.744 OA
ENDBRANCH  89  90
ENDBRANCH  57  82
BRANCH  69  94
ATOM     94  C   UNL A   1      43.527  28.808  36.367  1.00  0.00     0.058 A 
ATOM     95  C   UNL A   1      42.752  27.656  36.561  1.00  0.00     0.135 A 
ATOM     96  C   UNL A   1      44.919  28.664  36.597  1.00  0.00     0.135 A 
ATOM     97  F   UNL A   1      41.447  27.630  36.253  1.00  0.00    -0.206 F 
ATOM     98  C   UNL A   1      43.300  26.468  37.028  1.00  0.00     0.059 A 
ATOM     99  C   UNL A   1      45.496  27.468  37.004  1.00  0.00     0.059 A 
ATOM    100  F   UNL A   1      45.783  29.672  36.407  1.00  0.00    -0.206 F 
ATOM    101  C   UNL A   1      44.671  26.384  37.251  1.00  0.00     0.060 A 
BRANCH 101 102
ATOM    102  S   UNL A   1      45.365  24.838  37.841  1.00  0.00     0.124 S 
ATOM    103  O   UNL A   1      46.788  25.054  37.595  1.00  0.00    -0.237 OA
ATOM    104  O   UNL A   1      44.962  24.823  39.244  1.00  0.00    -0.237 OA
ATOM    105  O   UNL A   1      44.724  23.832  37.000  1.00  0.00    -0.744 OA
ENDBRANCH 101 102
ENDBRANCH  69  94
ENDBRANCH  43  44
ENDBRANCH  36  38
ENDBRANCH  35  36
ENDBRANCH  34  35
ENDBRANCH  33  34
ENDBRANCH  32  33
ENDBRANCH  31  32
ENDBRANCH   1  31
TORSDOF 25
ENDMDL
MODEL 2
REMARK VINA RESULT:      -9.7      2.936      8.791
REMARK SMILES Cc1ccc(S(=O)(=O)N2c3ccc(C(=O)OCCOCCOCCOCCOC(=O)c4ccc(-c5c6nc(c(-c7c(F)cc(S(=O)(=O)[O-])cc7F)c7ccc([nH]7)c(-c7c(F)cc(S(=O)(=O)[O-])cc7F)c7nc(c(-c8c(F)cc(S(=O)(=O)[O-])cc8F)c8ccc5[nH]8)C=C7)C=C6)cc4)cc3C[C@H]2C)cc1
REMARK SMILES IDX 23 1 22 2 21 3 20 4 19 5 18 6 17 7 16 8 14 9 15 10 13 11
REMARK SMILES IDX 9 12 10 13 100 14 11 15 98 16 99 17 101 18 12 19 97 20 6 21
REMARK SMILES IDX 7 22 8 23 5 24 1 25 2 26 3 27 103 28 4 29 102 30 24 31 25 32
REMARK SMILES IDX 26 33 27 34 28 35 29 36 30 37 31 38 32 39 96 40 33 41 95 42
REMARK SMILES IDX 34 43 35 44 36 45 89 46 37 47 94 48 88 49 90 50 38 51 93 52
REMARK SMILES IDX 87 53 86 54 39 56 73 57 52 58 72 59 53 60 56 61 71 62 91 63
REMARK SMILES IDX 54 64 55 65 70 67 92 68 57 69 40 70 41 71 50 72 42 73 43 74
REMARK SMILES IDX 49 75 51 76 44 77 45 78 46 79 47 80 48 81 74 82 75 83 84 84
REMARK SMILES IDX 76 85 77 86 83 87 85 88 78 89 79 90 80 91 81 92 82 93 58 94
REMARK SMILES IDX 59 95 68 96 60 97 61 98 67 99 69 100 62 101 63 102 64 103
REMARK SMILES IDX 65 104 66 105
REMARK H PARENT 90 55 56 66
REMARK Flexibility Score: inf
ROOT
ATOM      1  C   UNL A   1      36.565  20.807  24.665  1.00  0.00     0.188 C 
ENDROOT
BRANCH   1   2
ATOM      2  O   UNL A   1      35.311  20.163  24.735  1.00  0.00    -0.377 OA
BRANCH   2   3
ATOM      3  C   UNL A   1      34.138  20.665  24.132  1.00  0.00     0.188 C 
BRANCH   3   4
ATOM      4  C   UNL A   1      32.716  20.212  24.501  1.00  0.00     0.188 C 
BRANCH   4   5
ATOM      5  O   UNL A   1      32.296  20.204  25.855  1.00  0.00    -0.376 OA
BRANCH   5   6
ATOM      6  C   UNL A   1      33.315  20.292  26.830  1.00  0.00     0.202 C 
BRANCH   6   7
ATOM      7  C   UNL A   1      33.294  21.563  27.626  1.00  0.00     0.261 C 
BRANCH   7   8
ATOM      8  O   UNL A   1      32.591  22.523  26.856  1.00  0.00    -0.460 OA
BRANCH   8   9
ATOM      9  C   UNL A   1      33.330  23.584  26.532  1.00  0.00     0.338 C 
ATOM     10  O   UNL A   1      34.475  23.830  26.827  1.00  0.00    -0.246 OA
BRANCH   9  11
ATOM     11  C   UNL A   1      32.609  24.174  25.401  1.00  0.00     0.060 A 
ATOM     12  N   UNL A   1      31.148  26.213  22.107  1.00  0.00    -0.263 N 
ATOM     13  C   UNL A   1      31.494  25.288  23.167  1.00  0.00     0.055 A 
ATOM     14  C   UNL A   1      32.469  26.390  21.371  1.00  0.00     0.101 C 
ATOM     15  C   UNL A   1      30.640  24.658  24.054  1.00  0.00     0.028 A 
ATOM     16  C   UNL A   1      32.876  25.270  23.347  1.00  0.00    -0.021 A 
ATOM     17  C   UNL A   1      33.607  26.040  22.324  1.00  0.00     0.063 C 
ATOM     18  C   UNL A   1      32.437  25.433  20.172  1.00  0.00     0.032 C 
ATOM     19  C   UNL A   1      31.214  24.092  25.193  1.00  0.00     0.018 A 
ATOM     20  C   UNL A   1      33.454  24.729  24.458  1.00  0.00     0.021 A 
BRANCH  12  21
ATOM     21  S   UNL A   1      30.431  27.605  22.859  1.00  0.00     0.264 S 
ATOM     22  O   UNL A   1      29.163  27.196  23.434  1.00  0.00    -0.201 OA
ATOM     23  O   UNL A   1      30.497  28.703  21.912  1.00  0.00    -0.201 OA
BRANCH  21  24
ATOM     24  C   UNL A   1      31.398  28.128  24.251  1.00  0.00     0.088 A 
ATOM     25  C   UNL A   1      33.251  30.385  27.388  1.00  0.00     0.044 C 
ATOM     26  C   UNL A   1      32.643  29.561  26.296  1.00  0.00    -0.051 A 
ATOM     27  C   UNL A   1      33.103  29.681  24.981  1.00  0.00     0.005 A 
ATOM     28  C   UNL A   1      31.633  28.638  26.587  1.00  0.00     0.005 A 
ATOM     29  C   UNL A   1      32.465  28.987  23.956  1.00  0.00     0.022 A 
ATOM     30  C   UNL A   1      31.052  27.880  25.573  1.00  0.00     0.022 A 
ENDBRANCH  21  24
ENDBRANCH  12  21
ENDBRANCH   9  11
ENDBRANCH   8   9
ENDBRANCH   7   8
ENDBRANCH   6   7
ENDBRANCH   5   6
ENDBRANCH   4   5
ENDBRANCH   3   4
ENDBRANCH   2   3
ENDBRANCH   1   2
BRANCH   1  31
ATOM     31  C   UNL A   1      36.820  21.903  25.704  1.00  0.00     0.188 C 
BRANCH  31  32
ATOM     32  O   UNL A   1      37.548  23.054  25.268  1.00  0.00    -0.376 OA
BRANCH  32  33
ATOM     33  C   UNL A   1      37.902  23.990  26.292  1.00  0.00     0.202 C 
BRANCH  33  34
ATOM     34  C   UNL A   1      39.232  23.732  27.038  1.00  0.00     0.261 C 
BRANCH  34  35
ATOM     35  O   UNL A   1      40.108  24.858  26.944  1.00  0.00    -0.460 OA
BRANCH  35  36
ATOM     36  C   UNL A   1      40.727  25.363  28.047  1.00  0.00     0.338 C 
ATOM     37  O   UNL A   1      41.658  24.891  28.667  1.00  0.00    -0.246 OA
BRANCH  36  38
ATOM     38  C   UNL A   1      39.970  26.616  28.355  1.00  0.00     0.060 A 
ATOM     39  C   UNL A   1      40.386  27.850  27.847  1.00  0.00     0.016 A 
ATOM     40  C   UNL A   1      39.134  26.576  29.461  1.00  0.00     0.016 A 
ATOM     41  C   UNL A   1      40.194  29.014  28.617  1.00  0.00     0.010 A 
ATOM     42  C   UNL A   1      39.089  27.686  30.281  1.00  0.00     0.010 A 
ATOM     43  C   UNL A   1      39.662  28.911  29.910  1.00  0.00    -0.014 A 
BRANCH  43  44
ATOM     44  C   UNL A   1      39.905  29.890  31.009  1.00  0.00     0.031 A 
ATOM     45  C   UNL A   1      40.865  29.576  32.147  1.00  0.00     0.074 A 
ATOM     46  C   UNL A   1      39.547  31.179  30.759  1.00  0.00     0.049 A 
ATOM     47  N   UNL A   1      41.154  30.329  33.162  1.00  0.00    -0.248 NA
ATOM     48  C   UNL A   1      41.668  28.359  32.174  1.00  0.00     0.031 C 
ATOM     49  C   UNL A   1      40.035  32.377  31.426  1.00  0.00     0.029 A 
ATOM     50  N   UNL A   1      38.655  31.706  29.815  1.00  0.00    -0.354 N 
ATOM     51  C   UNL A   1      42.358  29.902  33.739  1.00  0.00     0.074 A 
ATOM     52  C   UNL A   1      42.610  28.650  33.074  1.00  0.00     0.031 C 
ATOM     53  C   UNL A   1      39.447  33.478  30.938  1.00  0.00     0.029 A 
ATOM     54  C   UNL A   1      38.297  33.014  30.207  1.00  0.00     0.049 A 
ATOM     55  H   UNL A   1      38.331  31.240  29.011  1.00  0.00     0.167 HD
ATOM     56  C   UNL A   1      43.059  30.723  34.605  1.00  0.00     0.037 A 
ATOM     57  C   UNL A   1      37.051  33.244  30.735  1.00  0.00     0.037 A 
ATOM     58  C   UNL A   1      42.269  31.957  34.907  1.00  0.00     0.049 A 
ATOM     59  C   UNL A   1      37.060  33.434  32.257  1.00  0.00     0.074 A 
ATOM     60  C   UNL A   1      42.505  33.322  34.798  1.00  0.00     0.029 A 
ATOM     61  N   UNL A   1      40.892  31.861  35.166  1.00  0.00    -0.354 N 
ATOM     62  N   UNL A   1      38.032  32.983  33.024  1.00  0.00    -0.248 NA
ATOM     63  C   UNL A   1      36.104  34.215  33.039  1.00  0.00     0.031 C 
ATOM     64  C   UNL A   1      41.250  33.999  34.763  1.00  0.00     0.029 A 
ATOM     65  C   UNL A   1      40.243  33.070  34.970  1.00  0.00     0.049 A 
ATOM     66  H   UNL A   1      40.441  31.033  35.451  1.00  0.00     0.167 HD
ATOM     67  C   UNL A   1      37.913  33.445  34.301  1.00  0.00     0.074 A 
ATOM     68  C   UNL A   1      36.657  34.180  34.270  1.00  0.00     0.031 C 
ATOM     69  C   UNL A   1      38.830  33.233  35.298  1.00  0.00     0.037 A 
BRANCH  56  70
ATOM     70  C   UNL A   1      44.574  30.559  35.010  1.00  0.00     0.058 A 
ATOM     71  C   UNL A   1      45.634  31.061  34.202  1.00  0.00     0.135 A 
ATOM     72  C   UNL A   1      45.069  29.908  36.168  1.00  0.00     0.135 A 
ATOM     73  F   UNL A   1      45.398  31.806  33.118  1.00  0.00    -0.206 F 
ATOM     74  C   UNL A   1      47.008  30.882  34.477  1.00  0.00     0.059 A 
ATOM     75  C   UNL A   1      46.434  29.711  36.465  1.00  0.00     0.059 A 
ATOM     76  F   UNL A   1      44.265  29.484  37.141  1.00  0.00    -0.206 F 
ATOM     77  C   UNL A   1      47.406  30.205  35.616  1.00  0.00     0.060 A 
BRANCH  77  78
ATOM     78  S   UNL A   1      49.162  30.092  36.032  1.00  0.00     0.124 S 
ATOM     79  O   UNL A   1      49.377  28.651  36.111  1.00  0.00    -0.237 OA
ATOM     80  O   UNL A   1      49.792  30.766  34.900  1.00  0.00    -0.237 OA
ATOM     81  O   UNL A   1      49.260  30.803  37.305  1.00  0.00    -0.744 OA
ENDBRANCH  77  78
ENDBRANCH  56  70
BRANCH  57  82
ATOM     82  C   UNL A   1      35.969  33.001  29.710  1.00  0.00     0.058 A 
ATOM     83  C   UNL A   1      34.684  32.951  30.301  1.00  0.00     0.135 A 
ATOM     84  C   UNL A   1      36.058  33.737  28.513  1.00  0.00     0.135 A 
ATOM     85  F   UNL A   1      34.475  32.153  31.359  1.00  0.00    -0.206 F 
ATOM     86  C   UNL A   1      33.711  33.911  30.010  1.00  0.00     0.059 A 
ATOM     87  C   UNL A   1      35.092  34.701  28.192  1.00  0.00     0.059 A 
ATOM     88  F   UNL A   1      37.202  33.734  27.811  1.00  0.00    -0.206 F 
ATOM     89  C   UNL A   1      33.987  34.860  29.033  1.00  0.00     0.060 A 
BRANCH  89  90
ATOM     90  S   UNL A   1      33.177  36.489  29.119  1.00  0.00     0.124 S 
ATOM     91  O   UNL A   1      34.119  37.339  28.406  1.00  0.00    -0.237 OA
ATOM     92  O   UNL A   1      31.895  36.268  28.456  1.00  0.00    -0.237 OA
ATOM     93  O   UNL A   1      33.083  36.694  30.561  1.00  0.00    -0.744 OA
ENDBRANCH  89  90
ENDBRANCH  57  82
BRANCH  69  94
ATOM     94  C   UNL A   1      38.477  33.232  36.765  1.00  0.00     0.058 A 
ATOM     95  C   UNL A   1      38.023  32.074  37.412  1.00  0.00     0.135 A 
ATOM     96  C   UNL A   1      38.810  34.323  37.608  1.00  0.00     0.135 A 
ATOM     97  F   UNL A   1      37.798  30.937  36.737  1.00  0.00    -0.206 F 
ATOM     98  C   UNL A   1      37.832  32.023  38.787  1.00  0.00     0.059 A 
ATOM     99  C   UNL A   1      38.687  34.271  38.991  1.00  0.00     0.059 A 
ATOM    100  F   UNL A   1      39.299  35.474  37.127  1.00  0.00    -0.206 F 
ATOM    101  C   UNL A   1      38.162  33.127  39.567  1.00  0.00     0.060 A 
BRANCH 101 102
ATOM    102  S   UNL A   1      37.924  33.041  41.344  1.00  0.00     0.124 S 
ATOM    103  O   UNL A   1      37.485  31.658  41.505  1.00  0.00    -0.237 OA
ATOM    104  O   UNL A   1      39.256  33.345  41.859  1.00  0.00    -0.237 OA
ATOM    105  O   UNL A   1      36.911  34.059  41.603  1.00  0.00    -0.744 OA
ENDBRANCH 101 102
ENDBRANCH  69  94
ENDBRANCH  43  44
ENDBRANCH  36  38
ENDBRANCH  35  36
ENDBRANCH  34  35
ENDBRANCH  33  34
ENDBRANCH  32  33
ENDBRANCH  31  32
ENDBRANCH   1  31
TORSDOF 25
ENDMDL
MODEL 3
REMARK VINA RESULT:      -9.7      4.287     10.112
REMARK SMILES Cc1ccc(S(=O)(=O)N2c3ccc(C(=O)OCCOCCOCCOCCOC(=O)c4ccc(-c5c6nc(c(-c7c(F)cc(S(=O)(=O)[O-])cc7F)c7ccc([nH]7)c(-c7c(F)cc(S(=O)(=O)[O-])cc7F)c7nc(c(-c8c(F)cc(S(=O)(=O)[O-])cc8F)c8ccc5[nH]8)C=C7)C=C6)cc4)cc3C[C@H]2C)cc1
REMARK SMILES IDX 23 1 22 2 21 3 20 4 19 5 18 6 17 7 16 8 14 9 15 10 13 11
REMARK SMILES IDX 9 12 10 13 100 14 11 15 98 16 99 17 101 18 12 19 97 20 6 21
REMARK SMILES IDX 7 22 8 23 5 24 1 25 2 26 3 27 103 28 4 29 102 30 24 31 25 32
REMARK SMILES IDX 26 33 27 34 28 35 29 36 30 37 31 38 32 39 96 40 33 41 95 42
REMARK SMILES IDX 34 43 35 44 36 45 89 46 37 47 94 48 88 49 90 50 38 51 93 52
REMARK SMILES IDX 87 53 86 54 39 56 73 57 52 58 72 59 53 60 56 61 71 62 91 63
REMARK SMILES IDX 54 64 55 65 70 67 92 68 57 69 40 70 41 71 50 72 42 73 43 74
REMARK SMILES IDX 49 75 51 76 44 77 45 78 46 79 47 80 48 81 74 82 75 83 84 84
REMARK SMILES IDX 76 85 77 86 83 87 85 88 78 89 79 90 80 91 81 92 82 93 58 94
REMARK SMILES IDX 59 95 68 96 60 97 61 98 67 99 69 100 62 101 63 102 64 103
REMARK SMILES IDX 65 104 66 105
REMARK H PARENT 90 55 56 66
REMARK Flexibility Score: inf
ROOT
ATOM      1  C   UNL A   1      37.814  28.676  29.213  1.00  0.00     0.188 C 
ENDROOT
BRANCH   1   2
ATOM      2  O   UNL A   1      39.161  28.459  28.849  1.00  0.00    -0.377 OA
BRANCH   2   3
ATOM      3  C   UNL A   1      39.573  27.479  27.920  1.00  0.00     0.188 C 
BRANCH   3   4
ATOM      4  C   UNL A   1      40.928  26.755  27.974  1.00  0.00     0.188 C 
BRANCH   4   5
ATOM      5  O   UNL A   1      40.992  25.381  28.320  1.00  0.00    -0.376 OA
BRANCH   5   6
ATOM      6  C   UNL A   1      41.884  24.585  27.568  1.00  0.00     0.202 C 
BRANCH   6   7
ATOM      7  C   UNL A   1      41.396  23.189  27.314  1.00  0.00     0.261 C 
BRANCH   7   8
ATOM      8  O   UNL A   1      40.153  23.301  26.642  1.00  0.00    -0.460 OA
BRANCH   8   9
ATOM      9  C   UNL A   1      39.678  22.132  26.211  1.00  0.00     0.338 C 
ATOM     10  O   UNL A   1      40.150  21.028  26.339  1.00  0.00    -0.246 OA
BRANCH   9  11
ATOM     11  C   UNL A   1      38.268  22.415  25.928  1.00  0.00     0.060 A 
ATOM     12  N   UNL A   1      34.296  22.615  24.781  1.00  0.00    -0.263 N 
ATOM     13  C   UNL A   1      35.597  22.684  25.414  1.00  0.00     0.055 A 
ATOM     14  C   UNL A   1      34.011  21.119  24.758  1.00  0.00     0.101 C 
ATOM     15  C   UNL A   1      36.279  23.814  25.828  1.00  0.00     0.028 A 
ATOM     16  C   UNL A   1      36.217  21.437  25.357  1.00  0.00    -0.021 A 
ATOM     17  C   UNL A   1      35.337  20.371  24.843  1.00  0.00     0.063 C 
ATOM     18  C   UNL A   1      33.129  20.821  25.978  1.00  0.00     0.032 C 
ATOM     19  C   UNL A   1      37.643  23.670  26.089  1.00  0.00     0.018 A 
ATOM     20  C   UNL A   1      37.551  21.280  25.600  1.00  0.00     0.021 A 
BRANCH  12  21
ATOM     21  S   UNL A   1      34.421  23.452  23.264  1.00  0.00     0.264 S 
ATOM     22  O   UNL A   1      33.429  22.893  22.365  1.00  0.00    -0.201 OA
ATOM     23  O   UNL A   1      35.824  23.488  22.893  1.00  0.00    -0.201 OA
BRANCH  21  24
ATOM     24  C   UNL A   1      33.941  25.150  23.449  1.00  0.00     0.088 A 
ATOM     25  C   UNL A   1      31.748  28.820  23.752  1.00  0.00     0.044 C 
ATOM     26  C   UNL A   1      32.558  27.567  23.635  1.00  0.00    -0.051 A 
ATOM     27  C   UNL A   1      32.783  26.986  22.382  1.00  0.00     0.005 A 
ATOM     28  C   UNL A   1      33.125  26.983  24.772  1.00  0.00     0.005 A 
ATOM     29  C   UNL A   1      33.449  25.768  22.291  1.00  0.00     0.022 A 
ATOM     30  C   UNL A   1      33.866  25.807  24.670  1.00  0.00     0.022 A 
ENDBRANCH  21  24
ENDBRANCH  12  21
ENDBRANCH   9  11
ENDBRANCH   8   9
ENDBRANCH   7   8
ENDBRANCH   6   7
ENDBRANCH   5   6
ENDBRANCH   4   5
ENDBRANCH   3   4
ENDBRANCH   2   3
ENDBRANCH   1   2
BRANCH   1  31
ATOM     31  C   UNL A   1      36.900  29.233  28.117  1.00  0.00     0.188 C 
BRANCH  31  32
ATOM     32  O   UNL A   1      35.561  29.563  28.495  1.00  0.00    -0.376 OA
BRANCH  32  33
ATOM     33  C   UNL A   1      34.749  30.138  27.465  1.00  0.00     0.202 C 
BRANCH  33  34
ATOM     34  C   UNL A   1      34.136  31.526  27.760  1.00  0.00     0.261 C 
BRANCH  34  35
ATOM     35  O   UNL A   1      34.464  31.971  29.079  1.00  0.00    -0.460 OA
BRANCH  35  36
ATOM     36  C   UNL A   1      34.996  33.206  29.294  1.00  0.00     0.338 C 
ATOM     37  O   UNL A   1      34.413  34.267  29.389  1.00  0.00    -0.246 OA
BRANCH  36  38
ATOM     38  C   UNL A   1      36.472  32.971  29.344  1.00  0.00     0.060 A 
ATOM     39  C   UNL A   1      37.008  31.929  30.106  1.00  0.00     0.016 A 
ATOM     40  C   UNL A   1      37.280  34.036  28.974  1.00  0.00     0.016 A 
ATOM     41  C   UNL A   1      38.261  32.100  30.725  1.00  0.00     0.010 A 
ATOM     42  C   UNL A   1      38.427  34.265  29.707  1.00  0.00     0.010 A 
ATOM     43  C   UNL A   1      38.916  33.336  30.638  1.00  0.00    -0.014 A 
BRANCH  43  44
ATOM     44  C   UNL A   1      39.900  33.850  31.634  1.00  0.00     0.031 A 
ATOM     45  C   UNL A   1      39.443  34.446  32.958  1.00  0.00     0.074 A 
ATOM     46  C   UNL A   1      41.184  33.425  31.488  1.00  0.00     0.049 A 
ATOM     47  N   UNL A   1      40.190  34.935  33.899  1.00  0.00    -0.248 NA
ATOM     48  C   UNL A   1      38.043  34.456  33.365  1.00  0.00     0.031 C 
ATOM     49  C   UNL A   1      42.228  33.400  32.502  1.00  0.00     0.029 A 
ATOM     50  N   UNL A   1      41.844  32.896  30.369  1.00  0.00    -0.354 N 
ATOM     51  C   UNL A   1      39.466  34.983  35.098  1.00  0.00     0.074 A 
ATOM     52  C   UNL A   1      38.122  34.683  34.678  1.00  0.00     0.031 C 
ATOM     53  C   UNL A   1      43.382  32.939  32.000  1.00  0.00     0.029 A 
ATOM     54  C   UNL A   1      43.237  33.001  30.569  1.00  0.00     0.049 A 
ATOM     55  H   UNL A   1      41.406  32.513  29.575  1.00  0.00     0.167 HD
ATOM     56  C   UNL A   1      40.114  35.137  36.311  1.00  0.00     0.037 A 
ATOM     57  C   UNL A   1      43.948  33.953  29.882  1.00  0.00     0.037 A 
ATOM     58  C   UNL A   1      41.573  35.390  36.093  1.00  0.00     0.049 A 
ATOM     59  C   UNL A   1      44.337  35.162  30.741  1.00  0.00     0.074 A 
ATOM     60  C   UNL A   1      42.747  34.785  36.524  1.00  0.00     0.029 A 
ATOM     61  N   UNL A   1      41.987  36.274  35.084  1.00  0.00    -0.354 N 
ATOM     62  N   UNL A   1      43.697  35.484  31.847  1.00  0.00    -0.248 NA
ATOM     63  C   UNL A   1      45.499  36.027  30.545  1.00  0.00     0.031 C 
ATOM     64  C   UNL A   1      43.797  35.137  35.626  1.00  0.00     0.029 A 
ATOM     65  C   UNL A   1      43.304  36.054  34.711  1.00  0.00     0.049 A 
ATOM     66  H   UNL A   1      41.410  36.967  34.687  1.00  0.00     0.167 HD
ATOM     67  C   UNL A   1      44.348  36.468  32.530  1.00  0.00     0.074 A 
ATOM     68  C   UNL A   1      45.453  36.808  31.646  1.00  0.00     0.031 C 
ATOM     69  C   UNL A   1      43.981  36.937  33.765  1.00  0.00     0.037 A 
BRANCH  56  70
ATOM     70  C   UNL A   1      39.505  34.819  37.730  1.00  0.00     0.058 A 
ATOM     71  C   UNL A   1      39.363  35.817  38.736  1.00  0.00     0.135 A 
ATOM     72  C   UNL A   1      39.050  33.556  38.185  1.00  0.00     0.135 A 
ATOM     73  F   UNL A   1      39.626  37.104  38.490  1.00  0.00    -0.206 F 
ATOM     74  C   UNL A   1      38.891  35.576  40.045  1.00  0.00     0.059 A 
ATOM     75  C   UNL A   1      38.580  33.286  39.487  1.00  0.00     0.059 A 
ATOM     76  F   UNL A   1      38.953  32.503  37.375  1.00  0.00    -0.206 F 
ATOM     77  C   UNL A   1      38.497  34.304  40.419  1.00  0.00     0.060 A 
BRANCH  77  78
ATOM     78  S   UNL A   1      37.771  34.026  42.052  1.00  0.00     0.124 S 
ATOM     79  O   UNL A   1      37.515  35.384  42.519  1.00  0.00    -0.237 OA
ATOM     80  O   UNL A   1      36.589  33.231  41.734  1.00  0.00    -0.237 OA
ATOM     81  O   UNL A   1      38.819  33.309  42.776  1.00  0.00    -0.744 OA
ENDBRANCH  77  78
ENDBRANCH  56  70
BRANCH  57  82
ATOM     82  C   UNL A   1      43.944  33.673  28.398  1.00  0.00     0.058 A 
ATOM     83  C   UNL A   1      43.690  34.841  27.641  1.00  0.00     0.135 A 
ATOM     84  C   UNL A   1      44.973  32.846  27.910  1.00  0.00     0.135 A 
ATOM     85  F   UNL A   1      42.632  35.609  27.947  1.00  0.00    -0.206 F 
ATOM     86  C   UNL A   1      44.654  35.378  26.784  1.00  0.00     0.059 A 
ATOM     87  C   UNL A   1      45.950  33.355  27.043  1.00  0.00     0.059 A 
ATOM     88  F   UNL A   1      45.200  31.654  28.483  1.00  0.00    -0.206 F 
ATOM     89  C   UNL A   1      45.838  34.674  26.595  1.00  0.00     0.060 A 
BRANCH  89  90
ATOM     90  S   UNL A   1      47.354  35.583  26.154  1.00  0.00     0.124 S 
ATOM     91  O   UNL A   1      46.826  36.863  25.706  1.00  0.00    -0.237 OA
ATOM     92  O   UNL A   1      48.111  35.611  27.402  1.00  0.00    -0.237 OA
ATOM     93  O   UNL A   1      47.923  34.722  25.122  1.00  0.00    -0.744 OA
ENDBRANCH  89  90
ENDBRANCH  57  82
BRANCH  69  94
ATOM     94  C   UNL A   1      44.308  38.324  34.258  1.00  0.00     0.058 A 
ATOM     95  C   UNL A   1      43.686  39.461  33.722  1.00  0.00     0.135 A 
ATOM     96  C   UNL A   1      45.070  38.533  35.436  1.00  0.00     0.135 A 
ATOM     97  F   UNL A   1      42.838  39.372  32.687  1.00  0.00    -0.206 F 
ATOM     98  C   UNL A   1      43.871  40.728  34.262  1.00  0.00     0.059 A 
ATOM     99  C   UNL A   1      45.215  39.780  36.028  1.00  0.00     0.059 A 
ATOM    100  F   UNL A   1      45.680  37.527  36.079  1.00  0.00    -0.206 F 
ATOM    101  C   UNL A   1      44.640  40.879  35.411  1.00  0.00     0.060 A 
BRANCH 101 102
ATOM    102  S   UNL A   1      44.857  42.519  36.106  1.00  0.00     0.124 S 
ATOM    103  O   UNL A   1      43.898  42.491  37.206  1.00  0.00    -0.237 OA
ATOM    104  O   UNL A   1      46.264  42.516  36.494  1.00  0.00    -0.237 OA
ATOM    105  O   UNL A   1      44.521  43.407  34.997  1.00  0.00    -0.744 OA
ENDBRANCH 101 102
ENDBRANCH  69  94
ENDBRANCH  43  44
ENDBRANCH  36  38
ENDBRANCH  35  36
ENDBRANCH  34  35
ENDBRANCH  33  34
ENDBRANCH  32  33
ENDBRANCH  31  32
ENDBRANCH   1  31
TORSDOF 25
ENDMDL
