MODEL 1
REMARK VINA RESULT:      -9.5      0.000      0.000
REMARK SMILES CC1(C)[C@H](C(=O)OCCOCCOCCOCCOC(=O)c2ccc(-c3c4nc(c(-c5c(F)cc(S(=O)(=O)[O-])cc5F)c5ccc([nH]5)c(-c5c(F)cc(S(=O)(=O)[O-])cc5F)c5nc(c(-c6c(F)cc(S(=O)(=O)[O-])cc6F)c6ccc3[nH]6)C=C5)C=C4)cc2)[C@@H]1C(=O)Nc1ccon1
REMARK SMILES IDX 14 1 13 2 12 3 11 4 10 5 9 6 8 7 7 8 5 9 6 10 4 11 1 12 2 13
REMARK SMILES IDX 3 14 88 15 89 16 90 17 91 18 92 20 93 21 96 22 94 23 95 24
REMARK SMILES IDX 15 25 16 26 17 27 18 28 19 29 20 30 21 31 22 32 23 33 87 34
REMARK SMILES IDX 24 35 86 36 25 37 26 38 27 39 80 40 28 41 85 42 79 43 81 44
REMARK SMILES IDX 29 45 84 46 78 47 77 48 30 50 64 51 43 52 63 53 44 54 47 55
REMARK SMILES IDX 62 56 82 57 45 58 46 59 61 61 83 62 48 63 31 64 32 65 41 66
REMARK SMILES IDX 33 67 34 68 40 69 42 70 35 71 36 72 37 73 38 74 39 75 65 76
REMARK SMILES IDX 66 77 75 78 67 79 68 80 74 81 76 82 69 83 70 84 71 85 72 86
REMARK SMILES IDX 73 87 49 88 50 89 59 90 51 91 52 92 58 93 60 94 53 95 54 96
REMARK SMILES IDX 55 97 56 98 57 99
REMARK H PARENT 91 19 81 49 47 60
REMARK Flexibility Score: inf
ROOT
ATOM      1  C   UNL A   1      39.302  21.492  26.171  1.00  0.00     0.188 C 
ENDROOT
BRANCH   1   2
ATOM      2  O   UNL A   1      38.337  21.203  25.164  1.00  0.00    -0.377 OA
BRANCH   2   3
ATOM      3  C   UNL A   1      36.964  21.464  25.405  1.00  0.00     0.188 C 
BRANCH   3   4
ATOM      4  C   UNL A   1      35.919  20.392  25.049  1.00  0.00     0.188 C 
BRANCH   4   5
ATOM      5  O   UNL A   1      34.587  20.869  24.928  1.00  0.00    -0.376 OA
BRANCH   5   6
ATOM      6  C   UNL A   1      34.086  21.712  25.952  1.00  0.00     0.202 C 
BRANCH   6   7
ATOM      7  C   UNL A   1      33.265  22.931  25.503  1.00  0.00     0.261 C 
BRANCH   7   8
ATOM      8  O   UNL A   1      33.302  24.098  26.339  1.00  0.00    -0.463 OA
BRANCH   8   9
ATOM      9  C   UNL A   1      32.130  24.575  26.790  1.00  0.00     0.310 C 
ATOM     10  O   UNL A   1      31.274  23.931  27.382  1.00  0.00    -0.252 OA
BRANCH   9  11
ATOM     11  C   UNL A   1      31.907  26.018  26.579  1.00  0.00     0.118 C 
ATOM     12  C   UNL A   1      32.818  28.295  25.867  1.00  0.00     0.013 C 
ATOM     13  C   UNL A   1      32.357  26.915  25.447  1.00  0.00    -0.009 C 
ATOM     14  C   UNL A   1      33.127  26.406  24.248  1.00  0.00     0.013 C 
ATOM     15  C   UNL A   1      30.864  26.537  25.616  1.00  0.00     0.100 C 
BRANCH  15  16
ATOM     16  C   UNL A   1      30.216  25.779  24.508  1.00  0.00     0.230 C 
ATOM     17  O   UNL A   1      30.280  24.552  24.540  1.00  0.00    -0.274 OA
ATOM     18  N   UNL A   1      29.546  26.392  23.489  1.00  0.00    -0.308 N 
ATOM     19  H   UNL A   1      28.957  25.791  22.977  1.00  0.00     0.171 HD
BRANCH  18  20
ATOM     20  C   UNL A   1      29.540  27.691  23.049  1.00  0.00     0.175 A 
ATOM     21  C   UNL A   1      30.554  28.450  22.426  1.00  0.00     0.092 A 
ATOM     22  N   UNL A   1      28.431  28.424  23.198  1.00  0.00    -0.062 NA
ATOM     23  C   UNL A   1      30.041  29.721  22.371  1.00  0.00     0.233 A 
ATOM     24  O   UNL A   1      28.766  29.711  22.824  1.00  0.00    -0.363 OA
ENDBRANCH  18  20
ENDBRANCH  15  16
ENDBRANCH   9  11
ENDBRANCH   8   9
ENDBRANCH   7   8
ENDBRANCH   6   7
ENDBRANCH   5   6
ENDBRANCH   4   5
ENDBRANCH   3   4
ENDBRANCH   2   3
ENDBRANCH   1   2
BRANCH   1  25
ATOM     25  C   UNL A   1      40.541  20.588  26.344  1.00  0.00     0.188 C 
BRANCH  25  26
ATOM     26  O   UNL A   1      41.605  21.168  27.087  1.00  0.00    -0.376 OA
BRANCH  26  27
ATOM     27  C   UNL A   1      42.775  21.520  26.367  1.00  0.00     0.202 C 
BRANCH  27  28
ATOM     28  C   UNL A   1      43.162  23.005  26.391  1.00  0.00     0.261 C 
BRANCH  28  29
ATOM     29  O   UNL A   1      42.069  23.937  26.352  1.00  0.00    -0.460 OA
BRANCH  29  30
ATOM     30  C   UNL A   1      42.322  25.174  25.872  1.00  0.00     0.338 C 
ATOM     31  O   UNL A   1      42.790  25.461  24.785  1.00  0.00    -0.246 OA
BRANCH  30  32
ATOM     32  C   UNL A   1      41.741  26.148  26.816  1.00  0.00     0.060 A 
ATOM     33  C   UNL A   1      42.206  27.469  26.796  1.00  0.00     0.016 A 
ATOM     34  C   UNL A   1      40.743  25.757  27.713  1.00  0.00     0.016 A 
ATOM     35  C   UNL A   1      41.711  28.394  27.714  1.00  0.00     0.010 A 
ATOM     36  C   UNL A   1      40.267  26.676  28.649  1.00  0.00     0.010 A 
ATOM     37  C   UNL A   1      40.786  27.984  28.682  1.00  0.00    -0.014 A 
BRANCH  37  38
ATOM     38  C   UNL A   1      40.578  28.835  29.877  1.00  0.00     0.031 A 
ATOM     39  C   UNL A   1      41.480  28.605  31.061  1.00  0.00     0.074 A 
ATOM     40  C   UNL A   1      39.657  29.812  29.899  1.00  0.00     0.049 A 
ATOM     41  N   UNL A   1      41.507  29.213  32.216  1.00  0.00    -0.248 NA
ATOM     42  C   UNL A   1      42.490  27.541  30.917  1.00  0.00     0.031 C 
ATOM     43  C   UNL A   1      38.756  30.154  28.801  1.00  0.00     0.029 A 
ATOM     44  N   UNL A   1      39.329  30.699  30.893  1.00  0.00    -0.354 N 
ATOM     45  C   UNL A   1      42.532  28.609  32.936  1.00  0.00     0.074 A 
ATOM     46  C   UNL A   1      43.079  27.563  32.102  1.00  0.00     0.031 C 
ATOM     47  C   UNL A   1      37.968  31.175  29.185  1.00  0.00     0.029 A 
ATOM     48  C   UNL A   1      38.293  31.542  30.564  1.00  0.00     0.049 A 
ATOM     49  H   UNL A   1      39.792  30.731  31.761  1.00  0.00     0.167 HD
ATOM     50  C   UNL A   1      42.986  28.906  34.175  1.00  0.00     0.037 A 
ATOM     51  C   UNL A   1      37.674  32.486  31.301  1.00  0.00     0.037 A 
ATOM     52  C   UNL A   1      42.434  29.945  35.003  1.00  0.00     0.049 A 
ATOM     53  C   UNL A   1      38.152  32.754  32.707  1.00  0.00     0.074 A 
ATOM     54  C   UNL A   1      42.826  30.335  36.270  1.00  0.00     0.029 A 
ATOM     55  N   UNL A   1      41.363  30.752  34.647  1.00  0.00    -0.354 N 
ATOM     56  N   UNL A   1      39.139  32.195  33.366  1.00  0.00    -0.248 NA
ATOM     57  C   UNL A   1      37.432  33.785  33.468  1.00  0.00     0.031 C 
ATOM     58  C   UNL A   1      41.960  31.345  36.702  1.00  0.00     0.029 A 
ATOM     59  C   UNL A   1      41.064  31.623  35.682  1.00  0.00     0.049 A 
ATOM     60  H   UNL A   1      40.887  30.713  33.787  1.00  0.00     0.167 HD
ATOM     61  C   UNL A   1      39.178  32.827  34.606  1.00  0.00     0.074 A 
ATOM     62  C   UNL A   1      38.123  33.818  34.600  1.00  0.00     0.031 C 
ATOM     63  C   UNL A   1      40.012  32.609  35.655  1.00  0.00     0.037 A 
BRANCH  50  64
ATOM     64  C   UNL A   1      44.116  28.077  34.716  1.00  0.00     0.058 A 
ATOM     65  C   UNL A   1      45.448  28.517  34.664  1.00  0.00     0.135 A 
ATOM     66  C   UNL A   1      43.860  26.831  35.311  1.00  0.00     0.135 A 
ATOM     67  F   UNL A   1      45.752  29.688  34.084  1.00  0.00    -0.206 F 
ATOM     68  C   UNL A   1      46.490  27.738  35.160  1.00  0.00     0.059 A 
ATOM     69  C   UNL A   1      44.883  26.050  35.839  1.00  0.00     0.059 A 
ATOM     70  F   UNL A   1      42.605  26.359  35.379  1.00  0.00    -0.206 F 
ATOM     71  C   UNL A   1      46.196  26.506  35.747  1.00  0.00     0.060 A 
BRANCH  71  72
ATOM     72  S   UNL A   1      47.558  25.513  36.392  1.00  0.00     0.124 S 
ATOM     73  O   UNL A   1      48.157  26.430  37.356  1.00  0.00    -0.237 OA
ATOM     74  O   UNL A   1      46.862  24.362  36.960  1.00  0.00    -0.237 OA
ATOM     75  O   UNL A   1      48.365  25.232  35.208  1.00  0.00    -0.744 OA
ENDBRANCH  71  72
ENDBRANCH  50  64
BRANCH  51  76
ATOM     76  C   UNL A   1      36.527  33.244  30.731  1.00  0.00     0.058 A 
ATOM     77  C   UNL A   1      36.718  34.218  29.740  1.00  0.00     0.135 A 
ATOM     78  C   UNL A   1      35.215  33.020  31.179  1.00  0.00     0.135 A 
ATOM     79  F   UNL A   1      37.953  34.481  29.288  1.00  0.00    -0.206 F 
ATOM     80  C   UNL A   1      35.654  34.954  29.225  1.00  0.00     0.059 A 
ATOM     81  C   UNL A   1      34.133  33.723  30.661  1.00  0.00     0.059 A 
ATOM     82  F   UNL A   1      34.976  32.095  32.122  1.00  0.00    -0.206 F 
ATOM     83  C   UNL A   1      34.363  34.696  29.691  1.00  0.00     0.060 A 
BRANCH  83  84
ATOM     84  S   UNL A   1      32.986  35.627  28.984  1.00  0.00     0.124 S 
ATOM     85  O   UNL A   1      32.231  35.987  30.178  1.00  0.00    -0.237 OA
ATOM     86  O   UNL A   1      33.673  36.721  28.307  1.00  0.00    -0.237 OA
ATOM     87  O   UNL A   1      32.345  34.657  28.101  1.00  0.00    -0.744 OA
ENDBRANCH  83  84
ENDBRANCH  51  76
BRANCH  63  88
ATOM     88  C   UNL A   1      39.843  33.479  36.872  1.00  0.00     0.058 A 
ATOM     89  C   UNL A   1      38.953  33.145  37.903  1.00  0.00     0.135 A 
ATOM     90  C   UNL A   1      40.624  34.636  37.030  1.00  0.00     0.135 A 
ATOM     91  F   UNL A   1      38.181  32.051  37.802  1.00  0.00    -0.206 F 
ATOM     92  C   UNL A   1      38.821  33.943  39.036  1.00  0.00     0.059 A 
ATOM     93  C   UNL A   1      40.531  35.432  38.167  1.00  0.00     0.059 A 
ATOM     94  F   UNL A   1      41.503  34.995  36.080  1.00  0.00    -0.206 F 
ATOM     95  C   UNL A   1      39.616  35.085  39.159  1.00  0.00     0.060 A 
BRANCH  95  96
ATOM     96  S   UNL A   1      39.453  36.097  40.644  1.00  0.00     0.124 S 
ATOM     97  O   UNL A   1      38.901  37.332  40.099  1.00  0.00    -0.237 OA
ATOM     98  O   UNL A   1      38.543  35.304  41.466  1.00  0.00    -0.237 OA
ATOM     99  O   UNL A   1      40.822  36.188  41.146  1.00  0.00    -0.744 OA
ENDBRANCH  95  96
ENDBRANCH  63  88
ENDBRANCH  37  38
ENDBRANCH  30  32
ENDBRANCH  29  30
ENDBRANCH  28  29
ENDBRANCH  27  28
ENDBRANCH  26  27
ENDBRANCH  25  26
ENDBRANCH   1  25
TORSDOF 25
ENDMDL
MODEL 2
REMARK VINA RESULT:      -9.4      1.370      2.455
REMARK SMILES CC1(C)[C@H](C(=O)OCCOCCOCCOCCOC(=O)c2ccc(-c3c4nc(c(-c5c(F)cc(S(=O)(=O)[O-])cc5F)c5ccc([nH]5)c(-c5c(F)cc(S(=O)(=O)[O-])cc5F)c5nc(c(-c6c(F)cc(S(=O)(=O)[O-])cc6F)c6ccc3[nH]6)C=C5)C=C4)cc2)[C@@H]1C(=O)Nc1ccon1
REMARK SMILES IDX 14 1 13 2 12 3 11 4 10 5 9 6 8 7 7 8 5 9 6 10 4 11 1 12 2 13
REMARK SMILES IDX 3 14 88 15 89 16 90 17 91 18 92 20 93 21 96 22 94 23 95 24
REMARK SMILES IDX 15 25 16 26 17 27 18 28 19 29 20 30 21 31 22 32 23 33 87 34
REMARK SMILES IDX 24 35 86 36 25 37 26 38 27 39 80 40 28 41 85 42 79 43 81 44
REMARK SMILES IDX 29 45 84 46 78 47 77 48 30 50 64 51 43 52 63 53 44 54 47 55
REMARK SMILES IDX 62 56 82 57 45 58 46 59 61 61 83 62 48 63 31 64 32 65 41 66
REMARK SMILES IDX 33 67 34 68 40 69 42 70 35 71 36 72 37 73 38 74 39 75 65 76
REMARK SMILES IDX 66 77 75 78 67 79 68 80 74 81 76 82 69 83 70 84 71 85 72 86
REMARK SMILES IDX 73 87 49 88 50 89 59 90 51 91 52 92 58 93 60 94 53 95 54 96
REMARK SMILES IDX 55 97 56 98 57 99
REMARK H PARENT 91 19 81 49 47 60
REMARK Flexibility Score: inf
ROOT
ATOM      1  C   UNL A   1      39.202  21.711  26.123  1.00  0.00     0.188 C 
ENDROOT
BRANCH   1   2
ATOM      2  O   UNL A   1      38.155  21.780  25.161  1.00  0.00    -0.377 OA
BRANCH   2   3
ATOM      3  C   UNL A   1      36.923  22.396  25.502  1.00  0.00     0.188 C 
BRANCH   3   4
ATOM      4  C   UNL A   1      35.643  21.988  24.752  1.00  0.00     0.188 C 
BRANCH   4   5
ATOM      5  O   UNL A   1      34.642  22.992  24.682  1.00  0.00    -0.376 OA
BRANCH   5   6
ATOM      6  C   UNL A   1      34.733  24.086  25.579  1.00  0.00     0.202 C 
BRANCH   6   7
ATOM      7  C   UNL A   1      34.406  25.475  25.009  1.00  0.00     0.261 C 
BRANCH   7   8
ATOM      8  O   UNL A   1      33.022  25.787  24.782  1.00  0.00    -0.463 OA
BRANCH   8   9
ATOM      9  C   UNL A   1      32.692  26.305  23.587  1.00  0.00     0.310 C 
ATOM     10  O   UNL A   1      33.072  25.895  22.498  1.00  0.00    -0.252 OA
BRANCH   9  11
ATOM     11  C   UNL A   1      31.748  27.438  23.624  1.00  0.00     0.118 C 
ATOM     12  C   UNL A   1      29.437  28.384  23.090  1.00  0.00     0.013 C 
ATOM     13  C   UNL A   1      30.273  27.463  23.955  1.00  0.00    -0.009 C 
ATOM     14  C   UNL A   1      29.501  26.230  24.372  1.00  0.00     0.013 C 
ATOM     15  C   UNL A   1      31.314  28.080  24.922  1.00  0.00     0.100 C 
BRANCH  15  16
ATOM     16  C   UNL A   1      31.419  27.490  26.287  1.00  0.00     0.230 C 
ATOM     17  O   UNL A   1      30.594  26.639  26.608  1.00  0.00    -0.274 OA
ATOM     18  N   UNL A   1      32.401  27.841  27.168  1.00  0.00    -0.308 N 
ATOM     19  H   UNL A   1      32.516  27.210  27.915  1.00  0.00     0.171 HD
BRANCH  18  20
ATOM     20  C   UNL A   1      33.260  28.910  27.202  1.00  0.00     0.175 A 
ATOM     21  C   UNL A   1      34.671  28.950  27.198  1.00  0.00     0.092 A 
ATOM     22  N   UNL A   1      32.756  30.149  27.248  1.00  0.00    -0.062 NA
ATOM     23  C   UNL A   1      34.973  30.270  27.417  1.00  0.00     0.233 A 
ATOM     24  O   UNL A   1      33.832  30.995  27.439  1.00  0.00    -0.363 OA
ENDBRANCH  18  20
ENDBRANCH  15  16
ENDBRANCH   9  11
ENDBRANCH   8   9
ENDBRANCH   7   8
ENDBRANCH   6   7
ENDBRANCH   5   6
ENDBRANCH   4   5
ENDBRANCH   3   4
ENDBRANCH   2   3
ENDBRANCH   1   2
BRANCH   1  25
ATOM     25  C   UNL A   1      40.179  20.516  26.125  1.00  0.00     0.188 C 
BRANCH  25  26
ATOM     26  O   UNL A   1      41.366  20.715  26.880  1.00  0.00    -0.376 OA
BRANCH  26  27
ATOM     27  C   UNL A   1      42.560  20.954  26.152  1.00  0.00     0.202 C 
BRANCH  27  28
ATOM     28  C   UNL A   1      43.190  22.343  26.323  1.00  0.00     0.261 C 
BRANCH  28  29
ATOM     29  O   UNL A   1      42.286  23.455  26.231  1.00  0.00    -0.460 OA
BRANCH  29  30
ATOM     30  C   UNL A   1      42.810  24.661  25.922  1.00  0.00     0.338 C 
ATOM     31  O   UNL A   1      43.517  24.935  24.969  1.00  0.00    -0.246 OA
BRANCH  30  32
ATOM     32  C   UNL A   1      42.211  25.657  26.833  1.00  0.00     0.060 A 
ATOM     33  C   UNL A   1      42.760  26.945  26.881  1.00  0.00     0.016 A 
ATOM     34  C   UNL A   1      41.114  25.319  27.629  1.00  0.00     0.016 A 
ATOM     35  C   UNL A   1      42.246  27.885  27.772  1.00  0.00     0.010 A 
ATOM     36  C   UNL A   1      40.617  26.253  28.540  1.00  0.00     0.010 A 
ATOM     37  C   UNL A   1      41.214  27.522  28.645  1.00  0.00    -0.014 A 
BRANCH  37  38
ATOM     38  C   UNL A   1      40.955  28.366  29.836  1.00  0.00     0.031 A 
ATOM     39  C   UNL A   1      41.823  28.146  31.047  1.00  0.00     0.074 A 
ATOM     40  C   UNL A   1      40.019  29.330  29.831  1.00  0.00     0.049 A 
ATOM     41  N   UNL A   1      41.805  28.751  32.204  1.00  0.00    -0.248 NA
ATOM     42  C   UNL A   1      42.853  27.098  30.933  1.00  0.00     0.031 C 
ATOM     43  C   UNL A   1      39.149  29.662  28.706  1.00  0.00     0.029 A 
ATOM     44  N   UNL A   1      39.648  30.209  30.817  1.00  0.00    -0.354 N 
ATOM     45  C   UNL A   1      42.815  28.160  32.955  1.00  0.00     0.074 A 
ATOM     46  C   UNL A   1      43.405  27.125  32.136  1.00  0.00     0.031 C 
ATOM     47  C   UNL A   1      38.334  30.670  29.068  1.00  0.00     0.029 A 
ATOM     48  C   UNL A   1      38.610  31.037  30.457  1.00  0.00     0.049 A 
ATOM     49  H   UNL A   1      40.083  30.245  31.699  1.00  0.00     0.167 HD
ATOM     50  C   UNL A   1      43.226  28.461  34.208  1.00  0.00     0.037 A 
ATOM     51  C   UNL A   1      37.954  31.969  31.177  1.00  0.00     0.037 A 
ATOM     52  C   UNL A   1      42.632  29.489  35.020  1.00  0.00     0.049 A 
ATOM     53  C   UNL A   1      38.383  32.240  32.598  1.00  0.00     0.074 A 
ATOM     54  C   UNL A   1      42.978  29.880  36.301  1.00  0.00     0.029 A 
ATOM     55  N   UNL A   1      41.561  30.281  34.633  1.00  0.00    -0.354 N 
ATOM     56  N   UNL A   1      39.357  31.694  33.287  1.00  0.00    -0.248 NA
ATOM     57  C   UNL A   1      37.624  33.258  33.339  1.00  0.00     0.031 C 
ATOM     58  C   UNL A   1      42.084  30.876  36.707  1.00  0.00     0.029 A 
ATOM     59  C   UNL A   1      41.217  31.144  35.660  1.00  0.00     0.049 A 
ATOM     60  H   UNL A   1      41.113  30.237  33.759  1.00  0.00     0.167 HD
ATOM     61  C   UNL A   1      39.347  32.322  34.528  1.00  0.00     0.074 A 
ATOM     62  C   UNL A   1      38.278  33.298  34.492  1.00  0.00     0.031 C 
ATOM     63  C   UNL A   1      40.151  32.114  35.603  1.00  0.00     0.037 A 
BRANCH  50  64
ATOM     64  C   UNL A   1      44.350  27.647  34.782  1.00  0.00     0.058 A 
ATOM     65  C   UNL A   1      44.125  26.406  35.401  1.00  0.00     0.135 A 
ATOM     66  C   UNL A   1      45.674  28.107  34.698  1.00  0.00     0.135 A 
ATOM     67  F   UNL A   1      42.876  25.932  35.532  1.00  0.00    -0.206 F 
ATOM     68  C   UNL A   1      45.171  25.663  35.939  1.00  0.00     0.059 A 
ATOM     69  C   UNL A   1      46.738  27.365  35.204  1.00  0.00     0.059 A 
ATOM     70  F   UNL A   1      45.944  29.289  34.124  1.00  0.00    -0.206 F 
ATOM     71  C   UNL A   1      46.475  26.151  35.834  1.00  0.00     0.060 A 
BRANCH  71  72
ATOM     72  S   UNL A   1      47.821  25.171  36.530  1.00  0.00     0.124 S 
ATOM     73  O   UNL A   1      47.605  25.353  37.963  1.00  0.00    -0.237 OA
ATOM     74  O   UNL A   1      47.535  23.836  36.012  1.00  0.00    -0.237 OA
ATOM     75  O   UNL A   1      49.019  25.806  35.991  1.00  0.00    -0.744 OA
ENDBRANCH  71  72
ENDBRANCH  50  64
BRANCH  51  76
ATOM     76  C   UNL A   1      36.814  32.712  30.573  1.00  0.00     0.058 A 
ATOM     77  C   UNL A   1      35.485  32.352  30.842  1.00  0.00     0.135 A 
ATOM     78  C   UNL A   1      37.033  33.791  29.701  1.00  0.00     0.135 A 
ATOM     79  F   UNL A   1      35.222  31.320  31.657  1.00  0.00    -0.206 F 
ATOM     80  C   UNL A   1      34.415  33.022  30.256  1.00  0.00     0.059 A 
ATOM     81  C   UNL A   1      35.979  34.494  29.125  1.00  0.00     0.059 A 
ATOM     82  F   UNL A   1      38.285  34.180  29.415  1.00  0.00    -0.206 F 
ATOM     83  C   UNL A   1      34.673  34.095  29.401  1.00  0.00     0.060 A 
BRANCH  83  84
ATOM     84  S   UNL A   1      33.275  34.984  28.681  1.00  0.00     0.124 S 
ATOM     85  O   UNL A   1      33.945  36.089  28.006  1.00  0.00    -0.237 OA
ATOM     86  O   UNL A   1      32.682  33.971  27.815  1.00  0.00    -0.237 OA
ATOM     87  O   UNL A   1      32.475  35.349  29.846  1.00  0.00    -0.744 OA
ENDBRANCH  83  84
ENDBRANCH  51  76
BRANCH  63  88
ATOM     88  C   UNL A   1      39.931  32.978  36.816  1.00  0.00     0.058 A 
ATOM     89  C   UNL A   1      38.947  32.677  37.771  1.00  0.00     0.135 A 
ATOM     90  C   UNL A   1      40.753  34.092  37.051  1.00  0.00     0.135 A 
ATOM     91  F   UNL A   1      38.134  31.624  37.594  1.00  0.00    -0.206 F 
ATOM     92  C   UNL A   1      38.768  33.468  38.901  1.00  0.00     0.059 A 
ATOM     93  C   UNL A   1      40.610  34.879  38.190  1.00  0.00     0.059 A 
ATOM     94  F   UNL A   1      41.720  34.417  36.178  1.00  0.00    -0.206 F 
ATOM     95  C   UNL A   1      39.605  34.567  39.103  1.00  0.00     0.060 A 
BRANCH  95  96
ATOM     96  S   UNL A   1      39.377  35.569  40.586  1.00  0.00     0.124 S 
ATOM     97  O   UNL A   1      40.724  35.574  41.147  1.00  0.00    -0.237 OA
ATOM     98  O   UNL A   1      38.914  36.841  40.037  1.00  0.00    -0.237 OA
ATOM     99  O   UNL A   1      38.381  34.824  41.351  1.00  0.00    -0.744 OA
ENDBRANCH  95  96
ENDBRANCH  63  88
ENDBRANCH  37  38
ENDBRANCH  30  32
ENDBRANCH  29  30
ENDBRANCH  28  29
ENDBRANCH  27  28
ENDBRANCH  26  27
ENDBRANCH  25  26
ENDBRANCH   1  25
TORSDOF 25
ENDMDL
MODEL 3
REMARK VINA RESULT:      -9.3      5.079     11.202
REMARK SMILES CC1(C)[C@H](C(=O)OCCOCCOCCOCCOC(=O)c2ccc(-c3c4nc(c(-c5c(F)cc(S(=O)(=O)[O-])cc5F)c5ccc([nH]5)c(-c5c(F)cc(S(=O)(=O)[O-])cc5F)c5nc(c(-c6c(F)cc(S(=O)(=O)[O-])cc6F)c6ccc3[nH]6)C=C5)C=C4)cc2)[C@@H]1C(=O)Nc1ccon1
REMARK SMILES IDX 14 1 13 2 12 3 11 4 10 5 9 6 8 7 7 8 5 9 6 10 4 11 1 12 2 13
REMARK SMILES IDX 3 14 88 15 89 16 90 17 91 18 92 20 93 21 96 22 94 23 95 24
REMARK SMILES IDX 15 25 16 26 17 27 18 28 19 29 20 30 21 31 22 32 23 33 87 34
REMARK SMILES IDX 24 35 86 36 25 37 26 38 27 39 80 40 28 41 85 42 79 43 81 44
REMARK SMILES IDX 29 45 84 46 78 47 77 48 30 50 64 51 43 52 63 53 44 54 47 55
REMARK SMILES IDX 62 56 82 57 45 58 46 59 61 61 83 62 48 63 31 64 32 65 41 66
REMARK SMILES IDX 33 67 34 68 40 69 42 70 35 71 36 72 37 73 38 74 39 75 65 76
REMARK SMILES IDX 66 77 75 78 67 79 68 80 74 81 76 82 69 83 70 84 71 85 72 86
REMARK SMILES IDX 73 87 49 88 50 89 59 90 51 91 52 92 58 93 60 94 53 95 54 96
REMARK SMILES IDX 55 97 56 98 57 99
REMARK H PARENT 91 19 81 49 47 60
REMARK Flexibility Score: inf
ROOT
ATOM      1  C   UNL A   1      33.605  34.904  30.076  1.00  0.00     0.188 C 
ENDROOT
BRANCH   1   2
ATOM      2  O   UNL A   1      34.107  34.978  28.746  1.00  0.00    -0.377 OA
BRANCH   2   3
ATOM      3  C   UNL A   1      34.590  33.807  28.107  1.00  0.00     0.188 C 
BRANCH   3   4
ATOM      4  C   UNL A   1      33.674  32.576  27.996  1.00  0.00     0.188 C 
BRANCH   4   5
ATOM      5  O   UNL A   1      34.229  31.476  27.290  1.00  0.00    -0.376 OA
BRANCH   5   6
ATOM      6  C   UNL A   1      33.443  30.303  27.162  1.00  0.00     0.202 C 
BRANCH   6   7
ATOM      7  C   UNL A   1      34.156  28.964  27.413  1.00  0.00     0.261 C 
BRANCH   7   8
ATOM      8  O   UNL A   1      34.392  28.118  26.276  1.00  0.00    -0.463 OA
BRANCH   8   9
ATOM      9  C   UNL A   1      33.477  27.173  26.007  1.00  0.00     0.310 C 
ATOM     10  O   UNL A   1      32.371  27.077  26.524  1.00  0.00    -0.252 OA
BRANCH   9  11
ATOM     11  C   UNL A   1      33.849  26.208  24.955  1.00  0.00     0.118 C 
ATOM     12  C   UNL A   1      35.038  24.051  24.281  1.00  0.00     0.013 C 
ATOM     13  C   UNL A   1      33.862  24.696  24.984  1.00  0.00    -0.009 C 
ATOM     14  C   UNL A   1      33.414  23.890  26.184  1.00  0.00     0.013 C 
ATOM     15  C   UNL A   1      32.813  25.466  24.142  1.00  0.00     0.100 C 
BRANCH  15  16
ATOM     16  C   UNL A   1      31.376  25.274  24.491  1.00  0.00     0.230 C 
ATOM     17  O   UNL A   1      31.041  24.190  24.961  1.00  0.00    -0.274 OA
ATOM     18  N   UNL A   1      30.442  26.256  24.329  1.00  0.00    -0.308 N 
ATOM     19  H   UNL A   1      29.605  26.100  24.825  1.00  0.00     0.171 HD
BRANCH  18  20
ATOM     20  C   UNL A   1      30.454  27.420  23.604  1.00  0.00     0.175 A 
ATOM     21  C   UNL A   1      30.509  28.763  24.035  1.00  0.00     0.092 A 
ATOM     22  N   UNL A   1      30.408  27.357  22.269  1.00  0.00    -0.062 NA
ATOM     23  C   UNL A   1      30.321  29.494  22.889  1.00  0.00     0.233 A 
ATOM     24  O   UNL A   1      30.268  28.658  21.827  1.00  0.00    -0.363 OA
ENDBRANCH  18  20
ENDBRANCH  15  16
ENDBRANCH   9  11
ENDBRANCH   8   9
ENDBRANCH   7   8
ENDBRANCH   6   7
ENDBRANCH   5   6
ENDBRANCH   4   5
ENDBRANCH   3   4
ENDBRANCH   2   3
ENDBRANCH   1   2
BRANCH   1  25
ATOM     25  C   UNL A   1      33.362  36.192  30.890  1.00  0.00     0.188 C 
BRANCH  25  26
ATOM     26  O   UNL A   1      33.390  36.023  32.300  1.00  0.00    -0.376 OA
BRANCH  26  27
ATOM     27  C   UNL A   1      34.660  35.823  32.900  1.00  0.00     0.202 C 
BRANCH  27  28
ATOM     28  C   UNL A   1      34.846  34.505  33.664  1.00  0.00     0.261 C 
BRANCH  28  29
ATOM     29  O   UNL A   1      35.763  33.567  33.079  1.00  0.00    -0.460 OA
BRANCH  29  30
ATOM     30  C   UNL A   1      35.242  32.566  32.337  1.00  0.00     0.338 C 
ATOM     31  O   UNL A   1      34.069  32.383  32.067  1.00  0.00    -0.246 OA
BRANCH  30  32
ATOM     32  C   UNL A   1      36.366  31.829  31.726  1.00  0.00     0.060 A 
ATOM     33  C   UNL A   1      37.172  31.026  32.543  1.00  0.00     0.016 A 
ATOM     34  C   UNL A   1      36.618  31.932  30.356  1.00  0.00     0.016 A 
ATOM     35  C   UNL A   1      38.270  30.364  31.998  1.00  0.00     0.010 A 
ATOM     36  C   UNL A   1      37.734  31.290  29.816  1.00  0.00     0.010 A 
ATOM     37  C   UNL A   1      38.589  30.543  30.647  1.00  0.00    -0.014 A 
BRANCH  37  38
ATOM     38  C   UNL A   1      39.948  30.182  30.179  1.00  0.00     0.031 A 
ATOM     39  C   UNL A   1      41.018  31.239  30.266  1.00  0.00     0.074 A 
ATOM     40  C   UNL A   1      40.241  28.948  29.738  1.00  0.00     0.049 A 
ATOM     41  N   UNL A   1      42.278  31.177  29.930  1.00  0.00    -0.248 NA
ATOM     42  C   UNL A   1      40.605  32.545  30.810  1.00  0.00     0.031 C 
ATOM     43  C   UNL A   1      39.301  27.834  29.647  1.00  0.00     0.029 A 
ATOM     44  N   UNL A   1      41.426  28.427  29.282  1.00  0.00    -0.354 N 
ATOM     45  C   UNL A   1      42.808  32.429  30.219  1.00  0.00     0.074 A 
ATOM     46  C   UNL A   1      41.726  33.243  30.725  1.00  0.00     0.031 C 
ATOM     47  C   UNL A   1      39.944  26.760  29.154  1.00  0.00     0.029 A 
ATOM     48  C   UNL A   1      41.334  27.118  28.874  1.00  0.00     0.049 A 
ATOM     49  H   UNL A   1      42.264  28.943  29.251  1.00  0.00     0.167 HD
ATOM     50  C   UNL A   1      44.083  32.860  30.089  1.00  0.00     0.037 A 
ATOM     51  C   UNL A   1      42.265  26.313  28.323  1.00  0.00     0.037 A 
ATOM     52  C   UNL A   1      45.156  32.047  29.579  1.00  0.00     0.049 A 
ATOM     53  C   UNL A   1      43.666  26.836  28.121  1.00  0.00     0.074 A 
ATOM     54  C   UNL A   1      46.487  32.383  29.415  1.00  0.00     0.029 A 
ATOM     55  N   UNL A   1      45.015  30.737  29.144  1.00  0.00    -0.354 N 
ATOM     56  N   UNL A   1      44.161  28.014  28.424  1.00  0.00    -0.248 NA
ATOM     57  C   UNL A   1      44.636  25.919  27.506  1.00  0.00     0.031 C 
ATOM     58  C   UNL A   1      47.142  31.293  28.832  1.00  0.00     0.029 A 
ATOM     59  C   UNL A   1      46.231  30.258  28.686  1.00  0.00     0.049 A 
ATOM     60  H   UNL A   1      44.175  30.224  29.158  1.00  0.00     0.167 HD
ATOM     61  C   UNL A   1      45.505  27.967  28.064  1.00  0.00     0.074 A 
ATOM     62  C   UNL A   1      45.748  26.642  27.532  1.00  0.00     0.031 C 
ATOM     63  C   UNL A   1      46.455  28.933  28.165  1.00  0.00     0.037 A 
BRANCH  50  64
ATOM     64  C   UNL A   1      44.378  34.281  30.476  1.00  0.00     0.058 A 
ATOM     65  C   UNL A   1      44.793  34.625  31.772  1.00  0.00     0.135 A 
ATOM     66  C   UNL A   1      44.259  35.313  29.531  1.00  0.00     0.135 A 
ATOM     67  F   UNL A   1      44.898  33.681  32.721  1.00  0.00    -0.206 F 
ATOM     68  C   UNL A   1      45.055  35.945  32.125  1.00  0.00     0.059 A 
ATOM     69  C   UNL A   1      44.544  36.636  29.855  1.00  0.00     0.059 A 
ATOM     70  F   UNL A   1      43.858  35.041  28.279  1.00  0.00    -0.206 F 
ATOM     71  C   UNL A   1      44.929  36.944  31.158  1.00  0.00     0.060 A 
BRANCH  71  72
ATOM     72  S   UNL A   1      45.280  38.650  31.630  1.00  0.00     0.124 S 
ATOM     73  O   UNL A   1      43.938  39.222  31.678  1.00  0.00    -0.237 OA
ATOM     74  O   UNL A   1      45.945  38.486  32.919  1.00  0.00    -0.237 OA
ATOM     75  O   UNL A   1      46.130  39.135  30.547  1.00  0.00    -0.744 OA
ENDBRANCH  71  72
ENDBRANCH  50  64
BRANCH  51  76
ATOM     76  C   UNL A   1      41.906  24.928  27.912  1.00  0.00     0.058 A 
ATOM     77  C   UNL A   1      42.319  23.816  28.661  1.00  0.00     0.135 A 
ATOM     78  C   UNL A   1      41.153  24.688  26.751  1.00  0.00     0.135 A 
ATOM     79  F   UNL A   1      43.052  23.990  29.771  1.00  0.00    -0.206 F 
ATOM     80  C   UNL A   1      42.014  22.516  28.266  1.00  0.00     0.059 A 
ATOM     81  C   UNL A   1      40.813  23.400  26.351  1.00  0.00     0.059 A 
ATOM     82  F   UNL A   1      40.728  25.717  26.002  1.00  0.00    -0.206 F 
ATOM     83  C   UNL A   1      41.256  22.319  27.110  1.00  0.00     0.060 A 
BRANCH  83  84
ATOM     84  S   UNL A   1      40.830  20.630  26.632  1.00  0.00     0.124 S 
ATOM     85  O   UNL A   1      39.525  20.821  26.010  1.00  0.00    -0.237 OA
ATOM     86  O   UNL A   1      41.923  20.283  25.730  1.00  0.00    -0.237 OA
ATOM     87  O   UNL A   1      40.824  19.914  27.904  1.00  0.00    -0.744 OA
ENDBRANCH  83  84
ENDBRANCH  51  76
BRANCH  63  88
ATOM     88  C   UNL A   1      47.852  28.584  27.725  1.00  0.00     0.058 A 
ATOM     89  C   UNL A   1      48.228  28.599  26.373  1.00  0.00     0.135 A 
ATOM     90  C   UNL A   1      48.841  28.284  28.677  1.00  0.00     0.135 A 
ATOM     91  F   UNL A   1      47.322  28.878  25.423  1.00  0.00    -0.206 F 
ATOM     92  C   UNL A   1      49.528  28.300  25.978  1.00  0.00     0.059 A 
ATOM     93  C   UNL A   1      50.154  28.011  28.306  1.00  0.00     0.059 A 
ATOM     94  F   UNL A   1      48.539  28.270  29.985  1.00  0.00    -0.206 F 
ATOM     95  C   UNL A   1      50.484  28.008  26.953  1.00  0.00     0.060 A 
BRANCH  95  96
ATOM     96  S   UNL A   1      52.173  27.646  26.428  1.00  0.00     0.124 S 
ATOM     97  O   UNL A   1      52.327  28.548  25.292  1.00  0.00    -0.237 OA
ATOM     98  O   UNL A   1      52.950  27.984  27.617  1.00  0.00    -0.237 OA
ATOM     99  O   UNL A   1      52.131  26.224  26.100  1.00  0.00    -0.744 OA
ENDBRANCH  95  96
ENDBRANCH  63  88
ENDBRANCH  37  38
ENDBRANCH  30  32
ENDBRANCH  29  30
ENDBRANCH  28  29
ENDBRANCH  27  28
ENDBRANCH  26  27
ENDBRANCH  25  26
ENDBRANCH   1  25
TORSDOF 25
ENDMDL
