MODEL 1
REMARK VINA RESULT:     -10.8      0.000      0.000
REMARK SMILES Cc1cc(CC(=O)C(=O)OCCOCCOCCOCCOC(=O)c2ccc(-c3c4nc(c(-c5c(F)cc(S(=O)(=O)[O-])cc5F)c5ccc([nH]5)c(-c5c(F)cc(S(=O)(=O)[O-])cc5F)c5nc(c(-c6c(F)cc(S(=O)(=O)[O-])cc6F)c6ccc3[nH]6)C=C5)C=C4)cc2)cc2cn[nH]c12
REMARK SMILES IDX 17 1 16 2 15 3 14 4 13 5 12 6 11 7 10 8 8 9 9 10 6 11 7 12
REMARK SMILES IDX 5 13 4 14 1 15 2 16 3 17 96 18 92 19 95 20 91 21 93 22 94 23
REMARK SMILES IDX 18 25 19 26 20 27 21 28 22 29 23 30 24 31 25 32 26 33 90 34
REMARK SMILES IDX 27 35 89 36 28 37 29 38 30 39 83 40 31 41 88 42 82 43 84 44
REMARK SMILES IDX 32 45 87 46 81 47 80 48 33 50 67 51 46 52 66 53 47 54 50 55
REMARK SMILES IDX 65 56 85 57 48 58 49 59 64 61 86 62 51 63 34 64 35 65 44 66
REMARK SMILES IDX 36 67 37 68 43 69 45 70 38 71 39 72 40 73 41 74 42 75 68 76
REMARK SMILES IDX 69 77 78 78 70 79 71 80 77 81 79 82 72 83 73 84 74 85 75 86
REMARK SMILES IDX 76 87 52 88 53 89 62 90 54 91 55 92 61 93 63 94 56 95 57 96
REMARK SMILES IDX 58 97 59 98 60 99
REMARK H PARENT 95 24 84 49 50 60
REMARK Flexibility Score: inf
ROOT
ATOM      1  C   UNL A   1      37.606  22.609  25.273  1.00  0.00     0.188 C 
ENDROOT
BRANCH   1   2
ATOM      2  O   UNL A   1      36.612  22.204  24.339  1.00  0.00    -0.377 OA
BRANCH   2   3
ATOM      3  C   UNL A   1      36.260  23.094  23.301  1.00  0.00     0.188 C 
BRANCH   3   4
ATOM      4  C   UNL A   1      34.838  23.686  23.419  1.00  0.00     0.188 C 
BRANCH   4   5
ATOM      5  O   UNL A   1      33.777  22.842  23.016  1.00  0.00    -0.376 OA
BRANCH   5   6
ATOM      6  C   UNL A   1      33.281  21.807  23.847  1.00  0.00     0.202 C 
BRANCH   6   7
ATOM      7  C   UNL A   1      32.928  21.955  25.340  1.00  0.00     0.261 C 
BRANCH   7   8
ATOM      8  O   UNL A   1      31.565  22.234  25.656  1.00  0.00    -0.457 OA
BRANCH   8   9
ATOM      9  C   UNL A   1      31.290  23.402  26.253  1.00  0.00     0.375 C 
ATOM     10  O   UNL A   1      31.477  23.685  27.423  1.00  0.00    -0.243 OA
BRANCH   9  11
ATOM     11  C   UNL A   1      30.776  24.387  25.185  1.00  0.00     0.244 C 
ATOM     12  O   UNL A   1      30.568  23.984  24.043  1.00  0.00    -0.286 OA
BRANCH  11  13
ATOM     13  C   UNL A   1      30.652  25.855  25.572  1.00  0.00     0.124 C 
BRANCH  13  14
ATOM     14  C   UNL A   1      30.842  26.792  24.407  1.00  0.00    -0.039 A 
ATOM     15  C   UNL A   1      33.665  28.624  22.568  1.00  0.00     0.047 C 
ATOM     16  C   UNL A   1      32.297  28.208  23.019  1.00  0.00    -0.025 A 
ATOM     17  C   UNL A   1      32.119  27.188  23.976  1.00  0.00     0.009 A 
ATOM     18  C   UNL A   1      31.118  28.814  22.550  1.00  0.00     0.068 A 
ATOM     19  C   UNL A   1      29.845  28.406  22.921  1.00  0.00     0.020 A 
ATOM     20  N   UNL A   1      30.908  29.876  21.708  1.00  0.00    -0.278 N 
ATOM     21  C   UNL A   1      29.695  27.342  23.814  1.00  0.00     0.016 A 
ATOM     22  C   UNL A   1      28.968  29.293  22.264  1.00  0.00     0.143 A 
ATOM     23  N   UNL A   1      29.613  30.185  21.509  1.00  0.00    -0.183 NA
ATOM     24  H   UNL A   1      31.645  30.371  21.282  1.00  0.00     0.190 HD
ENDBRANCH  13  14
ENDBRANCH  11  13
ENDBRANCH   9  11
ENDBRANCH   8   9
ENDBRANCH   7   8
ENDBRANCH   6   7
ENDBRANCH   5   6
ENDBRANCH   4   5
ENDBRANCH   3   4
ENDBRANCH   2   3
ENDBRANCH   1   2
BRANCH   1  25
ATOM     25  C   UNL A   1      38.637  21.629  25.906  1.00  0.00     0.188 C 
BRANCH  25  26
ATOM     26  O   UNL A   1      39.886  22.194  26.300  1.00  0.00    -0.376 OA
BRANCH  26  27
ATOM     27  C   UNL A   1      40.538  21.753  27.482  1.00  0.00     0.202 C 
BRANCH  27  28
ATOM     28  C   UNL A   1      41.697  20.784  27.232  1.00  0.00     0.261 C 
BRANCH  28  29
ATOM     29  O   UNL A   1      42.903  21.476  26.958  1.00  0.00    -0.460 OA
BRANCH  29  30
ATOM     30  C   UNL A   1      43.391  21.200  25.735  1.00  0.00     0.338 C 
ATOM     31  O   UNL A   1      43.147  20.218  25.047  1.00  0.00    -0.246 OA
BRANCH  30  32
ATOM     32  C   UNL A   1      44.282  22.285  25.319  1.00  0.00     0.060 A 
ATOM     33  C   UNL A   1      45.302  22.553  26.232  1.00  0.00     0.016 A 
ATOM     34  C   UNL A   1      43.682  23.258  24.518  1.00  0.00     0.016 A 
ATOM     35  C   UNL A   1      45.349  23.830  26.712  1.00  0.00     0.010 A 
ATOM     36  C   UNL A   1      43.687  24.518  25.030  1.00  0.00     0.010 A 
ATOM     37  C   UNL A   1      44.413  24.730  26.201  1.00  0.00    -0.014 A 
BRANCH  37  38
ATOM     38  C   UNL A   1      44.097  25.874  27.010  1.00  0.00     0.031 A 
ATOM     39  C   UNL A   1      45.098  26.938  26.879  1.00  0.00     0.074 A 
ATOM     40  C   UNL A   1      42.942  25.933  27.696  1.00  0.00     0.049 A 
ATOM     41  N   UNL A   1      46.036  27.244  27.710  1.00  0.00    -0.248 NA
ATOM     42  C   UNL A   1      45.227  27.562  25.553  1.00  0.00     0.031 C 
ATOM     43  C   UNL A   1      41.768  25.056  27.609  1.00  0.00     0.029 A 
ATOM     44  N   UNL A   1      42.543  26.888  28.568  1.00  0.00    -0.354 N 
ATOM     45  C   UNL A   1      46.723  28.273  27.087  1.00  0.00     0.074 A 
ATOM     46  C   UNL A   1      46.375  28.220  25.692  1.00  0.00     0.031 C 
ATOM     47  C   UNL A   1      40.720  25.658  28.221  1.00  0.00     0.029 A 
ATOM     48  C   UNL A   1      41.183  26.885  28.844  1.00  0.00     0.049 A 
ATOM     49  H   UNL A   1      43.167  27.531  28.973  1.00  0.00     0.167 HD
ATOM     50  C   UNL A   1      47.274  29.294  27.791  1.00  0.00     0.037 A 
ATOM     51  C   UNL A   1      40.523  27.911  29.439  1.00  0.00     0.037 A 
ATOM     52  C   UNL A   1      47.370  28.989  29.193  1.00  0.00     0.049 A 
ATOM     53  C   UNL A   1      41.557  28.761  30.102  1.00  0.00     0.074 A 
ATOM     54  C   UNL A   1      48.037  28.028  29.927  1.00  0.00     0.029 A 
ATOM     55  N   UNL A   1      46.381  29.475  30.016  1.00  0.00    -0.354 N 
ATOM     56  N   UNL A   1      42.281  28.373  31.117  1.00  0.00    -0.248 NA
ATOM     57  C   UNL A   1      42.117  29.868  29.337  1.00  0.00     0.031 C 
ATOM     58  C   UNL A   1      47.151  27.678  30.987  1.00  0.00     0.029 A 
ATOM     59  C   UNL A   1      46.006  28.468  30.873  1.00  0.00     0.049 A 
ATOM     60  H   UNL A   1      46.006  30.385  29.995  1.00  0.00     0.167 HD
ATOM     61  C   UNL A   1      43.547  28.903  30.892  1.00  0.00     0.074 A 
ATOM     62  C   UNL A   1      43.363  29.877  29.820  1.00  0.00     0.031 C 
ATOM     63  C   UNL A   1      44.666  28.301  31.397  1.00  0.00     0.037 A 
BRANCH  50  64
ATOM     64  C   UNL A   1      47.380  30.684  27.232  1.00  0.00     0.058 A 
ATOM     65  C   UNL A   1      48.630  31.315  27.162  1.00  0.00     0.135 A 
ATOM     66  C   UNL A   1      46.257  31.498  26.950  1.00  0.00     0.135 A 
ATOM     67  F   UNL A   1      49.751  30.639  27.454  1.00  0.00    -0.206 F 
ATOM     68  C   UNL A   1      48.754  32.669  26.849  1.00  0.00     0.059 A 
ATOM     69  C   UNL A   1      46.361  32.824  26.561  1.00  0.00     0.059 A 
ATOM     70  F   UNL A   1      44.999  31.072  27.130  1.00  0.00    -0.206 F 
ATOM     71  C   UNL A   1      47.612  33.413  26.552  1.00  0.00     0.060 A 
BRANCH  71  72
ATOM     72  S   UNL A   1      47.758  35.178  26.237  1.00  0.00     0.124 S 
ATOM     73  O   UNL A   1      48.934  35.220  25.376  1.00  0.00    -0.237 OA
ATOM     74  O   UNL A   1      46.482  35.478  25.596  1.00  0.00    -0.237 OA
ATOM     75  O   UNL A   1      47.931  35.745  27.572  1.00  0.00    -0.744 OA
ENDBRANCH  71  72
ENDBRANCH  50  64
BRANCH  51  76
ATOM     76  C   UNL A   1      39.169  28.429  29.110  1.00  0.00     0.058 A 
ATOM     77  C   UNL A   1      38.199  28.585  30.115  1.00  0.00     0.135 A 
ATOM     78  C   UNL A   1      38.899  29.061  27.879  1.00  0.00     0.135 A 
ATOM     79  F   UNL A   1      38.385  28.031  31.323  1.00  0.00    -0.206 F 
ATOM     80  C   UNL A   1      37.057  29.371  29.932  1.00  0.00     0.059 A 
ATOM     81  C   UNL A   1      37.763  29.841  27.670  1.00  0.00     0.059 A 
ATOM     82  F   UNL A   1      39.780  29.021  26.869  1.00  0.00    -0.206 F 
ATOM     83  C   UNL A   1      36.862  30.019  28.713  1.00  0.00     0.060 A 
BRANCH  83  84
ATOM     84  S   UNL A   1      35.496  31.191  28.540  1.00  0.00     0.124 S 
ATOM     85  O   UNL A   1      36.140  32.303  27.850  1.00  0.00    -0.237 OA
ATOM     86  O   UNL A   1      34.534  30.424  27.757  1.00  0.00    -0.237 OA
ATOM     87  O   UNL A   1      35.100  31.459  29.920  1.00  0.00    -0.744 OA
ENDBRANCH  83  84
ENDBRANCH  51  76
BRANCH  63  88
ATOM     88  C   UNL A   1      44.463  27.218  32.429  1.00  0.00     0.058 A 
ATOM     89  C   UNL A   1      44.257  27.461  33.800  1.00  0.00     0.135 A 
ATOM     90  C   UNL A   1      44.354  25.890  31.994  1.00  0.00     0.135 A 
ATOM     91  F   UNL A   1      44.236  28.712  34.279  1.00  0.00    -0.206 F 
ATOM     92  C   UNL A   1      44.011  26.425  34.705  1.00  0.00     0.059 A 
ATOM     93  C   UNL A   1      44.077  24.844  32.872  1.00  0.00     0.059 A 
ATOM     94  F   UNL A   1      44.472  25.600  30.688  1.00  0.00    -0.206 F 
ATOM     95  C   UNL A   1      43.925  25.117  34.230  1.00  0.00     0.060 A 
BRANCH  95  96
ATOM     96  S   UNL A   1      43.558  23.781  35.390  1.00  0.00     0.124 S 
ATOM     97  O   UNL A   1      44.300  24.193  36.577  1.00  0.00    -0.237 OA
ATOM     98  O   UNL A   1      42.103  23.846  35.498  1.00  0.00    -0.237 OA
ATOM     99  O   UNL A   1      44.072  22.592  34.716  1.00  0.00    -0.744 OA
ENDBRANCH  95  96
ENDBRANCH  63  88
ENDBRANCH  37  38
ENDBRANCH  30  32
ENDBRANCH  29  30
ENDBRANCH  28  29
ENDBRANCH  27  28
ENDBRANCH  26  27
ENDBRANCH  25  26
ENDBRANCH   1  25
TORSDOF 25
ENDMDL
MODEL 2
REMARK VINA RESULT:     -10.1      2.899      4.157
REMARK SMILES Cc1cc(CC(=O)C(=O)OCCOCCOCCOCCOC(=O)c2ccc(-c3c4nc(c(-c5c(F)cc(S(=O)(=O)[O-])cc5F)c5ccc([nH]5)c(-c5c(F)cc(S(=O)(=O)[O-])cc5F)c5nc(c(-c6c(F)cc(S(=O)(=O)[O-])cc6F)c6ccc3[nH]6)C=C5)C=C4)cc2)cc2cn[nH]c12
REMARK SMILES IDX 17 1 16 2 15 3 14 4 13 5 12 6 11 7 10 8 8 9 9 10 6 11 7 12
REMARK SMILES IDX 5 13 4 14 1 15 2 16 3 17 96 18 92 19 95 20 91 21 93 22 94 23
REMARK SMILES IDX 18 25 19 26 20 27 21 28 22 29 23 30 24 31 25 32 26 33 90 34
REMARK SMILES IDX 27 35 89 36 28 37 29 38 30 39 83 40 31 41 88 42 82 43 84 44
REMARK SMILES IDX 32 45 87 46 81 47 80 48 33 50 67 51 46 52 66 53 47 54 50 55
REMARK SMILES IDX 65 56 85 57 48 58 49 59 64 61 86 62 51 63 34 64 35 65 44 66
REMARK SMILES IDX 36 67 37 68 43 69 45 70 38 71 39 72 40 73 41 74 42 75 68 76
REMARK SMILES IDX 69 77 78 78 70 79 71 80 77 81 79 82 72 83 73 84 74 85 75 86
REMARK SMILES IDX 76 87 52 88 53 89 62 90 54 91 55 92 61 93 63 94 56 95 57 96
REMARK SMILES IDX 58 97 59 98 60 99
REMARK H PARENT 95 24 84 49 50 60
REMARK Flexibility Score: inf
ROOT
ATOM      1  C   UNL A   1      39.592  21.798  25.898  1.00  0.00     0.188 C 
ENDROOT
BRANCH   1   2
ATOM      2  O   UNL A   1      38.833  22.734  26.653  1.00  0.00    -0.377 OA
BRANCH   2   3
ATOM      3  C   UNL A   1      37.943  23.590  25.968  1.00  0.00     0.188 C 
BRANCH   3   4
ATOM      4  C   UNL A   1      36.988  22.869  24.990  1.00  0.00     0.188 C 
BRANCH   4   5
ATOM      5  O   UNL A   1      35.799  23.561  24.658  1.00  0.00    -0.376 OA
BRANCH   5   6
ATOM      6  C   UNL A   1      34.736  22.937  23.960  1.00  0.00     0.202 C 
BRANCH   6   7
ATOM      7  C   UNL A   1      33.975  23.544  22.766  1.00  0.00     0.261 C 
BRANCH   7   8
ATOM      8  O   UNL A   1      33.128  24.659  23.039  1.00  0.00    -0.457 OA
BRANCH   8   9
ATOM      9  C   UNL A   1      33.261  25.747  22.269  1.00  0.00     0.375 C 
ATOM     10  O   UNL A   1      33.352  25.773  21.054  1.00  0.00    -0.243 OA
BRANCH   9  11
ATOM     11  C   UNL A   1      33.182  26.995  23.168  1.00  0.00     0.244 C 
ATOM     12  O   UNL A   1      33.817  28.001  22.861  1.00  0.00    -0.286 OA
BRANCH  11  13
ATOM     13  C   UNL A   1      32.399  26.886  24.470  1.00  0.00     0.124 C 
BRANCH  13  14
ATOM     14  C   UNL A   1      32.691  28.007  25.434  1.00  0.00    -0.039 A 
ATOM     15  C   UNL A   1      31.386  31.502  26.325  1.00  0.00     0.047 C 
ATOM     16  C   UNL A   1      32.257  30.282  26.260  1.00  0.00    -0.025 A 
ATOM     17  C   UNL A   1      31.882  29.154  25.503  1.00  0.00     0.009 A 
ATOM     18  C   UNL A   1      33.499  30.193  26.912  1.00  0.00     0.068 A 
ATOM     19  C   UNL A   1      34.292  29.054  26.900  1.00  0.00     0.020 A 
ATOM     20  N   UNL A   1      34.217  31.105  27.642  1.00  0.00    -0.278 N 
ATOM     21  C   UNL A   1      33.861  27.921  26.205  1.00  0.00     0.016 A 
ATOM     22  C   UNL A   1      35.447  29.402  27.629  1.00  0.00     0.143 A 
ATOM     23  N   UNL A   1      35.401  30.651  28.098  1.00  0.00    -0.183 NA
ATOM     24  H   UNL A   1      33.893  32.018  27.820  1.00  0.00     0.190 HD
ENDBRANCH  13  14
ENDBRANCH  11  13
ENDBRANCH   9  11
ENDBRANCH   8   9
ENDBRANCH   7   8
ENDBRANCH   6   7
ENDBRANCH   5   6
ENDBRANCH   4   5
ENDBRANCH   3   4
ENDBRANCH   2   3
ENDBRANCH   1   2
BRANCH   1  25
ATOM     25  C   UNL A   1      40.602  20.799  26.537  1.00  0.00     0.188 C 
BRANCH  25  26
ATOM     26  O   UNL A   1      41.920  21.292  26.766  1.00  0.00    -0.376 OA
BRANCH  26  27
ATOM     27  C   UNL A   1      42.912  21.199  25.755  1.00  0.00     0.202 C 
BRANCH  27  28
ATOM     28  C   UNL A   1      43.717  22.485  25.547  1.00  0.00     0.261 C 
BRANCH  28  29
ATOM     29  O   UNL A   1      42.883  23.563  25.158  1.00  0.00    -0.460 OA
BRANCH  29  30
ATOM     30  C   UNL A   1      42.956  24.605  26.006  1.00  0.00     0.338 C 
ATOM     31  O   UNL A   1      43.969  25.166  26.401  1.00  0.00    -0.246 OA
BRANCH  30  32
ATOM     32  C   UNL A   1      41.601  24.998  26.398  1.00  0.00     0.060 A 
ATOM     33  C   UNL A   1      41.135  26.135  25.738  1.00  0.00     0.016 A 
ATOM     34  C   UNL A   1      41.252  24.663  27.707  1.00  0.00     0.016 A 
ATOM     35  C   UNL A   1      40.762  27.175  26.538  1.00  0.00     0.010 A 
ATOM     36  C   UNL A   1      40.933  25.712  28.511  1.00  0.00     0.010 A 
ATOM     37  C   UNL A   1      40.839  26.969  27.916  1.00  0.00    -0.014 A 
BRANCH  37  38
ATOM     38  C   UNL A   1      40.957  28.135  28.746  1.00  0.00     0.031 A 
ATOM     39  C   UNL A   1      42.123  28.950  28.393  1.00  0.00     0.074 A 
ATOM     40  C   UNL A   1      40.006  28.435  29.649  1.00  0.00     0.049 A 
ATOM     41  N   UNL A   1      43.253  29.019  29.012  1.00  0.00    -0.248 NA
ATOM     42  C   UNL A   1      42.119  29.562  27.055  1.00  0.00     0.031 C 
ATOM     43  C   UNL A   1      38.672  27.845  29.819  1.00  0.00     0.029 A 
ATOM     44  N   UNL A   1      40.015  29.433  30.562  1.00  0.00    -0.354 N 
ATOM     45  C   UNL A   1      44.013  29.883  28.240  1.00  0.00     0.074 A 
ATOM     46  C   UNL A   1      43.390  29.943  26.946  1.00  0.00     0.031 C 
ATOM     47  C   UNL A   1      37.931  28.652  30.617  1.00  0.00     0.029 A 
ATOM     48  C   UNL A   1      38.773  29.729  31.107  1.00  0.00     0.049 A 
ATOM     49  H   UNL A   1      40.836  29.911  30.820  1.00  0.00     0.167 HD
ATOM     50  C   UNL A   1      44.910  30.737  28.797  1.00  0.00     0.037 A 
ATOM     51  C   UNL A   1      38.493  30.862  31.800  1.00  0.00     0.037 A 
ATOM     52  C   UNL A   1      45.215  30.384  30.157  1.00  0.00     0.049 A 
ATOM     53  C   UNL A   1      39.804  31.443  32.223  1.00  0.00     0.074 A 
ATOM     54  C   UNL A   1      45.783  29.281  30.762  1.00  0.00     0.029 A 
ATOM     55  N   UNL A   1      44.546  31.059  31.151  1.00  0.00    -0.354 N 
ATOM     56  N   UNL A   1      40.611  30.877  33.079  1.00  0.00    -0.248 NA
ATOM     57  C   UNL A   1      40.432  32.414  31.336  1.00  0.00     0.031 C 
ATOM     58  C   UNL A   1      45.073  29.112  31.986  1.00  0.00     0.029 A 
ATOM     59  C   UNL A   1      44.136  30.142  32.088  1.00  0.00     0.049 A 
ATOM     60  H   UNL A   1      44.389  32.030  31.185  1.00  0.00     0.167 HD
ATOM     61  C   UNL A   1      41.892  31.115  32.592  1.00  0.00     0.074 A 
ATOM     62  C   UNL A   1      41.719  32.132  31.558  1.00  0.00     0.031 C 
ATOM     63  C   UNL A   1      42.925  30.266  32.875  1.00  0.00     0.037 A 
BRANCH  50  64
ATOM     64  C   UNL A   1      45.210  32.081  28.197  1.00  0.00     0.058 A 
ATOM     65  C   UNL A   1      46.508  32.375  27.756  1.00  0.00     0.135 A 
ATOM     66  C   UNL A   1      44.304  33.168  28.229  1.00  0.00     0.135 A 
ATOM     67  F   UNL A   1      47.450  31.421  27.732  1.00  0.00    -0.206 F 
ATOM     68  C   UNL A   1      46.885  33.666  27.389  1.00  0.00     0.059 A 
ATOM     69  C   UNL A   1      44.635  34.442  27.795  1.00  0.00     0.059 A 
ATOM     70  F   UNL A   1      43.083  33.069  28.772  1.00  0.00    -0.206 F 
ATOM     71  C   UNL A   1      45.940  34.691  27.413  1.00  0.00     0.060 A 
BRANCH  71  72
ATOM     72  S   UNL A   1      46.443  36.375  27.027  1.00  0.00     0.124 S 
ATOM     73  O   UNL A   1      47.489  36.597  28.019  1.00  0.00    -0.237 OA
ATOM     74  O   UNL A   1      46.888  36.249  25.644  1.00  0.00    -0.237 OA
ATOM     75  O   UNL A   1      45.217  37.145  27.219  1.00  0.00    -0.744 OA
ENDBRANCH  71  72
ENDBRANCH  50  64
BRANCH  51  76
ATOM     76  C   UNL A   1      37.253  31.678  31.739  1.00  0.00     0.058 A 
ATOM     77  C   UNL A   1      36.495  31.915  32.898  1.00  0.00     0.135 A 
ATOM     78  C   UNL A   1      36.952  32.485  30.622  1.00  0.00     0.135 A 
ATOM     79  F   UNL A   1      36.727  31.205  34.013  1.00  0.00    -0.206 F 
ATOM     80  C   UNL A   1      35.538  32.933  32.967  1.00  0.00     0.059 A 
ATOM     81  C   UNL A   1      35.996  33.497  30.664  1.00  0.00     0.059 A 
ATOM     82  F   UNL A   1      37.649  32.378  29.481  1.00  0.00    -0.206 F 
ATOM     83  C   UNL A   1      35.315  33.737  31.851  1.00  0.00     0.060 A 
BRANCH  83  84
ATOM     84  S   UNL A   1      34.228  35.175  31.996  1.00  0.00     0.124 S 
ATOM     85  O   UNL A   1      35.051  36.098  32.769  1.00  0.00    -0.237 OA
ATOM     86  O   UNL A   1      34.008  35.532  30.599  1.00  0.00    -0.237 OA
ATOM     87  O   UNL A   1      33.059  34.648  32.693  1.00  0.00    -0.744 OA
ENDBRANCH  83  84
ENDBRANCH  51  76
BRANCH  63  88
ATOM     88  C   UNL A   1      42.696  29.231  33.950  1.00  0.00     0.058 A 
ATOM     89  C   UNL A   1      42.223  27.928  33.707  1.00  0.00     0.135 A 
ATOM     90  C   UNL A   1      43.084  29.534  35.262  1.00  0.00     0.135 A 
ATOM     91  F   UNL A   1      41.935  27.525  32.461  1.00  0.00    -0.206 F 
ATOM     92  C   UNL A   1      42.089  26.988  34.731  1.00  0.00     0.059 A 
ATOM     93  C   UNL A   1      42.990  28.603  36.295  1.00  0.00     0.059 A 
ATOM     94  F   UNL A   1      43.607  30.738  35.548  1.00  0.00    -0.206 F 
ATOM     95  C   UNL A   1      42.473  27.336  36.025  1.00  0.00     0.060 A 
BRANCH  95  96
ATOM     96  S   UNL A   1      42.346  26.107  37.343  1.00  0.00     0.124 S 
ATOM     97  O   UNL A   1      42.697  24.874  36.647  1.00  0.00    -0.237 OA
ATOM     98  O   UNL A   1      43.322  26.585  38.317  1.00  0.00    -0.237 OA
ATOM     99  O   UNL A   1      40.953  26.206  37.769  1.00  0.00    -0.744 OA
ENDBRANCH  95  96
ENDBRANCH  63  88
ENDBRANCH  37  38
ENDBRANCH  30  32
ENDBRANCH  29  30
ENDBRANCH  28  29
ENDBRANCH  27  28
ENDBRANCH  26  27
ENDBRANCH  25  26
ENDBRANCH   1  25
TORSDOF 25
ENDMDL
MODEL 3
REMARK VINA RESULT:      -9.9      3.083      9.215
REMARK SMILES Cc1cc(CC(=O)C(=O)OCCOCCOCCOCCOC(=O)c2ccc(-c3c4nc(c(-c5c(F)cc(S(=O)(=O)[O-])cc5F)c5ccc([nH]5)c(-c5c(F)cc(S(=O)(=O)[O-])cc5F)c5nc(c(-c6c(F)cc(S(=O)(=O)[O-])cc6F)c6ccc3[nH]6)C=C5)C=C4)cc2)cc2cn[nH]c12
REMARK SMILES IDX 17 1 16 2 15 3 14 4 13 5 12 6 11 7 10 8 8 9 9 10 6 11 7 12
REMARK SMILES IDX 5 13 4 14 1 15 2 16 3 17 96 18 92 19 95 20 91 21 93 22 94 23
REMARK SMILES IDX 18 25 19 26 20 27 21 28 22 29 23 30 24 31 25 32 26 33 90 34
REMARK SMILES IDX 27 35 89 36 28 37 29 38 30 39 83 40 31 41 88 42 82 43 84 44
REMARK SMILES IDX 32 45 87 46 81 47 80 48 33 50 67 51 46 52 66 53 47 54 50 55
REMARK SMILES IDX 65 56 85 57 48 58 49 59 64 61 86 62 51 63 34 64 35 65 44 66
REMARK SMILES IDX 36 67 37 68 43 69 45 70 38 71 39 72 40 73 41 74 42 75 68 76
REMARK SMILES IDX 69 77 78 78 70 79 71 80 77 81 79 82 72 83 73 84 74 85 75 86
REMARK SMILES IDX 76 87 52 88 53 89 62 90 54 91 55 92 61 93 63 94 56 95 57 96
REMARK SMILES IDX 58 97 59 98 60 99
REMARK H PARENT 95 24 84 49 50 60
REMARK Flexibility Score: inf
ROOT
ATOM      1  C   UNL A   1      31.994  28.326  24.099  1.00  0.00     0.188 C 
ENDROOT
BRANCH   1   2
ATOM      2  O   UNL A   1      32.863  28.275  22.974  1.00  0.00    -0.377 OA
BRANCH   2   3
ATOM      3  C   UNL A   1      33.044  27.038  22.318  1.00  0.00     0.188 C 
BRANCH   3   4
ATOM      4  C   UNL A   1      31.735  26.272  22.022  1.00  0.00     0.188 C 
BRANCH   4   5
ATOM      5  O   UNL A   1      31.700  24.918  22.428  1.00  0.00    -0.376 OA
BRANCH   5   6
ATOM      6  C   UNL A   1      30.792  24.450  23.409  1.00  0.00     0.202 C 
BRANCH   6   7
ATOM      7  C   UNL A   1      30.331  25.240  24.648  1.00  0.00     0.261 C 
BRANCH   7   8
ATOM      8  O   UNL A   1      31.179  25.194  25.795  1.00  0.00    -0.457 OA
BRANCH   8   9
ATOM      9  C   UNL A   1      31.032  24.165  26.639  1.00  0.00     0.375 C 
ATOM     10  O   UNL A   1      29.983  23.727  27.078  1.00  0.00    -0.243 OA
BRANCH   9  11
ATOM     11  C   UNL A   1      32.417  23.545  26.902  1.00  0.00     0.244 C 
ATOM     12  O   UNL A   1      32.610  22.915  27.938  1.00  0.00    -0.286 OA
BRANCH  11  13
ATOM     13  C   UNL A   1      33.529  23.840  25.903  1.00  0.00     0.124 C 
BRANCH  13  14
ATOM     14  C   UNL A   1      34.239  22.600  25.424  1.00  0.00    -0.039 A 
ATOM     15  C   UNL A   1      33.472  18.930  24.613  1.00  0.00     0.047 C 
ATOM     16  C   UNL A   1      34.222  20.198  24.895  1.00  0.00    -0.025 A 
ATOM     17  C   UNL A   1      33.546  21.407  25.156  1.00  0.00     0.009 A 
ATOM     18  C   UNL A   1      35.625  20.262  24.948  1.00  0.00     0.068 A 
ATOM     19  C   UNL A   1      36.333  21.437  25.160  1.00  0.00     0.020 A 
ATOM     20  N   UNL A   1      36.590  19.292  24.845  1.00  0.00    -0.278 N 
ATOM     21  C   UNL A   1      35.640  22.636  25.340  1.00  0.00     0.016 A 
ATOM     22  C   UNL A   1      37.689  21.051  25.179  1.00  0.00     0.143 A 
ATOM     23  N   UNL A   1      37.853  19.743  24.972  1.00  0.00    -0.183 NA
ATOM     24  H   UNL A   1      36.377  18.344  24.687  1.00  0.00     0.190 HD
ENDBRANCH  13  14
ENDBRANCH  11  13
ENDBRANCH   9  11
ENDBRANCH   8   9
ENDBRANCH   7   8
ENDBRANCH   6   7
ENDBRANCH   5   6
ENDBRANCH   4   5
ENDBRANCH   3   4
ENDBRANCH   2   3
ENDBRANCH   1   2
BRANCH   1  25
ATOM     25  C   UNL A   1      31.313  29.635  24.598  1.00  0.00     0.188 C 
BRANCH  25  26
ATOM     26  O   UNL A   1      31.887  30.245  25.753  1.00  0.00    -0.376 OA
BRANCH  26  27
ATOM     27  C   UNL A   1      32.982  29.638  26.421  1.00  0.00     0.202 C 
BRANCH  27  28
ATOM     28  C   UNL A   1      33.882  30.624  27.171  1.00  0.00     0.261 C 
BRANCH  28  29
ATOM     29  O   UNL A   1      34.658  29.972  28.161  1.00  0.00    -0.460 OA
BRANCH  29  30
ATOM     30  C   UNL A   1      35.979  30.130  27.971  1.00  0.00     0.338 C 
ATOM     31  O   UNL A   1      36.586  30.067  26.909  1.00  0.00    -0.246 OA
BRANCH  30  32
ATOM     32  C   UNL A   1      36.618  30.412  29.258  1.00  0.00     0.060 A 
ATOM     33  C   UNL A   1      37.563  31.436  29.202  1.00  0.00     0.016 A 
ATOM     34  C   UNL A   1      36.713  29.314  30.115  1.00  0.00     0.016 A 
ATOM     35  C   UNL A   1      38.824  31.104  29.603  1.00  0.00     0.010 A 
ATOM     36  C   UNL A   1      37.977  28.959  30.466  1.00  0.00     0.010 A 
ATOM     37  C   UNL A   1      39.013  29.803  30.070  1.00  0.00    -0.014 A 
BRANCH  37  38
ATOM     38  C   UNL A   1      40.347  29.274  30.009  1.00  0.00     0.031 A 
ATOM     39  C   UNL A   1      40.956  29.152  31.338  1.00  0.00     0.074 A 
ATOM     40  C   UNL A   1      40.870  28.859  28.841  1.00  0.00     0.049 A 
ATOM     41  N   UNL A   1      41.833  29.928  31.878  1.00  0.00    -0.248 NA
ATOM     42  C   UNL A   1      40.323  28.202  32.267  1.00  0.00     0.031 C 
ATOM     43  C   UNL A   1      40.202  28.654  27.550  1.00  0.00     0.029 A 
ATOM     44  N   UNL A   1      42.130  28.430  28.602  1.00  0.00    -0.354 N 
ATOM     45  C   UNL A   1      42.023  29.400  33.144  1.00  0.00     0.074 A 
ATOM     46  C   UNL A   1      40.892  28.555  33.417  1.00  0.00     0.031 C 
ATOM     47  C   UNL A   1      41.013  27.926  26.744  1.00  0.00     0.029 A 
ATOM     48  C   UNL A   1      42.287  27.733  27.413  1.00  0.00     0.049 A 
ATOM     49  H   UNL A   1      42.876  28.598  29.222  1.00  0.00     0.167 HD
ATOM     50  C   UNL A   1      43.235  29.429  33.756  1.00  0.00     0.037 A 
ATOM     51  C   UNL A   1      43.367  26.966  27.113  1.00  0.00     0.037 A 
ATOM     52  C   UNL A   1      44.136  30.351  33.118  1.00  0.00     0.049 A 
ATOM     53  C   UNL A   1      44.459  27.379  28.046  1.00  0.00     0.074 A 
ATOM     54  C   UNL A   1      44.130  31.716  32.908  1.00  0.00     0.029 A 
ATOM     55  N   UNL A   1      45.040  29.833  32.220  1.00  0.00    -0.354 N 
ATOM     56  N   UNL A   1      45.033  28.551  28.026  1.00  0.00    -0.248 NA
ATOM     57  C   UNL A   1      44.583  26.656  29.306  1.00  0.00     0.031 C 
ATOM     58  C   UNL A   1      44.696  31.902  31.614  1.00  0.00     0.029 A 
ATOM     59  C   UNL A   1      45.058  30.649  31.115  1.00  0.00     0.049 A 
ATOM     60  H   UNL A   1      45.579  29.020  32.346  1.00  0.00     0.167 HD
ATOM     61  C   UNL A   1      45.244  28.883  29.360  1.00  0.00     0.074 A 
ATOM     62  C   UNL A   1      45.015  27.643  30.096  1.00  0.00     0.031 C 
ATOM     63  C   UNL A   1      45.304  30.187  29.764  1.00  0.00     0.037 A 
BRANCH  50  64
ATOM     64  C   UNL A   1      43.678  28.349  34.701  1.00  0.00     0.058 A 
ATOM     65  C   UNL A   1      44.031  28.675  36.018  1.00  0.00     0.135 A 
ATOM     66  C   UNL A   1      43.965  27.025  34.291  1.00  0.00     0.135 A 
ATOM     67  F   UNL A   1      43.839  29.918  36.486  1.00  0.00    -0.206 F 
ATOM     68  C   UNL A   1      44.642  27.752  36.866  1.00  0.00     0.059 A 
ATOM     69  C   UNL A   1      44.501  26.069  35.140  1.00  0.00     0.059 A 
ATOM     70  F   UNL A   1      43.827  26.622  33.021  1.00  0.00    -0.206 F 
ATOM     71  C   UNL A   1      44.873  26.453  36.415  1.00  0.00     0.060 A 
BRANCH  71  72
ATOM     72  S   UNL A   1      45.743  25.285  37.472  1.00  0.00     0.124 S 
ATOM     73  O   UNL A   1      46.427  24.459  36.484  1.00  0.00    -0.237 OA
ATOM     74  O   UNL A   1      46.590  26.168  38.266  1.00  0.00    -0.237 OA
ATOM     75  O   UNL A   1      44.665  24.630  38.208  1.00  0.00    -0.744 OA
ENDBRANCH  71  72
ENDBRANCH  50  64
BRANCH  51  76
ATOM     76  C   UNL A   1      43.381  25.655  26.413  1.00  0.00     0.058 A 
ATOM     77  C   UNL A   1      44.254  25.429  25.335  1.00  0.00     0.135 A 
ATOM     78  C   UNL A   1      42.769  24.513  26.970  1.00  0.00     0.135 A 
ATOM     79  F   UNL A   1      44.892  26.459  24.757  1.00  0.00    -0.206 F 
ATOM     80  C   UNL A   1      44.550  24.142  24.875  1.00  0.00     0.059 A 
ATOM     81  C   UNL A   1      43.042  23.223  26.522  1.00  0.00     0.059 A 
ATOM     82  F   UNL A   1      41.960  24.608  28.035  1.00  0.00    -0.206 F 
ATOM     83  C   UNL A   1      43.960  23.042  25.494  1.00  0.00     0.060 A 
BRANCH  83  84
ATOM     84  S   UNL A   1      44.490  21.375  25.037  1.00  0.00     0.124 S 
ATOM     85  O   UNL A   1      44.554  21.468  23.582  1.00  0.00    -0.237 OA
ATOM     86  O   UNL A   1      45.771  21.264  25.727  1.00  0.00    -0.237 OA
ATOM     87  O   UNL A   1      43.426  20.524  25.561  1.00  0.00    -0.744 OA
ENDBRANCH  83  84
ENDBRANCH  51  76
BRANCH  63  88
ATOM     88  C   UNL A   1      45.417  31.240  28.688  1.00  0.00     0.058 A 
ATOM     89  C   UNL A   1      44.315  31.854  28.063  1.00  0.00     0.135 A 
ATOM     90  C   UNL A   1      46.688  31.731  28.363  1.00  0.00     0.135 A 
ATOM     91  F   UNL A   1      43.062  31.518  28.399  1.00  0.00    -0.206 F 
ATOM     92  C   UNL A   1      44.474  32.870  27.116  1.00  0.00     0.059 A 
ATOM     93  C   UNL A   1      46.871  32.765  27.447  1.00  0.00     0.059 A 
ATOM     94  F   UNL A   1      47.777  31.235  28.975  1.00  0.00    -0.206 F 
ATOM     95  C   UNL A   1      45.759  33.317  26.813  1.00  0.00     0.060 A 
BRANCH  95  96
ATOM     96  S   UNL A   1      45.965  34.663  25.625  1.00  0.00     0.124 S 
ATOM     97  O   UNL A   1      45.103  34.238  24.527  1.00  0.00    -0.237 OA
ATOM     98  O   UNL A   1      45.503  35.824  26.381  1.00  0.00    -0.237 OA
ATOM     99  O   UNL A   1      47.396  34.648  25.335  1.00  0.00    -0.744 OA
ENDBRANCH  95  96
ENDBRANCH  63  88
ENDBRANCH  37  38
ENDBRANCH  30  32
ENDBRANCH  29  30
ENDBRANCH  28  29
ENDBRANCH  27  28
ENDBRANCH  26  27
ENDBRANCH  25  26
ENDBRANCH   1  25
TORSDOF 25
ENDMDL
