MODEL 1
REMARK VINA RESULT:      -9.9      0.000      0.000
REMARK SMILES Cc1cccc(CNC(=O)N[C@@H](CC2=c3ccccc3=NC2)C(=O)OCCOCCOCCOCCOC(=O)c2ccc(-c3c4nc(c(-c5c(F)cc(S(=O)(=O)[O-])cc5F)c5ccc([nH]5)c(-c5c(F)cc(S(=O)(=O)[O-])cc5F)c5nc(c(-c6c(F)cc(S(=O)(=O)[O-])cc6F)c6ccc3[nH]6)C=C5)C=C4)cc2)c1
REMARK SMILES IDX 31 1 30 2 29 3 28 4 27 5 26 6 25 7 23 8 24 9 12 10 11 11
REMARK SMILES IDX 8 12 9 13 10 15 7 17 6 18 1 19 2 20 3 21 106 22 4 23 5 24
REMARK SMILES IDX 13 25 14 26 15 27 22 28 16 29 20 30 21 31 17 32 19 33 18 34
REMARK SMILES IDX 32 35 33 36 34 37 35 38 36 39 37 40 38 41 39 42 40 43 41 44
REMARK SMILES IDX 105 45 42 46 104 47 43 48 44 49 45 50 98 51 46 52 103 53
REMARK SMILES IDX 97 54 99 55 47 56 102 57 96 58 95 59 48 61 82 62 61 63 81 64
REMARK SMILES IDX 62 65 65 66 80 67 100 68 63 69 64 70 79 72 101 73 66 74
REMARK SMILES IDX 49 75 50 76 59 77 51 78 52 79 58 80 60 81 53 82 54 83 55 84
REMARK SMILES IDX 56 85 57 86 83 87 84 88 93 89 85 90 86 91 92 92 94 93 87 94
REMARK SMILES IDX 88 95 89 96 90 97 91 98 67 99 68 100 77 101 69 102 70 103
REMARK SMILES IDX 76 104 78 105 71 106 72 107 73 108 74 109 75 110
REMARK H PARENT 8 14 11 16 99 60 65 71
REMARK Flexibility Score: inf
ROOT
ATOM      1  O   UNL A   1      33.968  29.977  26.748  1.00  0.00    -0.377 OA
ENDROOT
BRANCH   1   2
ATOM      2  C   UNL A   1      33.240  28.780  27.048  1.00  0.00     0.188 C 
BRANCH   2   3
ATOM      3  C   UNL A   1      31.835  28.513  26.425  1.00  0.00     0.188 C 
BRANCH   3   4
ATOM      4  O   UNL A   1      31.652  27.271  25.732  1.00  0.00    -0.376 OA
BRANCH   4   5
ATOM      5  C   UNL A   1      31.343  26.141  26.561  1.00  0.00     0.202 C 
BRANCH   5   6
ATOM      6  C   UNL A   1      32.191  24.881  26.702  1.00  0.00     0.261 C 
BRANCH   6   7
ATOM      7  O   UNL A   1      33.497  25.087  26.219  1.00  0.00    -0.462 OA
BRANCH   7   8
ATOM      8  C   UNL A   1      34.356  24.070  26.288  1.00  0.00     0.329 C 
ATOM      9  O   UNL A   1      34.309  23.232  27.171  1.00  0.00    -0.250 OA
BRANCH   8  10
ATOM     10  C   UNL A   1      35.323  24.087  25.066  1.00  0.00     0.198 C 
BRANCH  10  11
ATOM     11  N   UNL A   1      36.564  23.299  24.956  1.00  0.00    -0.324 N 
ATOM     12  N   UNL A   1      36.269  21.006  25.465  1.00  0.00    -0.334 N 
ATOM     13  C   UNL A   1      37.018  22.098  25.304  1.00  0.00     0.315 C 
ATOM     14  H   UNL A   1      36.794  20.174  25.429  1.00  0.00     0.165 HD
ATOM     15  O   UNL A   1      38.243  21.968  25.369  1.00  0.00    -0.249 OA
ATOM     16  H   UNL A   1      37.262  23.812  24.487  1.00  0.00     0.166 HD
BRANCH  12  17
ATOM     17  C   UNL A   1      34.861  20.768  25.679  1.00  0.00     0.153 C 
BRANCH  17  18
ATOM     18  C   UNL A   1      34.072  19.988  24.640  1.00  0.00    -0.028 A 
ATOM     19  C   UNL A   1      34.104  16.373  23.416  1.00  0.00     0.044 C 
ATOM     20  C   UNL A   1      33.647  17.776  23.659  1.00  0.00    -0.051 A 
ATOM     21  C   UNL A   1      32.468  18.240  23.078  1.00  0.00     0.003 A 
ATOM     22  C   UNL A   1      34.412  18.640  24.458  1.00  0.00     0.009 A 
ATOM     23  C   UNL A   1      32.142  19.582  23.190  1.00  0.00     0.001 A 
ATOM     24  C   UNL A   1      32.986  20.452  23.898  1.00  0.00     0.005 A 
ENDBRANCH  17  18
ENDBRANCH  12  17
ENDBRANCH  10  11
BRANCH  10  25
ATOM     25  C   UNL A   1      34.529  23.802  23.771  1.00  0.00     0.070 C 
BRANCH  25  26
ATOM     26  C   UNL A   1      33.502  24.788  23.200  1.00  0.00    -0.037 C 
ATOM     27  C   UNL A   1      33.351  26.084  22.757  1.00  0.00     0.001 A 
ATOM     28  C   UNL A   1      32.137  24.100  23.381  1.00  0.00     0.174 C 
ATOM     29  C   UNL A   1      34.012  27.788  23.292  1.00  0.00     0.010 A 
ATOM     30  C   UNL A   1      31.452  26.032  22.424  1.00  0.00     0.065 A 
ATOM     31  N   UNL A   1      31.029  24.912  22.913  1.00  0.00    -0.280 NA
ATOM     32  C   UNL A   1      33.108  29.215  23.173  1.00  0.00     0.001 A 
ATOM     33  C   UNL A   1      30.494  27.749  22.171  1.00  0.00     0.028 A 
ATOM     34  C   UNL A   1      31.237  29.166  22.533  1.00  0.00     0.002 A 
ENDBRANCH  25  26
ENDBRANCH  10  25
ENDBRANCH   8  10
ENDBRANCH   7   8
ENDBRANCH   6   7
ENDBRANCH   5   6
ENDBRANCH   4   5
ENDBRANCH   3   4
ENDBRANCH   2   3
ENDBRANCH   1   2
BRANCH   1  35
ATOM     35  C   UNL A   1      34.918  30.343  27.722  1.00  0.00     0.188 C 
BRANCH  35  36
ATOM     36  C   UNL A   1      35.094  31.779  28.047  1.00  0.00     0.188 C 
BRANCH  36  37
ATOM     37  O   UNL A   1      33.786  32.241  28.353  1.00  0.00    -0.376 OA
BRANCH  37  38
ATOM     38  C   UNL A   1      33.427  33.547  28.008  1.00  0.00     0.202 C 
BRANCH  38  39
ATOM     39  C   UNL A   1      34.219  34.573  28.760  1.00  0.00     0.261 C 
BRANCH  39  40
ATOM     40  O   UNL A   1      33.986  34.649  30.201  1.00  0.00    -0.460 OA
BRANCH  40  41
ATOM     41  C   UNL A   1      34.346  33.990  31.334  1.00  0.00     0.338 C 
ATOM     42  O   UNL A   1      33.546  33.993  32.271  1.00  0.00    -0.246 OA
BRANCH  41  43
ATOM     43  C   UNL A   1      35.613  33.222  31.540  1.00  0.00     0.060 A 
ATOM     44  C   UNL A   1      35.605  32.089  32.338  1.00  0.00     0.016 A 
ATOM     45  C   UNL A   1      36.830  33.513  30.964  1.00  0.00     0.016 A 
ATOM     46  C   UNL A   1      36.816  31.498  32.789  1.00  0.00     0.010 A 
ATOM     47  C   UNL A   1      38.037  33.017  31.552  1.00  0.00     0.010 A 
ATOM     48  C   UNL A   1      38.115  32.070  32.599  1.00  0.00    -0.014 A 
BRANCH  48  49
ATOM     49  C   UNL A   1      39.709  31.731  33.535  1.00  0.00     0.031 A 
ATOM     50  C   UNL A   1      39.079  32.675  34.925  1.00  0.00     0.074 A 
ATOM     51  C   UNL A   1      41.417  31.257  32.990  1.00  0.00     0.049 A 
ATOM     52  N   UNL A   1      39.592  32.716  36.104  1.00  0.00    -0.248 NA
ATOM     53  C   UNL A   1      37.847  33.532  34.939  1.00  0.00     0.031 C 
ATOM     54  C   UNL A   1      42.666  30.138  33.356  1.00  0.00     0.029 A 
ATOM     55  N   UNL A   1      42.217  31.397  31.730  1.00  0.00    -0.354 N 
ATOM     56  C   UNL A   1      38.771  33.380  37.002  1.00  0.00     0.074 A 
ATOM     57  C   UNL A   1      37.638  33.799  36.238  1.00  0.00     0.031 C 
ATOM     58  C   UNL A   1      43.875  30.496  32.922  1.00  0.00     0.029 A 
ATOM     59  C   UNL A   1      43.586  31.473  31.958  1.00  0.00     0.049 A 
ATOM     60  H   UNL A   1      41.814  31.431  30.832  1.00  0.00     0.167 HD
ATOM     61  C   UNL A   1      39.178  33.376  38.304  1.00  0.00     0.037 A 
ATOM     62  C   UNL A   1      44.244  32.560  31.539  1.00  0.00     0.037 A 
ATOM     63  C   UNL A   1      40.645  33.213  38.297  1.00  0.00     0.049 A 
ATOM     64  C   UNL A   1      44.371  33.402  32.917  1.00  0.00     0.074 A 
ATOM     65  C   UNL A   1      41.508  32.222  38.710  1.00  0.00     0.029 A 
ATOM     66  N   UNL A   1      41.411  34.070  37.480  1.00  0.00    -0.354 N 
ATOM     67  N   UNL A   1      43.749  33.211  34.082  1.00  0.00    -0.248 NA
ATOM     68  C   UNL A   1      45.442  34.374  33.118  1.00  0.00     0.031 C 
ATOM     69  C   UNL A   1      42.791  32.502  38.129  1.00  0.00     0.029 A 
ATOM     70  C   UNL A   1      42.683  33.564  37.212  1.00  0.00     0.049 A 
ATOM     71  H   UNL A   1      41.083  34.931  37.135  1.00  0.00     0.167 HD
ATOM     72  C   UNL A   1      44.172  34.077  35.106  1.00  0.00     0.074 A 
ATOM     73  C   UNL A   1      45.326  34.685  34.428  1.00  0.00     0.031 C 
ATOM     74  C   UNL A   1      43.662  34.355  36.400  1.00  0.00     0.037 A 
BRANCH  61  75
ATOM     75  C   UNL A   1      38.296  33.306  39.568  1.00  0.00     0.058 A 
ATOM     76  C   UNL A   1      37.337  32.269  39.690  1.00  0.00     0.135 A 
ATOM     77  C   UNL A   1      38.212  34.268  40.607  1.00  0.00     0.135 A 
ATOM     78  F   UNL A   1      37.279  31.269  38.802  1.00  0.00    -0.206 F 
ATOM     79  C   UNL A   1      36.372  32.201  40.707  1.00  0.00     0.059 A 
ATOM     80  C   UNL A   1      37.266  34.203  41.662  1.00  0.00     0.059 A 
ATOM     81  F   UNL A   1      39.026  35.333  40.636  1.00  0.00    -0.206 F 
ATOM     82  C   UNL A   1      36.337  33.169  41.695  1.00  0.00     0.060 A 
BRANCH  82  83
ATOM     83  S   UNL A   1      35.089  33.016  43.001  1.00  0.00     0.124 S 
ATOM     84  O   UNL A   1      34.613  34.390  43.140  1.00  0.00    -0.237 OA
ATOM     85  O   UNL A   1      34.136  32.078  42.415  1.00  0.00    -0.237 OA
ATOM     86  O   UNL A   1      35.842  32.501  44.141  1.00  0.00    -0.744 OA
ENDBRANCH  82  83
ENDBRANCH  61  75
BRANCH  62  87
ATOM     87  C   UNL A   1      43.610  32.656  30.055  1.00  0.00     0.058 A 
ATOM     88  C   UNL A   1      43.216  34.011  29.652  1.00  0.00     0.135 A 
ATOM     89  C   UNL A   1      43.967  31.858  28.958  1.00  0.00     0.135 A 
ATOM     90  F   UNL A   1      42.865  34.901  30.601  1.00  0.00    -0.206 F 
ATOM     91  C   UNL A   1      43.491  34.577  28.379  1.00  0.00     0.059 A 
ATOM     92  C   UNL A   1      44.179  32.402  27.644  1.00  0.00     0.059 A 
ATOM     93  F   UNL A   1      44.301  30.575  29.154  1.00  0.00    -0.206 F 
ATOM     94  C   UNL A   1      44.024  33.772  27.384  1.00  0.00     0.060 A 
BRANCH  94  95
ATOM     95  S   UNL A   1      44.765  34.562  25.892  1.00  0.00     0.124 S 
ATOM     96  O   UNL A   1      43.628  34.668  24.990  1.00  0.00    -0.237 OA
ATOM     97  O   UNL A   1      45.277  35.829  26.415  1.00  0.00    -0.237 OA
ATOM     98  O   UNL A   1      45.802  33.615  25.501  1.00  0.00    -0.744 OA
ENDBRANCH  94  95
ENDBRANCH  62  87
BRANCH  74  99
ATOM     99  C   UNL A   1      44.056  35.610  37.188  1.00  0.00     0.058 A 
ATOM    100  C   UNL A   1      45.097  35.624  38.116  1.00  0.00     0.135 A 
ATOM    101  C   UNL A   1      43.523  36.898  36.863  1.00  0.00     0.135 A 
ATOM    102  F   UNL A   1      45.866  34.549  38.335  1.00  0.00    -0.206 F 
ATOM    103  C   UNL A   1      45.428  36.768  38.830  1.00  0.00     0.059 A 
ATOM    104  C   UNL A   1      43.948  38.071  37.453  1.00  0.00     0.059 A 
ATOM    105  F   UNL A   1      42.571  37.095  35.941  1.00  0.00    -0.206 F 
ATOM    106  C   UNL A   1      44.833  37.980  38.504  1.00  0.00     0.060 A 
BRANCH 106 107
ATOM    107  S   UNL A   1      45.173  39.437  39.480  1.00  0.00     0.124 S 
ATOM    108  O   UNL A   1      45.371  38.844  40.799  1.00  0.00    -0.237 OA
ATOM    109  O   UNL A   1      46.370  39.975  38.841  1.00  0.00    -0.237 OA
ATOM    110  O   UNL A   1      43.966  40.241  39.318  1.00  0.00    -0.744 OA
ENDBRANCH 106 107
ENDBRANCH  74  99
ENDBRANCH  48  49
ENDBRANCH  41  43
ENDBRANCH  40  41
ENDBRANCH  39  40
ENDBRANCH  38  39
ENDBRANCH  37  38
ENDBRANCH  36  37
ENDBRANCH  35  36
ENDBRANCH   1  35
TORSDOF 28
ENDMDL
MODEL 2
REMARK VINA RESULT:      -9.7      5.560      9.398
REMARK SMILES Cc1cccc(CNC(=O)N[C@@H](CC2=c3ccccc3=NC2)C(=O)OCCOCCOCCOCCOC(=O)c2ccc(-c3c4nc(c(-c5c(F)cc(S(=O)(=O)[O-])cc5F)c5ccc([nH]5)c(-c5c(F)cc(S(=O)(=O)[O-])cc5F)c5nc(c(-c6c(F)cc(S(=O)(=O)[O-])cc6F)c6ccc3[nH]6)C=C5)C=C4)cc2)c1
REMARK SMILES IDX 31 1 30 2 29 3 28 4 27 5 26 6 25 7 23 8 24 9 12 10 11 11
REMARK SMILES IDX 8 12 9 13 10 15 7 17 6 18 1 19 2 20 3 21 106 22 4 23 5 24
REMARK SMILES IDX 13 25 14 26 15 27 22 28 16 29 20 30 21 31 17 32 19 33 18 34
REMARK SMILES IDX 32 35 33 36 34 37 35 38 36 39 37 40 38 41 39 42 40 43 41 44
REMARK SMILES IDX 105 45 42 46 104 47 43 48 44 49 45 50 98 51 46 52 103 53
REMARK SMILES IDX 97 54 99 55 47 56 102 57 96 58 95 59 48 61 82 62 61 63 81 64
REMARK SMILES IDX 62 65 65 66 80 67 100 68 63 69 64 70 79 72 101 73 66 74
REMARK SMILES IDX 49 75 50 76 59 77 51 78 52 79 58 80 60 81 53 82 54 83 55 84
REMARK SMILES IDX 56 85 57 86 83 87 84 88 93 89 85 90 86 91 92 92 94 93 87 94
REMARK SMILES IDX 88 95 89 96 90 97 91 98 67 99 68 100 77 101 69 102 70 103
REMARK SMILES IDX 76 104 78 105 71 106 72 107 73 108 74 109 75 110
REMARK H PARENT 8 14 11 16 99 60 65 71
REMARK Flexibility Score: inf
ROOT
ATOM      1  O   UNL A   1      43.113  20.822  25.649  1.00  0.00    -0.377 OA
ENDROOT
BRANCH   1   2
ATOM      2  C   UNL A   1      41.817  21.345  25.967  1.00  0.00     0.188 C 
BRANCH   2   3
ATOM      3  C   UNL A   1      41.306  21.393  27.439  1.00  0.00     0.188 C 
BRANCH   3   4
ATOM      4  O   UNL A   1      40.251  22.317  27.736  1.00  0.00    -0.376 OA
BRANCH   4   5
ATOM      5  C   UNL A   1      39.446  22.716  26.616  1.00  0.00     0.202 C 
BRANCH   5   6
ATOM      6  C   UNL A   1      38.696  21.775  25.678  1.00  0.00     0.261 C 
BRANCH   6   7
ATOM      7  O   UNL A   1      37.307  21.996  25.736  1.00  0.00    -0.462 OA
BRANCH   7   8
ATOM      8  C   UNL A   1      36.505  21.069  25.211  1.00  0.00     0.329 C 
ATOM      9  O   UNL A   1      36.872  19.925  25.009  1.00  0.00    -0.250 OA
BRANCH   8  10
ATOM     10  C   UNL A   1      35.074  21.645  24.990  1.00  0.00     0.198 C 
BRANCH  10  11
ATOM     11  N   UNL A   1      33.903  20.863  24.557  1.00  0.00    -0.324 N 
ATOM     12  N   UNL A   1      32.678  21.894  22.812  1.00  0.00    -0.334 N 
ATOM     13  C   UNL A   1      32.807  21.032  23.822  1.00  0.00     0.315 C 
ATOM     14  H   UNL A   1      31.928  21.675  22.215  1.00  0.00     0.165 HD
ATOM     15  O   UNL A   1      31.879  20.243  24.023  1.00  0.00    -0.249 OA
ATOM     16  H   UNL A   1      33.942  19.947  24.916  1.00  0.00     0.166 HD
BRANCH  12  17
ATOM     17  C   UNL A   1      33.394  23.078  22.397  1.00  0.00     0.153 C 
BRANCH  17  18
ATOM     18  C   UNL A   1      32.756  24.443  22.600  1.00  0.00    -0.028 A 
ATOM     19  C   UNL A   1      33.963  28.044  22.228  1.00  0.00     0.044 C 
ATOM     20  C   UNL A   1      33.046  26.871  22.367  1.00  0.00    -0.051 A 
ATOM     21  C   UNL A   1      31.672  27.066  22.503  1.00  0.00     0.003 A 
ATOM     22  C   UNL A   1      33.565  25.566  22.381  1.00  0.00     0.009 A 
ATOM     23  C   UNL A   1      30.859  25.980  22.782  1.00  0.00     0.001 A 
ATOM     24  C   UNL A   1      31.420  24.699  22.907  1.00  0.00     0.005 A 
ENDBRANCH  17  18
ENDBRANCH  12  17
ENDBRANCH  10  11
BRANCH  10  25
ATOM     25  C   UNL A   1      34.623  22.412  26.254  1.00  0.00     0.070 C 
BRANCH  25  26
ATOM     26  C   UNL A   1      33.568  23.525  26.211  1.00  0.00    -0.037 C 
ATOM     27  C   UNL A   1      33.355  24.821  25.794  1.00  0.00     0.001 A 
ATOM     28  C   UNL A   1      32.437  23.046  27.138  1.00  0.00     0.174 C 
ATOM     29  C   UNL A   1      34.386  26.421  25.747  1.00  0.00     0.010 A 
ATOM     30  C   UNL A   1      31.574  25.038  26.503  1.00  0.00     0.065 A 
ATOM     31  N   UNL A   1      31.349  24.001  27.241  1.00  0.00    -0.280 NA
ATOM     32  C   UNL A   1      33.724  27.962  25.984  1.00  0.00     0.001 A 
ATOM     33  C   UNL A   1      30.829  26.871  26.628  1.00  0.00     0.028 A 
ATOM     34  C   UNL A   1      31.806  28.172  26.417  1.00  0.00     0.002 A 
ENDBRANCH  25  26
ENDBRANCH  10  25
ENDBRANCH   8  10
ENDBRANCH   7   8
ENDBRANCH   6   7
ENDBRANCH   5   6
ENDBRANCH   4   5
ENDBRANCH   3   4
ENDBRANCH   2   3
ENDBRANCH   1   2
BRANCH   1  35
ATOM     35  C   UNL A   1      44.126  21.795  25.539  1.00  0.00     0.188 C 
BRANCH  35  36
ATOM     36  C   UNL A   1      43.894  23.140  26.119  1.00  0.00     0.188 C 
BRANCH  36  37
ATOM     37  O   UNL A   1      43.391  23.914  25.039  1.00  0.00    -0.376 OA
BRANCH  37  38
ATOM     38  C   UNL A   1      42.499  24.956  25.307  1.00  0.00     0.202 C 
BRANCH  38  39
ATOM     39  C   UNL A   1      43.202  26.245  25.606  1.00  0.00     0.261 C 
BRANCH  39  40
ATOM     40  O   UNL A   1      44.520  26.426  25.000  1.00  0.00    -0.460 OA
BRANCH  40  41
ATOM     41  C   UNL A   1      45.830  26.359  25.356  1.00  0.00     0.338 C 
ATOM     42  O   UNL A   1      46.486  25.405  24.933  1.00  0.00    -0.246 OA
BRANCH  41  43
ATOM     43  C   UNL A   1      46.568  27.362  26.185  1.00  0.00     0.060 A 
ATOM     44  C   UNL A   1      46.669  27.176  27.554  1.00  0.00     0.016 A 
ATOM     45  C   UNL A   1      47.218  28.478  25.705  1.00  0.00     0.016 A 
ATOM     46  C   UNL A   1      47.104  28.226  28.409  1.00  0.00     0.010 A 
ATOM     47  C   UNL A   1      47.494  29.577  26.579  1.00  0.00     0.010 A 
ATOM     48  C   UNL A   1      47.332  29.574  27.984  1.00  0.00    -0.014 A 
BRANCH  48  49
ATOM     49  C   UNL A   1      47.392  31.148  29.009  1.00  0.00     0.031 A 
ATOM     50  C   UNL A   1      45.607  31.282  28.882  1.00  0.00     0.074 A 
ATOM     51  C   UNL A   1      48.737  32.373  29.363  1.00  0.00     0.049 A 
ATOM     52  N   UNL A   1      44.861  32.080  29.561  1.00  0.00    -0.248 NA
ATOM     53  C   UNL A   1      44.709  30.471  27.994  1.00  0.00     0.031 C 
ATOM     54  C   UNL A   1      49.456  33.214  30.676  1.00  0.00     0.029 A 
ATOM     55  N   UNL A   1      50.008  32.796  28.688  1.00  0.00    -0.354 N 
ATOM     56  C   UNL A   1      43.513  31.814  29.372  1.00  0.00     0.074 A 
ATOM     57  C   UNL A   1      43.470  30.729  28.443  1.00  0.00     0.031 C 
ATOM     58  C   UNL A   1      50.139  34.306  30.327  1.00  0.00     0.029 A 
ATOM     59  C   UNL A   1      50.353  34.115  28.953  1.00  0.00     0.049 A 
ATOM     60  H   UNL A   1      50.542  32.199  28.115  1.00  0.00     0.167 HD
ATOM     61  C   UNL A   1      42.645  32.534  30.139  1.00  0.00     0.037 A 
ATOM     62  C   UNL A   1      50.475  34.963  27.925  1.00  0.00     0.037 A 
ATOM     63  C   UNL A   1      43.325  33.797  30.491  1.00  0.00     0.049 A 
ATOM     64  C   UNL A   1      49.055  35.741  27.991  1.00  0.00     0.074 A 
ATOM     65  C   UNL A   1      43.792  34.348  31.664  1.00  0.00     0.029 A 
ATOM     66  N   UNL A   1      43.910  34.554  29.455  1.00  0.00    -0.354 N 
ATOM     67  N   UNL A   1      47.958  35.435  28.684  1.00  0.00    -0.248 NA
ATOM     68  C   UNL A   1      48.903  37.091  27.455  1.00  0.00     0.031 C 
ATOM     69  C   UNL A   1      44.656  35.438  31.312  1.00  0.00     0.029 A 
ATOM     70  C   UNL A   1      44.870  35.453  29.921  1.00  0.00     0.049 A 
ATOM     71  H   UNL A   1      43.667  34.459  28.506  1.00  0.00     0.167 HD
ATOM     72  C   UNL A   1      46.931  36.391  28.583  1.00  0.00     0.074 A 
ATOM     73  C   UNL A   1      47.675  37.451  27.886  1.00  0.00     0.031 C 
ATOM     74  C   UNL A   1      45.567  36.381  28.974  1.00  0.00     0.037 A 
BRANCH  61  75
ATOM     75  C   UNL A   1      41.308  32.064  30.746  1.00  0.00     0.058 A 
ATOM     76  C   UNL A   1      40.138  32.837  30.535  1.00  0.00     0.135 A 
ATOM     77  C   UNL A   1      41.109  30.990  31.651  1.00  0.00     0.135 A 
ATOM     78  F   UNL A   1      40.140  33.885  29.702  1.00  0.00    -0.206 F 
ATOM     79  C   UNL A   1      38.910  32.603  31.172  1.00  0.00     0.059 A 
ATOM     80  C   UNL A   1      39.869  30.714  32.282  1.00  0.00     0.059 A 
ATOM     81  F   UNL A   1      42.115  30.170  31.988  1.00  0.00    -0.206 F 
ATOM     82  C   UNL A   1      38.775  31.539  32.046  1.00  0.00     0.060 A 
BRANCH  82  83
ATOM     83  S   UNL A   1      37.157  31.263  32.819  1.00  0.00     0.124 S 
ATOM     84  O   UNL A   1      36.600  30.191  31.999  1.00  0.00    -0.237 OA
ATOM     85  O   UNL A   1      37.521  30.887  34.181  1.00  0.00    -0.237 OA
ATOM     86  O   UNL A   1      36.489  32.555  32.691  1.00  0.00    -0.744 OA
ENDBRANCH  82  83
ENDBRANCH  61  75
BRANCH  62  87
ATOM     87  C   UNL A   1      51.354  34.020  26.950  1.00  0.00     0.058 A 
ATOM     88  C   UNL A   1      50.825  33.902  25.587  1.00  0.00     0.135 A 
ATOM     89  C   UNL A   1      52.747  33.866  26.996  1.00  0.00     0.135 A 
ATOM     90  F   UNL A   1      49.501  34.047  25.381  1.00  0.00    -0.206 F 
ATOM     91  C   UNL A   1      51.621  33.981  24.413  1.00  0.00     0.059 A 
ATOM     92  C   UNL A   1      53.564  33.871  25.812  1.00  0.00     0.059 A 
ATOM     93  F   UNL A   1      53.378  33.894  28.178  1.00  0.00    -0.206 F 
ATOM     94  C   UNL A   1      53.002  34.016  24.535  1.00  0.00     0.060 A 
BRANCH  94  95
ATOM     95  S   UNL A   1      54.017  34.532  23.085  1.00  0.00     0.124 S 
ATOM     96  O   UNL A   1      55.270  33.824  23.306  1.00  0.00    -0.237 OA
ATOM     97  O   UNL A   1      53.222  34.069  21.949  1.00  0.00    -0.237 OA
ATOM     98  O   UNL A   1      54.073  35.982  23.225  1.00  0.00    -0.744 OA
ENDBRANCH  94  95
ENDBRANCH  62  87
BRANCH  74  99
ATOM     99  C   UNL A   1      44.545  37.378  28.419  1.00  0.00     0.058 A 
ATOM    100  C   UNL A   1      43.900  37.198  27.195  1.00  0.00     0.135 A 
ATOM    101  C   UNL A   1      44.025  38.446  29.219  1.00  0.00     0.135 A 
ATOM    102  F   UNL A   1      44.091  36.101  26.450  1.00  0.00    -0.206 F 
ATOM    103  C   UNL A   1      42.988  38.121  26.702  1.00  0.00     0.059 A 
ATOM    104  C   UNL A   1      43.007  39.283  28.808  1.00  0.00     0.059 A 
ATOM    105  F   UNL A   1      44.462  38.727  30.454  1.00  0.00    -0.206 F 
ATOM    106  C   UNL A   1      42.565  39.169  27.509  1.00  0.00     0.060 A 
BRANCH 106 107
ATOM    107  S   UNL A   1      41.470  40.419  26.854  1.00  0.00     0.124 S 
ATOM    108  O   UNL A   1      40.874  40.935  28.083  1.00  0.00    -0.237 OA
ATOM    109  O   UNL A   1      42.391  41.322  26.170  1.00  0.00    -0.237 OA
ATOM    110  O   UNL A   1      40.577  39.663  25.983  1.00  0.00    -0.744 OA
ENDBRANCH 106 107
ENDBRANCH  74  99
ENDBRANCH  48  49
ENDBRANCH  41  43
ENDBRANCH  40  41
ENDBRANCH  39  40
ENDBRANCH  38  39
ENDBRANCH  37  38
ENDBRANCH  36  37
ENDBRANCH  35  36
ENDBRANCH   1  35
TORSDOF 28
ENDMDL
MODEL 3
REMARK VINA RESULT:      -9.4      1.615      3.711
REMARK SMILES Cc1cccc(CNC(=O)N[C@@H](CC2=c3ccccc3=NC2)C(=O)OCCOCCOCCOCCOC(=O)c2ccc(-c3c4nc(c(-c5c(F)cc(S(=O)(=O)[O-])cc5F)c5ccc([nH]5)c(-c5c(F)cc(S(=O)(=O)[O-])cc5F)c5nc(c(-c6c(F)cc(S(=O)(=O)[O-])cc6F)c6ccc3[nH]6)C=C5)C=C4)cc2)c1
REMARK SMILES IDX 31 1 30 2 29 3 28 4 27 5 26 6 25 7 23 8 24 9 12 10 11 11
REMARK SMILES IDX 8 12 9 13 10 15 7 17 6 18 1 19 2 20 3 21 106 22 4 23 5 24
REMARK SMILES IDX 13 25 14 26 15 27 22 28 16 29 20 30 21 31 17 32 19 33 18 34
REMARK SMILES IDX 32 35 33 36 34 37 35 38 36 39 37 40 38 41 39 42 40 43 41 44
REMARK SMILES IDX 105 45 42 46 104 47 43 48 44 49 45 50 98 51 46 52 103 53
REMARK SMILES IDX 97 54 99 55 47 56 102 57 96 58 95 59 48 61 82 62 61 63 81 64
REMARK SMILES IDX 62 65 65 66 80 67 100 68 63 69 64 70 79 72 101 73 66 74
REMARK SMILES IDX 49 75 50 76 59 77 51 78 52 79 58 80 60 81 53 82 54 83 55 84
REMARK SMILES IDX 56 85 57 86 83 87 84 88 93 89 85 90 86 91 92 92 94 93 87 94
REMARK SMILES IDX 88 95 89 96 90 97 91 98 67 99 68 100 77 101 69 102 70 103
REMARK SMILES IDX 76 104 78 105 71 106 72 107 73 108 74 109 75 110
REMARK H PARENT 8 14 11 16 99 60 65 71
REMARK Flexibility Score: inf
ROOT
ATOM      1  O   UNL A   1      33.565  29.215  26.154  1.00  0.00    -0.377 OA
ENDROOT
BRANCH   1   2
ATOM      2  C   UNL A   1      32.909  28.571  25.056  1.00  0.00     0.188 C 
BRANCH   2   3
ATOM      3  C   UNL A   1      33.107  29.072  23.592  1.00  0.00     0.188 C 
BRANCH   3   4
ATOM      4  O   UNL A   1      33.724  28.166  22.668  1.00  0.00    -0.376 OA
BRANCH   4   5
ATOM      5  C   UNL A   1      33.010  26.944  22.432  1.00  0.00     0.202 C 
BRANCH   5   6
ATOM      6  C   UNL A   1      33.638  25.597  22.086  1.00  0.00     0.261 C 
BRANCH   6   7
ATOM      7  O   UNL A   1      34.521  25.170  23.095  1.00  0.00    -0.462 OA
BRANCH   7   8
ATOM      8  C   UNL A   1      34.403  23.918  23.539  1.00  0.00     0.329 C 
ATOM      9  O   UNL A   1      34.251  22.970  22.790  1.00  0.00    -0.250 OA
BRANCH   8  10
ATOM     10  C   UNL A   1      34.567  23.869  25.088  1.00  0.00     0.198 C 
BRANCH  10  11
ATOM     11  N   UNL A   1      34.383  22.668  25.923  1.00  0.00    -0.324 N 
ATOM     12  N   UNL A   1      32.490  22.792  27.341  1.00  0.00    -0.334 N 
ATOM     13  C   UNL A   1      33.673  22.290  26.982  1.00  0.00     0.315 C 
ATOM     14  H   UNL A   1      31.994  22.203  27.954  1.00  0.00     0.165 HD
ATOM     15  O   UNL A   1      34.096  21.315  27.611  1.00  0.00    -0.249 OA
ATOM     16  H   UNL A   1      34.951  21.931  25.603  1.00  0.00     0.166 HD
BRANCH  12  17
ATOM     17  C   UNL A   1      31.773  24.007  27.031  1.00  0.00     0.153 C 
BRANCH  17  18
ATOM     18  C   UNL A   1      31.092  24.144  25.679  1.00  0.00    -0.028 A 
ATOM     19  C   UNL A   1      29.322  26.989  23.851  1.00  0.00     0.044 C 
ATOM     20  C   UNL A   1      30.015  25.687  24.099  1.00  0.00    -0.051 A 
ATOM     21  C   UNL A   1      30.151  24.757  23.070  1.00  0.00     0.003 A 
ATOM     22  C   UNL A   1      30.516  25.386  25.376  1.00  0.00     0.009 A 
ATOM     23  C   UNL A   1      30.659  23.501  23.357  1.00  0.00     0.001 A 
ATOM     24  C   UNL A   1      31.046  23.184  24.669  1.00  0.00     0.005 A 
ENDBRANCH  17  18
ENDBRANCH  12  17
ENDBRANCH  10  11
BRANCH  10  25
ATOM     25  C   UNL A   1      35.945  24.448  25.482  1.00  0.00     0.070 C 
BRANCH  25  26
ATOM     26  C   UNL A   1      37.207  23.582  25.578  1.00  0.00    -0.037 C 
ATOM     27  C   UNL A   1      37.763  22.399  25.142  1.00  0.00     0.001 A 
ATOM     28  C   UNL A   1      38.035  24.199  26.719  1.00  0.00     0.174 C 
ATOM     29  C   UNL A   1      37.126  20.632  24.826  1.00  0.00     0.010 A 
ATOM     30  C   UNL A   1      39.404  22.488  26.153  1.00  0.00     0.065 A 
ATOM     31  N   UNL A   1      39.272  23.480  26.972  1.00  0.00    -0.280 NA
ATOM     32  C   UNL A   1      38.057  19.244  25.103  1.00  0.00     0.001 A 
ATOM     33  C   UNL A   1      40.496  20.842  26.320  1.00  0.00     0.028 A 
ATOM     34  C   UNL A   1      39.874  19.393  25.869  1.00  0.00     0.002 A 
ENDBRANCH  25  26
ENDBRANCH  10  25
ENDBRANCH   8  10
ENDBRANCH   7   8
ENDBRANCH   6   7
ENDBRANCH   5   6
ENDBRANCH   4   5
ENDBRANCH   3   4
ENDBRANCH   2   3
ENDBRANCH   1   2
BRANCH   1  35
ATOM     35  C   UNL A   1      32.693  29.783  27.105  1.00  0.00     0.188 C 
BRANCH  35  36
ATOM     36  C   UNL A   1      32.300  31.205  26.958  1.00  0.00     0.188 C 
BRANCH  36  37
ATOM     37  O   UNL A   1      33.431  31.938  27.407  1.00  0.00    -0.376 OA
BRANCH  37  38
ATOM     38  C   UNL A   1      33.251  33.233  27.901  1.00  0.00     0.202 C 
BRANCH  38  39
ATOM     39  C   UNL A   1      34.312  33.618  28.888  1.00  0.00     0.261 C 
BRANCH  39  40
ATOM     40  O   UNL A   1      33.938  33.567  30.300  1.00  0.00    -0.460 OA
BRANCH  40  41
ATOM     41  C   UNL A   1      34.448  33.123  31.479  1.00  0.00     0.338 C 
ATOM     42  O   UNL A   1      33.715  33.173  32.469  1.00  0.00    -0.246 OA
BRANCH  41  43
ATOM     43  C   UNL A   1      35.809  32.538  31.685  1.00  0.00     0.060 A 
ATOM     44  C   UNL A   1      35.943  31.341  32.368  1.00  0.00     0.016 A 
ATOM     45  C   UNL A   1      36.990  33.068  31.212  1.00  0.00     0.016 A 
ATOM     46  C   UNL A   1      37.212  30.896  32.832  1.00  0.00     0.010 A 
ATOM     47  C   UNL A   1      38.232  32.702  31.820  1.00  0.00     0.010 A 
ATOM     48  C   UNL A   1      38.412  31.674  32.775  1.00  0.00    -0.014 A 
BRANCH  48  49
ATOM     49  C   UNL A   1      39.997  31.485  33.766  1.00  0.00     0.031 A 
ATOM     50  C   UNL A   1      39.274  32.463  35.085  1.00  0.00     0.074 A 
ATOM     51  C   UNL A   1      41.744  31.088  33.289  1.00  0.00     0.049 A 
ATOM     52  N   UNL A   1      39.751  32.600  36.272  1.00  0.00    -0.248 NA
ATOM     53  C   UNL A   1      37.993  33.243  35.021  1.00  0.00     0.031 C 
ATOM     54  C   UNL A   1      43.048  30.068  33.748  1.00  0.00     0.029 A 
ATOM     55  N   UNL A   1      42.569  31.207  32.043  1.00  0.00    -0.354 N 
ATOM     56  C   UNL A   1      38.868  33.261  37.111  1.00  0.00     0.074 A 
ATOM     57  C   UNL A   1      37.733  33.567  36.298  1.00  0.00     0.031 C 
ATOM     58  C   UNL A   1      44.245  30.476  33.324  1.00  0.00     0.029 A 
ATOM     59  C   UNL A   1      43.924  31.379  32.299  1.00  0.00     0.049 A 
ATOM     60  H   UNL A   1      42.190  31.167  31.135  1.00  0.00     0.167 HD
ATOM     61  C   UNL A   1      39.238  33.353  38.420  1.00  0.00     0.037 A 
ATOM     62  C   UNL A   1      44.527  32.480  31.836  1.00  0.00     0.037 A 
ATOM     63  C   UNL A   1      40.713  33.280  38.458  1.00  0.00     0.049 A 
ATOM     64  C   UNL A   1      44.566  33.402  33.167  1.00  0.00     0.074 A 
ATOM     65  C   UNL A   1      41.621  32.367  38.946  1.00  0.00     0.029 A 
ATOM     66  N   UNL A   1      41.448  34.136  37.613  1.00  0.00    -0.354 N 
ATOM     67  N   UNL A   1      43.925  33.237  34.325  1.00  0.00    -0.248 NA
ATOM     68  C   UNL A   1      45.571  34.447  33.339  1.00  0.00     0.031 C 
ATOM     69  C   UNL A   1      42.901  32.693  38.382  1.00  0.00     0.029 A 
ATOM     70  C   UNL A   1      42.755  33.695  37.404  1.00  0.00     0.049 A 
ATOM     71  H   UNL A   1      41.079  34.955  37.213  1.00  0.00     0.167 HD
ATOM     72  C   UNL A   1      44.268  34.182  35.309  1.00  0.00     0.074 A 
ATOM     73  C   UNL A   1      45.402  34.822  34.626  1.00  0.00     0.031 C 
ATOM     74  C   UNL A   1      43.707  34.499  36.573  1.00  0.00     0.037 A 
BRANCH  61  75
ATOM     75  C   UNL A   1      38.328  33.299  39.665  1.00  0.00     0.058 A 
ATOM     76  C   UNL A   1      37.373  32.257  39.783  1.00  0.00     0.135 A 
ATOM     77  C   UNL A   1      38.214  34.277  40.685  1.00  0.00     0.135 A 
ATOM     78  F   UNL A   1      37.342  31.242  38.911  1.00  0.00    -0.206 F 
ATOM     79  C   UNL A   1      36.385  32.200  40.778  1.00  0.00     0.059 A 
ATOM     80  C   UNL A   1      37.244  34.224  41.720  1.00  0.00     0.059 A 
ATOM     81  F   UNL A   1      39.021  35.348  40.715  1.00  0.00    -0.206 F 
ATOM     82  C   UNL A   1      36.321  33.184  41.748  1.00  0.00     0.060 A 
BRANCH  82  83
ATOM     83  S   UNL A   1      35.044  33.045  43.028  1.00  0.00     0.124 S 
ATOM     84  O   UNL A   1      34.263  31.901  42.565  1.00  0.00    -0.237 OA
ATOM     85  O   UNL A   1      35.834  32.819  44.235  1.00  0.00    -0.237 OA
ATOM     86  O   UNL A   1      34.356  34.331  42.971  1.00  0.00    -0.744 OA
ENDBRANCH  82  83
ENDBRANCH  61  75
BRANCH  62  87
ATOM     87  C   UNL A   1      43.930  32.456  30.334  1.00  0.00     0.058 A 
ATOM     88  C   UNL A   1      43.331  33.723  29.901  1.00  0.00     0.135 A 
ATOM     89  C   UNL A   1      44.444  31.715  29.259  1.00  0.00     0.135 A 
ATOM     90  F   UNL A   1      42.813  34.553  30.827  1.00  0.00    -0.206 F 
ATOM     91  C   UNL A   1      43.547  34.314  28.627  1.00  0.00     0.059 A 
ATOM     92  C   UNL A   1      44.602  32.274  27.943  1.00  0.00     0.059 A 
ATOM     93  F   UNL A   1      44.977  30.506  29.482  1.00  0.00    -0.206 F 
ATOM     94  C   UNL A   1      44.233  33.597  27.659  1.00  0.00     0.060 A 
BRANCH  94  95
ATOM     95  S   UNL A   1      44.878  34.483  26.176  1.00  0.00     0.124 S 
ATOM     96  O   UNL A   1      43.662  34.798  25.440  1.00  0.00    -0.237 OA
ATOM     97  O   UNL A   1      45.579  35.626  26.760  1.00  0.00    -0.237 OA
ATOM     98  O   UNL A   1      45.756  33.495  25.561  1.00  0.00    -0.744 OA
ENDBRANCH  94  95
ENDBRANCH  62  87
BRANCH  74  99
ATOM     99  C   UNL A   1      44.003  35.816  37.298  1.00  0.00     0.058 A 
ATOM    100  C   UNL A   1      44.922  35.914  38.343  1.00  0.00     0.135 A 
ATOM    101  C   UNL A   1      43.517  37.070  36.806  1.00  0.00     0.135 A 
ATOM    102  F   UNL A   1      45.655  34.866  38.742  1.00  0.00    -0.206 F 
ATOM    103  C   UNL A   1      45.165  37.115  38.997  1.00  0.00     0.059 A 
ATOM    104  C   UNL A   1      43.869  38.291  37.346  1.00  0.00     0.059 A 
ATOM    105  F   UNL A   1      42.688  37.184  35.760  1.00  0.00    -0.206 F 
ATOM    106  C   UNL A   1      44.617  38.292  38.502  1.00  0.00     0.060 A 
BRANCH 106 107
ATOM    107  S   UNL A   1      44.837  39.826  39.390  1.00  0.00     0.124 S 
ATOM    108  O   UNL A   1      46.283  39.822  39.591  1.00  0.00    -0.237 OA
ATOM    109  O   UNL A   1      44.333  40.817  38.444  1.00  0.00    -0.237 OA
ATOM    110  O   UNL A   1      44.028  39.641  40.589  1.00  0.00    -0.744 OA
ENDBRANCH 106 107
ENDBRANCH  74  99
ENDBRANCH  48  49
ENDBRANCH  41  43
ENDBRANCH  40  41
ENDBRANCH  39  40
ENDBRANCH  38  39
ENDBRANCH  37  38
ENDBRANCH  36  37
ENDBRANCH  35  36
ENDBRANCH   1  35
TORSDOF 28
ENDMDL
