MODEL 1
REMARK VINA RESULT:      -9.4      0.000      0.000
REMARK SMILES CCC1(C(=O)NCCc2ccc(C(=O)OCCOCCOCCOCCOC(=O)c3ccc(-c4c5nc(c(-c6c(F)cc(S(=O)(=O)[O-])cc6F)c6ccc([nH]6)c(-c6c(F)cc(S(=O)(=O)[O-])cc6F)c6nc(c(-c7c(F)cc(S(=O)(=O)[O-])cc7F)c7ccc4[nH]7)C=C6)C=C5)cc3)cc2)CCCC1
REMARK SMILES IDX 20 1 19 2 18 3 17 4 16 5 15 6 13 7 14 8 12 9 9 10 10 11
REMARK SMILES IDX 97 12 11 13 96 14 8 15 7 16 6 17 4 18 5 19 3 21 98 22 101 23
REMARK SMILES IDX 99 24 100 25 2 26 1 27 21 28 22 29 23 30 24 31 25 32 26 33
REMARK SMILES IDX 27 34 28 35 29 36 30 37 31 38 95 39 32 40 94 41 33 42 34 43
REMARK SMILES IDX 35 44 88 45 36 46 93 47 87 48 89 49 37 50 92 51 86 52 85 53
REMARK SMILES IDX 38 55 72 56 51 57 71 58 52 59 55 60 70 61 90 62 53 63 54 64
REMARK SMILES IDX 69 66 91 67 56 68 39 69 40 70 49 71 41 72 42 73 48 74 50 75
REMARK SMILES IDX 43 76 44 77 45 78 46 79 47 80 73 81 74 82 83 83 75 84 76 85
REMARK SMILES IDX 82 86 84 87 77 88 78 89 79 90 80 91 81 92 57 93 58 94 67 95
REMARK SMILES IDX 59 96 60 97 66 98 68 99 61 100 62 101 63 102 64 103 65 104
REMARK H PARENT 6 20 89 54 55 65
REMARK Flexibility Score: inf
ROOT
ATOM      1  C   UNL A   1      39.926  22.925  26.946  1.00  0.00     0.188 C 
ENDROOT
BRANCH   1   2
ATOM      2  C   UNL A   1      38.536  23.291  26.385  1.00  0.00     0.188 C 
BRANCH   2   3
ATOM      3  O   UNL A   1      37.765  22.177  25.968  1.00  0.00    -0.376 OA
BRANCH   3   4
ATOM      4  C   UNL A   1      37.374  22.078  24.609  1.00  0.00     0.202 C 
BRANCH   4   5
ATOM      5  C   UNL A   1      35.975  21.537  24.267  1.00  0.00     0.261 C 
BRANCH   5   6
ATOM      6  O   UNL A   1      35.568  20.383  25.005  1.00  0.00    -0.460 OA
BRANCH   6   7
ATOM      7  C   UNL A   1      34.325  19.931  24.747  1.00  0.00     0.338 C 
ATOM      8  O   UNL A   1      33.995  18.780  24.516  1.00  0.00    -0.246 OA
BRANCH   7   9
ATOM      9  C   UNL A   1      33.369  21.006  25.078  1.00  0.00     0.060 A 
ATOM     10  C   UNL A   1      31.525  23.064  25.518  1.00  0.00    -0.046 A 
ATOM     11  C   UNL A   1      31.744  22.564  24.227  1.00  0.00     0.004 A 
ATOM     12  C   UNL A   1      32.157  22.433  26.602  1.00  0.00     0.004 A 
ATOM     13  C   UNL A   1      32.685  21.572  24.003  1.00  0.00     0.016 A 
ATOM     14  C   UNL A   1      33.074  21.398  26.386  1.00  0.00     0.016 A 
BRANCH  10  15
ATOM     15  C   UNL A   1      30.671  24.290  25.761  1.00  0.00     0.056 C 
BRANCH  15  16
ATOM     16  C   UNL A   1      31.460  25.489  26.312  1.00  0.00     0.120 C 
BRANCH  16  17
ATOM     17  N   UNL A   1      32.874  25.369  26.012  1.00  0.00    -0.355 N 
ATOM     18  C   UNL A   1      33.638  25.722  24.959  1.00  0.00     0.226 C 
ATOM     19  O   UNL A   1      34.763  25.208  24.965  1.00  0.00    -0.274 OA
ATOM     20  H   UNL A   1      33.386  24.935  26.734  1.00  0.00     0.163 HD
BRANCH  18  21
ATOM     21  C   UNL A   1      33.175  26.641  23.803  1.00  0.00     0.049 C 
ATOM     22  C   UNL A   1      31.673  26.976  23.791  1.00  0.00     0.017 C 
ATOM     23  C   UNL A   1      33.459  25.988  22.435  1.00  0.00     0.017 C 
ATOM     24  C   UNL A   1      31.035  26.305  22.577  1.00  0.00     0.001 C 
ATOM     25  C   UNL A   1      32.131  25.572  21.820  1.00  0.00     0.001 C 
BRANCH  21  26
ATOM     26  C   UNL A   1      34.004  27.965  23.902  1.00  0.00     0.013 C 
ATOM     27  C   UNL A   1      33.196  29.260  23.776  1.00  0.00     0.005 C 
ENDBRANCH  21  26
ENDBRANCH  18  21
ENDBRANCH  16  17
ENDBRANCH  15  16
ENDBRANCH  10  15
ENDBRANCH   7   9
ENDBRANCH   6   7
ENDBRANCH   5   6
ENDBRANCH   4   5
ENDBRANCH   3   4
ENDBRANCH   2   3
ENDBRANCH   1   2
BRANCH   1  28
ATOM     28  O   UNL A   1      40.182  21.572  27.283  1.00  0.00    -0.377 OA
BRANCH  28  29
ATOM     29  C   UNL A   1      40.868  20.729  26.359  1.00  0.00     0.188 C 
BRANCH  29  30
ATOM     30  C   UNL A   1      42.407  20.773  26.187  1.00  0.00     0.188 C 
BRANCH  30  31
ATOM     31  O   UNL A   1      43.031  21.943  26.691  1.00  0.00    -0.376 OA
BRANCH  31  32
ATOM     32  C   UNL A   1      43.488  22.896  25.749  1.00  0.00     0.202 C 
BRANCH  32  33
ATOM     33  C   UNL A   1      43.999  24.232  26.308  1.00  0.00     0.261 C 
BRANCH  33  34
ATOM     34  O   UNL A   1      43.594  25.414  25.601  1.00  0.00    -0.460 OA
BRANCH  34  35
ATOM     35  C   UNL A   1      42.311  25.812  25.735  1.00  0.00     0.338 C 
ATOM     36  O   UNL A   1      41.368  25.505  25.021  1.00  0.00    -0.246 OA
BRANCH  35  37
ATOM     37  C   UNL A   1      42.200  26.535  27.018  1.00  0.00     0.060 A 
ATOM     38  C   UNL A   1      41.224  26.147  27.948  1.00  0.00     0.016 A 
ATOM     39  C   UNL A   1      43.078  27.581  27.309  1.00  0.00     0.016 A 
ATOM     40  C   UNL A   1      41.102  26.832  29.158  1.00  0.00     0.010 A 
ATOM     41  C   UNL A   1      42.938  28.280  28.510  1.00  0.00     0.010 A 
ATOM     42  C   UNL A   1      41.926  27.932  29.423  1.00  0.00    -0.014 A 
BRANCH  42  43
ATOM     43  C   UNL A   1      41.599  28.853  30.538  1.00  0.00     0.031 A 
ATOM     44  C   UNL A   1      42.426  28.762  31.793  1.00  0.00     0.074 A 
ATOM     45  C   UNL A   1      40.600  29.749  30.446  1.00  0.00     0.049 A 
ATOM     46  N   UNL A   1      42.288  29.394  32.928  1.00  0.00    -0.248 NA
ATOM     47  C   UNL A   1      43.560  27.822  31.760  1.00  0.00     0.031 C 
ATOM     48  C   UNL A   1      39.759  29.962  29.270  1.00  0.00     0.029 A 
ATOM     49  N   UNL A   1      40.118  30.641  31.372  1.00  0.00    -0.354 N 
ATOM     50  C   UNL A   1      43.307  28.921  33.748  1.00  0.00     0.074 A 
ATOM     51  C   UNL A   1      44.035  27.928  32.992  1.00  0.00     0.031 C 
ATOM     52  C   UNL A   1      38.850  30.913  29.552  1.00  0.00     0.029 A 
ATOM     53  C   UNL A   1      39.021  31.348  30.938  1.00  0.00     0.049 A 
ATOM     54  H   UNL A   1      40.518  30.762  32.263  1.00  0.00     0.167 HD
ATOM     55  C   UNL A   1      43.611  29.288  35.015  1.00  0.00     0.037 A 
ATOM     56  C   UNL A   1      38.232  32.223  31.596  1.00  0.00     0.037 A 
ATOM     57  C   UNL A   1      42.879  30.276  35.761  1.00  0.00     0.049 A 
ATOM     58  C   UNL A   1      38.544  32.562  33.033  1.00  0.00     0.074 A 
ATOM     59  C   UNL A   1      43.115  30.732  37.047  1.00  0.00     0.029 A 
ATOM     60  N   UNL A   1      41.761  30.954  35.295  1.00  0.00    -0.354 N 
ATOM     61  N   UNL A   1      39.522  32.125  33.792  1.00  0.00    -0.248 NA
ATOM     62  C   UNL A   1      37.649  33.516  33.702  1.00  0.00     0.031 C 
ATOM     63  C   UNL A   1      42.105  31.639  37.379  1.00  0.00     0.029 A 
ATOM     64  C   UNL A   1      41.279  31.803  36.278  1.00  0.00     0.049 A 
ATOM     65  H   UNL A   1      41.369  30.847  34.400  1.00  0.00     0.167 HD
ATOM     66  C   UNL A   1      39.379  32.776  35.014  1.00  0.00     0.074 A 
ATOM     67  C   UNL A   1      38.225  33.642  34.890  1.00  0.00     0.031 C 
ATOM     68  C   UNL A   1      40.134  32.669  36.137  1.00  0.00     0.037 A 
BRANCH  55  69
ATOM     69  C   UNL A   1      44.766  28.592  35.683  1.00  0.00     0.058 A 
ATOM     70  C   UNL A   1      46.077  29.093  35.613  1.00  0.00     0.135 A 
ATOM     71  C   UNL A   1      44.554  27.421  36.426  1.00  0.00     0.135 A 
ATOM     72  F   UNL A   1      46.342  30.199  34.900  1.00  0.00    -0.206 F 
ATOM     73  C   UNL A   1      47.138  28.442  36.234  1.00  0.00     0.059 A 
ATOM     74  C   UNL A   1      45.595  26.770  37.082  1.00  0.00     0.059 A 
ATOM     75  F   UNL A   1      43.323  26.894  36.521  1.00  0.00    -0.206 F 
ATOM     76  C   UNL A   1      46.886  27.282  36.969  1.00  0.00     0.060 A 
BRANCH  76  77
ATOM     77  S   UNL A   1      48.273  26.455  37.774  1.00  0.00     0.124 S 
ATOM     78  O   UNL A   1      47.704  26.134  39.079  1.00  0.00    -0.237 OA
ATOM     79  O   UNL A   1      48.511  25.318  36.891  1.00  0.00    -0.237 OA
ATOM     80  O   UNL A   1      49.321  27.471  37.779  1.00  0.00    -0.744 OA
ENDBRANCH  76  77
ENDBRANCH  55  69
BRANCH  56  81
ATOM     81  C   UNL A   1      37.059  32.831  30.910  1.00  0.00     0.058 A 
ATOM     82  C   UNL A   1      37.214  33.900  30.014  1.00  0.00     0.135 A 
ATOM     83  C   UNL A   1      35.756  32.362  31.143  1.00  0.00     0.135 A 
ATOM     84  F   UNL A   1      38.437  34.397  29.768  1.00  0.00    -0.206 F 
ATOM     85  C   UNL A   1      36.123  34.490  29.383  1.00  0.00     0.059 A 
ATOM     86  C   UNL A   1      34.652  32.916  30.502  1.00  0.00     0.059 A 
ATOM     87  F   UNL A   1      35.550  31.339  31.986  1.00  0.00    -0.206 F 
ATOM     88  C   UNL A   1      34.844  33.986  29.631  1.00  0.00     0.060 A 
BRANCH  88  89
ATOM     89  S   UNL A   1      33.441  34.724  28.766  1.00  0.00     0.124 S 
ATOM     90  O   UNL A   1      32.508  34.958  29.862  1.00  0.00    -0.237 OA
ATOM     91  O   UNL A   1      34.042  35.915  28.172  1.00  0.00    -0.237 OA
ATOM     92  O   UNL A   1      33.050  33.689  27.814  1.00  0.00    -0.744 OA
ENDBRANCH  88  89
ENDBRANCH  56  81
BRANCH  68  93
ATOM     93  C   UNL A   1      39.775  33.543  37.310  1.00  0.00     0.058 A 
ATOM     94  C   UNL A   1      38.793  33.173  38.241  1.00  0.00     0.135 A 
ATOM     95  C   UNL A   1      40.472  34.742  37.538  1.00  0.00     0.135 A 
ATOM     96  F   UNL A   1      38.093  32.040  38.071  1.00  0.00    -0.206 F 
ATOM     97  C   UNL A   1      38.496  33.972  39.342  1.00  0.00     0.059 A 
ATOM     98  C   UNL A   1      40.216  35.540  38.649  1.00  0.00     0.059 A 
ATOM     99  F   UNL A   1      41.431  35.139  36.685  1.00  0.00    -0.206 F 
ATOM    100  C   UNL A   1      39.217  35.151  39.540  1.00  0.00     0.060 A 
BRANCH 100 101
ATOM    101  S   UNL A   1      38.847  36.160  40.990  1.00  0.00     0.124 S 
ATOM    102  O   UNL A   1      40.114  36.114  41.712  1.00  0.00    -0.237 OA
ATOM    103  O   UNL A   1      38.503  37.447  40.394  1.00  0.00    -0.237 OA
ATOM    104  O   UNL A   1      37.738  35.453  41.624  1.00  0.00    -0.744 OA
ENDBRANCH 100 101
ENDBRANCH  68  93
ENDBRANCH  42  43
ENDBRANCH  35  37
ENDBRANCH  34  35
ENDBRANCH  33  34
ENDBRANCH  32  33
ENDBRANCH  31  32
ENDBRANCH  30  31
ENDBRANCH  29  30
ENDBRANCH  28  29
ENDBRANCH   1  28
TORSDOF 28
ENDMDL
MODEL 2
REMARK VINA RESULT:      -8.5      8.476     15.651
REMARK SMILES CCC1(C(=O)NCCc2ccc(C(=O)OCCOCCOCCOCCOC(=O)c3ccc(-c4c5nc(c(-c6c(F)cc(S(=O)(=O)[O-])cc6F)c6ccc([nH]6)c(-c6c(F)cc(S(=O)(=O)[O-])cc6F)c6nc(c(-c7c(F)cc(S(=O)(=O)[O-])cc7F)c7ccc4[nH]7)C=C6)C=C5)cc3)cc2)CCCC1
REMARK SMILES IDX 20 1 19 2 18 3 17 4 16 5 15 6 13 7 14 8 12 9 9 10 10 11
REMARK SMILES IDX 97 12 11 13 96 14 8 15 7 16 6 17 4 18 5 19 3 21 98 22 101 23
REMARK SMILES IDX 99 24 100 25 2 26 1 27 21 28 22 29 23 30 24 31 25 32 26 33
REMARK SMILES IDX 27 34 28 35 29 36 30 37 31 38 95 39 32 40 94 41 33 42 34 43
REMARK SMILES IDX 35 44 88 45 36 46 93 47 87 48 89 49 37 50 92 51 86 52 85 53
REMARK SMILES IDX 38 55 72 56 51 57 71 58 52 59 55 60 70 61 90 62 53 63 54 64
REMARK SMILES IDX 69 66 91 67 56 68 39 69 40 70 49 71 41 72 42 73 48 74 50 75
REMARK SMILES IDX 43 76 44 77 45 78 46 79 47 80 73 81 74 82 83 83 75 84 76 85
REMARK SMILES IDX 82 86 84 87 77 88 78 89 79 90 80 91 81 92 57 93 58 94 67 95
REMARK SMILES IDX 59 96 60 97 66 98 68 99 61 100 62 101 63 102 64 103 65 104
REMARK H PARENT 6 20 89 54 55 65
REMARK Flexibility Score: inf
ROOT
ATOM      1  C   UNL A   1      42.126  33.827  31.188  1.00  0.00     0.188 C 
ENDROOT
BRANCH   1   2
ATOM      2  C   UNL A   1      42.284  35.229  30.563  1.00  0.00     0.188 C 
BRANCH   2   3
ATOM      3  O   UNL A   1      42.046  35.274  29.167  1.00  0.00    -0.376 OA
BRANCH   3   4
ATOM      4  C   UNL A   1      42.772  36.195  28.371  1.00  0.00     0.202 C 
BRANCH   4   5
ATOM      5  C   UNL A   1      42.020  37.337  27.667  1.00  0.00     0.261 C 
BRANCH   5   6
ATOM      6  O   UNL A   1      42.825  38.453  27.279  1.00  0.00    -0.460 OA
BRANCH   6   7
ATOM      7  C   UNL A   1      42.459  39.645  27.787  1.00  0.00     0.338 C 
ATOM      8  O   UNL A   1      41.931  39.853  28.868  1.00  0.00    -0.246 OA
BRANCH   7   9
ATOM      9  C   UNL A   1      43.063  40.703  26.956  1.00  0.00     0.060 A 
ATOM     10  C   UNL A   1      44.093  42.656  25.236  1.00  0.00    -0.046 A 
ATOM     11  C   UNL A   1      43.012  41.856  24.843  1.00  0.00     0.004 A 
ATOM     12  C   UNL A   1      44.573  42.544  26.552  1.00  0.00     0.004 A 
ATOM     13  C   UNL A   1      42.527  40.863  25.678  1.00  0.00     0.016 A 
ATOM     14  C   UNL A   1      44.054  41.574  27.417  1.00  0.00     0.016 A 
BRANCH  10  15
ATOM     15  C   UNL A   1      44.783  43.593  24.266  1.00  0.00     0.056 C 
BRANCH  15  16
ATOM     16  C   UNL A   1      43.810  44.359  23.355  1.00  0.00     0.120 C 
BRANCH  16  17
ATOM     17  N   UNL A   1      43.425  43.560  22.209  1.00  0.00    -0.355 N 
ATOM     18  C   UNL A   1      43.819  43.527  20.919  1.00  0.00     0.226 C 
ATOM     19  O   UNL A   1      43.062  42.884  20.183  1.00  0.00    -0.274 OA
ATOM     20  H   UNL A   1      42.723  42.900  22.416  1.00  0.00     0.163 HD
BRANCH  18  21
ATOM     21  C   UNL A   1      45.067  44.251  20.361  1.00  0.00     0.049 C 
ATOM     22  C   UNL A   1      45.733  45.252  21.323  1.00  0.00     0.017 C 
ATOM     23  C   UNL A   1      44.710  45.069  19.103  1.00  0.00     0.017 C 
ATOM     24  C   UNL A   1      45.533  46.662  20.772  1.00  0.00     0.001 C 
ATOM     25  C   UNL A   1      44.768  46.547  19.463  1.00  0.00     0.001 C 
BRANCH  21  26
ATOM     26  C   UNL A   1      46.102  43.149  19.957  1.00  0.00     0.013 C 
ATOM     27  C   UNL A   1      46.409  42.106  21.036  1.00  0.00     0.005 C 
ENDBRANCH  21  26
ENDBRANCH  18  21
ENDBRANCH  16  17
ENDBRANCH  15  16
ENDBRANCH  10  15
ENDBRANCH   7   9
ENDBRANCH   6   7
ENDBRANCH   5   6
ENDBRANCH   4   5
ENDBRANCH   3   4
ENDBRANCH   2   3
ENDBRANCH   1   2
BRANCH   1  28
ATOM     28  O   UNL A   1      40.896  33.505  31.816  1.00  0.00    -0.377 OA
BRANCH  28  29
ATOM     29  C   UNL A   1      39.920  34.524  32.027  1.00  0.00     0.188 C 
BRANCH  29  30
ATOM     30  C   UNL A   1      38.574  34.242  32.740  1.00  0.00     0.188 C 
BRANCH  30  31
ATOM     31  O   UNL A   1      37.850  33.134  32.231  1.00  0.00    -0.376 OA
BRANCH  31  32
ATOM     32  C   UNL A   1      36.800  33.402  31.320  1.00  0.00     0.202 C 
BRANCH  32  33
ATOM     33  C   UNL A   1      35.720  32.322  31.170  1.00  0.00     0.261 C 
BRANCH  33  34
ATOM     34  O   UNL A   1      36.105  31.129  30.472  1.00  0.00    -0.460 OA
BRANCH  34  35
ATOM     35  C   UNL A   1      36.457  31.251  29.174  1.00  0.00     0.338 C 
ATOM     36  O   UNL A   1      35.940  31.976  28.338  1.00  0.00    -0.246 OA
BRANCH  35  37
ATOM     37  C   UNL A   1      37.712  30.496  28.980  1.00  0.00     0.060 A 
ATOM     38  C   UNL A   1      38.571  30.292  30.070  1.00  0.00     0.016 A 
ATOM     39  C   UNL A   1      38.025  29.971  27.725  1.00  0.00     0.016 A 
ATOM     40  C   UNL A   1      39.765  29.592  29.895  1.00  0.00     0.010 A 
ATOM     41  C   UNL A   1      39.232  29.292  27.547  1.00  0.00     0.010 A 
ATOM     42  C   UNL A   1      40.124  29.131  28.623  1.00  0.00    -0.014 A 
BRANCH  42  43
ATOM     43  C   UNL A   1      41.512  28.679  28.361  1.00  0.00     0.031 A 
ATOM     44  C   UNL A   1      42.603  29.717  28.362  1.00  0.00     0.074 A 
ATOM     45  C   UNL A   1      41.805  27.386  28.130  1.00  0.00     0.049 A 
ATOM     46  N   UNL A   1      43.873  29.590  28.082  1.00  0.00    -0.248 NA
ATOM     47  C   UNL A   1      42.199  31.086  28.725  1.00  0.00     0.031 C 
ATOM     48  C   UNL A   1      40.844  26.285  28.145  1.00  0.00     0.029 A 
ATOM     49  N   UNL A   1      43.001  26.787  27.823  1.00  0.00    -0.354 N 
ATOM     50  C   UNL A   1      44.417  30.862  28.221  1.00  0.00     0.074 A 
ATOM     51  C   UNL A   1      43.335  31.751  28.580  1.00  0.00     0.031 C 
ATOM     52  C   UNL A   1      41.487  25.143  27.843  1.00  0.00     0.029 A 
ATOM     53  C   UNL A   1      42.894  25.438  27.576  1.00  0.00     0.049 A 
ATOM     54  H   UNL A   1      43.854  27.276  27.783  1.00  0.00     0.167 HD
ATOM     55  C   UNL A   1      45.705  31.251  28.069  1.00  0.00     0.037 A 
ATOM     56  C   UNL A   1      43.822  24.554  27.155  1.00  0.00     0.037 A 
ATOM     57  C   UNL A   1      46.774  30.360  27.708  1.00  0.00     0.049 A 
ATOM     58  C   UNL A   1      45.236  25.024  26.919  1.00  0.00     0.074 A 
ATOM     59  C   UNL A   1      48.118  30.651  27.544  1.00  0.00     0.029 A 
ATOM     60  N   UNL A   1      46.623  29.005  27.444  1.00  0.00    -0.354 N 
ATOM     61  N   UNL A   1      45.746  26.224  27.074  1.00  0.00    -0.248 NA
ATOM     62  C   UNL A   1      46.204  24.020  26.455  1.00  0.00     0.031 C 
ATOM     63  C   UNL A   1      48.767  29.487  27.122  1.00  0.00     0.029 A 
ATOM     64  C   UNL A   1      47.843  28.454  27.091  1.00  0.00     0.049 A 
ATOM     65  H   UNL A   1      45.775  28.511  27.500  1.00  0.00     0.167 HD
ATOM     66  C   UNL A   1      47.097  26.111  26.760  1.00  0.00     0.074 A 
ATOM     67  C   UNL A   1      47.328  24.723  26.415  1.00  0.00     0.031 C 
ATOM     68  C   UNL A   1      48.061  27.066  26.760  1.00  0.00     0.037 A 
BRANCH  55  69
ATOM     69  C   UNL A   1      46.019  32.710  28.261  1.00  0.00     0.058 A 
ATOM     70  C   UNL A   1      46.396  33.231  29.510  1.00  0.00     0.135 A 
ATOM     71  C   UNL A   1      45.965  33.596  27.173  1.00  0.00     0.135 A 
ATOM     72  F   UNL A   1      46.444  32.435  30.590  1.00  0.00    -0.206 F 
ATOM     73  C   UNL A   1      46.683  34.582  29.677  1.00  0.00     0.059 A 
ATOM     74  C   UNL A   1      46.279  34.944  27.310  1.00  0.00     0.059 A 
ATOM     75  F   UNL A   1      45.605  33.153  25.958  1.00  0.00    -0.206 F 
ATOM     76  C   UNL A   1      46.625  35.431  28.570  1.00  0.00     0.060 A 
BRANCH  76  77
ATOM     77  S   UNL A   1      47.008  37.179  28.803  1.00  0.00     0.124 S 
ATOM     78  O   UNL A   1      46.628  37.377  30.198  1.00  0.00    -0.237 OA
ATOM     79  O   UNL A   1      48.440  37.222  28.525  1.00  0.00    -0.237 OA
ATOM     80  O   UNL A   1      46.161  37.848  27.821  1.00  0.00    -0.744 OA
ENDBRANCH  76  77
ENDBRANCH  55  69
BRANCH  56  81
ATOM     81  C   UNL A   1      43.444  23.134  26.913  1.00  0.00     0.058 A 
ATOM     82  C   UNL A   1      43.295  22.632  25.612  1.00  0.00     0.135 A 
ATOM     83  C   UNL A   1      43.215  22.250  27.981  1.00  0.00     0.135 A 
ATOM     84  F   UNL A   1      43.486  23.439  24.557  1.00  0.00    -0.206 F 
ATOM     85  C   UNL A   1      42.921  21.313  25.375  1.00  0.00     0.059 A 
ATOM     86  C   UNL A   1      42.869  20.919  27.770  1.00  0.00     0.059 A 
ATOM     87  F   UNL A   1      43.348  22.675  29.247  1.00  0.00    -0.206 F 
ATOM     88  C   UNL A   1      42.716  20.462  26.463  1.00  0.00     0.060 A 
BRANCH  88  89
ATOM     89  S   UNL A   1      42.284  18.737  26.142  1.00  0.00     0.124 S 
ATOM     90  O   UNL A   1      43.272  18.368  25.135  1.00  0.00    -0.237 OA
ATOM     91  O   UNL A   1      42.454  18.131  27.459  1.00  0.00    -0.237 OA
ATOM     92  O   UNL A   1      40.904  18.819  25.673  1.00  0.00    -0.744 OA
ENDBRANCH  88  89
ENDBRANCH  56  81
BRANCH  68  93
ATOM     93  C   UNL A   1      49.467  26.644  26.425  1.00  0.00     0.058 A 
ATOM     94  C   UNL A   1      50.364  26.194  27.406  1.00  0.00     0.135 A 
ATOM     95  C   UNL A   1      49.902  26.633  25.088  1.00  0.00     0.135 A 
ATOM     96  F   UNL A   1      50.003  26.187  28.699  1.00  0.00    -0.206 F 
ATOM     97  C   UNL A   1      51.649  25.771  27.078  1.00  0.00     0.059 A 
ATOM     98  C   UNL A   1      51.171  26.183  24.733  1.00  0.00     0.059 A 
ATOM     99  F   UNL A   1      49.082  27.042  24.107  1.00  0.00    -0.206 F 
ATOM    100  C   UNL A   1      52.042  25.765  25.738  1.00  0.00     0.060 A 
BRANCH 100 101
ATOM    101  S   UNL A   1      53.698  25.181  25.323  1.00  0.00     0.124 S 
ATOM    102  O   UNL A   1      54.489  25.740  26.414  1.00  0.00    -0.237 OA
ATOM    103  O   UNL A   1      53.530  23.731  25.340  1.00  0.00    -0.237 OA
ATOM    104  O   UNL A   1      53.946  25.762  24.007  1.00  0.00    -0.744 OA
ENDBRANCH 100 101
ENDBRANCH  68  93
ENDBRANCH  42  43
ENDBRANCH  35  37
ENDBRANCH  34  35
ENDBRANCH  33  34
ENDBRANCH  32  33
ENDBRANCH  31  32
ENDBRANCH  30  31
ENDBRANCH  29  30
ENDBRANCH  28  29
ENDBRANCH   1  28
TORSDOF 28
ENDMDL
MODEL 3
REMARK VINA RESULT:      -8.4      7.266     12.008
REMARK SMILES CCC1(C(=O)NCCc2ccc(C(=O)OCCOCCOCCOCCOC(=O)c3ccc(-c4c5nc(c(-c6c(F)cc(S(=O)(=O)[O-])cc6F)c6ccc([nH]6)c(-c6c(F)cc(S(=O)(=O)[O-])cc6F)c6nc(c(-c7c(F)cc(S(=O)(=O)[O-])cc7F)c7ccc4[nH]7)C=C6)C=C5)cc3)cc2)CCCC1
REMARK SMILES IDX 20 1 19 2 18 3 17 4 16 5 15 6 13 7 14 8 12 9 9 10 10 11
REMARK SMILES IDX 97 12 11 13 96 14 8 15 7 16 6 17 4 18 5 19 3 21 98 22 101 23
REMARK SMILES IDX 99 24 100 25 2 26 1 27 21 28 22 29 23 30 24 31 25 32 26 33
REMARK SMILES IDX 27 34 28 35 29 36 30 37 31 38 95 39 32 40 94 41 33 42 34 43
REMARK SMILES IDX 35 44 88 45 36 46 93 47 87 48 89 49 37 50 92 51 86 52 85 53
REMARK SMILES IDX 38 55 72 56 51 57 71 58 52 59 55 60 70 61 90 62 53 63 54 64
REMARK SMILES IDX 69 66 91 67 56 68 39 69 40 70 49 71 41 72 42 73 48 74 50 75
REMARK SMILES IDX 43 76 44 77 45 78 46 79 47 80 73 81 74 82 83 83 75 84 76 85
REMARK SMILES IDX 82 86 84 87 77 88 78 89 79 90 80 91 81 92 57 93 58 94 67 95
REMARK SMILES IDX 59 96 60 97 66 98 68 99 61 100 62 101 63 102 64 103 65 104
REMARK H PARENT 6 20 89 54 55 65
REMARK Flexibility Score: inf
ROOT
ATOM      1  C   UNL A   1      32.654  36.346  30.810  1.00  0.00     0.188 C 
ENDROOT
BRANCH   1   2
ATOM      2  C   UNL A   1      33.556  35.276  30.159  1.00  0.00     0.188 C 
BRANCH   2   3
ATOM      3  O   UNL A   1      32.867  34.361  29.325  1.00  0.00    -0.376 OA
BRANCH   3   4
ATOM      4  C   UNL A   1      33.441  33.991  28.083  1.00  0.00     0.202 C 
BRANCH   4   5
ATOM      5  C   UNL A   1      34.744  33.173  28.071  1.00  0.00     0.261 C 
BRANCH   5   6
ATOM      6  O   UNL A   1      34.657  31.876  28.665  1.00  0.00    -0.460 OA
BRANCH   6   7
ATOM      7  C   UNL A   1      35.185  31.760  29.899  1.00  0.00     0.338 C 
ATOM      8  O   UNL A   1      34.735  32.216  30.937  1.00  0.00    -0.246 OA
BRANCH   7   9
ATOM      9  C   UNL A   1      36.251  30.741  29.847  1.00  0.00     0.060 A 
ATOM     10  C   UNL A   1      38.315  28.871  29.576  1.00  0.00    -0.046 A 
ATOM     11  C   UNL A   1      38.101  29.847  28.594  1.00  0.00     0.004 A 
ATOM     12  C   UNL A   1      37.554  28.922  30.756  1.00  0.00     0.004 A 
ATOM     13  C   UNL A   1      37.055  30.748  28.708  1.00  0.00     0.016 A 
ATOM     14  C   UNL A   1      36.526  29.862  30.898  1.00  0.00     0.016 A 
BRANCH  10  15
ATOM     15  C   UNL A   1      39.303  27.741  29.373  1.00  0.00     0.056 C 
BRANCH  15  16
ATOM     16  C   UNL A   1      39.796  27.610  27.922  1.00  0.00     0.120 C 
BRANCH  16  17
ATOM     17  N   UNL A   1      39.778  26.229  27.485  1.00  0.00    -0.355 N 
ATOM     18  C   UNL A   1      40.729  25.373  27.056  1.00  0.00     0.226 C 
ATOM     19  O   UNL A   1      40.277  24.355  26.518  1.00  0.00    -0.274 OA
ATOM     20  H   UNL A   1      38.878  25.829  27.504  1.00  0.00     0.163 HD
BRANCH  18  21
ATOM     21  C   UNL A   1      42.252  25.622  27.162  1.00  0.00     0.049 C 
ATOM     22  C   UNL A   1      42.720  27.024  26.728  1.00  0.00     0.017 C 
ATOM     23  C   UNL A   1      43.034  24.636  26.272  1.00  0.00     0.017 C 
ATOM     24  C   UNL A   1      43.541  26.886  25.448  1.00  0.00     0.001 C 
ATOM     25  C   UNL A   1      43.608  25.409  25.093  1.00  0.00     0.001 C 
BRANCH  21  26
ATOM     26  C   UNL A   1      42.660  25.375  28.653  1.00  0.00     0.013 C 
ATOM     27  C   UNL A   1      43.079  26.622  29.438  1.00  0.00     0.005 C 
ENDBRANCH  21  26
ENDBRANCH  18  21
ENDBRANCH  16  17
ENDBRANCH  15  16
ENDBRANCH  10  15
ENDBRANCH   7   9
ENDBRANCH   6   7
ENDBRANCH   5   6
ENDBRANCH   4   5
ENDBRANCH   3   4
ENDBRANCH   2   3
ENDBRANCH   1   2
BRANCH   1  28
ATOM     28  O   UNL A   1      33.026  36.859  32.078  1.00  0.00    -0.377 OA
BRANCH  28  29
ATOM     29  C   UNL A   1      34.280  36.493  32.650  1.00  0.00     0.188 C 
BRANCH  29  30
ATOM     30  C   UNL A   1      34.424  35.301  33.629  1.00  0.00     0.188 C 
BRANCH  30  31
ATOM     31  O   UNL A   1      35.698  34.677  33.626  1.00  0.00    -0.376 OA
BRANCH  31  32
ATOM     32  C   UNL A   1      35.834  33.466  34.348  1.00  0.00     0.202 C 
BRANCH  32  33
ATOM     33  C   UNL A   1      36.665  32.357  33.688  1.00  0.00     0.261 C 
BRANCH  33  34
ATOM     34  O   UNL A   1      38.035  32.256  34.105  1.00  0.00    -0.460 OA
BRANCH  34  35
ATOM     35  C   UNL A   1      38.679  31.095  33.853  1.00  0.00     0.338 C 
ATOM     36  O   UNL A   1      38.285  29.967  34.103  1.00  0.00    -0.246 OA
BRANCH  35  37
ATOM     37  C   UNL A   1      39.871  31.415  33.040  1.00  0.00     0.060 A 
ATOM     38  C   UNL A   1      41.140  31.397  33.637  1.00  0.00     0.016 A 
ATOM     39  C   UNL A   1      39.731  31.711  31.682  1.00  0.00     0.016 A 
ATOM     40  C   UNL A   1      42.270  31.710  32.881  1.00  0.00     0.010 A 
ATOM     41  C   UNL A   1      40.862  32.048  30.934  1.00  0.00     0.010 A 
ATOM     42  C   UNL A   1      42.131  32.084  31.539  1.00  0.00    -0.014 A 
BRANCH  42  43
ATOM     43  C   UNL A   1      43.263  32.723  30.824  1.00  0.00     0.031 A 
ATOM     44  C   UNL A   1      44.216  31.830  30.075  1.00  0.00     0.074 A 
ATOM     45  C   UNL A   1      43.445  34.055  30.833  1.00  0.00     0.049 A 
ATOM     46  N   UNL A   1      45.320  32.134  29.445  1.00  0.00    -0.248 NA
ATOM     47  C   UNL A   1      43.876  30.398  30.039  1.00  0.00     0.031 C 
ATOM     48  C   UNL A   1      42.567  35.025  31.486  1.00  0.00     0.029 A 
ATOM     49  N   UNL A   1      44.444  34.820  30.283  1.00  0.00    -0.354 N 
ATOM     50  C   UNL A   1      45.813  30.932  28.949  1.00  0.00     0.074 A 
ATOM     51  C   UNL A   1      44.905  29.891  29.378  1.00  0.00     0.031 C 
ATOM     52  C   UNL A   1      43.077  36.258  31.312  1.00  0.00     0.029 A 
ATOM     53  C   UNL A   1      44.334  36.160  30.571  1.00  0.00     0.049 A 
ATOM     54  H   UNL A   1      45.170  34.444  29.736  1.00  0.00     0.167 HD
ATOM     55  C   UNL A   1      46.919  30.717  28.199  1.00  0.00     0.037 A 
ATOM     56  C   UNL A   1      45.169  37.182  30.291  1.00  0.00     0.037 A 
ATOM     57  C   UNL A   1      47.818  31.759  27.780  1.00  0.00     0.049 A 
ATOM     58  C   UNL A   1      46.436  36.910  29.518  1.00  0.00     0.074 A 
ATOM     59  C   UNL A   1      48.959  31.650  27.004  1.00  0.00     0.029 A 
ATOM     60  N   UNL A   1      47.685  33.101  28.110  1.00  0.00    -0.354 N 
ATOM     61  N   UNL A   1      46.882  35.773  29.035  1.00  0.00    -0.248 NA
ATOM     62  C   UNL A   1      47.311  38.059  29.246  1.00  0.00     0.031 C 
ATOM     63  C   UNL A   1      49.549  32.914  26.917  1.00  0.00     0.029 A 
ATOM     64  C   UNL A   1      48.740  33.825  27.578  1.00  0.00     0.049 A 
ATOM     65  H   UNL A   1      46.951  33.481  28.643  1.00  0.00     0.167 HD
ATOM     66  C   UNL A   1      48.070  36.077  28.376  1.00  0.00     0.074 A 
ATOM     67  C   UNL A   1      48.268  37.504  28.514  1.00  0.00     0.031 C 
ATOM     68  C   UNL A   1      48.919  35.250  27.714  1.00  0.00     0.037 A 
BRANCH  55  69
ATOM     69  C   UNL A   1      47.234  29.298  27.812  1.00  0.00     0.058 A 
ATOM     70  C   UNL A   1      46.807  28.747  26.592  1.00  0.00     0.135 A 
ATOM     71  C   UNL A   1      47.995  28.483  28.665  1.00  0.00     0.135 A 
ATOM     72  F   UNL A   1      46.058  29.473  25.747  1.00  0.00    -0.206 F 
ATOM     73  C   UNL A   1      47.103  27.433  26.244  1.00  0.00     0.059 A 
ATOM     74  C   UNL A   1      48.330  27.177  28.324  1.00  0.00     0.059 A 
ATOM     75  F   UNL A   1      48.424  28.955  29.846  1.00  0.00    -0.206 F 
ATOM     76  C   UNL A   1      47.868  26.656  27.117  1.00  0.00     0.060 A 
BRANCH  76  77
ATOM     77  S   UNL A   1      48.249  24.956  26.646  1.00  0.00     0.124 S 
ATOM     78  O   UNL A   1      47.284  24.208  27.447  1.00  0.00    -0.237 OA
ATOM     79  O   UNL A   1      48.002  24.969  25.208  1.00  0.00    -0.237 OA
ATOM     80  O   UNL A   1      49.645  24.798  27.038  1.00  0.00    -0.744 OA
ENDBRANCH  76  77
ENDBRANCH  55  69
BRANCH  56  81
ATOM     81  C   UNL A   1      44.845  38.559  30.757  1.00  0.00     0.058 A 
ATOM     82  C   UNL A   1      44.059  39.424  29.980  1.00  0.00     0.135 A 
ATOM     83  C   UNL A   1      45.323  39.043  31.986  1.00  0.00     0.135 A 
ATOM     84  F   UNL A   1      43.591  39.017  28.790  1.00  0.00    -0.206 F 
ATOM     85  C   UNL A   1      43.768  40.720  30.396  1.00  0.00     0.059 A 
ATOM     86  C   UNL A   1      45.021  40.324  32.437  1.00  0.00     0.059 A 
ATOM     87  F   UNL A   1      46.075  38.257  32.772  1.00  0.00    -0.206 F 
ATOM     88  C   UNL A   1      44.251  41.159  31.631  1.00  0.00     0.060 A 
BRANCH  88  89
ATOM     89  S   UNL A   1      43.822  42.823  32.185  1.00  0.00     0.124 S 
ATOM     90  O   UNL A   1      42.957  42.542  33.325  1.00  0.00    -0.237 OA
ATOM     91  O   UNL A   1      45.132  43.386  32.499  1.00  0.00    -0.237 OA
ATOM     92  O   UNL A   1      43.162  43.405  31.020  1.00  0.00    -0.744 OA
ENDBRANCH  88  89
ENDBRANCH  56  81
BRANCH  68  93
ATOM     93  C   UNL A   1      50.117  35.867  27.041  1.00  0.00     0.058 A 
ATOM     94  C   UNL A   1      51.347  36.016  27.700  1.00  0.00     0.135 A 
ATOM     95  C   UNL A   1      50.047  36.258  25.693  1.00  0.00     0.135 A 
ATOM     96  F   UNL A   1      51.469  35.663  28.990  1.00  0.00    -0.206 F 
ATOM     97  C   UNL A   1      52.458  36.553  27.056  1.00  0.00     0.059 A 
ATOM     98  C   UNL A   1      51.154  36.766  25.019  1.00  0.00     0.059 A 
ATOM     99  F   UNL A   1      48.899  36.127  25.009  1.00  0.00    -0.206 F 
ATOM    100  C   UNL A   1      52.352  36.921  25.713  1.00  0.00     0.060 A 
BRANCH 100 101
ATOM    101  S   UNL A   1      53.810  37.584  24.880  1.00  0.00     0.124 S 
ATOM    102  O   UNL A   1      54.839  37.404  25.899  1.00  0.00    -0.237 OA
ATOM    103  O   UNL A   1      53.919  36.718  23.709  1.00  0.00    -0.237 OA
ATOM    104  O   UNL A   1      53.442  38.968  24.597  1.00  0.00    -0.744 OA
ENDBRANCH 100 101
ENDBRANCH  68  93
ENDBRANCH  42  43
ENDBRANCH  35  37
ENDBRANCH  34  35
ENDBRANCH  33  34
ENDBRANCH  32  33
ENDBRANCH  31  32
ENDBRANCH  30  31
ENDBRANCH  29  30
ENDBRANCH  28  29
ENDBRANCH   1  28
TORSDOF 28
ENDMDL
