MODEL 1
REMARK VINA RESULT:      -9.7      0.000      0.000
REMARK SMILES CC(=O)[C@]1(C)CC[C@@H](C(=O)OCCOCCOCCOCCOC(=O)c2ccc(-c3c4nc(c(-c5c(F)cc(S(=O)(=O)[O-])cc5F)c5ccc([nH]5)c(-c5c(F)cc(S(=O)(=O)[O-])cc5F)c5nc(c(-c6c(F)cc(S(=O)(=O)[O-])cc6F)c6ccc3[nH]6)C=C5)C=C4)cc2)C1(C)C
REMARK SMILES IDX 18 1 17 2 16 3 15 4 14 5 13 6 12 7 11 8 9 9 10 10 8 11 4 12
REMARK SMILES IDX 6 13 92 14 5 15 7 16 93 17 94 18 2 19 1 20 3 21 19 22 20 23
REMARK SMILES IDX 21 24 22 25 23 26 24 27 25 28 26 29 27 30 91 31 28 32 90 33
REMARK SMILES IDX 29 34 30 35 31 36 84 37 32 38 89 39 83 40 85 41 33 42 88 43
REMARK SMILES IDX 82 44 81 45 34 47 68 48 47 49 67 50 48 51 51 52 66 53 86 54
REMARK SMILES IDX 49 55 50 56 65 58 87 59 52 60 35 61 36 62 45 63 37 64 38 65
REMARK SMILES IDX 44 66 46 67 39 68 40 69 41 70 42 71 43 72 69 73 70 74 79 75
REMARK SMILES IDX 71 76 72 77 78 78 80 79 73 80 74 81 75 82 76 83 77 84 53 85
REMARK SMILES IDX 54 86 63 87 55 88 56 89 62 90 64 91 57 92 58 93 59 94 60 95
REMARK SMILES IDX 61 96
REMARK H PARENT 85 46 51 57
REMARK Flexibility Score: inf
ROOT
ATOM      1  C   UNL A   1      44.802  20.026  24.498  1.00  0.00     0.188 C 
ENDROOT
BRANCH   1   2
ATOM      2  O   UNL A   1      43.415  19.775  24.685  1.00  0.00    -0.377 OA
BRANCH   2   3
ATOM      3  C   UNL A   1      42.932  19.037  25.791  1.00  0.00     0.188 C 
BRANCH   3   4
ATOM      4  C   UNL A   1      41.574  19.558  26.265  1.00  0.00     0.188 C 
BRANCH   4   5
ATOM      5  O   UNL A   1      41.539  20.868  26.819  1.00  0.00    -0.376 OA
BRANCH   5   6
ATOM      6  C   UNL A   1      40.721  21.857  26.192  1.00  0.00     0.202 C 
BRANCH   6   7
ATOM      7  C   UNL A   1      39.205  21.901  26.482  1.00  0.00     0.261 C 
BRANCH   7   8
ATOM      8  O   UNL A   1      38.340  22.244  25.365  1.00  0.00    -0.463 OA
BRANCH   8   9
ATOM      9  C   UNL A   1      37.553  21.244  24.924  1.00  0.00     0.309 C 
ATOM     10  O   UNL A   1      37.869  20.056  25.028  1.00  0.00    -0.252 OA
BRANCH   9  11
ATOM     11  C   UNL A   1      36.188  21.594  24.316  1.00  0.00     0.106 C 
ATOM     12  C   UNL A   1      34.463  23.416  24.710  1.00  0.00     0.032 C 
ATOM     13  C   UNL A   1      35.822  23.973  24.253  1.00  0.00     0.016 C 
ATOM     14  C   UNL A   1      34.785  21.878  24.997  1.00  0.00    -0.010 C 
ATOM     15  C   UNL A   1      34.022  24.239  25.938  1.00  0.00     0.020 C 
ATOM     16  C   UNL A   1      36.456  22.845  23.464  1.00  0.00     0.017 C 
ATOM     17  C   UNL A   1      34.671  21.532  26.486  1.00  0.00     0.013 C 
ATOM     18  C   UNL A   1      33.739  20.942  24.314  1.00  0.00     0.013 C 
BRANCH  12  19
ATOM     19  C   UNL A   1      33.446  23.634  23.544  1.00  0.00     0.136 C 
ATOM     20  C   UNL A   1      31.972  23.435  23.793  1.00  0.00     0.088 C 
ATOM     21  O   UNL A   1      33.811  23.939  22.404  1.00  0.00    -0.299 OA
ENDBRANCH  12  19
ENDBRANCH   9  11
ENDBRANCH   8   9
ENDBRANCH   7   8
ENDBRANCH   6   7
ENDBRANCH   5   6
ENDBRANCH   4   5
ENDBRANCH   3   4
ENDBRANCH   2   3
ENDBRANCH   1   2
BRANCH   1  22
ATOM     22  C   UNL A   1      45.240  21.467  24.260  1.00  0.00     0.188 C 
BRANCH  22  23
ATOM     23  O   UNL A   1      44.200  22.445  24.191  1.00  0.00    -0.376 OA
BRANCH  23  24
ATOM     24  C   UNL A   1      43.968  23.271  25.330  1.00  0.00     0.202 C 
BRANCH  24  25
ATOM     25  C   UNL A   1      43.918  24.776  25.057  1.00  0.00     0.261 C 
BRANCH  25  26
ATOM     26  O   UNL A   1      42.702  25.385  25.519  1.00  0.00    -0.460 OA
BRANCH  26  27
ATOM     27  C   UNL A   1      42.686  26.741  25.493  1.00  0.00     0.338 C 
ATOM     28  O   UNL A   1      42.706  27.462  24.514  1.00  0.00    -0.246 OA
BRANCH  27  29
ATOM     29  C   UNL A   1      42.493  27.245  26.865  1.00  0.00     0.060 A 
ATOM     30  C   UNL A   1      41.618  26.560  27.718  1.00  0.00     0.016 A 
ATOM     31  C   UNL A   1      43.113  28.425  27.277  1.00  0.00     0.016 A 
ATOM     32  C   UNL A   1      41.339  27.072  28.985  1.00  0.00     0.010 A 
ATOM     33  C   UNL A   1      42.823  28.942  28.539  1.00  0.00     0.010 A 
ATOM     34  C   UNL A   1      41.916  28.282  29.387  1.00  0.00    -0.014 A 
BRANCH  34  35
ATOM     35  C   UNL A   1      41.491  28.937  30.646  1.00  0.00     0.031 A 
ATOM     36  C   UNL A   1      40.289  29.839  30.621  1.00  0.00     0.074 A 
ATOM     37  C   UNL A   1      42.196  28.756  31.776  1.00  0.00     0.049 A 
ATOM     38  N   UNL A   1      39.821  30.617  31.560  1.00  0.00    -0.248 NA
ATOM     39  C   UNL A   1      39.516  29.878  29.368  1.00  0.00     0.031 C 
ATOM     40  C   UNL A   1      43.357  27.875  31.915  1.00  0.00     0.029 A 
ATOM     41  N   UNL A   1      42.058  29.326  33.016  1.00  0.00    -0.354 N 
ATOM     42  C   UNL A   1      38.718  31.256  31.007  1.00  0.00     0.074 A 
ATOM     43  C   UNL A   1      38.587  30.782  29.648  1.00  0.00     0.031 C 
ATOM     44  C   UNL A   1      43.843  27.987  33.164  1.00  0.00     0.029 A 
ATOM     45  C   UNL A   1      43.056  28.977  33.895  1.00  0.00     0.049 A 
ATOM     46  H   UNL A   1      41.315  29.926  33.253  1.00  0.00     0.167 HD
ATOM     47  C   UNL A   1      37.895  32.161  31.586  1.00  0.00     0.037 A 
ATOM     48  C   UNL A   1      43.327  29.442  35.131  1.00  0.00     0.037 A 
ATOM     49  C   UNL A   1      38.029  32.607  32.949  1.00  0.00     0.049 A 
ATOM     50  C   UNL A   1      42.430  30.500  35.726  1.00  0.00     0.074 A 
ATOM     51  C   UNL A   1      37.208  33.468  33.653  1.00  0.00     0.029 A 
ATOM     52  N   UNL A   1      39.056  32.240  33.806  1.00  0.00    -0.354 N 
ATOM     53  N   UNL A   1      41.351  31.050  35.218  1.00  0.00    -0.248 NA
ATOM     54  C   UNL A   1      42.788  31.008  37.058  1.00  0.00     0.031 C 
ATOM     55  C   UNL A   1      37.777  33.678  34.913  1.00  0.00     0.029 A 
ATOM     56  C   UNL A   1      38.917  32.898  35.016  1.00  0.00     0.049 A 
ATOM     57  H   UNL A   1      39.776  31.606  33.586  1.00  0.00     0.167 HD
ATOM     58  C   UNL A   1      40.892  31.946  36.176  1.00  0.00     0.074 A 
ATOM     59  C   UNL A   1      41.796  31.852  37.303  1.00  0.00     0.031 C 
ATOM     60  C   UNL A   1      39.823  32.779  36.130  1.00  0.00     0.037 A 
BRANCH  47  61
ATOM     61  C   UNL A   1      36.793  32.761  30.760  1.00  0.00     0.058 A 
ATOM     62  C   UNL A   1      35.478  32.274  30.805  1.00  0.00     0.135 A 
ATOM     63  C   UNL A   1      37.042  33.908  29.987  1.00  0.00     0.135 A 
ATOM     64  F   UNL A   1      35.191  31.169  31.512  1.00  0.00    -0.206 F 
ATOM     65  C   UNL A   1      34.448  32.905  30.117  1.00  0.00     0.059 A 
ATOM     66  C   UNL A   1      36.022  34.570  29.310  1.00  0.00     0.059 A 
ATOM     67  F   UNL A   1      38.285  34.409  29.902  1.00  0.00    -0.206 F 
ATOM     68  C   UNL A   1      34.727  34.059  29.382  1.00  0.00     0.060 A 
BRANCH  68  69
ATOM     69  S   UNL A   1      33.366  34.901  28.547  1.00  0.00     0.124 S 
ATOM     70  O   UNL A   1      32.740  33.798  27.823  1.00  0.00    -0.237 OA
ATOM     71  O   UNL A   1      32.600  35.438  29.668  1.00  0.00    -0.237 OA
ATOM     72  O   UNL A   1      34.036  35.895  27.716  1.00  0.00    -0.744 OA
ENDBRANCH  68  69
ENDBRANCH  47  61
BRANCH  48  73
ATOM     73  C   UNL A   1      44.521  28.959  35.878  1.00  0.00     0.058 A 
ATOM     74  C   UNL A   1      45.749  29.632  35.795  1.00  0.00     0.135 A 
ATOM     75  C   UNL A   1      44.472  27.786  36.649  1.00  0.00     0.135 A 
ATOM     76  F   UNL A   1      45.851  30.753  35.064  1.00  0.00    -0.206 F 
ATOM     77  C   UNL A   1      46.893  29.143  36.417  1.00  0.00     0.059 A 
ATOM     78  C   UNL A   1      45.595  27.294  37.307  1.00  0.00     0.059 A 
ATOM     79  F   UNL A   1      43.321  27.108  36.773  1.00  0.00    -0.206 F 
ATOM     80  C   UNL A   1      46.806  27.968  37.167  1.00  0.00     0.060 A 
BRANCH  80  81
ATOM     81  S   UNL A   1      48.296  27.340  37.970  1.00  0.00     0.124 S 
ATOM     82  O   UNL A   1      47.911  25.964  38.263  1.00  0.00    -0.237 OA
ATOM     83  O   UNL A   1      49.302  27.514  36.927  1.00  0.00    -0.237 OA
ATOM     84  O   UNL A   1      48.446  28.214  39.128  1.00  0.00    -0.744 OA
ENDBRANCH  80  81
ENDBRANCH  48  73
BRANCH  60  85
ATOM     85  C   UNL A   1      39.553  33.637  37.335  1.00  0.00     0.058 A 
ATOM     86  C   UNL A   1      38.775  33.174  38.407  1.00  0.00     0.135 A 
ATOM     87  C   UNL A   1      40.145  34.906  37.453  1.00  0.00     0.135 A 
ATOM     88  F   UNL A   1      38.181  31.972  38.339  1.00  0.00    -0.206 F 
ATOM     89  C   UNL A   1      38.581  33.943  39.548  1.00  0.00     0.059 A 
ATOM     90  C   UNL A   1      39.990  35.680  38.599  1.00  0.00     0.059 A 
ATOM     91  F   UNL A   1      40.907  35.392  36.461  1.00  0.00    -0.206 F 
ATOM     92  C   UNL A   1      39.200  35.192  39.639  1.00  0.00     0.060 A 
BRANCH  92  93
ATOM     93  S   UNL A   1      38.986  36.152  41.152  1.00  0.00     0.124 S 
ATOM     94  O   UNL A   1      40.274  35.956  41.810  1.00  0.00    -0.237 OA
ATOM     95  O   UNL A   1      38.735  37.494  40.636  1.00  0.00    -0.237 OA
ATOM     96  O   UNL A   1      37.846  35.512  41.803  1.00  0.00    -0.744 OA
ENDBRANCH  92  93
ENDBRANCH  60  85
ENDBRANCH  34  35
ENDBRANCH  27  29
ENDBRANCH  26  27
ENDBRANCH  25  26
ENDBRANCH  24  25
ENDBRANCH  23  24
ENDBRANCH  22  23
ENDBRANCH   1  22
TORSDOF 24
ENDMDL
MODEL 2
REMARK VINA RESULT:      -9.4      6.166     12.780
REMARK SMILES CC(=O)[C@]1(C)CC[C@@H](C(=O)OCCOCCOCCOCCOC(=O)c2ccc(-c3c4nc(c(-c5c(F)cc(S(=O)(=O)[O-])cc5F)c5ccc([nH]5)c(-c5c(F)cc(S(=O)(=O)[O-])cc5F)c5nc(c(-c6c(F)cc(S(=O)(=O)[O-])cc6F)c6ccc3[nH]6)C=C5)C=C4)cc2)C1(C)C
REMARK SMILES IDX 18 1 17 2 16 3 15 4 14 5 13 6 12 7 11 8 9 9 10 10 8 11 4 12
REMARK SMILES IDX 6 13 92 14 5 15 7 16 93 17 94 18 2 19 1 20 3 21 19 22 20 23
REMARK SMILES IDX 21 24 22 25 23 26 24 27 25 28 26 29 27 30 91 31 28 32 90 33
REMARK SMILES IDX 29 34 30 35 31 36 84 37 32 38 89 39 83 40 85 41 33 42 88 43
REMARK SMILES IDX 82 44 81 45 34 47 68 48 47 49 67 50 48 51 51 52 66 53 86 54
REMARK SMILES IDX 49 55 50 56 65 58 87 59 52 60 35 61 36 62 45 63 37 64 38 65
REMARK SMILES IDX 44 66 46 67 39 68 40 69 41 70 42 71 43 72 69 73 70 74 79 75
REMARK SMILES IDX 71 76 72 77 78 78 80 79 73 80 74 81 75 82 76 83 77 84 53 85
REMARK SMILES IDX 54 86 63 87 55 88 56 89 62 90 64 91 57 92 58 93 59 94 60 95
REMARK SMILES IDX 61 96
REMARK H PARENT 85 46 51 57
REMARK Flexibility Score: inf
ROOT
ATOM      1  C   UNL A   1      33.144  35.051  29.977  1.00  0.00     0.188 C 
ENDROOT
BRANCH   1   2
ATOM      2  O   UNL A   1      32.864  34.239  28.843  1.00  0.00    -0.377 OA
BRANCH   2   3
ATOM      3  C   UNL A   1      33.893  33.644  28.077  1.00  0.00     0.188 C 
BRANCH   3   4
ATOM      4  C   UNL A   1      34.075  32.167  28.432  1.00  0.00     0.188 C 
BRANCH   4   5
ATOM      5  O   UNL A   1      34.338  31.269  27.359  1.00  0.00    -0.376 OA
BRANCH   5   6
ATOM      6  C   UNL A   1      33.566  30.072  27.260  1.00  0.00     0.202 C 
BRANCH   6   7
ATOM      7  C   UNL A   1      32.043  30.155  27.024  1.00  0.00     0.261 C 
BRANCH   7   8
ATOM      8  O   UNL A   1      31.601  30.168  25.639  1.00  0.00    -0.463 OA
BRANCH   8   9
ATOM      9  C   UNL A   1      32.157  29.228  24.852  1.00  0.00     0.309 C 
ATOM     10  O   UNL A   1      33.115  29.467  24.111  1.00  0.00    -0.252 OA
BRANCH   9  11
ATOM     11  C   UNL A   1      31.613  27.795  24.917  1.00  0.00     0.106 C 
ATOM     12  C   UNL A   1      31.945  25.687  23.539  1.00  0.00     0.032 C 
ATOM     13  C   UNL A   1      33.248  26.186  24.185  1.00  0.00     0.016 C 
ATOM     14  C   UNL A   1      30.928  26.888  23.811  1.00  0.00    -0.010 C 
ATOM     15  C   UNL A   1      32.250  25.403  22.054  1.00  0.00     0.020 C 
ATOM     16  C   UNL A   1      32.802  26.954  25.412  1.00  0.00     0.017 C 
ATOM     17  C   UNL A   1      30.510  27.595  22.517  1.00  0.00     0.013 C 
ATOM     18  C   UNL A   1      29.581  26.369  24.407  1.00  0.00     0.013 C 
BRANCH  12  19
ATOM     19  C   UNL A   1      31.543  24.356  24.251  1.00  0.00     0.136 C 
ATOM     20  C   UNL A   1      31.343  23.103  23.434  1.00  0.00     0.088 C 
ATOM     21  O   UNL A   1      31.352  24.295  25.470  1.00  0.00    -0.299 OA
ENDBRANCH  12  19
ENDBRANCH   9  11
ENDBRANCH   8   9
ENDBRANCH   7   8
ENDBRANCH   6   7
ENDBRANCH   5   6
ENDBRANCH   4   5
ENDBRANCH   3   4
ENDBRANCH   2   3
ENDBRANCH   1   2
BRANCH   1  22
ATOM     22  C   UNL A   1      34.362  34.697  30.822  1.00  0.00     0.188 C 
BRANCH  22  23
ATOM     23  O   UNL A   1      34.106  34.031  32.061  1.00  0.00    -0.376 OA
BRANCH  23  24
ATOM     24  C   UNL A   1      35.101  33.150  32.576  1.00  0.00     0.202 C 
BRANCH  24  25
ATOM     25  C   UNL A   1      35.329  31.866  31.774  1.00  0.00     0.261 C 
BRANCH  25  26
ATOM     26  O   UNL A   1      36.705  31.672  31.412  1.00  0.00    -0.460 OA
BRANCH  26  27
ATOM     27  C   UNL A   1      37.145  30.391  31.466  1.00  0.00     0.338 C 
ATOM     28  O   UNL A   1      36.533  29.416  31.858  1.00  0.00    -0.246 OA
BRANCH  27  29
ATOM     29  C   UNL A   1      38.473  30.311  30.831  1.00  0.00     0.060 A 
ATOM     30  C   UNL A   1      38.563  30.438  29.439  1.00  0.00     0.016 A 
ATOM     31  C   UNL A   1      39.606  30.039  31.598  1.00  0.00     0.016 A 
ATOM     32  C   UNL A   1      39.792  30.265  28.804  1.00  0.00     0.010 A 
ATOM     33  C   UNL A   1      40.832  29.853  30.959  1.00  0.00     0.010 A 
ATOM     34  C   UNL A   1      40.925  29.940  29.559  1.00  0.00    -0.014 A 
BRANCH  34  35
ATOM     35  C   UNL A   1      42.194  29.569  28.891  1.00  0.00     0.031 A 
ATOM     36  C   UNL A   1      42.364  28.161  28.392  1.00  0.00     0.074 A 
ATOM     37  C   UNL A   1      43.187  30.468  28.774  1.00  0.00     0.049 A 
ATOM     38  N   UNL A   1      43.427  27.581  27.905  1.00  0.00    -0.248 NA
ATOM     39  C   UNL A   1      41.179  27.288  28.459  1.00  0.00     0.031 C 
ATOM     40  C   UNL A   1      43.112  31.869  29.194  1.00  0.00     0.029 A 
ATOM     41  N   UNL A   1      44.464  30.331  28.294  1.00  0.00    -0.354 N 
ATOM     42  C   UNL A   1      43.052  26.271  27.633  1.00  0.00     0.074 A 
ATOM     43  C   UNL A   1      41.663  26.137  28.013  1.00  0.00     0.031 C 
ATOM     44  C   UNL A   1      44.303  32.454  28.979  1.00  0.00     0.029 A 
ATOM     45  C   UNL A   1      45.234  31.460  28.450  1.00  0.00     0.049 A 
ATOM     46  H   UNL A   1      44.797  29.504  27.877  1.00  0.00     0.167 HD
ATOM     47  C   UNL A   1      43.805  25.272  27.116  1.00  0.00     0.037 A 
ATOM     48  C   UNL A   1      46.550  31.650  28.233  1.00  0.00     0.037 A 
ATOM     49  C   UNL A   1      45.181  25.429  26.725  1.00  0.00     0.049 A 
ATOM     50  C   UNL A   1      47.380  30.499  27.719  1.00  0.00     0.074 A 
ATOM     51  C   UNL A   1      46.015  24.501  26.128  1.00  0.00     0.029 A 
ATOM     52  N   UNL A   1      45.931  26.582  26.906  1.00  0.00    -0.354 N 
ATOM     53  N   UNL A   1      46.999  29.283  27.403  1.00  0.00    -0.248 NA
ATOM     54  C   UNL A   1      48.819  30.740  27.537  1.00  0.00     0.031 C 
ATOM     55  C   UNL A   1      47.286  25.069  26.012  1.00  0.00     0.029 A 
ATOM     56  C   UNL A   1      47.230  26.372  26.478  1.00  0.00     0.049 A 
ATOM     57  H   UNL A   1      45.589  27.426  27.282  1.00  0.00     0.167 HD
ATOM     58  C   UNL A   1      48.144  28.627  26.965  1.00  0.00     0.074 A 
ATOM     59  C   UNL A   1      49.227  29.584  27.036  1.00  0.00     0.031 C 
ATOM     60  C   UNL A   1      48.291  27.345  26.547  1.00  0.00     0.037 A 
BRANCH  47  61
ATOM     61  C   UNL A   1      43.187  23.912  26.965  1.00  0.00     0.058 A 
ATOM     62  C   UNL A   1      42.757  23.423  25.722  1.00  0.00     0.135 A 
ATOM     63  C   UNL A   1      43.118  23.046  28.069  1.00  0.00     0.135 A 
ATOM     64  F   UNL A   1      42.781  24.217  24.638  1.00  0.00    -0.206 F 
ATOM     65  C   UNL A   1      42.284  22.123  25.578  1.00  0.00     0.059 A 
ATOM     66  C   UNL A   1      42.672  21.734  27.943  1.00  0.00     0.059 A 
ATOM     67  F   UNL A   1      43.508  23.467  29.283  1.00  0.00    -0.206 F 
ATOM     68  C   UNL A   1      42.257  21.282  26.692  1.00  0.00     0.060 A 
BRANCH  68  69
ATOM     69  S   UNL A   1      41.701  19.579  26.474  1.00  0.00     0.124 S 
ATOM     70  O   UNL A   1      42.414  19.191  25.261  1.00  0.00    -0.237 OA
ATOM     71  O   UNL A   1      42.156  18.944  27.707  1.00  0.00    -0.237 OA
ATOM     72  O   UNL A   1      40.254  19.707  26.336  1.00  0.00    -0.744 OA
ENDBRANCH  68  69
ENDBRANCH  47  61
BRANCH  48  73
ATOM     73  C   UNL A   1      47.188  32.959  28.544  1.00  0.00     0.058 A 
ATOM     74  C   UNL A   1      47.672  33.243  29.830  1.00  0.00     0.135 A 
ATOM     75  C   UNL A   1      47.281  33.973  27.576  1.00  0.00     0.135 A 
ATOM     76  F   UNL A   1      47.598  32.311  30.794  1.00  0.00    -0.206 F 
ATOM     77  C   UNL A   1      48.190  34.491  30.157  1.00  0.00     0.059 A 
ATOM     78  C   UNL A   1      47.825  35.219  27.869  1.00  0.00     0.059 A 
ATOM     79  F   UNL A   1      46.846  33.753  26.326  1.00  0.00    -0.206 F 
ATOM     80  C   UNL A   1      48.257  35.476  29.169  1.00  0.00     0.060 A 
BRANCH  80  81
ATOM     81  S   UNL A   1      48.930  37.094  29.601  1.00  0.00     0.124 S 
ATOM     82  O   UNL A   1      47.795  37.711  30.277  1.00  0.00    -0.237 OA
ATOM     83  O   UNL A   1      50.063  36.738  30.450  1.00  0.00    -0.237 OA
ATOM     84  O   UNL A   1      49.282  37.667  28.307  1.00  0.00    -0.744 OA
ENDBRANCH  80  81
ENDBRANCH  48  73
BRANCH  60  85
ATOM     85  C   UNL A   1      49.661  26.906  26.110  1.00  0.00     0.058 A 
ATOM     86  C   UNL A   1      50.111  27.102  24.795  1.00  0.00     0.135 A 
ATOM     87  C   UNL A   1      50.562  26.355  27.037  1.00  0.00     0.135 A 
ATOM     88  F   UNL A   1      49.286  27.616  23.869  1.00  0.00    -0.206 F 
ATOM     89  C   UNL A   1      51.400  26.755  24.410  1.00  0.00     0.059 A 
ATOM     90  C   UNL A   1      51.867  26.030  26.681  1.00  0.00     0.059 A 
ATOM     91  F   UNL A   1      50.186  26.156  28.310  1.00  0.00    -0.206 F 
ATOM     92  C   UNL A   1      52.275  26.228  25.362  1.00  0.00     0.060 A 
BRANCH  92  93
ATOM     93  S   UNL A   1      53.964  25.838  24.860  1.00  0.00     0.124 S 
ATOM     94  O   UNL A   1      54.741  26.482  25.914  1.00  0.00    -0.237 OA
ATOM     95  O   UNL A   1      53.964  24.379  24.873  1.00  0.00    -0.237 OA
ATOM     96  O   UNL A   1      54.076  26.449  23.538  1.00  0.00    -0.744 OA
ENDBRANCH  92  93
ENDBRANCH  60  85
ENDBRANCH  34  35
ENDBRANCH  27  29
ENDBRANCH  26  27
ENDBRANCH  25  26
ENDBRANCH  24  25
ENDBRANCH  23  24
ENDBRANCH  22  23
ENDBRANCH   1  22
TORSDOF 24
ENDMDL
MODEL 3
REMARK VINA RESULT:      -9.2      5.910     12.346
REMARK SMILES CC(=O)[C@]1(C)CC[C@@H](C(=O)OCCOCCOCCOCCOC(=O)c2ccc(-c3c4nc(c(-c5c(F)cc(S(=O)(=O)[O-])cc5F)c5ccc([nH]5)c(-c5c(F)cc(S(=O)(=O)[O-])cc5F)c5nc(c(-c6c(F)cc(S(=O)(=O)[O-])cc6F)c6ccc3[nH]6)C=C5)C=C4)cc2)C1(C)C
REMARK SMILES IDX 18 1 17 2 16 3 15 4 14 5 13 6 12 7 11 8 9 9 10 10 8 11 4 12
REMARK SMILES IDX 6 13 92 14 5 15 7 16 93 17 94 18 2 19 1 20 3 21 19 22 20 23
REMARK SMILES IDX 21 24 22 25 23 26 24 27 25 28 26 29 27 30 91 31 28 32 90 33
REMARK SMILES IDX 29 34 30 35 31 36 84 37 32 38 89 39 83 40 85 41 33 42 88 43
REMARK SMILES IDX 82 44 81 45 34 47 68 48 47 49 67 50 48 51 51 52 66 53 86 54
REMARK SMILES IDX 49 55 50 56 65 58 87 59 52 60 35 61 36 62 45 63 37 64 38 65
REMARK SMILES IDX 44 66 46 67 39 68 40 69 41 70 42 71 43 72 69 73 70 74 79 75
REMARK SMILES IDX 71 76 72 77 78 78 80 79 73 80 74 81 75 82 76 83 77 84 53 85
REMARK SMILES IDX 54 86 63 87 55 88 56 89 62 90 64 91 57 92 58 93 59 94 60 95
REMARK SMILES IDX 61 96
REMARK H PARENT 85 46 51 57
REMARK Flexibility Score: inf
ROOT
ATOM      1  C   UNL A   1      36.227  33.017  28.186  1.00  0.00     0.188 C 
ENDROOT
BRANCH   1   2
ATOM      2  O   UNL A   1      35.161  32.307  27.568  1.00  0.00    -0.377 OA
BRANCH   2   3
ATOM      3  C   UNL A   1      34.924  30.938  27.831  1.00  0.00     0.188 C 
BRANCH   3   4
ATOM      4  C   UNL A   1      33.538  30.504  27.349  1.00  0.00     0.188 C 
BRANCH   4   5
ATOM      5  O   UNL A   1      33.481  29.686  26.186  1.00  0.00    -0.376 OA
BRANCH   5   6
ATOM      6  C   UNL A   1      33.273  28.282  26.343  1.00  0.00     0.202 C 
BRANCH   6   7
ATOM      7  C   UNL A   1      31.939  27.761  26.920  1.00  0.00     0.261 C 
BRANCH   7   8
ATOM      8  O   UNL A   1      31.698  26.332  26.806  1.00  0.00    -0.463 OA
BRANCH   8   9
ATOM      9  C   UNL A   1      32.127  25.768  25.660  1.00  0.00     0.309 C 
ATOM     10  O   UNL A   1      31.614  26.020  24.565  1.00  0.00    -0.252 OA
BRANCH   9  11
ATOM     11  C   UNL A   1      33.331  24.819  25.710  1.00  0.00     0.106 C 
ATOM     12  C   UNL A   1      33.919  22.609  24.604  1.00  0.00     0.032 C 
ATOM     13  C   UNL A   1      33.709  23.745  23.588  1.00  0.00     0.016 C 
ATOM     14  C   UNL A   1      33.417  23.258  25.974  1.00  0.00    -0.010 C 
ATOM     15  C   UNL A   1      33.103  21.397  24.109  1.00  0.00     0.020 C 
ATOM     16  C   UNL A   1      34.030  25.012  24.354  1.00  0.00     0.017 C 
ATOM     17  C   UNL A   1      32.143  22.586  26.498  1.00  0.00     0.013 C 
ATOM     18  C   UNL A   1      34.455  23.038  27.120  1.00  0.00     0.013 C 
BRANCH  12  19
ATOM     19  C   UNL A   1      35.439  22.249  24.603  1.00  0.00     0.136 C 
ATOM     20  C   UNL A   1      35.873  20.847  24.953  1.00  0.00     0.088 C 
ATOM     21  O   UNL A   1      36.312  23.085  24.352  1.00  0.00    -0.299 OA
ENDBRANCH  12  19
ENDBRANCH   9  11
ENDBRANCH   8   9
ENDBRANCH   7   8
ENDBRANCH   6   7
ENDBRANCH   5   6
ENDBRANCH   4   5
ENDBRANCH   3   4
ENDBRANCH   2   3
ENDBRANCH   1   2
BRANCH   1  22
ATOM     22  C   UNL A   1      35.873  34.053  29.246  1.00  0.00     0.188 C 
BRANCH  22  23
ATOM     23  O   UNL A   1      34.661  33.834  29.970  1.00  0.00    -0.376 OA
BRANCH  23  24
ATOM     24  C   UNL A   1      34.665  32.879  31.028  1.00  0.00     0.202 C 
BRANCH  24  25
ATOM     25  C   UNL A   1      35.968  32.780  31.826  1.00  0.00     0.261 C 
BRANCH  25  26
ATOM     26  O   UNL A   1      36.652  31.533  31.623  1.00  0.00    -0.460 OA
BRANCH  26  27
ATOM     27  C   UNL A   1      37.734  31.329  32.415  1.00  0.00     0.338 C 
ATOM     28  O   UNL A   1      37.804  31.471  33.621  1.00  0.00    -0.246 OA
BRANCH  27  29
ATOM     29  C   UNL A   1      38.822  30.754  31.603  1.00  0.00     0.060 A 
ATOM     30  C   UNL A   1      39.862  30.077  32.252  1.00  0.00     0.016 A 
ATOM     31  C   UNL A   1      38.849  30.950  30.222  1.00  0.00     0.016 A 
ATOM     32  C   UNL A   1      40.953  29.613  31.518  1.00  0.00     0.010 A 
ATOM     33  C   UNL A   1      39.948  30.497  29.492  1.00  0.00     0.010 A 
ATOM     34  C   UNL A   1      41.015  29.850  30.140  1.00  0.00    -0.014 A 
BRANCH  34  35
ATOM     35  C   UNL A   1      42.244  29.535  29.376  1.00  0.00     0.031 A 
ATOM     36  C   UNL A   1      42.398  28.159  28.791  1.00  0.00     0.074 A 
ATOM     37  C   UNL A   1      43.218  30.453  29.248  1.00  0.00     0.049 A 
ATOM     38  N   UNL A   1      43.435  27.621  28.208  1.00  0.00    -0.248 NA
ATOM     39  C   UNL A   1      41.229  27.266  28.883  1.00  0.00     0.031 C 
ATOM     40  C   UNL A   1      43.154  31.828  29.748  1.00  0.00     0.029 A 
ATOM     41  N   UNL A   1      44.464  30.361  28.683  1.00  0.00    -0.354 N 
ATOM     42  C   UNL A   1      43.058  26.322  27.888  1.00  0.00     0.074 A 
ATOM     43  C   UNL A   1      41.698  26.148  28.345  1.00  0.00     0.031 C 
ATOM     44  C   UNL A   1      44.322  32.440  29.493  1.00  0.00     0.029 A 
ATOM     45  C   UNL A   1      45.229  31.490  28.853  1.00  0.00     0.049 A 
ATOM     46  H   UNL A   1      44.779  29.562  28.201  1.00  0.00     0.167 HD
ATOM     47  C   UNL A   1      43.789  25.364  27.271  1.00  0.00     0.037 A 
ATOM     48  C   UNL A   1      46.528  31.711  28.566  1.00  0.00     0.037 A 
ATOM     49  C   UNL A   1      45.136  25.562  26.805  1.00  0.00     0.049 A 
ATOM     50  C   UNL A   1      47.336  30.601  27.939  1.00  0.00     0.074 A 
ATOM     51  C   UNL A   1      45.940  24.679  26.107  1.00  0.00     0.029 A 
ATOM     52  N   UNL A   1      45.882  26.714  27.002  1.00  0.00    -0.354 N 
ATOM     53  N   UNL A   1      46.950  29.399  27.581  1.00  0.00    -0.248 NA
ATOM     54  C   UNL A   1      48.758  30.873  27.683  1.00  0.00     0.031 C 
ATOM     55  C   UNL A   1      47.196  25.271  25.945  1.00  0.00     0.029 A 
ATOM     56  C   UNL A   1      47.155  26.546  26.485  1.00  0.00     0.049 A 
ATOM     57  H   UNL A   1      45.555  27.531  27.446  1.00  0.00     0.167 HD
ATOM     58  C   UNL A   1      48.072  28.784  27.037  1.00  0.00     0.074 A 
ATOM     59  C   UNL A   1      49.147  29.751  27.094  1.00  0.00     0.031 C 
ATOM     60  C   UNL A   1      48.207  27.529  26.541  1.00  0.00     0.037 A 
BRANCH  47  61
ATOM     61  C   UNL A   1      43.177  24.005  27.083  1.00  0.00     0.058 A 
ATOM     62  C   UNL A   1      42.599  23.610  25.868  1.00  0.00     0.135 A 
ATOM     63  C   UNL A   1      43.263  23.049  28.110  1.00  0.00     0.135 A 
ATOM     64  F   UNL A   1      42.473  24.490  24.862  1.00  0.00    -0.206 F 
ATOM     65  C   UNL A   1      42.132  22.314  25.674  1.00  0.00     0.059 A 
ATOM     66  C   UNL A   1      42.825  21.741  27.930  1.00  0.00     0.059 A 
ATOM     67  F   UNL A   1      43.799  23.379  29.296  1.00  0.00    -0.206 F 
ATOM     68  C   UNL A   1      42.261  21.383  26.707  1.00  0.00     0.060 A 
BRANCH  68  69
ATOM     69  S   UNL A   1      41.708  19.690  26.417  1.00  0.00     0.124 S 
ATOM     70  O   UNL A   1      42.048  19.050  27.683  1.00  0.00    -0.237 OA
ATOM     71  O   UNL A   1      40.282  19.870  26.161  1.00  0.00    -0.237 OA
ATOM     72  O   UNL A   1      42.498  19.264  25.266  1.00  0.00    -0.744 OA
ENDBRANCH  68  69
ENDBRANCH  47  61
BRANCH  48  73
ATOM     73  C   UNL A   1      47.169  33.010  28.909  1.00  0.00     0.058 A 
ATOM     74  C   UNL A   1      47.231  34.058  27.978  1.00  0.00     0.135 A 
ATOM     75  C   UNL A   1      47.779  33.213  30.158  1.00  0.00     0.135 A 
ATOM     76  F   UNL A   1      46.671  33.911  26.767  1.00  0.00    -0.206 F 
ATOM     77  C   UNL A   1      47.902  35.243  28.255  1.00  0.00     0.059 A 
ATOM     78  C   UNL A   1      48.429  34.402  30.472  1.00  0.00     0.059 A 
ATOM     79  F   UNL A   1      47.741  32.251  31.092  1.00  0.00    -0.206 F 
ATOM     80  C   UNL A   1      48.505  35.404  29.505  1.00  0.00     0.060 A 
BRANCH  80  81
ATOM     81  S   UNL A   1      49.376  36.945  29.857  1.00  0.00     0.124 S 
ATOM     82  O   UNL A   1      50.408  36.492  30.782  1.00  0.00    -0.237 OA
ATOM     83  O   UNL A   1      49.837  37.346  28.531  1.00  0.00    -0.237 OA
ATOM     84  O   UNL A   1      48.338  37.792  30.434  1.00  0.00    -0.744 OA
ENDBRANCH  80  81
ENDBRANCH  48  73
BRANCH  60  85
ATOM     85  C   UNL A   1      49.552  27.134  25.997  1.00  0.00     0.058 A 
ATOM     86  C   UNL A   1      50.543  26.577  26.820  1.00  0.00     0.135 A 
ATOM     87  C   UNL A   1      49.824  27.242  24.623  1.00  0.00     0.135 A 
ATOM     88  F   UNL A   1      50.336  26.461  28.141  1.00  0.00    -0.206 F 
ATOM     89  C   UNL A   1      51.761  26.152  26.303  1.00  0.00     0.059 A 
ATOM     90  C   UNL A   1      51.024  26.795  24.079  1.00  0.00     0.059 A 
ATOM     91  F   UNL A   1      48.907  27.758  23.790  1.00  0.00    -0.206 F 
ATOM     92  C   UNL A   1      51.989  26.257  24.929  1.00  0.00     0.060 A 
BRANCH  92  93
ATOM     93  S   UNL A   1      53.553  25.647  24.266  1.00  0.00     0.124 S 
ATOM     94  O   UNL A   1      54.522  26.426  25.029  1.00  0.00    -0.237 OA
ATOM     95  O   UNL A   1      53.491  24.224  24.585  1.00  0.00    -0.237 OA
ATOM     96  O   UNL A   1      53.469  25.969  22.844  1.00  0.00    -0.744 OA
ENDBRANCH  92  93
ENDBRANCH  60  85
ENDBRANCH  34  35
ENDBRANCH  27  29
ENDBRANCH  26  27
ENDBRANCH  25  26
ENDBRANCH  24  25
ENDBRANCH  23  24
ENDBRANCH  22  23
ENDBRANCH   1  22
TORSDOF 24
ENDMDL
