MODEL 1
REMARK VINA RESULT:     -10.5      0.000      0.000
REMARK SMILES CC(C)C(=O)Nc1ccc2c([C@H](C(=O)OCCOCCOCCOCCOC(=O)c3ccc(-c4c5nc(c(-c6c(F)cc(S(=O)(=O)[O-])cc6F)c6ccc([nH]6)c(-c6c(F)cc(S(=O)(=O)[O-])cc6F)c6nc(c(-c7c(F)cc(S(=O)(=O)[O-])cc7F)c7ccc4[nH]7)C=C6)C=C5)cc3)[NH+]3CC[NH+](CC(=O)N(C)C)CC3)c[nH]c2c1
REMARK SMILES IDX 21 1 20 2 19 3 18 4 17 5 16 6 15 7 13 8 14 9 12 10 11 11
REMARK SMILES IDX 7 12 8 13 111 14 9 15 110 16 10 17 109 18 108 19 6 21 4 22
REMARK SMILES IDX 5 23 2 25 1 26 3 27 96 28 97 29 107 30 98 32 106 33 99 34
REMARK SMILES IDX 100 36 101 37 102 38 103 39 104 40 105 41 22 42 23 43 24 44
REMARK SMILES IDX 25 45 26 46 27 47 28 48 29 49 30 50 31 51 95 52 32 53 94 54
REMARK SMILES IDX 33 55 34 56 35 57 88 58 36 59 93 60 87 61 89 62 37 63 92 64
REMARK SMILES IDX 86 65 85 66 38 68 72 69 51 70 71 71 52 72 55 73 70 74 90 75
REMARK SMILES IDX 53 76 54 77 69 79 91 80 56 81 39 82 40 83 49 84 41 85 42 86
REMARK SMILES IDX 48 87 50 88 43 89 44 90 45 91 46 92 47 93 73 94 74 95 83 96
REMARK SMILES IDX 75 97 76 98 82 99 84 100 77 101 78 102 79 103 80 104 81 105
REMARK SMILES IDX 57 106 58 107 67 108 59 109 60 110 66 111 68 112 61 113
REMARK SMILES IDX 62 114 63 115 64 116 65 117
REMARK H PARENT 109 20 6 24 96 31 99 35 89 67 55 78
REMARK Flexibility Score: inf
ROOT
ATOM      1  O   UNL A   1      41.439  20.885  27.454  1.00  0.00    -0.377 OA
ENDROOT
BRANCH   1   2
ATOM      2  C   UNL A   1      40.382  20.700  26.532  1.00  0.00     0.188 C 
BRANCH   2   3
ATOM      3  C   UNL A   1      39.700  21.915  25.835  1.00  0.00     0.188 C 
BRANCH   3   4
ATOM      4  O   UNL A   1      38.315  22.006  26.106  1.00  0.00    -0.376 OA
BRANCH   4   5
ATOM      5  C   UNL A   1      37.865  23.319  26.389  1.00  0.00     0.202 C 
BRANCH   5   6
ATOM      6  C   UNL A   1      36.446  23.614  25.896  1.00  0.00     0.261 C 
BRANCH   6   7
ATOM      7  O   UNL A   1      36.307  24.134  24.551  1.00  0.00    -0.459 OA
BRANCH   7   8
ATOM      8  C   UNL A   1      35.303  23.689  23.734  1.00  0.00     0.370 C 
ATOM      9  O   UNL A   1      35.495  23.041  22.712  1.00  0.00    -0.245 OA
BRANCH   8  10
ATOM     10  C   UNL A   1      33.942  24.214  24.260  1.00  0.00     0.328 C 
BRANCH  10  11
ATOM     11  C   UNL A   1      33.420  25.317  23.371  1.00  0.00     0.046 A 
ATOM     12  C   UNL A   1      31.043  28.686  24.064  1.00  0.00     0.043 A 
ATOM     13  C   UNL A   1      31.237  27.862  25.163  1.00  0.00     0.027 A 
ATOM     14  C   UNL A   1      31.459  28.303  22.785  1.00  0.00     0.052 A 
ATOM     15  C   UNL A   1      32.027  26.727  25.057  1.00  0.00     0.013 A 
ATOM     16  C   UNL A   1      32.264  27.162  22.698  1.00  0.00     0.048 A 
ATOM     17  C   UNL A   1      32.576  26.385  23.809  1.00  0.00     0.009 A 
ATOM     18  N   UNL A   1      32.908  26.602  21.621  1.00  0.00    -0.361 N 
ATOM     19  C   UNL A   1      33.632  25.513  22.018  1.00  0.00     0.094 A 
ATOM     20  H   UNL A   1      32.855  26.937  20.698  1.00  0.00     0.166 HD
BRANCH  12  21
ATOM     21  N   UNL A   1      30.446  29.936  24.216  1.00  0.00    -0.326 N 
ATOM     22  C   UNL A   1      29.452  30.506  23.472  1.00  0.00     0.226 C 
ATOM     23  O   UNL A   1      29.190  31.695  23.697  1.00  0.00    -0.274 OA
ATOM     24  H   UNL A   1      30.787  30.482  24.960  1.00  0.00     0.169 HD
BRANCH  22  25
ATOM     25  C   UNL A   1      28.595  29.722  22.458  1.00  0.00     0.072 C 
ATOM     26  C   UNL A   1      27.691  28.651  23.057  1.00  0.00     0.018 C 
ATOM     27  C   UNL A   1      27.872  30.586  21.424  1.00  0.00     0.018 C 
ENDBRANCH  22  25
ENDBRANCH  12  21
ENDBRANCH  10  11
BRANCH  10  28
ATOM     28  N   UNL A   1      32.835  23.243  24.417  1.00  0.00    -0.310 N 
ATOM     29  C   UNL A   1      31.941  22.956  23.303  1.00  0.00     0.325 C 
ATOM     30  C   UNL A   1      33.059  22.078  25.256  1.00  0.00     0.325 C 
ATOM     31  H   UNL A   1      32.289  23.898  24.977  1.00  0.00     0.349 HD
ATOM     32  C   UNL A   1      32.250  21.661  22.505  1.00  0.00     0.325 C 
ATOM     33  C   UNL A   1      33.576  20.919  24.417  1.00  0.00     0.325 C 
ATOM     34  N   UNL A   1      32.831  20.525  23.235  1.00  0.00    -0.318 N 
ATOM     35  H   UNL A   1      33.531  20.172  22.581  1.00  0.00     0.348 HD
BRANCH  34  36
ATOM     36  C   UNL A   1      32.001  19.328  23.385  1.00  0.00     0.364 C 
BRANCH  36  37
ATOM     37  C   UNL A   1      32.818  18.034  23.392  1.00  0.00     0.277 C 
ATOM     38  O   UNL A   1      33.314  17.625  22.338  1.00  0.00    -0.268 OA
ATOM     39  N   UNL A   1      32.913  17.300  24.576  1.00  0.00    -0.344 N 
ATOM     40  C   UNL A   1      32.642  17.777  25.928  1.00  0.00     0.146 C 
ATOM     41  C   UNL A   1      33.377  15.928  24.480  1.00  0.00     0.146 C 
ENDBRANCH  36  37
ENDBRANCH  34  36
ENDBRANCH  10  28
ENDBRANCH   8  10
ENDBRANCH   7   8
ENDBRANCH   6   7
ENDBRANCH   5   6
ENDBRANCH   4   5
ENDBRANCH   3   4
ENDBRANCH   2   3
ENDBRANCH   1   2
BRANCH   1  42
ATOM     42  C   UNL A   1      42.407  21.861  27.124  1.00  0.00     0.188 C 
BRANCH  42  43
ATOM     43  C   UNL A   1      43.181  21.681  25.798  1.00  0.00     0.188 C 
BRANCH  43  44
ATOM     44  O   UNL A   1      44.536  22.111  25.849  1.00  0.00    -0.376 OA
BRANCH  44  45
ATOM     45  C   UNL A   1      44.818  23.486  26.006  1.00  0.00     0.202 C 
BRANCH  45  46
ATOM     46  C   UNL A   1      44.140  24.428  25.005  1.00  0.00     0.261 C 
BRANCH  46  47
ATOM     47  O   UNL A   1      43.596  25.627  25.559  1.00  0.00    -0.460 OA
BRANCH  47  48
ATOM     48  C   UNL A   1      42.271  25.624  25.846  1.00  0.00     0.338 C 
ATOM     49  O   UNL A   1      41.421  24.917  25.359  1.00  0.00    -0.246 OA
BRANCH  48  50
ATOM     50  C   UNL A   1      42.111  26.468  27.053  1.00  0.00     0.060 A 
ATOM     51  C   UNL A   1      41.133  26.106  27.991  1.00  0.00     0.016 A 
ATOM     52  C   UNL A   1      43.001  27.513  27.316  1.00  0.00     0.016 A 
ATOM     53  C   UNL A   1      41.077  26.760  29.219  1.00  0.00     0.010 A 
ATOM     54  C   UNL A   1      42.899  28.215  28.517  1.00  0.00     0.010 A 
ATOM     55  C   UNL A   1      41.928  27.846  29.464  1.00  0.00    -0.014 A 
BRANCH  55  56
ATOM     56  C   UNL A   1      41.573  28.768  30.560  1.00  0.00     0.031 A 
ATOM     57  C   UNL A   1      42.415  28.680  31.802  1.00  0.00     0.074 A 
ATOM     58  C   UNL A   1      40.586  29.673  30.445  1.00  0.00     0.049 A 
ATOM     59  N   UNL A   1      42.338  29.367  32.908  1.00  0.00    -0.248 NA
ATOM     60  C   UNL A   1      43.499  27.678  31.788  1.00  0.00     0.031 C 
ATOM     61  C   UNL A   1      39.743  29.867  29.267  1.00  0.00     0.029 A 
ATOM     62  N   UNL A   1      40.127  30.601  31.345  1.00  0.00    -0.354 N 
ATOM     63  C   UNL A   1      43.361  28.884  33.715  1.00  0.00     0.074 A 
ATOM     64  C   UNL A   1      44.031  27.833  32.988  1.00  0.00     0.031 C 
ATOM     65  C   UNL A   1      38.853  30.843  29.526  1.00  0.00     0.029 A 
ATOM     66  C   UNL A   1      39.048  31.322  30.894  1.00  0.00     0.049 A 
ATOM     67  H   UNL A   1      40.533  30.736  32.232  1.00  0.00     0.167 HD
ATOM     68  C   UNL A   1      43.711  29.287  34.956  1.00  0.00     0.037 A 
ATOM     69  C   UNL A   1      38.298  32.243  31.532  1.00  0.00     0.037 A 
ATOM     70  C   UNL A   1      43.023  30.323  35.674  1.00  0.00     0.049 A 
ATOM     71  C   UNL A   1      38.663  32.625  32.947  1.00  0.00     0.074 A 
ATOM     72  C   UNL A   1      43.294  30.818  36.936  1.00  0.00     0.029 A 
ATOM     73  N   UNL A   1      41.915  31.010  35.199  1.00  0.00    -0.354 N 
ATOM     74  N   UNL A   1      39.654  32.188  33.692  1.00  0.00    -0.248 NA
ATOM     75  C   UNL A   1      37.818  33.630  33.606  1.00  0.00     0.031 C 
ATOM     76  C   UNL A   1      42.313  31.762  37.249  1.00  0.00     0.029 A 
ATOM     77  C   UNL A   1      41.471  31.906  36.155  1.00  0.00     0.049 A 
ATOM     78  H   UNL A   1      41.506  30.879  34.313  1.00  0.00     0.167 HD
ATOM     79  C   UNL A   1      39.566  32.884  34.893  1.00  0.00     0.074 A 
ATOM     80  C   UNL A   1      38.437  33.782  34.770  1.00  0.00     0.031 C 
ATOM     81  C   UNL A   1      40.348  32.796  35.999  1.00  0.00     0.037 A 
BRANCH  68  82
ATOM     82  C   UNL A   1      44.853  28.579  35.622  1.00  0.00     0.058 A 
ATOM     83  C   UNL A   1      46.176  29.035  35.514  1.00  0.00     0.135 A 
ATOM     84  C   UNL A   1      44.615  27.438  36.405  1.00  0.00     0.135 A 
ATOM     85  F   UNL A   1      46.466  30.099  34.747  1.00  0.00    -0.206 F 
ATOM     86  C   UNL A   1      47.223  28.383  36.155  1.00  0.00     0.059 A 
ATOM     87  C   UNL A   1      45.642  26.787  37.078  1.00  0.00     0.059 A 
ATOM     88  F   UNL A   1      43.370  26.948  36.523  1.00  0.00    -0.206 F 
ATOM     89  C   UNL A   1      46.945  27.264  36.942  1.00  0.00     0.060 A 
BRANCH  89  90
ATOM     90  S   UNL A   1      48.309  26.454  37.802  1.00  0.00     0.124 S 
ATOM     91  O   UNL A   1      48.638  27.444  38.823  1.00  0.00    -0.237 OA
ATOM     92  O   UNL A   1      47.685  25.227  38.285  1.00  0.00    -0.237 OA
ATOM     93  O   UNL A   1      49.311  26.275  36.756  1.00  0.00    -0.744 OA
ENDBRANCH  89  90
ENDBRANCH  68  82
BRANCH  69  94
ATOM     94  C   UNL A   1      37.113  32.848  30.861  1.00  0.00     0.058 A 
ATOM     95  C   UNL A   1      37.240  33.938  29.986  1.00  0.00     0.135 A 
ATOM     96  C   UNL A   1      35.819  32.361  31.106  1.00  0.00     0.135 A 
ATOM     97  F   UNL A   1      38.452  34.451  29.727  1.00  0.00    -0.206 F 
ATOM     98  C   UNL A   1      36.129  34.537  29.398  1.00  0.00     0.059 A 
ATOM     99  C   UNL A   1      34.695  32.924  30.508  1.00  0.00     0.059 A 
ATOM    100  F   UNL A   1      35.636  31.317  31.930  1.00  0.00    -0.206 F 
ATOM    101  C   UNL A   1      34.859  34.021  29.664  1.00  0.00     0.060 A 
BRANCH 101 102
ATOM    102  S   UNL A   1      33.428  34.783  28.869  1.00  0.00     0.124 S 
ATOM    103  O   UNL A   1      34.019  35.980  28.282  1.00  0.00    -0.237 OA
ATOM    104  O   UNL A   1      33.014  33.747  27.927  1.00  0.00    -0.237 OA
ATOM    105  O   UNL A   1      32.509  35.013  29.979  1.00  0.00    -0.744 OA
ENDBRANCH 101 102
ENDBRANCH  69  94
BRANCH  81 106
ATOM    106  C   UNL A   1      40.040  33.719  37.146  1.00  0.00     0.058 A 
ATOM    107  C   UNL A   1      40.678  34.961  37.292  1.00  0.00     0.135 A 
ATOM    108  C   UNL A   1      39.046  33.379  38.079  1.00  0.00     0.135 A 
ATOM    109  F   UNL A   1      41.636  35.335  36.428  1.00  0.00    -0.206 F 
ATOM    110  C   UNL A   1      40.362  35.820  38.339  1.00  0.00     0.059 A 
ATOM    111  C   UNL A   1      38.690  34.238  39.113  1.00  0.00     0.059 A 
ATOM    112  F   UNL A   1      38.393  32.210  37.976  1.00  0.00    -0.206 F 
ATOM    113  C   UNL A   1      39.365  35.450  39.243  1.00  0.00     0.060 A 
BRANCH 113 114
ATOM    114  S   UNL A   1      38.948  36.586  40.582  1.00  0.00     0.124 S 
ATOM    115  O   UNL A   1      38.446  37.740  39.843  1.00  0.00    -0.237 OA
ATOM    116  O   UNL A   1      37.950  35.829  41.333  1.00  0.00    -0.237 OA
ATOM    117  O   UNL A   1      40.221  36.785  41.268  1.00  0.00    -0.744 OA
ENDBRANCH 113 114
ENDBRANCH  81 106
ENDBRANCH  55  56
ENDBRANCH  48  50
ENDBRANCH  47  48
ENDBRANCH  46  47
ENDBRANCH  45  46
ENDBRANCH  44  45
ENDBRANCH  43  44
ENDBRANCH  42  43
ENDBRANCH   1  42
TORSDOF 29
ENDMDL
MODEL 2
REMARK VINA RESULT:      -9.2      1.032      7.660
REMARK SMILES CC(C)C(=O)Nc1ccc2c([C@H](C(=O)OCCOCCOCCOCCOC(=O)c3ccc(-c4c5nc(c(-c6c(F)cc(S(=O)(=O)[O-])cc6F)c6ccc([nH]6)c(-c6c(F)cc(S(=O)(=O)[O-])cc6F)c6nc(c(-c7c(F)cc(S(=O)(=O)[O-])cc7F)c7ccc4[nH]7)C=C6)C=C5)cc3)[NH+]3CC[NH+](CC(=O)N(C)C)CC3)c[nH]c2c1
REMARK SMILES IDX 21 1 20 2 19 3 18 4 17 5 16 6 15 7 13 8 14 9 12 10 11 11
REMARK SMILES IDX 7 12 8 13 111 14 9 15 110 16 10 17 109 18 108 19 6 21 4 22
REMARK SMILES IDX 5 23 2 25 1 26 3 27 96 28 97 29 107 30 98 32 106 33 99 34
REMARK SMILES IDX 100 36 101 37 102 38 103 39 104 40 105 41 22 42 23 43 24 44
REMARK SMILES IDX 25 45 26 46 27 47 28 48 29 49 30 50 31 51 95 52 32 53 94 54
REMARK SMILES IDX 33 55 34 56 35 57 88 58 36 59 93 60 87 61 89 62 37 63 92 64
REMARK SMILES IDX 86 65 85 66 38 68 72 69 51 70 71 71 52 72 55 73 70 74 90 75
REMARK SMILES IDX 53 76 54 77 69 79 91 80 56 81 39 82 40 83 49 84 41 85 42 86
REMARK SMILES IDX 48 87 50 88 43 89 44 90 45 91 46 92 47 93 73 94 74 95 83 96
REMARK SMILES IDX 75 97 76 98 82 99 84 100 77 101 78 102 79 103 80 104 81 105
REMARK SMILES IDX 57 106 58 107 67 108 59 109 60 110 66 111 68 112 61 113
REMARK SMILES IDX 62 114 63 115 64 116 65 117
REMARK H PARENT 109 20 6 24 96 31 99 35 89 67 55 78
REMARK Flexibility Score: inf
ROOT
ATOM      1  O   UNL A   1      41.687  21.890  27.437  1.00  0.00    -0.377 OA
ENDROOT
BRANCH   1   2
ATOM      2  C   UNL A   1      40.486  21.273  27.012  1.00  0.00     0.188 C 
BRANCH   2   3
ATOM      3  C   UNL A   1      39.400  22.075  26.235  1.00  0.00     0.188 C 
BRANCH   3   4
ATOM      4  O   UNL A   1      38.777  23.072  27.022  1.00  0.00    -0.376 OA
BRANCH   4   5
ATOM      5  C   UNL A   1      38.118  24.075  26.269  1.00  0.00     0.202 C 
BRANCH   5   6
ATOM      6  C   UNL A   1      36.772  23.636  25.687  1.00  0.00     0.261 C 
BRANCH   6   7
ATOM      7  O   UNL A   1      36.292  24.346  24.520  1.00  0.00    -0.459 OA
BRANCH   7   8
ATOM      8  C   UNL A   1      34.981  24.249  24.136  1.00  0.00     0.370 C 
ATOM      9  O   UNL A   1      34.612  24.252  22.968  1.00  0.00    -0.245 OA
BRANCH   8  10
ATOM     10  C   UNL A   1      34.078  24.232  25.396  1.00  0.00     0.328 C 
BRANCH  10  11
ATOM     11  C   UNL A   1      33.348  25.546  25.542  1.00  0.00     0.046 A 
ATOM     12  C   UNL A   1      31.969  28.388  22.802  1.00  0.00     0.043 A 
ATOM     13  C   UNL A   1      32.676  27.330  22.251  1.00  0.00     0.027 A 
ATOM     14  C   UNL A   1      31.898  28.574  24.186  1.00  0.00     0.052 A 
ATOM     15  C   UNL A   1      33.163  26.314  23.062  1.00  0.00     0.013 A 
ATOM     16  C   UNL A   1      32.382  27.536  24.989  1.00  0.00     0.048 A 
ATOM     17  C   UNL A   1      32.988  26.402  24.455  1.00  0.00     0.009 A 
ATOM     18  N   UNL A   1      32.356  27.372  26.353  1.00  0.00    -0.361 N 
ATOM     19  C   UNL A   1      32.903  26.167  26.695  1.00  0.00     0.094 A 
ATOM     20  H   UNL A   1      31.996  28.029  26.991  1.00  0.00     0.166 HD
BRANCH  12  21
ATOM     21  N   UNL A   1      31.288  29.284  21.981  1.00  0.00    -0.326 N 
ATOM     22  C   UNL A   1      29.965  29.626  21.999  1.00  0.00     0.226 C 
ATOM     23  O   UNL A   1      29.551  30.329  21.068  1.00  0.00    -0.274 OA
ATOM     24  H   UNL A   1      31.834  29.732  21.295  1.00  0.00     0.169 HD
BRANCH  22  25
ATOM     25  C   UNL A   1      29.011  29.264  23.155  1.00  0.00     0.072 C 
ATOM     26  C   UNL A   1      27.890  30.264  23.412  1.00  0.00     0.018 C 
ATOM     27  C   UNL A   1      28.515  27.818  23.150  1.00  0.00     0.018 C 
ENDBRANCH  22  25
ENDBRANCH  12  21
ENDBRANCH  10  11
BRANCH  10  28
ATOM     28  N   UNL A   1      33.053  23.169  25.505  1.00  0.00    -0.310 N 
ATOM     29  C   UNL A   1      32.409  22.640  24.310  1.00  0.00     0.325 C 
ATOM     30  C   UNL A   1      33.223  22.154  26.531  1.00  0.00     0.325 C 
ATOM     31  H   UNL A   1      32.357  23.823  25.862  1.00  0.00     0.349 HD
ATOM     32  C   UNL A   1      32.975  21.297  23.775  1.00  0.00     0.325 C 
ATOM     33  C   UNL A   1      33.988  20.965  25.972  1.00  0.00     0.325 C 
ATOM     34  N   UNL A   1      33.513  20.339  24.752  1.00  0.00    -0.318 N 
ATOM     35  H   UNL A   1      34.350  19.988  24.285  1.00  0.00     0.348 HD
BRANCH  34  36
ATOM     36  C   UNL A   1      32.781  19.084  24.933  1.00  0.00     0.364 C 
BRANCH  36  37
ATOM     37  C   UNL A   1      33.676  17.849  24.808  1.00  0.00     0.277 C 
ATOM     38  O   UNL A   1      34.805  17.967  24.320  1.00  0.00    -0.268 OA
ATOM     39  N   UNL A   1      33.165  16.602  25.172  1.00  0.00    -0.344 N 
ATOM     40  C   UNL A   1      31.998  16.343  26.009  1.00  0.00     0.146 C 
ATOM     41  C   UNL A   1      33.883  15.424  24.720  1.00  0.00     0.146 C 
ENDBRANCH  36  37
ENDBRANCH  34  36
ENDBRANCH  10  28
ENDBRANCH   8  10
ENDBRANCH   7   8
ENDBRANCH   6   7
ENDBRANCH   5   6
ENDBRANCH   4   5
ENDBRANCH   3   4
ENDBRANCH   2   3
ENDBRANCH   1   2
BRANCH   1  42
ATOM     42  C   UNL A   1      42.238  22.867  26.578  1.00  0.00     0.188 C 
BRANCH  42  43
ATOM     43  C   UNL A   1      43.017  22.372  25.337  1.00  0.00     0.188 C 
BRANCH  43  44
ATOM     44  O   UNL A   1      44.432  22.458  25.464  1.00  0.00    -0.376 OA
BRANCH  44  45
ATOM     45  C   UNL A   1      44.998  23.552  26.154  1.00  0.00     0.202 C 
BRANCH  45  46
ATOM     46  C   UNL A   1      45.171  24.840  25.342  1.00  0.00     0.261 C 
BRANCH  46  47
ATOM     47  O   UNL A   1      44.686  26.031  25.965  1.00  0.00    -0.460 OA
BRANCH  47  48
ATOM     48  C   UNL A   1      43.378  26.335  25.771  1.00  0.00     0.338 C 
ATOM     49  O   UNL A   1      42.662  25.939  24.883  1.00  0.00    -0.246 OA
BRANCH  48  50
ATOM     50  C   UNL A   1      42.934  27.031  27.000  1.00  0.00     0.060 A 
ATOM     51  C   UNL A   1      43.269  28.384  27.155  1.00  0.00     0.016 A 
ATOM     52  C   UNL A   1      42.088  26.396  27.915  1.00  0.00     0.016 A 
ATOM     53  C   UNL A   1      42.715  29.119  28.200  1.00  0.00     0.010 A 
ATOM     54  C   UNL A   1      41.591  27.114  29.002  1.00  0.00     0.010 A 
ATOM     55  C   UNL A   1      41.915  28.474  29.151  1.00  0.00    -0.014 A 
BRANCH  55  56
ATOM     56  C   UNL A   1      41.698  29.150  30.445  1.00  0.00     0.031 A 
ATOM     57  C   UNL A   1      40.509  30.067  30.526  1.00  0.00     0.074 A 
ATOM     58  C   UNL A   1      42.484  28.927  31.512  1.00  0.00     0.049 A 
ATOM     59  N   UNL A   1      40.075  30.778  31.529  1.00  0.00    -0.248 NA
ATOM     60  C   UNL A   1      39.696  30.192  29.301  1.00  0.00     0.031 C 
ATOM     61  C   UNL A   1      43.633  28.022  31.548  1.00  0.00     0.029 A 
ATOM     62  N   UNL A   1      42.430  29.454  32.777  1.00  0.00    -0.354 N 
ATOM     63  C   UNL A   1      38.941  31.428  31.059  1.00  0.00     0.074 A 
ATOM     64  C   UNL A   1      38.763  31.050  29.678  1.00  0.00     0.031 C 
ATOM     65  C   UNL A   1      44.188  28.075  32.773  1.00  0.00     0.029 A 
ATOM     66  C   UNL A   1      43.451  29.033  33.596  1.00  0.00     0.049 A 
ATOM     67  H   UNL A   1      41.726  30.076  33.070  1.00  0.00     0.167 HD
ATOM     68  C   UNL A   1      38.119  32.267  31.726  1.00  0.00     0.037 A 
ATOM     69  C   UNL A   1      43.757  29.405  34.855  1.00  0.00     0.037 A 
ATOM     70  C   UNL A   1      38.319  32.648  33.095  1.00  0.00     0.049 A 
ATOM     71  C   UNL A   1      42.863  30.401  35.555  1.00  0.00     0.074 A 
ATOM     72  C   UNL A   1      37.546  33.487  33.875  1.00  0.00     0.029 A 
ATOM     73  N   UNL A   1      39.381  32.226  33.884  1.00  0.00    -0.354 N 
ATOM     74  N   UNL A   1      41.772  30.987  35.115  1.00  0.00    -0.248 NA
ATOM     75  C   UNL A   1      43.234  30.782  36.925  1.00  0.00     0.031 C 
ATOM     76  C   UNL A   1      38.172  33.622  35.116  1.00  0.00     0.029 A 
ATOM     77  C   UNL A   1      39.298  32.812  35.134  1.00  0.00     0.049 A 
ATOM     78  H   UNL A   1      40.086  31.603  33.596  1.00  0.00     0.167 HD
ATOM     79  C   UNL A   1      41.313  31.780  36.162  1.00  0.00     0.074 A 
ATOM     80  C   UNL A   1      42.236  31.588  37.262  1.00  0.00     0.031 C 
ATOM     81  C   UNL A   1      40.227  32.593  36.215  1.00  0.00     0.037 A 
BRANCH  68  82
ATOM     82  C   UNL A   1      36.964  32.855  30.970  1.00  0.00     0.058 A 
ATOM     83  C   UNL A   1      35.651  32.387  31.135  1.00  0.00     0.135 A 
ATOM     84  C   UNL A   1      37.172  33.926  30.086  1.00  0.00     0.135 A 
ATOM     85  F   UNL A   1      35.400  31.341  31.940  1.00  0.00    -0.206 F 
ATOM     86  C   UNL A   1      34.585  32.956  30.447  1.00  0.00     0.059 A 
ATOM     87  C   UNL A   1      36.119  34.529  29.410  1.00  0.00     0.059 A 
ATOM     88  F   UNL A   1      38.412  34.397  29.876  1.00  0.00    -0.206 F 
ATOM     89  C   UNL A   1      34.828  34.033  29.592  1.00  0.00     0.060 A 
BRANCH  89  90
ATOM     90  S   UNL A   1      33.429  34.788  28.739  1.00  0.00     0.124 S 
ATOM     91  O   UNL A   1      34.035  36.003  28.203  1.00  0.00    -0.237 OA
ATOM     92  O   UNL A   1      33.079  33.767  27.757  1.00  0.00    -0.237 OA
ATOM     93  O   UNL A   1      32.452  34.993  29.804  1.00  0.00    -0.744 OA
ENDBRANCH  89  90
ENDBRANCH  68  82
BRANCH  69  94
ATOM     94  C   UNL A   1      44.971  28.865  35.528  1.00  0.00     0.058 A 
ATOM     95  C   UNL A   1      46.226  29.474  35.379  1.00  0.00     0.135 A 
ATOM     96  C   UNL A   1      44.903  27.704  36.315  1.00  0.00     0.135 A 
ATOM     97  F   UNL A   1      46.350  30.578  34.626  1.00  0.00    -0.206 F 
ATOM     98  C   UNL A   1      47.372  28.942  35.965  1.00  0.00     0.059 A 
ATOM     99  C   UNL A   1      46.029  27.169  36.936  1.00  0.00     0.059 A 
ATOM    100  F   UNL A   1      43.728  27.081  36.498  1.00  0.00    -0.206 F 
ATOM    101  C   UNL A   1      47.262  27.789  36.745  1.00  0.00     0.060 A 
BRANCH 101 102
ATOM    102  S   UNL A   1      48.748  27.126  37.529  1.00  0.00     0.124 S 
ATOM    103  O   UNL A   1      48.294  26.931  38.902  1.00  0.00    -0.237 OA
ATOM    104  O   UNL A   1      48.986  25.911  36.756  1.00  0.00    -0.237 OA
ATOM    105  O   UNL A   1      49.732  28.187  37.335  1.00  0.00    -0.744 OA
ENDBRANCH 101 102
ENDBRANCH  69  94
BRANCH  81 106
ATOM    106  C   UNL A   1      39.949  33.301  37.513  1.00  0.00     0.058 A 
ATOM    107  C   UNL A   1      39.004  32.822  38.432  1.00  0.00     0.135 A 
ATOM    108  C   UNL A   1      40.688  34.444  37.865  1.00  0.00     0.135 A 
ATOM    109  F   UNL A   1      38.272  31.734  38.145  1.00  0.00    -0.206 F 
ATOM    110  C   UNL A   1      38.779  33.468  39.643  1.00  0.00     0.059 A 
ATOM    111  C   UNL A   1      40.503  35.085  39.085  1.00  0.00     0.059 A 
ATOM    112  F   UNL A   1      41.616  34.934  37.029  1.00  0.00    -0.206 F 
ATOM    113  C   UNL A   1      39.535  34.598  39.961  1.00  0.00     0.060 A 
BRANCH 113 114
ATOM    114  S   UNL A   1      39.249  35.411  41.547  1.00  0.00     0.124 S 
ATOM    115  O   UNL A   1      37.814  35.670  41.490  1.00  0.00    -0.237 OA
ATOM    116  O   UNL A   1      39.673  34.391  42.500  1.00  0.00    -0.237 OA
ATOM    117  O   UNL A   1      40.104  36.594  41.482  1.00  0.00    -0.744 OA
ENDBRANCH 113 114
ENDBRANCH  81 106
ENDBRANCH  55  56
ENDBRANCH  48  50
ENDBRANCH  47  48
ENDBRANCH  46  47
ENDBRANCH  45  46
ENDBRANCH  44  45
ENDBRANCH  43  44
ENDBRANCH  42  43
ENDBRANCH   1  42
TORSDOF 29
ENDMDL
MODEL 3
REMARK VINA RESULT:      -9.0      1.578      7.618
REMARK SMILES CC(C)C(=O)Nc1ccc2c([C@H](C(=O)OCCOCCOCCOCCOC(=O)c3ccc(-c4c5nc(c(-c6c(F)cc(S(=O)(=O)[O-])cc6F)c6ccc([nH]6)c(-c6c(F)cc(S(=O)(=O)[O-])cc6F)c6nc(c(-c7c(F)cc(S(=O)(=O)[O-])cc7F)c7ccc4[nH]7)C=C6)C=C5)cc3)[NH+]3CC[NH+](CC(=O)N(C)C)CC3)c[nH]c2c1
REMARK SMILES IDX 21 1 20 2 19 3 18 4 17 5 16 6 15 7 13 8 14 9 12 10 11 11
REMARK SMILES IDX 7 12 8 13 111 14 9 15 110 16 10 17 109 18 108 19 6 21 4 22
REMARK SMILES IDX 5 23 2 25 1 26 3 27 96 28 97 29 107 30 98 32 106 33 99 34
REMARK SMILES IDX 100 36 101 37 102 38 103 39 104 40 105 41 22 42 23 43 24 44
REMARK SMILES IDX 25 45 26 46 27 47 28 48 29 49 30 50 31 51 95 52 32 53 94 54
REMARK SMILES IDX 33 55 34 56 35 57 88 58 36 59 93 60 87 61 89 62 37 63 92 64
REMARK SMILES IDX 86 65 85 66 38 68 72 69 51 70 71 71 52 72 55 73 70 74 90 75
REMARK SMILES IDX 53 76 54 77 69 79 91 80 56 81 39 82 40 83 49 84 41 85 42 86
REMARK SMILES IDX 48 87 50 88 43 89 44 90 45 91 46 92 47 93 73 94 74 95 83 96
REMARK SMILES IDX 75 97 76 98 82 99 84 100 77 101 78 102 79 103 80 104 81 105
REMARK SMILES IDX 57 106 58 107 67 108 59 109 60 110 66 111 68 112 61 113
REMARK SMILES IDX 62 114 63 115 64 116 65 117
REMARK H PARENT 109 20 6 24 96 31 99 35 89 67 55 78
REMARK Flexibility Score: inf
ROOT
ATOM      1  O   UNL A   1      41.537  21.875  27.809  1.00  0.00    -0.377 OA
ENDROOT
BRANCH   1   2
ATOM      2  C   UNL A   1      40.399  21.266  27.228  1.00  0.00     0.188 C 
BRANCH   2   3
ATOM      3  C   UNL A   1      39.643  21.938  26.043  1.00  0.00     0.188 C 
BRANCH   3   4
ATOM      4  O   UNL A   1      38.241  21.972  26.226  1.00  0.00    -0.376 OA
BRANCH   4   5
ATOM      5  C   UNL A   1      37.619  23.138  25.714  1.00  0.00     0.202 C 
BRANCH   5   6
ATOM      6  C   UNL A   1      36.326  22.868  24.940  1.00  0.00     0.261 C 
BRANCH   6   7
ATOM      7  O   UNL A   1      35.972  23.806  23.895  1.00  0.00    -0.459 OA
BRANCH   7   8
ATOM      8  C   UNL A   1      34.658  24.068  23.610  1.00  0.00     0.370 C 
ATOM      9  O   UNL A   1      34.262  24.450  22.516  1.00  0.00    -0.245 OA
BRANCH   8  10
ATOM     10  C   UNL A   1      33.810  23.892  24.897  1.00  0.00     0.328 C 
BRANCH  10  11
ATOM     11  C   UNL A   1      33.050  25.160  25.206  1.00  0.00     0.046 A 
ATOM     12  C   UNL A   1      29.474  26.788  23.777  1.00  0.00     0.043 A 
ATOM     13  C   UNL A   1      29.874  25.610  23.164  1.00  0.00     0.027 A 
ATOM     14  C   UNL A   1      30.312  27.466  24.669  1.00  0.00     0.052 A 
ATOM     15  C   UNL A   1      31.034  24.967  23.572  1.00  0.00     0.013 A 
ATOM     16  C   UNL A   1      31.471  26.798  25.078  1.00  0.00     0.048 A 
ATOM     17  C   UNL A   1      31.833  25.555  24.568  1.00  0.00     0.009 A 
ATOM     18  N   UNL A   1      32.421  27.144  26.008  1.00  0.00    -0.361 N 
ATOM     19  C   UNL A   1      33.357  26.153  26.119  1.00  0.00     0.094 A 
ATOM     20  H   UNL A   1      32.427  27.984  26.521  1.00  0.00     0.166 HD
BRANCH  12  21
ATOM     21  N   UNL A   1      28.207  27.315  23.535  1.00  0.00    -0.326 N 
ATOM     22  C   UNL A   1      27.866  28.571  23.122  1.00  0.00     0.226 C 
ATOM     23  O   UNL A   1      26.662  28.860  23.125  1.00  0.00    -0.274 OA
ATOM     24  H   UNL A   1      27.455  26.697  23.682  1.00  0.00     0.169 HD
BRANCH  22  25
ATOM     25  C   UNL A   1      28.885  29.588  22.568  1.00  0.00     0.072 C 
ATOM     26  C   UNL A   1      28.488  30.264  21.262  1.00  0.00     0.018 C 
ATOM     27  C   UNL A   1      29.428  30.579  23.598  1.00  0.00     0.018 C 
ENDBRANCH  22  25
ENDBRANCH  12  21
ENDBRANCH  10  11
BRANCH  10  28
ATOM     28  N   UNL A   1      32.822  22.791  24.935  1.00  0.00    -0.310 N 
ATOM     29  C   UNL A   1      32.511  22.036  23.728  1.00  0.00     0.325 C 
ATOM     30  C   UNL A   1      32.761  21.965  26.129  1.00  0.00     0.325 C 
ATOM     31  H   UNL A   1      32.040  23.442  24.998  1.00  0.00     0.349 HD
ATOM     32  C   UNL A   1      33.231  20.668  23.581  1.00  0.00     0.325 C 
ATOM     33  C   UNL A   1      33.675  20.759  25.981  1.00  0.00     0.325 C 
ATOM     34  N   UNL A   1      33.536  19.916  24.806  1.00  0.00    -0.318 N 
ATOM     35  H   UNL A   1      34.472  19.555  24.622  1.00  0.00     0.348 HD
BRANCH  34  36
ATOM     36  C   UNL A   1      32.818  18.657  25.017  1.00  0.00     0.364 C 
BRANCH  36  37
ATOM     37  C   UNL A   1      33.742  17.437  25.007  1.00  0.00     0.277 C 
ATOM     38  O   UNL A   1      34.905  17.561  24.610  1.00  0.00    -0.268 OA
ATOM     39  N   UNL A   1      33.223  16.192  25.367  1.00  0.00    -0.344 N 
ATOM     40  C   UNL A   1      31.995  15.936  26.113  1.00  0.00     0.146 C 
ATOM     41  C   UNL A   1      33.995  15.015  25.014  1.00  0.00     0.146 C 
ENDBRANCH  36  37
ENDBRANCH  34  36
ENDBRANCH  10  28
ENDBRANCH   8  10
ENDBRANCH   7   8
ENDBRANCH   6   7
ENDBRANCH   5   6
ENDBRANCH   4   5
ENDBRANCH   3   4
ENDBRANCH   2   3
ENDBRANCH   1   2
BRANCH   1  42
ATOM     42  C   UNL A   1      42.139  22.923  27.077  1.00  0.00     0.188 C 
BRANCH  42  43
ATOM     43  C   UNL A   1      42.847  22.556  25.752  1.00  0.00     0.188 C 
BRANCH  43  44
ATOM     44  O   UNL A   1      44.249  22.345  25.877  1.00  0.00    -0.376 OA
BRANCH  44  45
ATOM     45  C   UNL A   1      44.952  22.984  26.923  1.00  0.00     0.202 C 
BRANCH  45  46
ATOM     46  C   UNL A   1      45.913  24.100  26.500  1.00  0.00     0.261 C 
BRANCH  46  47
ATOM     47  O   UNL A   1      45.622  25.395  27.029  1.00  0.00    -0.460 OA
BRANCH  47  48
ATOM     48  C   UNL A   1      44.504  26.008  26.569  1.00  0.00     0.338 C 
ATOM     49  O   UNL A   1      43.899  25.755  25.555  1.00  0.00    -0.246 OA
BRANCH  48  50
ATOM     50  C   UNL A   1      44.022  26.865  27.677  1.00  0.00     0.060 A 
ATOM     51  C   UNL A   1      44.234  28.248  27.586  1.00  0.00     0.016 A 
ATOM     52  C   UNL A   1      43.257  26.326  28.716  1.00  0.00     0.016 A 
ATOM     53  C   UNL A   1      43.636  29.102  28.510  1.00  0.00     0.010 A 
ATOM     54  C   UNL A   1      42.718  27.176  29.682  1.00  0.00     0.010 A 
ATOM     55  C   UNL A   1      42.918  28.563  29.585  1.00  0.00    -0.014 A 
BRANCH  55  56
ATOM     56  C   UNL A   1      42.666  29.432  30.752  1.00  0.00     0.031 A 
ATOM     57  C   UNL A   1      41.397  30.237  30.720  1.00  0.00     0.074 A 
ATOM     58  C   UNL A   1      43.494  29.469  31.810  1.00  0.00     0.049 A 
ATOM     59  N   UNL A   1      40.920  31.069  31.603  1.00  0.00    -0.248 NA
ATOM     60  C   UNL A   1      40.549  30.074  29.524  1.00  0.00     0.031 C 
ATOM     61  C   UNL A   1      44.724  28.692  31.956  1.00  0.00     0.029 A 
ATOM     62  N   UNL A   1      43.418  30.201  32.968  1.00  0.00    -0.354 N 
ATOM     63  C   UNL A   1      39.719  31.523  31.072  1.00  0.00     0.074 A 
ATOM     64  C   UNL A   1      39.547  30.897  29.784  1.00  0.00     0.031 C 
ATOM     65  C   UNL A   1      45.298  29.006  33.132  1.00  0.00     0.029 A 
ATOM     66  C   UNL A   1      44.491  30.022  33.807  1.00  0.00     0.049 A 
ATOM     67  H   UNL A   1      42.663  30.798  33.178  1.00  0.00     0.167 HD
ATOM     68  C   UNL A   1      38.835  32.387  31.617  1.00  0.00     0.037 A 
ATOM     69  C   UNL A   1      44.788  30.633  34.972  1.00  0.00     0.037 A 
ATOM     70  C   UNL A   1      39.028  33.017  32.893  1.00  0.00     0.049 A 
ATOM     71  C   UNL A   1      43.819  31.651  35.525  1.00  0.00     0.074 A 
ATOM     72  C   UNL A   1      38.195  33.905  33.546  1.00  0.00     0.029 A 
ATOM     73  N   UNL A   1      40.142  32.836  33.700  1.00  0.00    -0.354 N 
ATOM     74  N   UNL A   1      42.667  32.050  35.033  1.00  0.00    -0.248 NA
ATOM     75  C   UNL A   1      44.181  32.296  36.795  1.00  0.00     0.031 C 
ATOM     76  C   UNL A   1      38.833  34.310  34.721  1.00  0.00     0.029 A 
ATOM     77  C   UNL A   1      40.032  33.620  34.835  1.00  0.00     0.049 A 
ATOM     78  H   UNL A   1      40.897  32.239  33.496  1.00  0.00     0.167 HD
ATOM     79  C   UNL A   1      42.158  32.969  35.946  1.00  0.00     0.074 A 
ATOM     80  C   UNL A   1      43.119  33.055  37.026  1.00  0.00     0.031 C 
ATOM     81  C   UNL A   1      41.001  33.677  35.901  1.00  0.00     0.037 A 
BRANCH  68  82
ATOM     82  C   UNL A   1      37.613  32.729  30.817  1.00  0.00     0.058 A 
ATOM     83  C   UNL A   1      37.612  33.756  29.861  1.00  0.00     0.135 A 
ATOM     84  C   UNL A   1      36.428  31.994  30.991  1.00  0.00     0.135 A 
ATOM     85  F   UNL A   1      38.706  34.514  29.680  1.00  0.00    -0.206 F 
ATOM     86  C   UNL A   1      36.479  34.047  29.109  1.00  0.00     0.059 A 
ATOM     87  C   UNL A   1      35.294  32.248  30.231  1.00  0.00     0.059 A 
ATOM     88  F   UNL A   1      36.370  31.015  31.909  1.00  0.00    -0.206 F 
ATOM     89  C   UNL A   1      35.326  33.281  29.295  1.00  0.00     0.060 A 
BRANCH  89  90
ATOM     90  S   UNL A   1      33.878  33.644  28.281  1.00  0.00     0.124 S 
ATOM     91  O   UNL A   1      33.495  32.309  27.832  1.00  0.00    -0.237 OA
ATOM     92  O   UNL A   1      32.978  34.273  29.243  1.00  0.00    -0.237 OA
ATOM     93  O   UNL A   1      34.402  34.528  27.245  1.00  0.00    -0.744 OA
ENDBRANCH  89  90
ENDBRANCH  68  82
BRANCH  69  94
ATOM     94  C   UNL A   1      46.063  30.330  35.680  1.00  0.00     0.058 A 
ATOM     95  C   UNL A   1      47.254  31.004  35.370  1.00  0.00     0.135 A 
ATOM     96  C   UNL A   1      46.120  29.334  36.668  1.00  0.00     0.135 A 
ATOM     97  F   UNL A   1      47.259  31.956  34.425  1.00  0.00    -0.206 F 
ATOM     98  C   UNL A   1      48.457  30.686  35.995  1.00  0.00     0.059 A 
ATOM     99  C   UNL A   1      47.304  29.019  37.328  1.00  0.00     0.059 A 
ATOM    100  F   UNL A   1      45.011  28.660  37.010  1.00  0.00    -0.206 F 
ATOM    101  C   UNL A   1      48.472  29.692  36.975  1.00  0.00     0.060 A 
BRANCH 101 102
ATOM    102  S   UNL A   1      50.031  29.313  37.804  1.00  0.00     0.124 S 
ATOM    103  O   UNL A   1      50.755  30.571  37.662  1.00  0.00    -0.237 OA
ATOM    104  O   UNL A   1      49.586  28.981  39.155  1.00  0.00    -0.237 OA
ATOM    105  O   UNL A   1      50.557  28.191  37.033  1.00  0.00    -0.744 OA
ENDBRANCH 101 102
ENDBRANCH  69  94
BRANCH  81 106
ATOM    106  C   UNL A   1      40.685  34.572  37.068  1.00  0.00     0.058 A 
ATOM    107  C   UNL A   1      41.193  35.877  37.161  1.00  0.00     0.135 A 
ATOM    108  C   UNL A   1      39.809  34.135  38.076  1.00  0.00     0.135 A 
ATOM    109  F   UNL A   1      42.034  36.345  36.225  1.00  0.00    -0.206 F 
ATOM    110  C   UNL A   1      40.868  36.707  38.229  1.00  0.00     0.059 A 
ATOM    111  C   UNL A   1      39.444  34.960  39.134  1.00  0.00     0.059 A 
ATOM    112  F   UNL A   1      39.282  32.901  38.026  1.00  0.00    -0.206 F 
ATOM    113  C   UNL A   1      39.991  36.239  39.210  1.00  0.00     0.060 A 
BRANCH 113 114
ATOM    114  S   UNL A   1      39.558  37.336  40.576  1.00  0.00     0.124 S 
ATOM    115  O   UNL A   1      39.428  36.391  41.681  1.00  0.00    -0.237 OA
ATOM    116  O   UNL A   1      40.712  38.228  40.636  1.00  0.00    -0.237 OA
ATOM    117  O   UNL A   1      38.314  37.958  40.133  1.00  0.00    -0.744 OA
ENDBRANCH 113 114
ENDBRANCH  81 106
ENDBRANCH  55  56
ENDBRANCH  48  50
ENDBRANCH  47  48
ENDBRANCH  46  47
ENDBRANCH  45  46
ENDBRANCH  44  45
ENDBRANCH  43  44
ENDBRANCH  42  43
ENDBRANCH   1  42
TORSDOF 29
ENDMDL
