MODEL 1
REMARK VINA RESULT:      -6.7      0.000      0.000
REMARK SMILES C[C@@H](CCCO)Nc1ccc(C(=O)OCCOCCOCCOCCOC(=O)c2ccc(-c3c4nc(c(-c5c(F)cc(S(=O)(=O)[O-])cc5F)c5ccc([nH]5)c(-c5c(F)cc(S(=O)(=O)[O-])cc5F)c5nc(c(-c6c(F)cc(S(=O)(=O)[O-])cc6F)c6ccc3[nH]6)C=C5)C=C4)cc2)o1
REMARK SMILES IDX 18 1 17 2 16 3 15 4 14 5 12 6 13 7 11 8 8 9 9 10 95 11 10 12
REMARK SMILES IDX 7 13 2 15 1 16 3 17 4 18 5 19 6 20 19 22 20 23 21 24 22 25
REMARK SMILES IDX 23 26 24 27 25 28 26 29 27 30 28 31 29 32 30 33 94 34 31 35
REMARK SMILES IDX 93 36 32 37 33 38 34 39 87 40 35 41 92 42 86 43 88 44 36 45
REMARK SMILES IDX 91 46 85 47 84 48 37 50 71 51 50 52 70 53 51 54 54 55 69 56
REMARK SMILES IDX 89 57 52 58 53 59 68 61 90 62 55 63 38 64 39 65 48 66 40 67
REMARK SMILES IDX 41 68 47 69 49 70 42 71 43 72 44 73 45 74 46 75 72 76 73 77
REMARK SMILES IDX 82 78 74 79 75 80 81 81 83 82 76 83 77 84 78 85 79 86 80 87
REMARK SMILES IDX 56 88 57 89 66 90 58 91 59 92 65 93 67 94 60 95 61 96 62 97
REMARK SMILES IDX 63 98 64 99
REMARK H PARENT 7 14 6 21 88 49 54 60
REMARK Flexibility Score: inf
ROOT
ATOM      1  C   UNL A   1      52.036  22.237  34.921  1.00  0.00     0.188 C 
ENDROOT
BRANCH   1   2
ATOM      2  O   UNL A   1      52.039  20.830  34.692  1.00  0.00    -0.376 OA
BRANCH   2   3
ATOM      3  C   UNL A   1      51.161  20.031  35.479  1.00  0.00     0.202 C 
BRANCH   3   4
ATOM      4  C   UNL A   1      49.755  20.565  35.813  1.00  0.00     0.261 C 
BRANCH   4   5
ATOM      5  O   UNL A   1      48.834  19.639  36.411  1.00  0.00    -0.457 OA
BRANCH   5   6
ATOM      6  C   UNL A   1      47.915  20.109  37.290  1.00  0.00     0.374 C 
ATOM      7  O   UNL A   1      48.068  20.161  38.504  1.00  0.00    -0.242 OA
BRANCH   6   8
ATOM      8  C   UNL A   1      46.817  20.669  36.538  1.00  0.00     0.214 A 
ATOM      9  C   UNL A   1      45.653  22.322  35.673  1.00  0.00     0.194 A 
ATOM     10  C   UNL A   1      45.104  21.169  35.166  1.00  0.00     0.070 A 
ATOM     11  O   UNL A   1      46.686  22.033  36.501  1.00  0.00    -0.434 OA
ATOM     12  C   UNL A   1      45.871  20.102  35.699  1.00  0.00     0.060 A 
BRANCH   9  13
ATOM     13  N   UNL A   1      45.382  23.632  35.533  1.00  0.00    -0.354 N 
ATOM     14  H   UNL A   1      45.176  24.181  36.325  1.00  0.00     0.163 HD
BRANCH  13  15
ATOM     15  C   UNL A   1      45.395  24.239  34.205  1.00  0.00     0.079 C 
ATOM     16  C   UNL A   1      43.950  24.475  33.763  1.00  0.00     0.031 C 
BRANCH  15  17
ATOM     17  C   UNL A   1      46.255  25.511  34.162  1.00  0.00     0.027 C 
BRANCH  17  18
ATOM     18  C   UNL A   1      47.654  25.445  34.791  1.00  0.00     0.030 C 
BRANCH  18  19
ATOM     19  C   UNL A   1      48.715  26.326  34.143  1.00  0.00     0.156 C 
BRANCH  19  20
ATOM     20  O   UNL A   1      49.114  27.370  35.014  1.00  0.00    -0.396 OA
ATOM     21  H   UNL A   1      48.732  27.222  35.893  1.00  0.00     0.210 HD
ENDBRANCH  19  20
ENDBRANCH  18  19
ENDBRANCH  17  18
ENDBRANCH  15  17
ENDBRANCH  13  15
ENDBRANCH   9  13
ENDBRANCH   6   8
ENDBRANCH   5   6
ENDBRANCH   4   5
ENDBRANCH   3   4
ENDBRANCH   2   3
ENDBRANCH   1   2
BRANCH   1  22
ATOM     22  C   UNL A   1      53.100  22.674  35.941  1.00  0.00     0.188 C 
BRANCH  22  23
ATOM     23  O   UNL A   1      52.592  23.648  36.846  1.00  0.00    -0.377 OA
BRANCH  23  24
ATOM     24  C   UNL A   1      51.272  23.411  37.329  1.00  0.00     0.188 C 
BRANCH  24  25
ATOM     25  C   UNL A   1      50.955  23.767  38.795  1.00  0.00     0.188 C 
BRANCH  25  26
ATOM     26  O   UNL A   1      50.618  25.148  38.974  1.00  0.00    -0.376 OA
BRANCH  26  27
ATOM     27  C   UNL A   1      49.472  25.606  38.261  1.00  0.00     0.202 C 
BRANCH  27  28
ATOM     28  C   UNL A   1      48.147  25.072  38.823  1.00  0.00     0.261 C 
BRANCH  28  29
ATOM     29  O   UNL A   1      46.993  25.855  38.478  1.00  0.00    -0.460 OA
BRANCH  29  30
ATOM     30  C   UNL A   1      47.198  27.172  38.261  1.00  0.00     0.338 C 
ATOM     31  O   UNL A   1      48.133  27.843  38.659  1.00  0.00    -0.246 OA
BRANCH  30  32
ATOM     32  C   UNL A   1      46.188  27.648  37.295  1.00  0.00     0.060 A 
ATOM     33  C   UNL A   1      46.494  28.766  36.511  1.00  0.00     0.016 A 
ATOM     34  C   UNL A   1      44.943  27.022  37.184  1.00  0.00     0.016 A 
ATOM     35  C   UNL A   1      45.532  29.296  35.653  1.00  0.00     0.010 A 
ATOM     36  C   UNL A   1      43.975  27.560  36.333  1.00  0.00     0.010 A 
ATOM     37  C   UNL A   1      44.253  28.723  35.595  1.00  0.00    -0.014 A 
BRANCH  37  38
ATOM     38  C   UNL A   1      43.161  29.450  34.905  1.00  0.00     0.031 A 
ATOM     39  C   UNL A   1      42.762  29.003  33.525  1.00  0.00     0.074 A 
ATOM     40  C   UNL A   1      42.516  30.465  35.505  1.00  0.00     0.049 A 
ATOM     41  N   UNL A   1      41.816  29.459  32.747  1.00  0.00    -0.248 NA
ATOM     42  C   UNL A   1      43.536  27.893  32.944  1.00  0.00     0.031 C 
ATOM     43  C   UNL A   1      42.806  30.983  36.841  1.00  0.00     0.029 A 
ATOM     44  N   UNL A   1      41.478  31.244  35.060  1.00  0.00    -0.354 N 
ATOM     45  C   UNL A   1      41.870  28.687  31.593  1.00  0.00     0.074 A 
ATOM     46  C   UNL A   1      42.968  27.758  31.755  1.00  0.00     0.031 C 
ATOM     47  C   UNL A   1      41.968  32.001  37.106  1.00  0.00     0.029 A 
ATOM     48  C   UNL A   1      41.090  32.211  35.956  1.00  0.00     0.049 A 
ATOM     49  H   UNL A   1      41.052  31.122  34.181  1.00  0.00     0.167 HD
ATOM     50  C   UNL A   1      41.069  28.735  30.502  1.00  0.00     0.037 A 
ATOM     51  C   UNL A   1      40.135  33.156  35.854  1.00  0.00     0.037 A 
ATOM     52  C   UNL A   1      39.987  29.667  30.334  1.00  0.00     0.049 A 
ATOM     53  C   UNL A   1      39.281  33.215  34.614  1.00  0.00     0.074 A 
ATOM     54  C   UNL A   1      39.116  29.795  29.266  1.00  0.00     0.029 A 
ATOM     55  N   UNL A   1      39.630  30.636  31.260  1.00  0.00    -0.354 N 
ATOM     56  N   UNL A   1      39.322  32.454  33.545  1.00  0.00    -0.248 NA
ATOM     57  C   UNL A   1      38.241  34.253  34.573  1.00  0.00     0.031 C 
ATOM     58  C   UNL A   1      38.251  30.863  29.533  1.00  0.00     0.029 A 
ATOM     59  C   UNL A   1      38.559  31.374  30.784  1.00  0.00     0.049 A 
ATOM     60  H   UNL A   1      40.073  30.779  32.128  1.00  0.00     0.167 HD
ATOM     61  C   UNL A   1      38.297  32.904  32.719  1.00  0.00     0.074 A 
ATOM     62  C   UNL A   1      37.647  33.994  33.416  1.00  0.00     0.031 C 
ATOM     63  C   UNL A   1      37.923  32.452  31.495  1.00  0.00     0.037 A 
BRANCH  50  64
ATOM     64  C   UNL A   1      41.347  27.752  29.401  1.00  0.00     0.058 A 
ATOM     65  C   UNL A   1      42.470  27.885  28.569  1.00  0.00     0.135 A 
ATOM     66  C   UNL A   1      40.496  26.658  29.186  1.00  0.00     0.135 A 
ATOM     67  F   UNL A   1      43.303  28.928  28.719  1.00  0.00    -0.206 F 
ATOM     68  C   UNL A   1      42.729  26.978  27.547  1.00  0.00     0.059 A 
ATOM     69  C   UNL A   1      40.747  25.725  28.183  1.00  0.00     0.059 A 
ATOM     70  F   UNL A   1      39.406  26.490  29.950  1.00  0.00    -0.206 F 
ATOM     71  C   UNL A   1      41.859  25.902  27.360  1.00  0.00     0.060 A 
BRANCH  71  72
ATOM     72  S   UNL A   1      42.208  24.729  26.033  1.00  0.00     0.124 S 
ATOM     73  O   UNL A   1      41.340  23.613  26.396  1.00  0.00    -0.237 OA
ATOM     74  O   UNL A   1      41.816  25.475  24.842  1.00  0.00    -0.237 OA
ATOM     75  O   UNL A   1      43.640  24.480  26.170  1.00  0.00    -0.744 OA
ENDBRANCH  71  72
ENDBRANCH  50  64
BRANCH  51  76
ATOM     76  C   UNL A   1      39.923  34.123  36.963  1.00  0.00     0.058 A 
ATOM     77  C   UNL A   1      39.104  33.804  38.055  1.00  0.00     0.135 A 
ATOM     78  C   UNL A   1      40.521  35.392  36.940  1.00  0.00     0.135 A 
ATOM     79  F   UNL A   1      38.502  32.606  38.114  1.00  0.00    -0.206 F 
ATOM     80  C   UNL A   1      38.868  34.716  39.079  1.00  0.00     0.059 A 
ATOM     81  C   UNL A   1      40.317  36.313  37.963  1.00  0.00     0.059 A 
ATOM     82  F   UNL A   1      41.320  35.741  35.921  1.00  0.00    -0.206 F 
ATOM     83  C   UNL A   1      39.479  35.969  39.023  1.00  0.00     0.060 A 
BRANCH  83  84
ATOM     84  S   UNL A   1      39.200  37.134  40.374  1.00  0.00     0.124 S 
ATOM     85  O   UNL A   1      38.502  38.217  39.690  1.00  0.00    -0.237 OA
ATOM     86  O   UNL A   1      38.399  36.344  41.304  1.00  0.00    -0.237 OA
ATOM     87  O   UNL A   1      40.552  37.443  40.831  1.00  0.00    -0.744 OA
ENDBRANCH  83  84
ENDBRANCH  51  76
BRANCH  63  88
ATOM     88  C   UNL A   1      36.737  33.118  30.852  1.00  0.00     0.058 A 
ATOM     89  C   UNL A   1      36.882  33.984  29.758  1.00  0.00     0.135 A 
ATOM     90  C   UNL A   1      35.440  32.866  31.326  1.00  0.00     0.135 A 
ATOM     91  F   UNL A   1      38.101  34.258  29.269  1.00  0.00    -0.206 F 
ATOM     92  C   UNL A   1      35.782  34.609  29.178  1.00  0.00     0.059 A 
ATOM     93  C   UNL A   1      34.324  33.463  30.746  1.00  0.00     0.059 A 
ATOM     94  F   UNL A   1      35.247  32.034  32.361  1.00  0.00    -0.206 F 
ATOM     95  C   UNL A   1      34.507  34.347  29.684  1.00  0.00     0.060 A 
BRANCH  95  96
ATOM     96  S   UNL A   1      33.085  35.161  28.928  1.00  0.00     0.124 S 
ATOM     97  O   UNL A   1      32.683  34.178  27.927  1.00  0.00    -0.237 OA
ATOM     98  O   UNL A   1      32.174  35.324  30.057  1.00  0.00    -0.237 OA
ATOM     99  O   UNL A   1      33.646  36.401  28.401  1.00  0.00    -0.744 OA
ENDBRANCH  95  96
ENDBRANCH  63  88
ENDBRANCH  37  38
ENDBRANCH  30  32
ENDBRANCH  29  30
ENDBRANCH  28  29
ENDBRANCH  27  28
ENDBRANCH  26  27
ENDBRANCH  25  26
ENDBRANCH  24  25
ENDBRANCH  23  24
ENDBRANCH  22  23
ENDBRANCH   1  22
TORSDOF 29
ENDMDL
MODEL 2
REMARK VINA RESULT:      -6.6      9.232     17.064
REMARK SMILES C[C@@H](CCCO)Nc1ccc(C(=O)OCCOCCOCCOCCOC(=O)c2ccc(-c3c4nc(c(-c5c(F)cc(S(=O)(=O)[O-])cc5F)c5ccc([nH]5)c(-c5c(F)cc(S(=O)(=O)[O-])cc5F)c5nc(c(-c6c(F)cc(S(=O)(=O)[O-])cc6F)c6ccc3[nH]6)C=C5)C=C4)cc2)o1
REMARK SMILES IDX 18 1 17 2 16 3 15 4 14 5 12 6 13 7 11 8 8 9 9 10 95 11 10 12
REMARK SMILES IDX 7 13 2 15 1 16 3 17 4 18 5 19 6 20 19 22 20 23 21 24 22 25
REMARK SMILES IDX 23 26 24 27 25 28 26 29 27 30 28 31 29 32 30 33 94 34 31 35
REMARK SMILES IDX 93 36 32 37 33 38 34 39 87 40 35 41 92 42 86 43 88 44 36 45
REMARK SMILES IDX 91 46 85 47 84 48 37 50 71 51 50 52 70 53 51 54 54 55 69 56
REMARK SMILES IDX 89 57 52 58 53 59 68 61 90 62 55 63 38 64 39 65 48 66 40 67
REMARK SMILES IDX 41 68 47 69 49 70 42 71 43 72 44 73 45 74 46 75 72 76 73 77
REMARK SMILES IDX 82 78 74 79 75 80 81 81 83 82 76 83 77 84 78 85 79 86 80 87
REMARK SMILES IDX 56 88 57 89 66 90 58 91 59 92 65 93 67 94 60 95 61 96 62 97
REMARK SMILES IDX 63 98 64 99
REMARK H PARENT 7 14 6 21 88 49 54 60
REMARK Flexibility Score: inf
ROOT
ATOM      1  C   UNL A   1      35.351  31.546  28.481  1.00  0.00     0.188 C 
ENDROOT
BRANCH   1   2
ATOM      2  O   UNL A   1      34.692  30.413  27.923  1.00  0.00    -0.376 OA
BRANCH   2   3
ATOM      3  C   UNL A   1      33.546  30.649  27.111  1.00  0.00     0.202 C 
BRANCH   3   4
ATOM      4  C   UNL A   1      32.672  29.456  26.677  1.00  0.00     0.261 C 
BRANCH   4   5
ATOM      5  O   UNL A   1      32.709  29.097  25.287  1.00  0.00    -0.457 OA
BRANCH   5   6
ATOM      6  C   UNL A   1      31.541  29.024  24.602  1.00  0.00     0.374 C 
ATOM      7  O   UNL A   1      30.731  29.937  24.498  1.00  0.00    -0.242 OA
BRANCH   6   8
ATOM      8  C   UNL A   1      31.503  27.758  23.908  1.00  0.00     0.214 A 
ATOM      9  C   UNL A   1      30.849  25.678  23.625  1.00  0.00     0.194 A 
ATOM     10  C   UNL A   1      31.534  26.017  22.483  1.00  0.00     0.070 A 
ATOM     11  O   UNL A   1      30.825  26.721  24.492  1.00  0.00    -0.434 OA
ATOM     12  C   UNL A   1      31.931  27.368  22.650  1.00  0.00     0.060 A 
BRANCH   9  13
ATOM     13  N   UNL A   1      30.230  24.564  24.054  1.00  0.00    -0.354 N 
ATOM     14  H   UNL A   1      29.247  24.537  24.112  1.00  0.00     0.163 HD
BRANCH  13  15
ATOM     15  C   UNL A   1      31.017  23.394  24.432  1.00  0.00     0.079 C 
ATOM     16  C   UNL A   1      31.831  22.942  23.219  1.00  0.00     0.031 C 
BRANCH  15  17
ATOM     17  C   UNL A   1      31.881  23.658  25.674  1.00  0.00     0.027 C 
BRANCH  17  18
ATOM     18  C   UNL A   1      33.395  23.809  25.469  1.00  0.00     0.030 C 
BRANCH  18  19
ATOM     19  C   UNL A   1      33.904  25.235  25.297  1.00  0.00     0.156 C 
BRANCH  19  20
ATOM     20  O   UNL A   1      33.297  26.110  26.233  1.00  0.00    -0.396 OA
ATOM     21  H   UNL A   1      32.506  26.509  25.837  1.00  0.00     0.210 HD
ENDBRANCH  19  20
ENDBRANCH  18  19
ENDBRANCH  17  18
ENDBRANCH  15  17
ENDBRANCH  13  15
ENDBRANCH   9  13
ENDBRANCH   6   8
ENDBRANCH   5   6
ENDBRANCH   4   5
ENDBRANCH   3   4
ENDBRANCH   2   3
ENDBRANCH   1   2
BRANCH   1  22
ATOM     22  C   UNL A   1      36.510  31.158  29.414  1.00  0.00     0.188 C 
BRANCH  22  23
ATOM     23  O   UNL A   1      37.696  31.884  29.111  1.00  0.00    -0.377 OA
BRANCH  23  24
ATOM     24  C   UNL A   1      38.364  32.467  30.227  1.00  0.00     0.188 C 
BRANCH  24  25
ATOM     25  C   UNL A   1      39.892  32.297  30.335  1.00  0.00     0.188 C 
BRANCH  25  26
ATOM     26  O   UNL A   1      40.557  33.485  30.781  1.00  0.00    -0.376 OA
BRANCH  26  27
ATOM     27  C   UNL A   1      41.377  34.139  29.815  1.00  0.00     0.202 C 
BRANCH  27  28
ATOM     28  C   UNL A   1      40.656  35.266  29.062  1.00  0.00     0.261 C 
BRANCH  28  29
ATOM     29  O   UNL A   1      41.023  35.390  27.678  1.00  0.00    -0.460 OA
BRANCH  29  30
ATOM     30  C   UNL A   1      41.938  36.337  27.378  1.00  0.00     0.338 C 
ATOM     31  O   UNL A   1      41.795  37.544  27.455  1.00  0.00    -0.246 OA
BRANCH  30  32
ATOM     32  C   UNL A   1      43.228  35.671  27.108  1.00  0.00     0.060 A 
ATOM     33  C   UNL A   1      43.359  34.934  25.925  1.00  0.00     0.016 A 
ATOM     34  C   UNL A   1      44.284  35.744  28.021  1.00  0.00     0.016 A 
ATOM     35  C   UNL A   1      44.530  34.219  25.681  1.00  0.00     0.010 A 
ATOM     36  C   UNL A   1      45.452  35.018  27.780  1.00  0.00     0.010 A 
ATOM     37  C   UNL A   1      45.563  34.221  26.629  1.00  0.00    -0.014 A 
BRANCH  37  38
ATOM     38  C   UNL A   1      46.672  33.246  26.497  1.00  0.00     0.031 A 
ATOM     39  C   UNL A   1      48.048  33.765  26.173  1.00  0.00     0.074 A 
ATOM     40  C   UNL A   1      46.469  31.933  26.694  1.00  0.00     0.049 A 
ATOM     41  N   UNL A   1      49.172  33.110  26.047  1.00  0.00    -0.248 NA
ATOM     42  C   UNL A   1      48.169  35.217  25.960  1.00  0.00     0.031 C 
ATOM     43  C   UNL A   1      45.186  31.313  27.021  1.00  0.00     0.029 A 
ATOM     44  N   UNL A   1      47.349  30.881  26.645  1.00  0.00    -0.354 N 
ATOM     45  C   UNL A   1      50.136  34.067  25.754  1.00  0.00     0.074 A 
ATOM     46  C   UNL A   1      49.458  35.345  25.682  1.00  0.00     0.031 C 
ATOM     47  C   UNL A   1      45.361  29.984  27.138  1.00  0.00     0.029 A 
ATOM     48  C   UNL A   1      46.765  29.661  26.885  1.00  0.00     0.049 A 
ATOM     49  H   UNL A   1      48.309  30.991  26.456  1.00  0.00     0.167 HD
ATOM     50  C   UNL A   1      51.468  33.903  25.577  1.00  0.00     0.037 A 
ATOM     51  C   UNL A   1      47.306  28.426  26.897  1.00  0.00     0.037 A 
ATOM     52  C   UNL A   1      52.140  32.632  25.634  1.00  0.00     0.049 A 
ATOM     53  C   UNL A   1      48.784  28.264  26.659  1.00  0.00     0.074 A 
ATOM     54  C   UNL A   1      53.488  32.361  25.470  1.00  0.00     0.029 A 
ATOM     55  N   UNL A   1      51.513  31.418  25.872  1.00  0.00    -0.354 N 
ATOM     56  N   UNL A   1      49.689  29.184  26.418  1.00  0.00    -0.248 NA
ATOM     57  C   UNL A   1      49.317  26.895  26.708  1.00  0.00     0.031 C 
ATOM     58  C   UNL A   1      53.670  30.977  25.577  1.00  0.00     0.029 A 
ATOM     59  C   UNL A   1      52.443  30.392  25.847  1.00  0.00     0.049 A 
ATOM     60  H   UNL A   1      50.549  31.303  26.034  1.00  0.00     0.167 HD
ATOM     61  C   UNL A   1      50.900  28.507  26.315  1.00  0.00     0.074 A 
ATOM     62  C   UNL A   1      50.615  27.104  26.531  1.00  0.00     0.031 C 
ATOM     63  C   UNL A   1      52.140  29.003  26.069  1.00  0.00     0.037 A 
BRANCH  50  64
ATOM     64  C   UNL A   1      52.281  35.133  25.292  1.00  0.00     0.058 A 
ATOM     65  C   UNL A   1      52.534  35.554  23.977  1.00  0.00     0.135 A 
ATOM     66  C   UNL A   1      52.798  35.909  26.341  1.00  0.00     0.135 A 
ATOM     67  F   UNL A   1      52.081  34.834  22.937  1.00  0.00    -0.206 F 
ATOM     68  C   UNL A   1      53.289  36.691  23.710  1.00  0.00     0.059 A 
ATOM     69  C   UNL A   1      53.538  37.062  26.098  1.00  0.00     0.059 A 
ATOM     70  F   UNL A   1      52.590  35.545  27.616  1.00  0.00    -0.206 F 
ATOM     71  C   UNL A   1      53.789  37.438  24.779  1.00  0.00     0.060 A 
BRANCH  71  72
ATOM     72  S   UNL A   1      54.764  38.915  24.420  1.00  0.00     0.124 S 
ATOM     73  O   UNL A   1      53.945  39.958  25.028  1.00  0.00    -0.237 OA
ATOM     74  O   UNL A   1      56.027  38.628  25.092  1.00  0.00    -0.237 OA
ATOM     75  O   UNL A   1      54.824  38.934  22.962  1.00  0.00    -0.744 OA
ENDBRANCH  71  72
ENDBRANCH  50  64
BRANCH  51  76
ATOM     76  C   UNL A   1      46.448  27.240  27.155  1.00  0.00     0.058 A 
ATOM     77  C   UNL A   1      45.803  26.570  26.105  1.00  0.00     0.135 A 
ATOM     78  C   UNL A   1      46.242  26.767  28.459  1.00  0.00     0.135 A 
ATOM     79  F   UNL A   1      45.962  26.994  24.842  1.00  0.00    -0.206 F 
ATOM     80  C   UNL A   1      44.967  25.483  26.340  1.00  0.00     0.059 A 
ATOM     81  C   UNL A   1      45.428  25.668  28.717  1.00  0.00     0.059 A 
ATOM     82  F   UNL A   1      46.845  27.368  29.497  1.00  0.00    -0.206 F 
ATOM     83  C   UNL A   1      44.785  25.040  27.651  1.00  0.00     0.060 A 
BRANCH  83  84
ATOM     84  S   UNL A   1      43.731  23.604  27.946  1.00  0.00     0.124 S 
ATOM     85  O   UNL A   1      44.222  23.138  29.237  1.00  0.00    -0.237 OA
ATOM     86  O   UNL A   1      42.395  24.195  27.944  1.00  0.00    -0.237 OA
ATOM     87  O   UNL A   1      44.023  22.738  26.807  1.00  0.00    -0.744 OA
ENDBRANCH  83  84
ENDBRANCH  51  76
BRANCH  63  88
ATOM     88  C   UNL A   1      53.280  28.022  26.055  1.00  0.00     0.058 A 
ATOM     89  C   UNL A   1      54.032  27.750  27.207  1.00  0.00     0.135 A 
ATOM     90  C   UNL A   1      53.607  27.332  24.877  1.00  0.00     0.135 A 
ATOM     91  F   UNL A   1      53.760  28.384  28.358  1.00  0.00    -0.206 F 
ATOM     92  C   UNL A   1      55.096  26.853  27.184  1.00  0.00     0.059 A 
ATOM     93  C   UNL A   1      54.652  26.414  24.836  1.00  0.00     0.059 A 
ATOM     94  F   UNL A   1      52.908  27.546  23.751  1.00  0.00    -0.206 F 
ATOM     95  C   UNL A   1      55.403  26.196  25.990  1.00  0.00     0.060 A 
BRANCH  95  96
ATOM     96  S   UNL A   1      56.784  25.034  25.966  1.00  0.00     0.124 S 
ATOM     97  O   UNL A   1      56.393  24.137  24.884  1.00  0.00    -0.237 OA
ATOM     98  O   UNL A   1      57.925  25.902  25.688  1.00  0.00    -0.237 OA
ATOM     99  O   UNL A   1      56.760  24.452  27.304  1.00  0.00    -0.744 OA
ENDBRANCH  95  96
ENDBRANCH  63  88
ENDBRANCH  37  38
ENDBRANCH  30  32
ENDBRANCH  29  30
ENDBRANCH  28  29
ENDBRANCH  27  28
ENDBRANCH  26  27
ENDBRANCH  25  26
ENDBRANCH  24  25
ENDBRANCH  23  24
ENDBRANCH  22  23
ENDBRANCH   1  22
TORSDOF 29
ENDMDL
MODEL 3
REMARK VINA RESULT:      -6.5      7.319     15.804
REMARK SMILES C[C@@H](CCCO)Nc1ccc(C(=O)OCCOCCOCCOCCOC(=O)c2ccc(-c3c4nc(c(-c5c(F)cc(S(=O)(=O)[O-])cc5F)c5ccc([nH]5)c(-c5c(F)cc(S(=O)(=O)[O-])cc5F)c5nc(c(-c6c(F)cc(S(=O)(=O)[O-])cc6F)c6ccc3[nH]6)C=C5)C=C4)cc2)o1
REMARK SMILES IDX 18 1 17 2 16 3 15 4 14 5 12 6 13 7 11 8 8 9 9 10 95 11 10 12
REMARK SMILES IDX 7 13 2 15 1 16 3 17 4 18 5 19 6 20 19 22 20 23 21 24 22 25
REMARK SMILES IDX 23 26 24 27 25 28 26 29 27 30 28 31 29 32 30 33 94 34 31 35
REMARK SMILES IDX 93 36 32 37 33 38 34 39 87 40 35 41 92 42 86 43 88 44 36 45
REMARK SMILES IDX 91 46 85 47 84 48 37 50 71 51 50 52 70 53 51 54 54 55 69 56
REMARK SMILES IDX 89 57 52 58 53 59 68 61 90 62 55 63 38 64 39 65 48 66 40 67
REMARK SMILES IDX 41 68 47 69 49 70 42 71 43 72 44 73 45 74 46 75 72 76 73 77
REMARK SMILES IDX 82 78 74 79 75 80 81 81 83 82 76 83 77 84 78 85 79 86 80 87
REMARK SMILES IDX 56 88 57 89 66 90 58 91 59 92 65 93 67 94 60 95 61 96 62 97
REMARK SMILES IDX 63 98 64 99
REMARK H PARENT 7 14 6 21 88 49 54 60
REMARK Flexibility Score: inf
ROOT
ATOM      1  C   UNL A   1      38.195  23.468  26.014  1.00  0.00     0.188 C 
ENDROOT
BRANCH   1   2
ATOM      2  O   UNL A   1      38.238  22.046  26.082  1.00  0.00    -0.376 OA
BRANCH   2   3
ATOM      3  C   UNL A   1      37.461  21.316  25.137  1.00  0.00     0.202 C 
BRANCH   3   4
ATOM      4  C   UNL A   1      36.235  21.990  24.489  1.00  0.00     0.261 C 
BRANCH   4   5
ATOM      5  O   UNL A   1      35.195  22.433  25.375  1.00  0.00    -0.457 OA
BRANCH   5   6
ATOM      6  C   UNL A   1      34.101  21.649  25.538  1.00  0.00     0.374 C 
ATOM      7  O   UNL A   1      33.854  20.988  26.540  1.00  0.00    -0.242 OA
BRANCH   6   8
ATOM      8  C   UNL A   1      33.227  21.852  24.406  1.00  0.00     0.214 A 
ATOM      9  C   UNL A   1      32.263  23.066  22.848  1.00  0.00     0.194 A 
ATOM     10  C   UNL A   1      31.939  21.762  22.563  1.00  0.00     0.070 A 
ATOM     11  O   UNL A   1      33.038  23.133  23.957  1.00  0.00    -0.434 OA
ATOM     12  C   UNL A   1      32.584  20.974  23.550  1.00  0.00     0.060 A 
BRANCH   9  13
ATOM     13  N   UNL A   1      31.971  24.251  22.282  1.00  0.00    -0.354 N 
ATOM     14  H   UNL A   1      31.046  24.591  22.296  1.00  0.00     0.163 HD
BRANCH  13  15
ATOM     15  C   UNL A   1      33.028  25.034  21.648  1.00  0.00     0.079 C 
ATOM     16  C   UNL A   1      32.524  25.522  20.289  1.00  0.00     0.031 C 
BRANCH  15  17
ATOM     17  C   UNL A   1      33.523  26.171  22.552  1.00  0.00     0.027 C 
BRANCH  17  18
ATOM     18  C   UNL A   1      32.551  27.323  22.845  1.00  0.00     0.030 C 
BRANCH  18  19
ATOM     19  C   UNL A   1      33.135  28.727  22.744  1.00  0.00     0.156 C 
BRANCH  19  20
ATOM     20  O   UNL A   1      32.764  29.516  23.862  1.00  0.00    -0.396 OA
ATOM     21  H   UNL A   1      32.636  28.943  24.634  1.00  0.00     0.210 HD
ENDBRANCH  19  20
ENDBRANCH  18  19
ENDBRANCH  17  18
ENDBRANCH  15  17
ENDBRANCH  13  15
ENDBRANCH   9  13
ENDBRANCH   6   8
ENDBRANCH   5   6
ENDBRANCH   4   5
ENDBRANCH   3   4
ENDBRANCH   2   3
ENDBRANCH   1   2
BRANCH   1  22
ATOM     22  C   UNL A   1      39.140  24.139  27.024  1.00  0.00     0.188 C 
BRANCH  22  23
ATOM     23  O   UNL A   1      39.931  23.183  27.720  1.00  0.00    -0.377 OA
BRANCH  23  24
ATOM     24  C   UNL A   1      41.337  23.271  27.503  1.00  0.00     0.188 C 
BRANCH  24  25
ATOM     25  C   UNL A   1      42.247  22.217  28.166  1.00  0.00     0.188 C 
BRANCH  25  26
ATOM     26  O   UNL A   1      42.027  20.894  27.663  1.00  0.00    -0.376 OA
BRANCH  26  27
ATOM     27  C   UNL A   1      41.743  20.798  26.269  1.00  0.00     0.202 C 
BRANCH  27  28
ATOM     28  C   UNL A   1      42.974  21.008  25.377  1.00  0.00     0.261 C 
BRANCH  28  29
ATOM     29  O   UNL A   1      42.954  22.221  24.606  1.00  0.00    -0.460 OA
BRANCH  29  30
ATOM     30  C   UNL A   1      44.150  22.705  24.209  1.00  0.00     0.338 C 
ATOM     31  O   UNL A   1      44.612  22.681  23.083  1.00  0.00    -0.246 OA
BRANCH  30  32
ATOM     32  C   UNL A   1      44.750  23.447  25.336  1.00  0.00     0.060 A 
ATOM     33  C   UNL A   1      44.728  24.845  25.297  1.00  0.00     0.016 A 
ATOM     34  C   UNL A   1      45.353  22.775  26.404  1.00  0.00     0.016 A 
ATOM     35  C   UNL A   1      45.364  25.577  26.299  1.00  0.00     0.010 A 
ATOM     36  C   UNL A   1      45.998  23.509  27.401  1.00  0.00     0.010 A 
ATOM     37  C   UNL A   1      46.040  24.911  27.330  1.00  0.00    -0.014 A 
BRANCH  37  38
ATOM     38  C   UNL A   1      46.941  25.679  28.223  1.00  0.00     0.031 A 
ATOM     39  C   UNL A   1      46.456  26.025  29.605  1.00  0.00     0.074 A 
ATOM     40  C   UNL A   1      48.175  26.032  27.826  1.00  0.00     0.049 A 
ATOM     41  N   UNL A   1      47.078  26.653  30.568  1.00  0.00    -0.248 NA
ATOM     42  C   UNL A   1      45.085  25.609  29.944  1.00  0.00     0.031 C 
ATOM     43  C   UNL A   1      48.760  25.746  26.517  1.00  0.00     0.029 A 
ATOM     44  N   UNL A   1      49.161  26.713  28.494  1.00  0.00    -0.354 N 
ATOM     45  C   UNL A   1      46.183  26.696  31.631  1.00  0.00     0.074 A 
ATOM     46  C   UNL A   1      44.959  26.066  31.181  1.00  0.00     0.031 C 
ATOM     47  C   UNL A   1      50.004  26.255  26.474  1.00  0.00     0.029 A 
ATOM     48  C   UNL A   1      50.299  26.909  27.748  1.00  0.00     0.049 A 
ATOM     49  H   UNL A   1      49.063  27.031  29.420  1.00  0.00     0.167 HD
ATOM     50  C   UNL A   1      46.366  27.200  32.874  1.00  0.00     0.037 A 
ATOM     51  C   UNL A   1      51.445  27.545  28.063  1.00  0.00     0.037 A 
ATOM     52  C   UNL A   1      47.576  27.839  33.317  1.00  0.00     0.049 A 
ATOM     53  C   UNL A   1      51.611  28.131  29.440  1.00  0.00     0.074 A 
ATOM     54  C   UNL A   1      47.860  28.381  34.558  1.00  0.00     0.029 A 
ATOM     55  N   UNL A   1      48.703  28.025  32.531  1.00  0.00    -0.354 N 
ATOM     56  N   UNL A   1      50.768  28.134  30.446  1.00  0.00    -0.248 NA
ATOM     57  C   UNL A   1      52.892  28.792  29.730  1.00  0.00     0.031 C 
ATOM     58  C   UNL A   1      49.150  28.924  34.513  1.00  0.00     0.029 A 
ATOM     59  C   UNL A   1      49.682  28.684  33.255  1.00  0.00     0.049 A 
ATOM     60  H   UNL A   1      48.793  27.732  31.595  1.00  0.00     0.167 HD
ATOM     61  C   UNL A   1      51.427  28.768  31.494  1.00  0.00     0.074 A 
ATOM     62  C   UNL A   1      52.742  29.127  31.004  1.00  0.00     0.031 C 
ATOM     63  C   UNL A   1      50.986  29.028  32.751  1.00  0.00     0.037 A 
BRANCH  50  64
ATOM     64  C   UNL A   1      45.219  27.086  33.838  1.00  0.00     0.058 A 
ATOM     65  C   UNL A   1      44.973  25.897  34.542  1.00  0.00     0.135 A 
ATOM     66  C   UNL A   1      44.371  28.178  34.073  1.00  0.00     0.135 A 
ATOM     67  F   UNL A   1      45.742  24.816  34.335  1.00  0.00    -0.206 F 
ATOM     68  C   UNL A   1      43.910  25.788  35.434  1.00  0.00     0.059 A 
ATOM     69  C   UNL A   1      43.314  28.099  34.977  1.00  0.00     0.059 A 
ATOM     70  F   UNL A   1      44.560  29.335  33.420  1.00  0.00    -0.206 F 
ATOM     71  C   UNL A   1      43.085  26.895  35.642  1.00  0.00     0.060 A 
BRANCH  71  72
ATOM     72  S   UNL A   1      41.712  26.742  36.805  1.00  0.00     0.124 S 
ATOM     73  O   UNL A   1      40.940  25.661  36.201  1.00  0.00    -0.237 OA
ATOM     74  O   UNL A   1      42.392  26.415  38.053  1.00  0.00    -0.237 OA
ATOM     75  O   UNL A   1      41.085  28.060  36.762  1.00  0.00    -0.744 OA
ENDBRANCH  71  72
ENDBRANCH  50  64
BRANCH  51  76
ATOM     76  C   UNL A   1      52.536  27.653  27.060  1.00  0.00     0.058 A 
ATOM     77  C   UNL A   1      52.544  28.682  26.107  1.00  0.00     0.135 A 
ATOM     78  C   UNL A   1      53.581  26.719  27.025  1.00  0.00     0.135 A 
ATOM     79  F   UNL A   1      51.559  29.592  26.095  1.00  0.00    -0.206 F 
ATOM     80  C   UNL A   1      53.540  28.769  25.139  1.00  0.00     0.059 A 
ATOM     81  C   UNL A   1      54.600  26.798  26.080  1.00  0.00     0.059 A 
ATOM     82  F   UNL A   1      53.623  25.721  27.922  1.00  0.00    -0.206 F 
ATOM     83  C   UNL A   1      54.564  27.821  25.134  1.00  0.00     0.060 A 
BRANCH  83  84
ATOM     84  S   UNL A   1      55.875  27.963  23.900  1.00  0.00     0.124 S 
ATOM     85  O   UNL A   1      55.625  26.791  23.069  1.00  0.00    -0.237 OA
ATOM     86  O   UNL A   1      55.585  29.256  23.287  1.00  0.00    -0.237 OA
ATOM     87  O   UNL A   1      57.093  27.920  24.703  1.00  0.00    -0.744 OA
ENDBRANCH  83  84
ENDBRANCH  51  76
BRANCH  63  88
ATOM     88  C   UNL A   1      51.949  29.701  33.690  1.00  0.00     0.058 A 
ATOM     89  C   UNL A   1      52.832  28.965  34.494  1.00  0.00     0.135 A 
ATOM     90  C   UNL A   1      52.000  31.102  33.768  1.00  0.00     0.135 A 
ATOM     91  F   UNL A   1      52.822  27.623  34.456  1.00  0.00    -0.206 F 
ATOM     92  C   UNL A   1      53.709  29.594  35.372  1.00  0.00     0.059 A 
ATOM     93  C   UNL A   1      52.885  31.753  34.622  1.00  0.00     0.059 A 
ATOM     94  F   UNL A   1      51.186  31.853  33.009  1.00  0.00    -0.206 F 
ATOM     95  C   UNL A   1      53.723  30.990  35.434  1.00  0.00     0.060 A 
BRANCH  95  96
ATOM     96  S   UNL A   1      54.862  31.800  36.575  1.00  0.00     0.124 S 
ATOM     97  O   UNL A   1      55.416  30.658  37.296  1.00  0.00    -0.237 OA
ATOM     98  O   UNL A   1      55.782  32.486  35.673  1.00  0.00    -0.237 OA
ATOM     99  O   UNL A   1      53.993  32.674  37.357  1.00  0.00    -0.744 OA
ENDBRANCH  95  96
ENDBRANCH  63  88
ENDBRANCH  37  38
ENDBRANCH  30  32
ENDBRANCH  29  30
ENDBRANCH  28  29
ENDBRANCH  27  28
ENDBRANCH  26  27
ENDBRANCH  25  26
ENDBRANCH  24  25
ENDBRANCH  23  24
ENDBRANCH  22  23
ENDBRANCH   1  22
TORSDOF 29
ENDMDL
