MODEL 1
REMARK VINA RESULT:      -7.8      0.000      0.000
REMARK SMILES CS(=O)(=O)c1ccc(N2N=C(C(=O)OCCOCCOCCOCCOC(=O)c3ccc(-c4c5nc(c(-c6c(F)cc(S(=O)(=O)[O-])cc6F)c6ccc([nH]6)c(-c6c(F)cc(S(=O)(=O)[O-])cc6F)c6nc(c(-c7c(F)cc(S(=O)(=O)[O-])cc7F)c7ccc4[nH]7)C=C6)C=C5)cc3)C[C@H]2c2ccco2)cc1
REMARK SMILES IDX 21 1 20 2 19 3 18 4 17 5 16 6 15 7 14 8 12 9 13 10 11 11
REMARK SMILES IDX 9 12 10 13 96 14 95 15 8 16 5 17 6 18 103 19 7 20 102 21
REMARK SMILES IDX 2 22 1 23 3 24 4 25 97 26 98 27 101 28 99 29 100 30 22 31
REMARK SMILES IDX 23 32 24 33 25 34 26 35 27 36 28 37 29 38 30 39 94 40 31 41
REMARK SMILES IDX 93 42 32 43 33 44 34 45 87 46 35 47 92 48 86 49 88 50 36 51
REMARK SMILES IDX 91 52 85 53 84 54 37 56 71 57 50 58 70 59 51 60 54 61 69 62
REMARK SMILES IDX 89 63 52 64 53 65 68 67 90 68 55 69 38 70 39 71 48 72 40 73
REMARK SMILES IDX 41 74 47 75 49 76 42 77 43 78 44 79 45 80 46 81 72 82 73 83
REMARK SMILES IDX 82 84 74 85 75 86 81 87 83 88 76 89 77 90 78 91 79 92 80 93
REMARK SMILES IDX 56 94 57 95 66 96 58 97 59 98 65 99 67 100 60 101 61 102
REMARK SMILES IDX 62 103 63 104 64 105
REMARK H PARENT 88 55 54 66
REMARK Flexibility Score: inf
ROOT
ATOM      1  C   UNL A   1      38.093  33.243  31.736  1.00  0.00     0.188 C 
ENDROOT
BRANCH   1   2
ATOM      2  O   UNL A   1      38.213  33.393  30.319  1.00  0.00    -0.377 OA
BRANCH   2   3
ATOM      3  C   UNL A   1      37.647  32.404  29.474  1.00  0.00     0.188 C 
BRANCH   3   4
ATOM      4  C   UNL A   1      36.827  31.327  30.207  1.00  0.00     0.188 C 
BRANCH   4   5
ATOM      5  O   UNL A   1      35.433  31.572  30.191  1.00  0.00    -0.376 OA
BRANCH   5   6
ATOM      6  C   UNL A   1      34.874  32.599  29.389  1.00  0.00     0.202 C 
BRANCH   6   7
ATOM      7  C   UNL A   1      34.161  32.358  28.044  1.00  0.00     0.261 C 
BRANCH   7   8
ATOM      8  O   UNL A   1      33.578  31.070  27.855  1.00  0.00    -0.459 OA
BRANCH   8   9
ATOM      9  C   UNL A   1      34.329  30.118  27.280  1.00  0.00     0.354 C 
ATOM     10  O   UNL A   1      35.536  30.082  27.159  1.00  0.00    -0.245 OA
BRANCH   9  11
ATOM     11  C   UNL A   1      33.410  28.962  26.970  1.00  0.00     0.148 C 
ATOM     12  N   UNL A   1      32.732  27.010  26.515  1.00  0.00    -0.254 N 
ATOM     13  N   UNL A   1      33.851  27.767  26.707  1.00  0.00    -0.169 NA
ATOM     14  C   UNL A   1      31.514  27.833  26.360  1.00  0.00     0.180 C 
ATOM     15  C   UNL A   1      31.926  29.105  27.114  1.00  0.00     0.101 C 
BRANCH  12  16
ATOM     16  C   UNL A   1      32.870  25.702  26.079  1.00  0.00     0.060 A 
ATOM     17  C   UNL A   1      33.242  23.033  25.265  1.00  0.00     0.067 A 
ATOM     18  C   UNL A   1      34.080  24.031  24.765  1.00  0.00     0.022 A 
ATOM     19  C   UNL A   1      32.194  23.359  26.126  1.00  0.00     0.022 A 
ATOM     20  C   UNL A   1      33.883  25.360  25.170  1.00  0.00     0.029 A 
ATOM     21  C   UNL A   1      32.006  24.689  26.511  1.00  0.00     0.029 A 
BRANCH  17  22
ATOM     22  S   UNL A   1      33.531  21.327  24.861  1.00  0.00     0.175 S 
ATOM     23  C   UNL A   1      32.590  21.011  23.396  1.00  0.00     0.163 C 
ATOM     24  O   UNL A   1      32.950  20.519  25.918  1.00  0.00    -0.224 OA
ATOM     25  O   UNL A   1      34.938  21.209  24.528  1.00  0.00    -0.224 OA
ENDBRANCH  17  22
ENDBRANCH  12  16
BRANCH  14  26
ATOM     26  C   UNL A   1      31.072  28.151  24.956  1.00  0.00     0.128 A 
ATOM     27  C   UNL A   1      31.269  29.235  24.123  1.00  0.00     0.048 A 
ATOM     28  O   UNL A   1      30.334  27.206  24.297  1.00  0.00    -0.467 OA
ATOM     29  C   UNL A   1      30.599  28.943  22.911  1.00  0.00     0.042 A 
ATOM     30  C   UNL A   1      30.067  27.686  23.060  1.00  0.00     0.195 A 
ENDBRANCH  14  26
ENDBRANCH   9  11
ENDBRANCH   8   9
ENDBRANCH   7   8
ENDBRANCH   6   7
ENDBRANCH   5   6
ENDBRANCH   4   5
ENDBRANCH   3   4
ENDBRANCH   2   3
ENDBRANCH   1   2
BRANCH   1  31
ATOM     31  C   UNL A   1      36.969  33.924  32.557  1.00  0.00     0.188 C 
BRANCH  31  32
ATOM     32  O   UNL A   1      36.217  33.049  33.383  1.00  0.00    -0.376 OA
BRANCH  32  33
ATOM     33  C   UNL A   1      36.068  33.378  34.753  1.00  0.00     0.202 C 
BRANCH  33  34
ATOM     34  C   UNL A   1      37.308  33.936  35.465  1.00  0.00     0.261 C 
BRANCH  34  35
ATOM     35  O   UNL A   1      38.492  33.129  35.387  1.00  0.00    -0.460 OA
BRANCH  35  36
ATOM     36  C   UNL A   1      39.634  33.747  35.012  1.00  0.00     0.338 C 
ATOM     37  O   UNL A   1      39.783  34.935  34.779  1.00  0.00    -0.246 OA
BRANCH  36  38
ATOM     38  C   UNL A   1      40.730  32.763  35.111  1.00  0.00     0.060 A 
ATOM     39  C   UNL A   1      42.056  33.217  35.082  1.00  0.00     0.016 A 
ATOM     40  C   UNL A   1      40.450  31.400  35.230  1.00  0.00     0.016 A 
ATOM     41  C   UNL A   1      43.107  32.299  35.130  1.00  0.00     0.010 A 
ATOM     42  C   UNL A   1      41.503  30.483  35.260  1.00  0.00     0.010 A 
ATOM     43  C   UNL A   1      42.835  30.925  35.173  1.00  0.00    -0.014 A 
BRANCH  43  44
ATOM     44  C   UNL A   1      43.926  29.948  34.932  1.00  0.00     0.031 A 
ATOM     45  C   UNL A   1      44.779  29.530  36.101  1.00  0.00     0.074 A 
ATOM     46  C   UNL A   1      44.149  29.431  33.711  1.00  0.00     0.049 A 
ATOM     47  N   UNL A   1      45.817  28.735  36.129  1.00  0.00    -0.248 NA
ATOM     48  C   UNL A   1      44.413  30.089  37.412  1.00  0.00     0.031 C 
ATOM     49  C   UNL A   1      43.370  29.729  32.511  1.00  0.00     0.029 A 
ATOM     50  N   UNL A   1      45.108  28.548  33.279  1.00  0.00    -0.354 N 
ATOM     51  C   UNL A   1      46.232  28.706  37.456  1.00  0.00     0.074 A 
ATOM     52  C   UNL A   1      45.356  29.588  38.195  1.00  0.00     0.031 C 
ATOM     53  C   UNL A   1      43.892  29.051  31.474  1.00  0.00     0.029 A 
ATOM     54  C   UNL A   1      45.060  28.299  31.928  1.00  0.00     0.049 A 
ATOM     55  H   UNL A   1      45.768  28.132  33.881  1.00  0.00     0.167 HD
ATOM     56  C   UNL A   1      47.248  28.001  38.010  1.00  0.00     0.037 A 
ATOM     57  C   UNL A   1      45.882  27.568  31.146  1.00  0.00     0.037 A 
ATOM     58  C   UNL A   1      48.117  27.125  37.268  1.00  0.00     0.049 A 
ATOM     59  C   UNL A   1      47.047  26.843  31.774  1.00  0.00     0.074 A 
ATOM     60  C   UNL A   1      49.162  26.351  37.740  1.00  0.00     0.029 A 
ATOM     61  N   UNL A   1      48.051  26.916  35.898  1.00  0.00    -0.354 N 
ATOM     62  N   UNL A   1      47.413  26.802  33.034  1.00  0.00    -0.248 NA
ATOM     63  C   UNL A   1      47.907  26.060  30.875  1.00  0.00     0.031 C 
ATOM     64  C   UNL A   1      49.767  25.721  36.647  1.00  0.00     0.029 A 
ATOM     65  C   UNL A   1      49.055  26.047  35.504  1.00  0.00     0.049 A 
ATOM     66  H   UNL A   1      47.389  27.325  35.296  1.00  0.00     0.167 HD
ATOM     67  C   UNL A   1      48.525  25.963  33.082  1.00  0.00     0.074 A 
ATOM     68  C   UNL A   1      48.763  25.513  31.727  1.00  0.00     0.031 C 
ATOM     69  C   UNL A   1      49.277  25.599  34.150  1.00  0.00     0.037 A 
BRANCH  56  70
ATOM     70  C   UNL A   1      47.494  28.172  39.485  1.00  0.00     0.058 A 
ATOM     71  C   UNL A   1      46.861  27.365  40.443  1.00  0.00     0.135 A 
ATOM     72  C   UNL A   1      48.404  29.139  39.944  1.00  0.00     0.135 A 
ATOM     73  F   UNL A   1      45.965  26.440  40.064  1.00  0.00    -0.206 F 
ATOM     74  C   UNL A   1      47.102  27.527  41.805  1.00  0.00     0.059 A 
ATOM     75  C   UNL A   1      48.684  29.296  41.298  1.00  0.00     0.059 A 
ATOM     76  F   UNL A   1      49.034  29.941  39.071  1.00  0.00    -0.206 F 
ATOM     77  C   UNL A   1      48.017  28.494  42.221  1.00  0.00     0.060 A 
BRANCH  77  78
ATOM     78  S   UNL A   1      48.326  28.684  43.989  1.00  0.00     0.124 S 
ATOM     79  O   UNL A   1      47.024  29.138  44.465  1.00  0.00    -0.237 OA
ATOM     80  O   UNL A   1      48.709  27.331  44.384  1.00  0.00    -0.237 OA
ATOM     81  O   UNL A   1      49.395  29.676  44.045  1.00  0.00    -0.744 OA
ENDBRANCH  77  78
ENDBRANCH  56  70
BRANCH  57  82
ATOM     82  C   UNL A   1      45.644  27.494  29.678  1.00  0.00     0.058 A 
ATOM     83  C   UNL A   1      46.264  28.390  28.794  1.00  0.00     0.135 A 
ATOM     84  C   UNL A   1      44.784  26.528  29.131  1.00  0.00     0.135 A 
ATOM     85  F   UNL A   1      47.084  29.341  29.266  1.00  0.00    -0.206 F 
ATOM     86  C   UNL A   1      46.029  28.342  27.423  1.00  0.00     0.059 A 
ATOM     87  C   UNL A   1      44.557  26.441  27.761  1.00  0.00     0.059 A 
ATOM     88  F   UNL A   1      44.171  25.642  29.930  1.00  0.00    -0.206 F 
ATOM     89  C   UNL A   1      45.177  27.359  26.915  1.00  0.00     0.060 A 
BRANCH  89  90
ATOM     90  S   UNL A   1      44.921  27.273  25.130  1.00  0.00     0.124 S 
ATOM     91  O   UNL A   1      45.020  25.840  24.885  1.00  0.00    -0.237 OA
ATOM     92  O   UNL A   1      43.591  27.856  24.985  1.00  0.00    -0.237 OA
ATOM     93  O   UNL A   1      46.012  28.083  24.595  1.00  0.00    -0.744 OA
ENDBRANCH  89  90
ENDBRANCH  57  82
BRANCH  69  94
ATOM     94  C   UNL A   1      50.403  24.626  33.913  1.00  0.00     0.058 A 
ATOM     95  C   UNL A   1      50.206  23.236  33.945  1.00  0.00     0.135 A 
ATOM     96  C   UNL A   1      51.689  25.095  33.596  1.00  0.00     0.135 A 
ATOM     97  F   UNL A   1      48.999  22.732  34.245  1.00  0.00    -0.206 F 
ATOM     98  C   UNL A   1      51.250  22.348  33.705  1.00  0.00     0.059 A 
ATOM     99  C   UNL A   1      52.739  24.226  33.319  1.00  0.00     0.059 A 
ATOM    100  F   UNL A   1      51.932  26.415  33.536  1.00  0.00    -0.206 F 
ATOM    101  C   UNL A   1      52.513  22.853  33.390  1.00  0.00     0.060 A 
BRANCH 101 102
ATOM    102  S   UNL A   1      53.853  21.689  33.058  1.00  0.00     0.124 S 
ATOM    103  O   UNL A   1      54.039  21.073  34.367  1.00  0.00    -0.237 OA
ATOM    104  O   UNL A   1      53.272  20.830  32.030  1.00  0.00    -0.237 OA
ATOM    105  O   UNL A   1      54.945  22.546  32.606  1.00  0.00    -0.744 OA
ENDBRANCH 101 102
ENDBRANCH  69  94
ENDBRANCH  43  44
ENDBRANCH  36  38
ENDBRANCH  35  36
ENDBRANCH  34  35
ENDBRANCH  33  34
ENDBRANCH  32  33
ENDBRANCH  31  32
ENDBRANCH   1  31
TORSDOF 26
ENDMDL
MODEL 2
REMARK VINA RESULT:      -7.8      7.141     12.212
REMARK SMILES CS(=O)(=O)c1ccc(N2N=C(C(=O)OCCOCCOCCOCCOC(=O)c3ccc(-c4c5nc(c(-c6c(F)cc(S(=O)(=O)[O-])cc6F)c6ccc([nH]6)c(-c6c(F)cc(S(=O)(=O)[O-])cc6F)c6nc(c(-c7c(F)cc(S(=O)(=O)[O-])cc7F)c7ccc4[nH]7)C=C6)C=C5)cc3)C[C@H]2c2ccco2)cc1
REMARK SMILES IDX 21 1 20 2 19 3 18 4 17 5 16 6 15 7 14 8 12 9 13 10 11 11
REMARK SMILES IDX 9 12 10 13 96 14 95 15 8 16 5 17 6 18 103 19 7 20 102 21
REMARK SMILES IDX 2 22 1 23 3 24 4 25 97 26 98 27 101 28 99 29 100 30 22 31
REMARK SMILES IDX 23 32 24 33 25 34 26 35 27 36 28 37 29 38 30 39 94 40 31 41
REMARK SMILES IDX 93 42 32 43 33 44 34 45 87 46 35 47 92 48 86 49 88 50 36 51
REMARK SMILES IDX 91 52 85 53 84 54 37 56 71 57 50 58 70 59 51 60 54 61 69 62
REMARK SMILES IDX 89 63 52 64 53 65 68 67 90 68 55 69 38 70 39 71 48 72 40 73
REMARK SMILES IDX 41 74 47 75 49 76 42 77 43 78 44 79 45 80 46 81 72 82 73 83
REMARK SMILES IDX 82 84 74 85 75 86 81 87 83 88 76 89 77 90 78 91 79 92 80 93
REMARK SMILES IDX 56 94 57 95 66 96 58 97 59 98 65 99 67 100 60 101 61 102
REMARK SMILES IDX 62 103 63 104 64 105
REMARK H PARENT 88 55 54 66
REMARK Flexibility Score: inf
ROOT
ATOM      1  C   UNL A   1      40.474  35.597  34.702  1.00  0.00     0.188 C 
ENDROOT
BRANCH   1   2
ATOM      2  O   UNL A   1      41.120  34.994  35.826  1.00  0.00    -0.377 OA
BRANCH   2   3
ATOM      3  C   UNL A   1      42.080  35.746  36.550  1.00  0.00     0.188 C 
BRANCH   3   4
ATOM      4  C   UNL A   1      43.369  34.980  36.897  1.00  0.00     0.188 C 
BRANCH   4   5
ATOM      5  O   UNL A   1      44.350  35.040  35.879  1.00  0.00    -0.376 OA
BRANCH   5   6
ATOM      6  C   UNL A   1      44.252  34.241  34.710  1.00  0.00     0.202 C 
BRANCH   6   7
ATOM      7  C   UNL A   1      43.946  34.794  33.305  1.00  0.00     0.261 C 
BRANCH   7   8
ATOM      8  O   UNL A   1      43.787  36.207  33.198  1.00  0.00    -0.459 OA
BRANCH   8   9
ATOM      9  C   UNL A   1      44.837  36.928  32.774  1.00  0.00     0.354 C 
ATOM     10  O   UNL A   1      45.742  37.400  33.431  1.00  0.00    -0.245 OA
BRANCH   9  11
ATOM     11  C   UNL A   1      44.814  36.890  31.265  1.00  0.00     0.148 C 
ATOM     12  N   UNL A   1      44.826  37.524  29.247  1.00  0.00    -0.254 N 
ATOM     13  N   UNL A   1      44.820  37.967  30.536  1.00  0.00    -0.169 NA
ATOM     14  C   UNL A   1      44.511  36.083  29.144  1.00  0.00     0.180 C 
ATOM     15  C   UNL A   1      44.950  35.592  30.531  1.00  0.00     0.101 C 
BRANCH  12  16
ATOM     16  C   UNL A   1      44.694  38.442  28.217  1.00  0.00     0.060 A 
ATOM     17  C   UNL A   1      44.449  40.393  26.203  1.00  0.00     0.067 A 
ATOM     18  C   UNL A   1      43.406  40.202  27.111  1.00  0.00     0.022 A 
ATOM     19  C   UNL A   1      45.588  39.591  26.261  1.00  0.00     0.022 A 
ATOM     20  C   UNL A   1      43.533  39.223  28.107  1.00  0.00     0.029 A 
ATOM     21  C   UNL A   1      45.694  38.612  27.253  1.00  0.00     0.029 A 
BRANCH  17  22
ATOM     22  S   UNL A   1      44.369  41.698  24.999  1.00  0.00     0.175 S 
ATOM     23  C   UNL A   1      44.740  43.189  25.877  1.00  0.00     0.163 C 
ATOM     24  O   UNL A   1      42.990  41.803  24.555  1.00  0.00    -0.224 OA
ATOM     25  O   UNL A   1      45.436  41.456  24.048  1.00  0.00    -0.224 OA
ENDBRANCH  17  22
ENDBRANCH  12  16
BRANCH  14  26
ATOM     26  C   UNL A   1      43.081  35.708  28.861  1.00  0.00     0.128 A 
ATOM     27  C   UNL A   1      42.301  35.742  27.721  1.00  0.00     0.048 A 
ATOM     28  O   UNL A   1      42.344  35.202  29.896  1.00  0.00    -0.467 OA
ATOM     29  C   UNL A   1      41.023  35.255  28.090  1.00  0.00     0.042 A 
ATOM     30  C   UNL A   1      41.110  34.917  29.418  1.00  0.00     0.195 A 
ENDBRANCH  14  26
ENDBRANCH   9  11
ENDBRANCH   8   9
ENDBRANCH   7   8
ENDBRANCH   6   7
ENDBRANCH   5   6
ENDBRANCH   4   5
ENDBRANCH   3   4
ENDBRANCH   2   3
ENDBRANCH   1   2
BRANCH   1  31
ATOM     31  C   UNL A   1      39.505  34.819  33.777  1.00  0.00     0.188 C 
BRANCH  31  32
ATOM     32  O   UNL A   1      38.168  34.737  34.243  1.00  0.00    -0.376 OA
BRANCH  32  33
ATOM     33  C   UNL A   1      37.657  33.466  34.604  1.00  0.00     0.202 C 
BRANCH  33  34
ATOM     34  C   UNL A   1      38.502  32.247  34.209  1.00  0.00     0.261 C 
BRANCH  34  35
ATOM     35  O   UNL A   1      37.825  31.232  33.455  1.00  0.00    -0.460 OA
BRANCH  35  36
ATOM     36  C   UNL A   1      37.641  31.464  32.137  1.00  0.00     0.338 C 
ATOM     37  O   UNL A   1      36.798  32.187  31.630  1.00  0.00    -0.246 OA
BRANCH  36  38
ATOM     38  C   UNL A   1      38.760  30.835  31.408  1.00  0.00     0.060 A 
ATOM     39  C   UNL A   1      39.655  30.016  32.110  1.00  0.00     0.016 A 
ATOM     40  C   UNL A   1      38.925  31.054  30.039  1.00  0.00     0.016 A 
ATOM     41  C   UNL A   1      40.744  29.448  31.449  1.00  0.00     0.010 A 
ATOM     42  C   UNL A   1      40.026  30.497  29.382  1.00  0.00     0.010 A 
ATOM     43  C   UNL A   1      40.960  29.722  30.092  1.00  0.00    -0.014 A 
BRANCH  43  44
ATOM     44  C   UNL A   1      42.256  29.365  29.463  1.00  0.00     0.031 A 
ATOM     45  C   UNL A   1      42.419  27.976  28.905  1.00  0.00     0.074 A 
ATOM     46  C   UNL A   1      43.262  30.253  29.373  1.00  0.00     0.049 A 
ATOM     47  N   UNL A   1      43.467  27.417  28.358  1.00  0.00    -0.248 NA
ATOM     48  C   UNL A   1      41.239  27.098  28.979  1.00  0.00     0.031 C 
ATOM     49  C   UNL A   1      43.213  31.637  29.843  1.00  0.00     0.029 A 
ATOM     50  N   UNL A   1      44.529  30.116  28.862  1.00  0.00    -0.354 N 
ATOM     51  C   UNL A   1      43.078  26.123  28.033  1.00  0.00     0.074 A 
ATOM     52  C   UNL A   1      41.708  25.968  28.472  1.00  0.00     0.031 C 
ATOM     53  C   UNL A   1      44.404  32.217  29.609  1.00  0.00     0.029 A 
ATOM     54  C   UNL A   1      45.307  31.239  29.006  1.00  0.00     0.049 A 
ATOM     55  H   UNL A   1      44.849  29.290  28.430  1.00  0.00     0.167 HD
ATOM     56  C   UNL A   1      43.794  25.153  27.416  1.00  0.00     0.037 A 
ATOM     57  C   UNL A   1      46.608  31.443  28.710  1.00  0.00     0.037 A 
ATOM     58  C   UNL A   1      45.157  25.314  26.982  1.00  0.00     0.049 A 
ATOM     59  C   UNL A   1      47.406  30.328  28.083  1.00  0.00     0.074 A 
ATOM     60  C   UNL A   1      45.964  24.398  26.329  1.00  0.00     0.029 A 
ATOM     61  N   UNL A   1      45.919  26.458  27.166  1.00  0.00    -0.354 N 
ATOM     62  N   UNL A   1      47.019  29.117  27.755  1.00  0.00    -0.248 NA
ATOM     63  C   UNL A   1      48.817  30.607  27.779  1.00  0.00     0.031 C 
ATOM     64  C   UNL A   1      47.232  24.968  26.173  1.00  0.00     0.029 A 
ATOM     65  C   UNL A   1      47.196  26.262  26.665  1.00  0.00     0.049 A 
ATOM     66  H   UNL A   1      45.600  27.287  27.591  1.00  0.00     0.167 HD
ATOM     67  C   UNL A   1      48.128  28.503  27.177  1.00  0.00     0.074 A 
ATOM     68  C   UNL A   1      49.196  29.480  27.191  1.00  0.00     0.031 C 
ATOM     69  C   UNL A   1      48.250  27.248  26.678  1.00  0.00     0.037 A 
BRANCH  56  70
ATOM     70  C   UNL A   1      43.127  23.821  27.202  1.00  0.00     0.058 A 
ATOM     71  C   UNL A   1      43.074  22.845  28.208  1.00  0.00     0.135 A 
ATOM     72  C   UNL A   1      42.501  23.531  25.978  1.00  0.00     0.135 A 
ATOM     73  F   UNL A   1      43.673  23.059  29.391  1.00  0.00    -0.206 F 
ATOM     74  C   UNL A   1      42.447  21.619  28.002  1.00  0.00     0.059 A 
ATOM     75  C   UNL A   1      41.842  22.325  25.760  1.00  0.00     0.059 A 
ATOM     76  F   UNL A   1      42.525  24.426  24.978  1.00  0.00    -0.206 F 
ATOM     77  C   UNL A   1      41.832  21.370  26.775  1.00  0.00     0.060 A 
BRANCH  77  78
ATOM     78  S   UNL A   1      41.015  19.780  26.527  1.00  0.00     0.124 S 
ATOM     79  O   UNL A   1      40.904  19.292  27.898  1.00  0.00    -0.237 OA
ATOM     80  O   UNL A   1      39.761  20.172  25.891  1.00  0.00    -0.237 OA
ATOM     81  O   UNL A   1      41.945  19.047  25.674  1.00  0.00    -0.744 OA
ENDBRANCH  77  78
ENDBRANCH  56  70
BRANCH  57  82
ATOM     82  C   UNL A   1      47.246  32.754  29.015  1.00  0.00     0.058 A 
ATOM     83  C   UNL A   1      47.766  33.032  30.288  1.00  0.00     0.135 A 
ATOM     84  C   UNL A   1      47.340  33.759  28.038  1.00  0.00     0.135 A 
ATOM     85  F   UNL A   1      47.688  32.112  31.261  1.00  0.00    -0.206 F 
ATOM     86  C   UNL A   1      48.342  34.263  30.588  1.00  0.00     0.059 A 
ATOM     87  C   UNL A   1      47.939  34.986  28.305  1.00  0.00     0.059 A 
ATOM     88  F   UNL A   1      46.866  33.543  26.803  1.00  0.00    -0.206 F 
ATOM     89  C   UNL A   1      48.429  35.232  29.586  1.00  0.00     0.060 A 
BRANCH  89  90
ATOM     90  S   UNL A   1      49.227  36.806  29.972  1.00  0.00     0.124 S 
ATOM     91  O   UNL A   1      50.638  36.455  29.869  1.00  0.00    -0.237 OA
ATOM     92  O   UNL A   1      48.705  37.676  28.922  1.00  0.00    -0.237 OA
ATOM     93  O   UNL A   1      48.747  37.105  31.318  1.00  0.00    -0.744 OA
ENDBRANCH  89  90
ENDBRANCH  57  82
BRANCH  69  94
ATOM     94  C   UNL A   1      49.570  26.866  26.059  1.00  0.00     0.058 A 
ATOM     95  C   UNL A   1      49.822  27.023  24.687  1.00  0.00     0.135 A 
ATOM     96  C   UNL A   1      50.617  26.385  26.864  1.00  0.00     0.135 A 
ATOM     97  F   UNL A   1      48.858  27.476  23.870  1.00  0.00    -0.206 F 
ATOM     98  C   UNL A   1      51.052  26.685  24.131  1.00  0.00     0.059 A 
ATOM     99  C   UNL A   1      51.865  26.073  26.334  1.00  0.00     0.059 A 
ATOM    100  F   UNL A   1      50.437  26.230  28.186  1.00  0.00    -0.206 F 
ATOM    101  C   UNL A   1      52.068  26.213  24.963  1.00  0.00     0.060 A 
BRANCH 101 102
ATOM    102  S   UNL A   1      53.667  25.801  24.231  1.00  0.00     0.124 S 
ATOM    103  O   UNL A   1      53.429  26.093  22.822  1.00  0.00    -0.237 OA
ATOM    104  O   UNL A   1      54.571  26.713  24.924  1.00  0.00    -0.237 OA
ATOM    105  O   UNL A   1      53.838  24.388  24.559  1.00  0.00    -0.744 OA
ENDBRANCH 101 102
ENDBRANCH  69  94
ENDBRANCH  43  44
ENDBRANCH  36  38
ENDBRANCH  35  36
ENDBRANCH  34  35
ENDBRANCH  33  34
ENDBRANCH  32  33
ENDBRANCH  31  32
ENDBRANCH   1  31
TORSDOF 26
ENDMDL
MODEL 3
REMARK VINA RESULT:      -7.7      7.564     12.194
REMARK SMILES CS(=O)(=O)c1ccc(N2N=C(C(=O)OCCOCCOCCOCCOC(=O)c3ccc(-c4c5nc(c(-c6c(F)cc(S(=O)(=O)[O-])cc6F)c6ccc([nH]6)c(-c6c(F)cc(S(=O)(=O)[O-])cc6F)c6nc(c(-c7c(F)cc(S(=O)(=O)[O-])cc7F)c7ccc4[nH]7)C=C6)C=C5)cc3)C[C@H]2c2ccco2)cc1
REMARK SMILES IDX 21 1 20 2 19 3 18 4 17 5 16 6 15 7 14 8 12 9 13 10 11 11
REMARK SMILES IDX 9 12 10 13 96 14 95 15 8 16 5 17 6 18 103 19 7 20 102 21
REMARK SMILES IDX 2 22 1 23 3 24 4 25 97 26 98 27 101 28 99 29 100 30 22 31
REMARK SMILES IDX 23 32 24 33 25 34 26 35 27 36 28 37 29 38 30 39 94 40 31 41
REMARK SMILES IDX 93 42 32 43 33 44 34 45 87 46 35 47 92 48 86 49 88 50 36 51
REMARK SMILES IDX 91 52 85 53 84 54 37 56 71 57 50 58 70 59 51 60 54 61 69 62
REMARK SMILES IDX 89 63 52 64 53 65 68 67 90 68 55 69 38 70 39 71 48 72 40 73
REMARK SMILES IDX 41 74 47 75 49 76 42 77 43 78 44 79 45 80 46 81 72 82 73 83
REMARK SMILES IDX 82 84 74 85 75 86 81 87 83 88 76 89 77 90 78 91 79 92 80 93
REMARK SMILES IDX 56 94 57 95 66 96 58 97 59 98 65 99 67 100 60 101 61 102
REMARK SMILES IDX 62 103 63 104 64 105
REMARK H PARENT 88 55 54 66
REMARK Flexibility Score: inf
ROOT
ATOM      1  C   UNL A   1      45.770  24.229  25.083  1.00  0.00     0.188 C 
ENDROOT
BRANCH   1   2
ATOM      2  O   UNL A   1      44.662  25.103  24.852  1.00  0.00    -0.377 OA
BRANCH   2   3
ATOM      3  C   UNL A   1      43.353  24.640  25.142  1.00  0.00     0.188 C 
BRANCH   3   4
ATOM      4  C   UNL A   1      42.332  25.752  25.446  1.00  0.00     0.188 C 
BRANCH   4   5
ATOM      5  O   UNL A   1      40.991  25.302  25.439  1.00  0.00    -0.376 OA
BRANCH   5   6
ATOM      6  C   UNL A   1      40.427  24.644  26.563  1.00  0.00     0.202 C 
BRANCH   6   7
ATOM      7  C   UNL A   1      38.986  24.864  27.063  1.00  0.00     0.261 C 
BRANCH   7   8
ATOM      8  O   UNL A   1      38.128  23.725  27.052  1.00  0.00    -0.459 OA
BRANCH   8   9
ATOM      9  C   UNL A   1      38.222  22.877  26.017  1.00  0.00     0.354 C 
ATOM     10  O   UNL A   1      38.993  21.951  25.869  1.00  0.00    -0.245 OA
BRANCH   9  11
ATOM     11  C   UNL A   1      37.040  23.148  25.119  1.00  0.00     0.148 C 
ATOM     12  N   UNL A   1      35.347  24.091  24.269  1.00  0.00    -0.254 N 
ATOM     13  N   UNL A   1      36.261  24.179  25.277  1.00  0.00    -0.169 NA
ATOM     14  C   UNL A   1      35.366  22.771  23.603  1.00  0.00     0.180 C 
ATOM     15  C   UNL A   1      36.805  22.322  23.892  1.00  0.00     0.101 C 
BRANCH  12  16
ATOM     16  C   UNL A   1      34.284  24.980  24.243  1.00  0.00     0.060 A 
ATOM     17  C   UNL A   1      32.199  26.871  24.223  1.00  0.00     0.067 A 
ATOM     18  C   UNL A   1      32.663  26.366  25.439  1.00  0.00     0.022 A 
ATOM     19  C   UNL A   1      32.730  26.406  23.020  1.00  0.00     0.022 A 
ATOM     20  C   UNL A   1      33.697  25.419  25.440  1.00  0.00     0.029 A 
ATOM     21  C   UNL A   1      33.753  25.454  23.039  1.00  0.00     0.029 A 
BRANCH  17  22
ATOM     22  S   UNL A   1      30.968  28.152  24.189  1.00  0.00     0.175 S 
ATOM     23  C   UNL A   1      31.140  28.946  22.617  1.00  0.00     0.163 C 
ATOM     24  O   UNL A   1      31.327  29.133  25.197  1.00  0.00    -0.224 OA
ATOM     25  O   UNL A   1      29.677  27.493  24.224  1.00  0.00    -0.224 OA
ENDBRANCH  17  22
ENDBRANCH  12  16
BRANCH  14  26
ATOM     26  C   UNL A   1      34.370  21.746  24.076  1.00  0.00     0.128 A 
ATOM     27  C   UNL A   1      32.993  21.658  24.002  1.00  0.00     0.048 A 
ATOM     28  O   UNL A   1      34.858  20.632  24.702  1.00  0.00    -0.467 OA
ATOM     29  C   UNL A   1      32.629  20.444  24.633  1.00  0.00     0.042 A 
ATOM     30  C   UNL A   1      33.803  19.846  25.020  1.00  0.00     0.195 A 
ENDBRANCH  14  26
ENDBRANCH   9  11
ENDBRANCH   8   9
ENDBRANCH   7   8
ENDBRANCH   6   7
ENDBRANCH   5   6
ENDBRANCH   4   5
ENDBRANCH   3   4
ENDBRANCH   2   3
ENDBRANCH   1   2
BRANCH   1  31
ATOM     31  C   UNL A   1      46.492  24.136  26.451  1.00  0.00     0.188 C 
BRANCH  31  32
ATOM     32  O   UNL A   1      45.790  24.717  27.538  1.00  0.00    -0.376 OA
BRANCH  32  33
ATOM     33  C   UNL A   1      46.079  26.060  27.886  1.00  0.00     0.202 C 
BRANCH  33  34
ATOM     34  C   UNL A   1      44.908  27.050  27.842  1.00  0.00     0.261 C 
BRANCH  34  35
ATOM     35  O   UNL A   1      45.258  28.429  27.653  1.00  0.00    -0.460 OA
BRANCH  35  36
ATOM     36  C   UNL A   1      44.464  29.161  26.841  1.00  0.00     0.338 C 
ATOM     37  O   UNL A   1      43.706  28.740  25.982  1.00  0.00    -0.246 OA
BRANCH  36  38
ATOM     38  C   UNL A   1      44.526  30.564  27.296  1.00  0.00     0.060 A 
ATOM     39  C   UNL A   1      45.646  31.338  26.965  1.00  0.00     0.016 A 
ATOM     40  C   UNL A   1      43.484  31.111  28.048  1.00  0.00     0.016 A 
ATOM     41  C   UNL A   1      45.744  32.652  27.423  1.00  0.00     0.010 A 
ATOM     42  C   UNL A   1      43.592  32.422  28.519  1.00  0.00     0.010 A 
ATOM     43  C   UNL A   1      44.739  33.186  28.240  1.00  0.00    -0.014 A 
BRANCH  43  44
ATOM     44  C   UNL A   1      44.972  34.463  28.960  1.00  0.00     0.031 A 
ATOM     45  C   UNL A   1      45.472  34.400  30.379  1.00  0.00     0.074 A 
ATOM     46  C   UNL A   1      44.761  35.652  28.368  1.00  0.00     0.049 A 
ATOM     47  N   UNL A   1      45.699  35.372  31.224  1.00  0.00    -0.248 NA
ATOM     48  C   UNL A   1      45.748  33.058  30.918  1.00  0.00     0.031 C 
ATOM     49  C   UNL A   1      44.313  35.842  26.990  1.00  0.00     0.029 A 
ATOM     50  N   UNL A   1      44.888  36.927  28.860  1.00  0.00    -0.354 N 
ATOM     51  C   UNL A   1      46.134  34.760  32.394  1.00  0.00     0.074 A 
ATOM     52  C   UNL A   1      46.108  33.333  32.162  1.00  0.00     0.031 C 
ATOM     53  C   UNL A   1      44.189  37.160  26.751  1.00  0.00     0.029 A 
ATOM     54  C   UNL A   1      44.515  37.903  27.967  1.00  0.00     0.049 A 
ATOM     55  H   UNL A   1      45.216  37.124  29.768  1.00  0.00     0.167 HD
ATOM     56  C   UNL A   1      46.528  35.336  33.555  1.00  0.00     0.037 A 
ATOM     57  C   UNL A   1      44.424  39.240  28.124  1.00  0.00     0.037 A 
ATOM     58  C   UNL A   1      46.550  36.759  33.779  1.00  0.00     0.049 A 
ATOM     59  C   UNL A   1      44.805  39.856  29.447  1.00  0.00     0.074 A 
ATOM     60  C   UNL A   1      46.952  37.443  34.913  1.00  0.00     0.029 A 
ATOM     61  N   UNL A   1      46.145  37.713  32.859  1.00  0.00    -0.354 N 
ATOM     62  N   UNL A   1      45.241  39.269  30.538  1.00  0.00    -0.248 NA
ATOM     63  C   UNL A   1      44.688  41.317  29.561  1.00  0.00     0.031 C 
ATOM     64  C   UNL A   1      46.732  38.808  34.700  1.00  0.00     0.029 A 
ATOM     65  C   UNL A   1      46.260  38.980  33.409  1.00  0.00     0.049 A 
ATOM     66  H   UNL A   1      45.823  37.520  31.949  1.00  0.00     0.167 HD
ATOM     67  C   UNL A   1      45.481  40.292  31.453  1.00  0.00     0.074 A 
ATOM     68  C   UNL A   1      45.152  41.532  30.784  1.00  0.00     0.031 C 
ATOM     69  C   UNL A   1      45.935  40.210  32.728  1.00  0.00     0.037 A 
BRANCH  56  70
ATOM     70  C   UNL A   1      46.937  34.427  34.683  1.00  0.00     0.058 A 
ATOM     71  C   UNL A   1      48.241  33.922  34.795  1.00  0.00     0.135 A 
ATOM     72  C   UNL A   1      46.015  34.084  35.685  1.00  0.00     0.135 A 
ATOM     73  F   UNL A   1      49.158  34.200  33.854  1.00  0.00    -0.206 F 
ATOM     74  C   UNL A   1      48.611  33.088  35.847  1.00  0.00     0.059 A 
ATOM     75  C   UNL A   1      46.371  33.278  36.762  1.00  0.00     0.059 A 
ATOM     76  F   UNL A   1      44.752  34.536  35.626  1.00  0.00    -0.206 F 
ATOM     77  C   UNL A   1      47.669  32.775  36.827  1.00  0.00     0.060 A 
BRANCH  77  78
ATOM     78  S   UNL A   1      48.167  31.701  38.189  1.00  0.00     0.124 S 
ATOM     79  O   UNL A   1      48.700  32.669  39.143  1.00  0.00    -0.237 OA
ATOM     80  O   UNL A   1      46.905  31.071  38.564  1.00  0.00    -0.237 OA
ATOM     81  O   UNL A   1      49.152  30.812  37.582  1.00  0.00    -0.744 OA
ENDBRANCH  77  78
ENDBRANCH  56  70
BRANCH  57  82
ATOM     82  C   UNL A   1      43.937  40.091  27.003  1.00  0.00     0.058 A 
ATOM     83  C   UNL A   1      44.827  40.830  26.209  1.00  0.00     0.135 A 
ATOM     84  C   UNL A   1      42.567  40.189  26.709  1.00  0.00     0.135 A 
ATOM     85  F   UNL A   1      46.144  40.783  26.458  1.00  0.00    -0.206 F 
ATOM     86  C   UNL A   1      44.378  41.646  25.175  1.00  0.00     0.059 A 
ATOM     87  C   UNL A   1      42.096  40.974  25.662  1.00  0.00     0.059 A 
ATOM     88  F   UNL A   1      41.672  39.498  27.432  1.00  0.00    -0.206 F 
ATOM     89  C   UNL A   1      43.009  41.707  24.906  1.00  0.00     0.060 A 
BRANCH  89  90
ATOM     90  S   UNL A   1      42.443  42.728  23.528  1.00  0.00     0.124 S 
ATOM     91  O   UNL A   1      43.128  43.987  23.791  1.00  0.00    -0.237 OA
ATOM     92  O   UNL A   1      42.917  41.970  22.374  1.00  0.00    -0.237 OA
ATOM     93  O   UNL A   1      40.993  42.749  23.700  1.00  0.00    -0.744 OA
ENDBRANCH  89  90
ENDBRANCH  57  82
BRANCH  69  94
ATOM     94  C   UNL A   1      46.152  41.500  33.477  1.00  0.00     0.058 A 
ATOM     95  C   UNL A   1      47.390  42.163  33.476  1.00  0.00     0.135 A 
ATOM     96  C   UNL A   1      45.086  42.108  34.163  1.00  0.00     0.135 A 
ATOM     97  F   UNL A   1      48.443  41.626  32.839  1.00  0.00    -0.206 F 
ATOM     98  C   UNL A   1      47.571  43.363  34.155  1.00  0.00     0.059 A 
ATOM     99  C   UNL A   1      45.237  43.325  34.820  1.00  0.00     0.059 A 
ATOM    100  F   UNL A   1      43.876  41.527  34.185  1.00  0.00    -0.206 F 
ATOM    101  C   UNL A   1      46.488  43.938  34.823  1.00  0.00     0.060 A 
BRANCH 101 102
ATOM    102  S   UNL A   1      46.733  45.509  35.680  1.00  0.00     0.124 S 
ATOM    103  O   UNL A   1      45.729  46.352  35.042  1.00  0.00    -0.237 OA
ATOM    104  O   UNL A   1      46.469  45.149  37.070  1.00  0.00    -0.237 OA
ATOM    105  O   UNL A   1      48.121  45.848  35.380  1.00  0.00    -0.744 OA
ENDBRANCH 101 102
ENDBRANCH  69  94
ENDBRANCH  43  44
ENDBRANCH  36  38
ENDBRANCH  35  36
ENDBRANCH  34  35
ENDBRANCH  33  34
ENDBRANCH  32  33
ENDBRANCH  31  32
ENDBRANCH   1  31
TORSDOF 26
ENDMDL
