MODEL 1
REMARK VINA RESULT:     -10.2      0.000      0.000
REMARK SMILES Cc1ccc(NC(=O)C[C@@H](C(=O)OCCOCCOCCOCCOC(=O)c2ccc(-c3c4nc(c(-c5c(F)cc(S(=O)(=O)[O-])cc5F)c5ccc([nH]5)c(-c5c(F)cc(S(=O)(=O)[O-])cc5F)c5nc(c(-c6c(F)cc(S(=O)(=O)[O-])cc6F)c6ccc3[nH]6)C=C5)C=C4)cc2)[NH+]2CCOCC2)cc1
REMARK SMILES IDX 19 1 18 2 17 3 16 4 15 5 14 6 13 7 11 8 12 9 10 10 9 11 7 12
REMARK SMILES IDX 6 13 8 15 5 16 1 17 2 18 3 19 101 20 4 21 100 22 94 23 95 24
REMARK SMILES IDX 99 25 96 27 98 28 97 29 20 30 21 31 22 32 23 33 24 34 25 35
REMARK SMILES IDX 26 36 27 37 28 38 29 39 93 40 30 41 92 42 31 43 32 44 33 45
REMARK SMILES IDX 86 46 34 47 91 48 85 49 87 50 35 51 90 52 84 53 83 54 36 56
REMARK SMILES IDX 70 57 49 58 69 59 50 60 53 61 68 62 88 63 51 64 52 65 67 67
REMARK SMILES IDX 89 68 54 69 37 70 38 71 47 72 39 73 40 74 46 75 48 76 41 77
REMARK SMILES IDX 42 78 43 79 44 80 45 81 71 82 72 83 81 84 73 85 74 86 80 87
REMARK SMILES IDX 82 88 75 89 76 90 77 91 78 92 79 93 55 94 56 95 65 96 57 97
REMARK SMILES IDX 58 98 64 99 66 100 59 101 60 102 61 103 62 104 63 105
REMARK H PARENT 6 14 94 26 87 55 53 66
REMARK Flexibility Score: inf
ROOT
ATOM      1  O   UNL A   1      39.427  28.687  28.574  1.00  0.00    -0.377 OA
ENDROOT
BRANCH   1   2
ATOM      2  C   UNL A   1      38.252  29.313  29.006  1.00  0.00     0.188 C 
BRANCH   2   3
ATOM      3  C   UNL A   1      37.257  29.763  27.830  1.00  0.00     0.188 C 
BRANCH   3   4
ATOM      4  O   UNL A   1      35.470  30.040  28.398  1.00  0.00    -0.376 OA
BRANCH   4   5
ATOM      5  C   UNL A   1      33.928  29.257  27.280  1.00  0.00     0.202 C 
BRANCH   5   6
ATOM      6  C   UNL A   1      32.526  29.061  26.660  1.00  0.00     0.261 C 
BRANCH   6   7
ATOM      7  O   UNL A   1      32.099  29.713  25.526  1.00  0.00    -0.459 OA
BRANCH   7   8
ATOM      8  C   UNL A   1      32.505  28.973  24.512  1.00  0.00     0.365 C 
ATOM      9  O   UNL A   1      33.397  29.314  23.743  1.00  0.00    -0.245 OA
BRANCH   8  10
ATOM     10  C   UNL A   1      31.503  27.872  24.363  1.00  0.00     0.304 C 
BRANCH  10  11
ATOM     11  C   UNL A   1      32.031  26.467  23.841  1.00  0.00     0.177 C 
BRANCH  11  12
ATOM     12  C   UNL A   1      33.164  25.985  22.768  1.00  0.00     0.231 C 
ATOM     13  N   UNL A   1      33.912  24.822  22.627  1.00  0.00    -0.326 N 
ATOM     14  H   UNL A   1      34.592  24.879  21.918  1.00  0.00     0.169 HD
ATOM     15  O   UNL A   1      33.483  26.866  21.939  1.00  0.00    -0.274 OA
BRANCH  13  16
ATOM     16  C   UNL A   1      33.896  23.547  23.306  1.00  0.00     0.041 A 
ATOM     17  C   UNL A   1      33.076  19.014  25.384  1.00  0.00     0.044 C 
ATOM     18  C   UNL A   1      33.652  20.268  24.692  1.00  0.00    -0.051 A 
ATOM     19  C   UNL A   1      32.325  20.635  23.289  1.00  0.00     0.005 A 
ATOM     20  C   UNL A   1      35.213  21.235  25.468  1.00  0.00     0.005 A 
ATOM     21  C   UNL A   1      32.584  22.418  22.398  1.00  0.00     0.026 A 
ATOM     22  C   UNL A   1      35.186  23.161  24.759  1.00  0.00     0.026 A 
ENDBRANCH  13  16
ENDBRANCH  11  12
ENDBRANCH  10  11
BRANCH  10  23
ATOM     23  N   UNL A   1      30.400  28.633  23.693  1.00  0.00    -0.319 N 
ATOM     24  C   UNL A   1      30.839  29.061  22.280  1.00  0.00     0.291 C 
ATOM     25  C   UNL A   1      29.179  27.845  23.444  1.00  0.00     0.291 C 
ATOM     26  H   UNL A   1      30.206  29.402  24.335  1.00  0.00     0.348 HD
ATOM     27  C   UNL A   1      29.886  30.083  21.748  1.00  0.00     0.221 C 
ATOM     28  C   UNL A   1      28.168  28.844  22.864  1.00  0.00     0.221 C 
ATOM     29  O   UNL A   1      28.584  29.494  21.645  1.00  0.00    -0.370 OA
ENDBRANCH  10  23
ENDBRANCH   8  10
ENDBRANCH   7   8
ENDBRANCH   6   7
ENDBRANCH   5   6
ENDBRANCH   4   5
ENDBRANCH   3   4
ENDBRANCH   2   3
ENDBRANCH   1   2
BRANCH   1  30
ATOM     30  C   UNL A   1      39.343  27.300  28.745  1.00  0.00     0.188 C 
BRANCH  30  31
ATOM     31  C   UNL A   1      40.312  26.239  27.931  1.00  0.00     0.188 C 
BRANCH  31  32
ATOM     32  O   UNL A   1      41.557  26.720  27.536  1.00  0.00    -0.376 OA
BRANCH  32  33
ATOM     33  C   UNL A   1      41.404  26.897  26.157  1.00  0.00     0.202 C 
BRANCH  33  34
ATOM     34  C   UNL A   1      41.967  28.300  25.537  1.00  0.00     0.261 C 
BRANCH  34  35
ATOM     35  O   UNL A   1      43.135  29.344  26.206  1.00  0.00    -0.460 OA
BRANCH  35  36
ATOM     36  C   UNL A   1      44.366  29.862  26.654  1.00  0.00     0.338 C 
ATOM     37  O   UNL A   1      45.398  29.389  26.160  1.00  0.00    -0.246 OA
BRANCH  36  38
ATOM     38  C   UNL A   1      44.822  30.918  27.789  1.00  0.00     0.060 A 
ATOM     39  C   UNL A   1      46.038  30.591  28.260  1.00  0.00     0.016 A 
ATOM     40  C   UNL A   1      44.156  31.596  28.829  1.00  0.00     0.016 A 
ATOM     41  C   UNL A   1      45.946  30.059  29.535  1.00  0.00     0.010 A 
ATOM     42  C   UNL A   1      44.030  31.126  30.216  1.00  0.00     0.010 A 
ATOM     43  C   UNL A   1      44.670  29.931  30.684  1.00  0.00    -0.014 A 
BRANCH  43  44
ATOM     44  C   UNL A   1      45.134  28.796  32.539  1.00  0.00     0.031 A 
ATOM     45  C   UNL A   1      45.938  27.043  32.459  1.00  0.00     0.074 A 
ATOM     46  C   UNL A   1      44.265  28.652  33.970  1.00  0.00     0.049 A 
ATOM     47  N   UNL A   1      46.664  26.541  33.425  1.00  0.00    -0.248 NA
ATOM     48  C   UNL A   1      46.439  26.241  31.253  1.00  0.00     0.031 C 
ATOM     49  C   UNL A   1      44.565  29.387  35.403  1.00  0.00     0.029 A 
ATOM     50  N   UNL A   1      42.853  29.017  34.169  1.00  0.00    -0.354 N 
ATOM     51  C   UNL A   1      47.960  26.139  32.945  1.00  0.00     0.074 A 
ATOM     52  C   UNL A   1      47.708  25.890  31.561  1.00  0.00     0.031 C 
ATOM     53  C   UNL A   1      43.544  29.761  36.188  1.00  0.00     0.029 A 
ATOM     54  C   UNL A   1      42.421  29.431  35.429  1.00  0.00     0.049 A 
ATOM     55  H   UNL A   1      42.218  28.969  33.419  1.00  0.00     0.167 HD
ATOM     56  C   UNL A   1      49.064  26.201  33.802  1.00  0.00     0.037 A 
ATOM     57  C   UNL A   1      41.249  28.997  35.868  1.00  0.00     0.037 A 
ATOM     58  C   UNL A   1      48.544  26.319  35.233  1.00  0.00     0.049 A 
ATOM     59  C   UNL A   1      42.131  27.495  36.179  1.00  0.00     0.074 A 
ATOM     60  C   UNL A   1      48.765  27.034  36.405  1.00  0.00     0.029 A 
ATOM     61  N   UNL A   1      47.286  25.771  35.477  1.00  0.00    -0.354 N 
ATOM     62  N   UNL A   1      43.476  27.290  36.240  1.00  0.00    -0.248 NA
ATOM     63  C   UNL A   1      41.511  26.292  36.706  1.00  0.00     0.031 C 
ATOM     64  C   UNL A   1      47.539  26.976  37.224  1.00  0.00     0.029 A 
ATOM     65  C   UNL A   1      46.560  26.229  36.561  1.00  0.00     0.049 A 
ATOM     66  H   UNL A   1      46.922  25.071  34.890  1.00  0.00     0.167 HD
ATOM     67  C   UNL A   1      43.909  26.044  36.636  1.00  0.00     0.074 A 
ATOM     68  C   UNL A   1      42.568  25.454  36.877  1.00  0.00     0.031 C 
ATOM     69  C   UNL A   1      45.237  25.540  36.779  1.00  0.00     0.037 A 
BRANCH  56  70
ATOM     70  C   UNL A   1      50.641  26.246  33.454  1.00  0.00     0.058 A 
ATOM     71  C   UNL A   1      51.198  27.419  32.870  1.00  0.00     0.135 A 
ATOM     72  C   UNL A   1      51.640  25.237  33.615  1.00  0.00     0.135 A 
ATOM     73  F   UNL A   1      50.440  28.472  32.560  1.00  0.00    -0.206 F 
ATOM     74  C   UNL A   1      52.560  27.625  32.567  1.00  0.00     0.059 A 
ATOM     75  C   UNL A   1      53.044  25.433  33.339  1.00  0.00     0.059 A 
ATOM     76  F   UNL A   1      51.310  24.007  34.039  1.00  0.00    -0.206 F 
ATOM     77  C   UNL A   1      53.496  26.653  32.846  1.00  0.00     0.060 A 
BRANCH  77  78
ATOM     78  S   UNL A   1      55.250  27.101  32.624  1.00  0.00     0.124 S 
ATOM     79  O   UNL A   1      55.359  27.260  31.176  1.00  0.00    -0.237 OA
ATOM     80  O   UNL A   1      55.348  28.337  33.395  1.00  0.00    -0.237 OA
ATOM     81  O   UNL A   1      55.977  25.964  33.180  1.00  0.00    -0.744 OA
ENDBRANCH  77  78
ENDBRANCH  56  70
BRANCH  57  82
ATOM     82  C   UNL A   1      40.494  30.064  34.737  1.00  0.00     0.058 A 
ATOM     83  C   UNL A   1      39.774  29.447  33.625  1.00  0.00     0.135 A 
ATOM     84  C   UNL A   1      40.078  31.430  34.850  1.00  0.00     0.135 A 
ATOM     85  F   UNL A   1      39.993  28.151  33.349  1.00  0.00    -0.206 F 
ATOM     86  C   UNL A   1      38.752  30.063  32.812  1.00  0.00     0.059 A 
ATOM     87  C   UNL A   1      39.046  32.084  34.014  1.00  0.00     0.059 A 
ATOM     88  F   UNL A   1      40.583  32.172  35.846  1.00  0.00    -0.206 F 
ATOM     89  C   UNL A   1      38.399  31.394  32.980  1.00  0.00     0.060 A 
BRANCH  89  90
ATOM     90  S   UNL A   1      37.218  32.114  31.713  1.00  0.00     0.124 S 
ATOM     91  O   UNL A   1      36.720  33.294  32.414  1.00  0.00    -0.237 OA
ATOM     92  O   UNL A   1      38.086  32.401  30.573  1.00  0.00    -0.237 OA
ATOM     93  O   UNL A   1      36.201  31.104  31.493  1.00  0.00    -0.744 OA
ENDBRANCH  89  90
ENDBRANCH  57  82
BRANCH  69  94
ATOM     94  C   UNL A   1      45.478  24.045  37.060  1.00  0.00     0.058 A 
ATOM     95  C   UNL A   1      45.314  23.119  36.045  1.00  0.00     0.135 A 
ATOM     96  C   UNL A   1      45.800  23.463  38.335  1.00  0.00     0.135 A 
ATOM     97  F   UNL A   1      44.650  23.442  34.927  1.00  0.00    -0.206 F 
ATOM     98  C   UNL A   1      45.730  21.806  36.179  1.00  0.00     0.059 A 
ATOM     99  C   UNL A   1      46.114  22.138  38.522  1.00  0.00     0.059 A 
ATOM    100  F   UNL A   1      45.784  24.088  39.515  1.00  0.00    -0.206 F 
ATOM    101  C   UNL A   1      46.121  21.325  37.424  1.00  0.00     0.060 A 
BRANCH 101 102
ATOM    102  S   UNL A   1      46.390  19.578  37.634  1.00  0.00     0.124 S 
ATOM    103  O   UNL A   1      45.719  19.340  38.908  1.00  0.00    -0.237 OA
ATOM    104  O   UNL A   1      45.731  19.041  36.449  1.00  0.00    -0.237 OA
ATOM    105  O   UNL A   1      47.844  19.452  37.662  1.00  0.00    -0.744 OA
ENDBRANCH 101 102
ENDBRANCH  69  94
ENDBRANCH  43  44
ENDBRANCH  36  38
ENDBRANCH  35  36
ENDBRANCH  34  35
ENDBRANCH  33  34
ENDBRANCH  32  33
ENDBRANCH  31  32
ENDBRANCH  30  31
ENDBRANCH   1  30
TORSDOF 27
ENDMDL
MODEL 2
REMARK VINA RESULT:      -9.8      8.393     13.082
REMARK SMILES Cc1ccc(NC(=O)C[C@@H](C(=O)OCCOCCOCCOCCOC(=O)c2ccc(-c3c4nc(c(-c5c(F)cc(S(=O)(=O)[O-])cc5F)c5ccc([nH]5)c(-c5c(F)cc(S(=O)(=O)[O-])cc5F)c5nc(c(-c6c(F)cc(S(=O)(=O)[O-])cc6F)c6ccc3[nH]6)C=C5)C=C4)cc2)[NH+]2CCOCC2)cc1
REMARK SMILES IDX 19 1 18 2 17 3 16 4 15 5 14 6 13 7 11 8 12 9 10 10 9 11 7 12
REMARK SMILES IDX 6 13 8 15 5 16 1 17 2 18 3 19 101 20 4 21 100 22 94 23 95 24
REMARK SMILES IDX 99 25 96 27 98 28 97 29 20 30 21 31 22 32 23 33 24 34 25 35
REMARK SMILES IDX 26 36 27 37 28 38 29 39 93 40 30 41 92 42 31 43 32 44 33 45
REMARK SMILES IDX 86 46 34 47 91 48 85 49 87 50 35 51 90 52 84 53 83 54 36 56
REMARK SMILES IDX 70 57 49 58 69 59 50 60 53 61 68 62 88 63 51 64 52 65 67 67
REMARK SMILES IDX 89 68 54 69 37 70 38 71 47 72 39 73 40 74 46 75 48 76 41 77
REMARK SMILES IDX 42 78 43 79 44 80 45 81 71 82 72 83 81 84 73 85 74 86 80 87
REMARK SMILES IDX 82 88 75 89 76 90 77 91 78 92 79 93 55 94 56 95 65 96 57 97
REMARK SMILES IDX 58 98 64 99 66 100 59 101 60 102 61 103 62 104 63 105
REMARK H PARENT 6 14 94 26 87 55 53 66
REMARK Flexibility Score: inf
ROOT
ATOM      1  O   UNL A   1      37.062  30.152  31.373  1.00  0.00    -0.377 OA
ENDROOT
BRANCH   1   2
ATOM      2  C   UNL A   1      37.331  31.121  30.400  1.00  0.00     0.188 C 
BRANCH   2   3
ATOM      3  C   UNL A   1      36.105  31.446  29.416  1.00  0.00     0.188 C 
BRANCH   3   4
ATOM      4  O   UNL A   1      36.283  30.688  27.689  1.00  0.00    -0.376 OA
BRANCH   4   5
ATOM      5  C   UNL A   1      34.782  29.480  26.963  1.00  0.00     0.202 C 
BRANCH   5   6
ATOM      6  C   UNL A   1      33.692  28.386  26.892  1.00  0.00     0.261 C 
BRANCH   6   7
ATOM      7  O   UNL A   1      33.094  27.984  25.720  1.00  0.00    -0.459 OA
BRANCH   7   8
ATOM      8  C   UNL A   1      31.794  28.036  25.943  1.00  0.00     0.365 C 
ATOM      9  O   UNL A   1      31.308  28.356  27.023  1.00  0.00    -0.245 OA
BRANCH   8  10
ATOM     10  C   UNL A   1      31.136  27.380  24.771  1.00  0.00     0.304 C 
BRANCH  10  11
ATOM     11  C   UNL A   1      30.142  26.176  25.068  1.00  0.00     0.177 C 
BRANCH  11  12
ATOM     12  C   UNL A   1      30.096  24.958  26.155  1.00  0.00     0.231 C 
ATOM     13  N   UNL A   1      30.884  23.833  26.361  1.00  0.00    -0.326 N 
ATOM     14  H   UNL A   1      30.531  23.230  27.055  1.00  0.00     0.169 HD
ATOM     15  O   UNL A   1      29.106  25.001  26.920  1.00  0.00    -0.274 OA
BRANCH  13  16
ATOM     16  C   UNL A   1      32.115  23.364  25.767  1.00  0.00     0.041 A 
ATOM     17  C   UNL A   1      36.645  22.514  23.695  1.00  0.00     0.044 C 
ATOM     18  C   UNL A   1      35.329  22.472  24.501  1.00  0.00    -0.051 A 
ATOM     19  C   UNL A   1      35.269  24.257  25.324  1.00  0.00     0.005 A 
ATOM     20  C   UNL A   1      34.058  20.949  24.301  1.00  0.00     0.005 A 
ATOM     21  C   UNL A   1      33.502  24.675  26.185  1.00  0.00     0.026 A 
ATOM     22  C   UNL A   1      32.198  21.591  24.886  1.00  0.00     0.026 A 
ENDBRANCH  13  16
ENDBRANCH  11  12
ENDBRANCH  10  11
BRANCH  10  23
ATOM     23  N   UNL A   1      32.321  27.259  23.862  1.00  0.00    -0.319 N 
ATOM     24  C   UNL A   1      32.218  25.964  23.034  1.00  0.00     0.291 C 
ATOM     25  C   UNL A   1      32.410  28.312  22.833  1.00  0.00     0.291 C 
ATOM     26  H   UNL A   1      33.122  27.304  24.492  1.00  0.00     0.348 HD
ATOM     27  C   UNL A   1      33.533  25.681  22.380  1.00  0.00     0.221 C 
ATOM     28  C   UNL A   1      33.737  28.051  22.106  1.00  0.00     0.221 C 
ATOM     29  O   UNL A   1      33.846  26.754  21.484  1.00  0.00    -0.370 OA
ENDBRANCH  10  23
ENDBRANCH   8  10
ENDBRANCH   7   8
ENDBRANCH   6   7
ENDBRANCH   5   6
ENDBRANCH   4   5
ENDBRANCH   3   4
ENDBRANCH   2   3
ENDBRANCH   1   2
BRANCH   1  30
ATOM     30  C   UNL A   1      36.617  30.748  32.560  1.00  0.00     0.188 C 
BRANCH  30  31
ATOM     31  C   UNL A   1      37.630  31.119  33.809  1.00  0.00     0.188 C 
BRANCH  31  32
ATOM     32  O   UNL A   1      38.670  31.998  33.518  1.00  0.00    -0.376 OA
BRANCH  32  33
ATOM     33  C   UNL A   1      39.619  31.699  34.501  1.00  0.00     0.202 C 
BRANCH  33  34
ATOM     34  C   UNL A   1      40.785  30.632  34.084  1.00  0.00     0.261 C 
BRANCH  34  35
ATOM     35  O   UNL A   1      42.117  30.888  33.053  1.00  0.00    -0.460 OA
BRANCH  35  36
ATOM     36  C   UNL A   1      42.941  30.900  31.911  1.00  0.00     0.338 C 
ATOM     37  O   UNL A   1      43.969  30.210  31.942  1.00  0.00    -0.246 OA
BRANCH  36  38
ATOM     38  C   UNL A   1      42.950  31.705  30.510  1.00  0.00     0.060 A 
ATOM     39  C   UNL A   1      44.187  32.166  30.252  1.00  0.00     0.016 A 
ATOM     40  C   UNL A   1      42.051  32.583  29.872  1.00  0.00     0.016 A 
ATOM     41  C   UNL A   1      44.249  33.537  30.438  1.00  0.00     0.010 A 
ATOM     42  C   UNL A   1      42.056  34.048  29.985  1.00  0.00     0.010 A 
ATOM     43  C   UNL A   1      43.067  34.759  30.714  1.00  0.00    -0.014 A 
BRANCH  43  44
ATOM     44  C   UNL A   1      43.846  36.805  31.097  1.00  0.00     0.031 A 
ATOM     45  C   UNL A   1      45.076  37.649  29.872  1.00  0.00     0.074 A 
ATOM     46  C   UNL A   1      44.322  37.535  32.534  1.00  0.00     0.049 A 
ATOM     47  N   UNL A   1      45.191  38.947  29.748  1.00  0.00    -0.248 NA
ATOM     48  C   UNL A   1      45.606  37.166  28.517  1.00  0.00     0.031 C 
ATOM     49  C   UNL A   1      43.498  38.642  33.417  1.00  0.00     0.029 A 
ATOM     50  N   UNL A   1      44.603  36.848  33.805  1.00  0.00    -0.354 N 
ATOM     51  C   UNL A   1      45.000  39.357  28.382  1.00  0.00     0.074 A 
ATOM     52  C   UNL A   1      45.363  38.181  27.657  1.00  0.00     0.031 C 
ATOM     53  C   UNL A   1      43.589  38.630  34.755  1.00  0.00     0.029 A 
ATOM     54  C   UNL A   1      44.391  37.517  35.010  1.00  0.00     0.049 A 
ATOM     55  H   UNL A   1      44.939  35.923  33.805  1.00  0.00     0.167 HD
ATOM     56  C   UNL A   1      44.445  40.612  28.108  1.00  0.00     0.037 A 
ATOM     57  C   UNL A   1      45.282  37.370  35.979  1.00  0.00     0.037 A 
ATOM     58  C   UNL A   1      44.533  41.454  29.380  1.00  0.00     0.049 A 
ATOM     59  C   UNL A   1      46.243  38.499  35.014  1.00  0.00     0.074 A 
ATOM     60  C   UNL A   1      43.767  42.315  30.158  1.00  0.00     0.029 A 
ATOM     61  N   UNL A   1      45.568  41.136  30.257  1.00  0.00    -0.354 N 
ATOM     62  N   UNL A   1      45.841  39.315  34.001  1.00  0.00    -0.248 NA
ATOM     63  C   UNL A   1      47.585  38.926  35.374  1.00  0.00     0.031 C 
ATOM     64  C   UNL A   1      44.335  42.340  31.520  1.00  0.00     0.029 A 
ATOM     65  C   UNL A   1      45.448  41.496  31.587  1.00  0.00     0.049 A 
ATOM     66  H   UNL A   1      46.370  40.664  29.936  1.00  0.00     0.167 HD
ATOM     67  C   UNL A   1      46.766  40.206  33.500  1.00  0.00     0.074 A 
ATOM     68  C   UNL A   1      47.875  39.852  34.423  1.00  0.00     0.031 C 
ATOM     69  C   UNL A   1      46.638  41.160  32.447  1.00  0.00     0.037 A 
BRANCH  56  70
ATOM     70  C   UNL A   1      43.725  41.154  26.767  1.00  0.00     0.058 A 
ATOM     71  C   UNL A   1      44.404  42.091  25.936  1.00  0.00     0.135 A 
ATOM     72  C   UNL A   1      42.428  40.860  26.245  1.00  0.00     0.135 A 
ATOM     73  F   UNL A   1      45.606  42.569  26.260  1.00  0.00    -0.206 F 
ATOM     74  C   UNL A   1      43.929  42.606  24.712  1.00  0.00     0.059 A 
ATOM     75  C   UNL A   1      41.930  41.352  24.981  1.00  0.00     0.059 A 
ATOM     76  F   UNL A   1      41.570  40.090  26.933  1.00  0.00    -0.206 F 
ATOM     77  C   UNL A   1      42.713  42.201  24.204  1.00  0.00     0.060 A 
BRANCH  77  78
ATOM     78  S   UNL A   1      42.293  42.752  22.517  1.00  0.00     0.124 S 
ATOM     79  O   UNL A   1      40.844  42.922  22.587  1.00  0.00    -0.237 OA
ATOM     80  O   UNL A   1      43.060  43.990  22.402  1.00  0.00    -0.237 OA
ATOM     81  O   UNL A   1      42.749  41.658  21.666  1.00  0.00    -0.744 OA
ENDBRANCH  77  78
ENDBRANCH  56  70
BRANCH  57  82
ATOM     82  C   UNL A   1      44.675  35.768  36.216  1.00  0.00     0.058 A 
ATOM     83  C   UNL A   1      45.659  34.688  36.265  1.00  0.00     0.135 A 
ATOM     84  C   UNL A   1      43.443  35.291  36.769  1.00  0.00     0.135 A 
ATOM     85  F   UNL A   1      46.903  34.923  35.816  1.00  0.00    -0.206 F 
ATOM     86  C   UNL A   1      45.472  33.378  36.841  1.00  0.00     0.059 A 
ATOM     87  C   UNL A   1      43.227  33.945  37.347  1.00  0.00     0.059 A 
ATOM     88  F   UNL A   1      42.412  36.143  36.866  1.00  0.00    -0.206 F 
ATOM     89  C   UNL A   1      44.247  32.985  37.361  1.00  0.00     0.060 A 
BRANCH  89  90
ATOM     90  S   UNL A   1      44.094  31.187  37.874  1.00  0.00     0.124 S 
ATOM     91  O   UNL A   1      42.807  31.187  38.562  1.00  0.00    -0.237 OA
ATOM     92  O   UNL A   1      44.106  30.474  36.598  1.00  0.00    -0.237 OA
ATOM     93  O   UNL A   1      45.216  30.923  38.754  1.00  0.00    -0.744 OA
ENDBRANCH  89  90
ENDBRANCH  57  82
BRANCH  69  94
ATOM     94  C   UNL A   1      47.874  41.925  31.934  1.00  0.00     0.058 A 
ATOM     95  C   UNL A   1      48.140  43.198  32.407  1.00  0.00     0.135 A 
ATOM     96  C   UNL A   1      48.788  41.476  30.919  1.00  0.00     0.135 A 
ATOM     97  F   UNL A   1      47.194  43.902  33.044  1.00  0.00    -0.206 F 
ATOM     98  C   UNL A   1      49.342  43.836  32.155  1.00  0.00     0.059 A 
ATOM     99  C   UNL A   1      49.938  42.140  30.567  1.00  0.00     0.059 A 
ATOM    100  F   UNL A   1      48.634  40.405  30.136  1.00  0.00    -0.206 F 
ATOM    101  C   UNL A   1      50.230  43.301  31.227  1.00  0.00     0.060 A 
BRANCH 101 102
ATOM    102  S   UNL A   1      51.637  44.265  30.717  1.00  0.00     0.124 S 
ATOM    103  O   UNL A   1      52.394  43.276  29.956  1.00  0.00    -0.237 OA
ATOM    104  O   UNL A   1      50.995  45.321  29.942  1.00  0.00    -0.237 OA
ATOM    105  O   UNL A   1      52.245  44.683  31.976  1.00  0.00    -0.744 OA
ENDBRANCH 101 102
ENDBRANCH  69  94
ENDBRANCH  43  44
ENDBRANCH  36  38
ENDBRANCH  35  36
ENDBRANCH  34  35
ENDBRANCH  33  34
ENDBRANCH  32  33
ENDBRANCH  31  32
ENDBRANCH  30  31
ENDBRANCH   1  30
TORSDOF 27
ENDMDL
MODEL 3
REMARK VINA RESULT:      -9.8      5.693     15.358
REMARK SMILES Cc1ccc(NC(=O)C[C@@H](C(=O)OCCOCCOCCOCCOC(=O)c2ccc(-c3c4nc(c(-c5c(F)cc(S(=O)(=O)[O-])cc5F)c5ccc([nH]5)c(-c5c(F)cc(S(=O)(=O)[O-])cc5F)c5nc(c(-c6c(F)cc(S(=O)(=O)[O-])cc6F)c6ccc3[nH]6)C=C5)C=C4)cc2)[NH+]2CCOCC2)cc1
REMARK SMILES IDX 19 1 18 2 17 3 16 4 15 5 14 6 13 7 11 8 12 9 10 10 9 11 7 12
REMARK SMILES IDX 6 13 8 15 5 16 1 17 2 18 3 19 101 20 4 21 100 22 94 23 95 24
REMARK SMILES IDX 99 25 96 27 98 28 97 29 20 30 21 31 22 32 23 33 24 34 25 35
REMARK SMILES IDX 26 36 27 37 28 38 29 39 93 40 30 41 92 42 31 43 32 44 33 45
REMARK SMILES IDX 86 46 34 47 91 48 85 49 87 50 35 51 90 52 84 53 83 54 36 56
REMARK SMILES IDX 70 57 49 58 69 59 50 60 53 61 68 62 88 63 51 64 52 65 67 67
REMARK SMILES IDX 89 68 54 69 37 70 38 71 47 72 39 73 40 74 46 75 48 76 41 77
REMARK SMILES IDX 42 78 43 79 44 80 45 81 71 82 72 83 81 84 73 85 74 86 80 87
REMARK SMILES IDX 82 88 75 89 76 90 77 91 78 92 79 93 55 94 56 95 65 96 57 97
REMARK SMILES IDX 58 98 64 99 66 100 59 101 60 102 61 103 62 104 63 105
REMARK H PARENT 6 14 94 26 87 55 53 66
REMARK Flexibility Score: inf
ROOT
ATOM      1  O   UNL A   1      52.122  22.426  34.190  1.00  0.00    -0.377 OA
ENDROOT
BRANCH   1   2
ATOM      2  C   UNL A   1      51.128  21.534  33.772  1.00  0.00     0.188 C 
BRANCH   2   3
ATOM      3  C   UNL A   1      51.398  19.998  34.151  1.00  0.00     0.188 C 
BRANCH   3   4
ATOM      4  O   UNL A   1      50.968  19.561  35.945  1.00  0.00    -0.376 OA
BRANCH   4   5
ATOM      5  C   UNL A   1      49.187  20.222  36.739  1.00  0.00     0.202 C 
BRANCH   5   6
ATOM      6  C   UNL A   1      47.673  20.358  37.019  1.00  0.00     0.261 C 
BRANCH   6   7
ATOM      7  O   UNL A   1      46.866  19.299  37.365  1.00  0.00    -0.459 OA
BRANCH   7   8
ATOM      8  C   UNL A   1      46.551  19.485  38.633  1.00  0.00     0.365 C 
ATOM      9  O   UNL A   1      46.282  20.584  39.106  1.00  0.00    -0.245 OA
BRANCH   8  10
ATOM     10  C   UNL A   1      46.871  18.207  39.341  1.00  0.00     0.304 C 
BRANCH  10  11
ATOM     11  C   UNL A   1      45.696  17.151  39.514  1.00  0.00     0.177 C 
BRANCH  11  12
ATOM     12  C   UNL A   1      44.201  16.974  38.883  1.00  0.00     0.231 C 
ATOM     13  N   UNL A   1      43.096  16.212  39.244  1.00  0.00    -0.326 N 
ATOM     14  H   UNL A   1      42.361  16.256  38.591  1.00  0.00     0.169 HD
ATOM     15  O   UNL A   1      44.028  17.594  37.809  1.00  0.00    -0.274 OA
BRANCH  13  16
ATOM     16  C   UNL A   1      42.804  15.370  40.382  1.00  0.00     0.041 A 
ATOM     17  C   UNL A   1      41.185  12.113  43.890  1.00  0.00     0.044 C 
ATOM     18  C   UNL A   1      42.000  13.020  42.943  1.00  0.00    -0.051 A 
ATOM     19  C   UNL A   1      41.304  12.529  41.170  1.00  0.00     0.005 A 
ATOM     20  C   UNL A   1      43.172  14.461  43.667  1.00  0.00     0.005 A 
ATOM     21  C   UNL A   1      41.910  13.768  39.709  1.00  0.00     0.026 A 
ATOM     22  C   UNL A   1      43.448  15.859  42.191  1.00  0.00     0.026 A 
ENDBRANCH  13  16
ENDBRANCH  11  12
ENDBRANCH  10  11
BRANCH  10  23
ATOM     23  N   UNL A   1      47.657  18.755  40.493  1.00  0.00    -0.319 N 
ATOM     24  C   UNL A   1      47.569  17.794  41.694  1.00  0.00     0.291 C 
ATOM     25  C   UNL A   1      49.107  18.859  40.248  1.00  0.00     0.291 C 
ATOM     26  H   UNL A   1      47.251  19.679  40.651  1.00  0.00     0.348 HD
ATOM     27  C   UNL A   1      48.066  18.483  42.924  1.00  0.00     0.221 C 
ATOM     28  C   UNL A   1      49.678  19.538  41.502  1.00  0.00     0.221 C 
ATOM     29  O   UNL A   1      49.443  18.831  42.737  1.00  0.00    -0.370 OA
ENDBRANCH  10  23
ENDBRANCH   8  10
ENDBRANCH   7   8
ENDBRANCH   6   7
ENDBRANCH   5   6
ENDBRANCH   4   5
ENDBRANCH   3   4
ENDBRANCH   2   3
ENDBRANCH   1   2
BRANCH   1  30
ATOM     30  C   UNL A   1      51.933  23.688  33.614  1.00  0.00     0.188 C 
BRANCH  30  31
ATOM     31  C   UNL A   1      50.715  24.011  32.547  1.00  0.00     0.188 C 
BRANCH  31  32
ATOM     32  O   UNL A   1      49.594  24.651  33.068  1.00  0.00    -0.376 OA
BRANCH  32  33
ATOM     33  C   UNL A   1      50.144  25.742  33.751  1.00  0.00     0.202 C 
BRANCH  33  34
ATOM     34  C   UNL A   1      49.094  26.691  34.568  1.00  0.00     0.261 C 
BRANCH  34  35
ATOM     35  O   UNL A   1      48.987  28.392  34.545  1.00  0.00    -0.460 OA
BRANCH  35  36
ATOM     36  C   UNL A   1      48.815  29.727  34.960  1.00  0.00     0.338 C 
ATOM     37  O   UNL A   1      49.010  29.981  36.156  1.00  0.00    -0.246 OA
BRANCH  36  38
ATOM     38  C   UNL A   1      48.305  31.091  34.259  1.00  0.00     0.060 A 
ATOM     39  C   UNL A   1      47.407  31.705  35.049  1.00  0.00     0.016 A 
ATOM     40  C   UNL A   1      48.000  31.464  32.935  1.00  0.00     0.016 A 
ATOM     41  C   UNL A   1      46.129  31.580  34.532  1.00  0.00     0.010 A 
ATOM     42  C   UNL A   1      46.673  31.393  32.308  1.00  0.00     0.010 A 
ATOM     43  C   UNL A   1      45.499  31.005  33.035  1.00  0.00    -0.014 A 
BRANCH  43  44
ATOM     44  C   UNL A   1      43.283  30.915  32.877  1.00  0.00     0.031 A 
ATOM     45  C   UNL A   1      42.402  30.998  31.162  1.00  0.00     0.074 A 
ATOM     46  C   UNL A   1      42.095  31.604  33.847  1.00  0.00     0.049 A 
ATOM     47  N   UNL A   1      41.222  30.481  30.934  1.00  0.00    -0.248 NA
ATOM     48  C   UNL A   1      42.995  31.037  29.749  1.00  0.00     0.031 C 
ATOM     49  C   UNL A   1      41.160  30.861  34.968  1.00  0.00     0.029 A 
ATOM     50  N   UNL A   1      42.297  32.672  34.840  1.00  0.00    -0.354 N 
ATOM     51  C   UNL A   1      41.263  29.561  29.828  1.00  0.00     0.074 A 
ATOM     52  C   UNL A   1      42.380  30.038  29.077  1.00  0.00     0.031 C 
ATOM     53  C   UNL A   1      40.802  31.518  36.081  1.00  0.00     0.029 A 
ATOM     54  C   UNL A   1      41.463  32.740  35.955  1.00  0.00     0.049 A 
ATOM     55  H   UNL A   1      43.015  33.334  34.717  1.00  0.00     0.167 HD
ATOM     56  C   UNL A   1      40.392  28.466  29.808  1.00  0.00     0.037 A 
ATOM     57  C   UNL A   1      41.041  33.931  36.356  1.00  0.00     0.037 A 
ATOM     58  C   UNL A   1      39.280  28.728  30.822  1.00  0.00     0.049 A 
ATOM     59  C   UNL A   1      39.931  33.792  34.986  1.00  0.00     0.074 A 
ATOM     60  C   UNL A   1      38.573  28.090  31.835  1.00  0.00     0.029 A 
ATOM     61  N   UNL A   1      38.986  30.065  31.079  1.00  0.00    -0.354 N 
ATOM     62  N   UNL A   1      39.589  32.684  34.270  1.00  0.00    -0.248 NA
ATOM     63  C   UNL A   1      38.987  34.829  34.606  1.00  0.00     0.031 C 
ATOM     64  C   UNL A   1      38.010  29.121  32.729  1.00  0.00     0.029 A 
ATOM     65  C   UNL A   1      38.367  30.393  32.272  1.00  0.00     0.049 A 
ATOM     66  H   UNL A   1      39.213  30.763  30.424  1.00  0.00     0.167 HD
ATOM     67  C   UNL A   1      38.590  32.820  33.331  1.00  0.00     0.074 A 
ATOM     68  C   UNL A   1      38.290  34.251  33.593  1.00  0.00     0.031 C 
ATOM     69  C   UNL A   1      38.038  31.854  32.438  1.00  0.00     0.037 A 
BRANCH  56  70
ATOM     70  C   UNL A   1      40.492  27.082  28.980  1.00  0.00     0.058 A 
ATOM     71  C   UNL A   1      41.678  26.298  29.062  1.00  0.00     0.135 A 
ATOM     72  C   UNL A   1      39.545  26.476  28.098  1.00  0.00     0.135 A 
ATOM     73  F   UNL A   1      42.732  26.700  29.774  1.00  0.00    -0.206 F 
ATOM     74  C   UNL A   1      41.887  25.047  28.446  1.00  0.00     0.059 A 
ATOM     75  C   UNL A   1      39.722  25.184  27.478  1.00  0.00     0.059 A 
ATOM     76  F   UNL A   1      38.402  27.106  27.781  1.00  0.00    -0.206 F 
ATOM     77  C   UNL A   1      40.892  24.461  27.693  1.00  0.00     0.060 A 
BRANCH  77  78
ATOM     78  S   UNL A   1      41.178  22.751  27.127  1.00  0.00     0.124 S 
ATOM     79  O   UNL A   1      41.933  22.944  25.892  1.00  0.00    -0.237 OA
ATOM     80  O   UNL A   1      41.937  22.185  28.239  1.00  0.00    -0.237 OA
ATOM     81  O   UNL A   1      39.834  22.208  26.954  1.00  0.00    -0.744 OA
ENDBRANCH  77  78
ENDBRANCH  56  70
BRANCH  57  82
ATOM     82  C   UNL A   1      42.639  34.237  36.942  1.00  0.00     0.058 A 
ATOM     83  C   UNL A   1      43.318  35.423  36.425  1.00  0.00     0.135 A 
ATOM     84  C   UNL A   1      43.316  33.802  38.127  1.00  0.00     0.135 A 
ATOM     85  F   UNL A   1      42.835  36.018  35.322  1.00  0.00    -0.206 F 
ATOM     86  C   UNL A   1      44.434  36.109  37.029  1.00  0.00     0.059 A 
ATOM     87  C   UNL A   1      44.473  34.482  38.751  1.00  0.00     0.059 A 
ATOM     88  F   UNL A   1      42.824  32.749  38.796  1.00  0.00    -0.206 F 
ATOM     89  C   UNL A   1      45.040  35.629  38.182  1.00  0.00     0.060 A 
BRANCH  89  90
ATOM     90  S   UNL A   1      46.610  36.499  38.726  1.00  0.00     0.124 S 
ATOM     91  O   UNL A   1      46.646  37.638  37.814  1.00  0.00    -0.237 OA
ATOM     92  O   UNL A   1      46.336  36.841  40.120  1.00  0.00    -0.237 OA
ATOM     93  O   UNL A   1      47.689  35.555  38.509  1.00  0.00    -0.744 OA
ENDBRANCH  89  90
ENDBRANCH  57  82
BRANCH  69  94
ATOM     94  C   UNL A   1      37.046  32.284  31.340  1.00  0.00     0.058 A 
ATOM     95  C   UNL A   1      35.687  32.118  31.537  1.00  0.00     0.135 A 
ATOM     96  C   UNL A   1      37.390  32.798  30.042  1.00  0.00     0.135 A 
ATOM     97  F   UNL A   1      35.231  31.310  32.503  1.00  0.00    -0.206 F 
ATOM     98  C   UNL A   1      34.750  32.686  30.691  1.00  0.00     0.059 A 
ATOM     99  C   UNL A   1      36.476  33.273  29.132  1.00  0.00     0.059 A 
ATOM    100  F   UNL A   1      38.612  32.837  29.506  1.00  0.00    -0.206 F 
ATOM    101  C   UNL A   1      35.156  33.253  29.488  1.00  0.00     0.060 A 
BRANCH 101 102
ATOM    102  S   UNL A   1      33.924  33.732  28.295  1.00  0.00     0.124 S 
ATOM    103  O   UNL A   1      32.971  34.441  29.144  1.00  0.00    -0.237 OA
ATOM    104  O   UNL A   1      34.711  34.553  27.383  1.00  0.00    -0.237 OA
ATOM    105  O   UNL A   1      33.452  32.460  27.755  1.00  0.00    -0.744 OA
ENDBRANCH 101 102
ENDBRANCH  69  94
ENDBRANCH  43  44
ENDBRANCH  36  38
ENDBRANCH  35  36
ENDBRANCH  34  35
ENDBRANCH  33  34
ENDBRANCH  32  33
ENDBRANCH  31  32
ENDBRANCH  30  31
ENDBRANCH   1  30
TORSDOF 27
ENDMDL
