MODEL 1
REMARK VINA RESULT:      -9.1      0.000      0.000
REMARK SMILES CC(C)(C)N(CC(=O)OCCOCCOCCOCCOC(=O)c1ccc(-c2c3nc(c(-c4c(F)cc(S(=O)(=O)[O-])cc4F)c4ccc([nH]4)c(-c4c(F)cc(S(=O)(=O)[O-])cc4F)c4nc(c(-c5c(F)cc(S(=O)(=O)[O-])cc5F)c5ccc2[nH]5)C=C4)C=C3)cc1)C(=O)C[NH2+]C1CCCC1
REMARK SMILES IDX 14 1 13 2 12 3 11 4 10 5 9 6 7 7 8 8 6 9 5 10 2 11 1 12 3 13
REMARK SMILES IDX 4 14 90 15 91 16 92 17 93 18 94 21 95 22 98 23 96 24 97 25
REMARK SMILES IDX 15 26 16 27 17 28 18 29 19 30 20 31 21 32 22 33 23 34 24 35
REMARK SMILES IDX 25 36 89 37 26 38 88 39 27 40 28 41 29 42 82 43 30 44 87 45
REMARK SMILES IDX 81 46 83 47 31 48 86 49 80 50 79 51 32 53 66 54 45 55 65 56
REMARK SMILES IDX 46 57 49 58 64 59 84 60 47 61 48 62 63 64 85 65 50 66 33 67
REMARK SMILES IDX 34 68 43 69 35 70 36 71 42 72 44 73 37 74 38 75 39 76 40 77
REMARK SMILES IDX 41 78 67 79 68 80 77 81 69 82 70 83 76 84 78 85 71 86 72 87
REMARK SMILES IDX 73 88 74 89 75 90 51 91 52 92 61 93 53 94 54 95 60 96 62 97
REMARK SMILES IDX 55 98 56 99 57 100 58 101 59 102
REMARK H PARENT 93 19 93 20 83 52 49 63
REMARK Flexibility Score: inf
ROOT
ATOM      1  C   UNL A   1      41.278  19.997  26.536  1.00  0.00     0.188 C 
ENDROOT
BRANCH   1   2
ATOM      2  C   UNL A   1      40.700  21.419  26.502  1.00  0.00     0.188 C 
BRANCH   2   3
ATOM      3  O   UNL A   1      39.318  21.611  26.259  1.00  0.00    -0.376 OA
BRANCH   3   4
ATOM      4  C   UNL A   1      38.665  20.728  25.356  1.00  0.00     0.202 C 
BRANCH   4   5
ATOM      5  C   UNL A   1      37.121  20.731  25.337  1.00  0.00     0.261 C 
BRANCH   5   6
ATOM      6  O   UNL A   1      36.472  22.016  25.559  1.00  0.00    -0.462 OA
BRANCH   6   7
ATOM      7  C   UNL A   1      35.164  21.993  25.927  1.00  0.00     0.325 C 
ATOM      8  O   UNL A   1      34.766  21.467  26.965  1.00  0.00    -0.250 OA
BRANCH   7   9
ATOM      9  C   UNL A   1      34.163  22.792  25.031  1.00  0.00     0.242 C 
BRANCH   9  10
ATOM     10  N   UNL A   1      32.792  22.434  24.555  1.00  0.00    -0.322 N 
BRANCH  10  11
ATOM     11  C   UNL A   1      31.623  23.333  24.899  1.00  0.00     0.035 C 
ATOM     12  C   UNL A   1      30.741  23.675  23.677  1.00  0.00     0.034 C 
ATOM     13  C   UNL A   1      32.149  24.663  25.477  1.00  0.00     0.034 C 
ATOM     14  C   UNL A   1      30.663  22.686  25.935  1.00  0.00     0.034 C 
ENDBRANCH  10  11
BRANCH  10  15
ATOM     15  C   UNL A   1      32.573  21.371  23.650  1.00  0.00     0.278 C 
ATOM     16  O   UNL A   1      32.388  21.535  22.440  1.00  0.00    -0.268 OA
BRANCH  15  17
ATOM     17  C   UNL A   1      32.427  19.948  24.178  1.00  0.00     0.362 C 
BRANCH  17  18
ATOM     18  N   UNL A   1      32.290  18.888  23.169  1.00  0.00    -0.336 N 
ATOM     19  H   UNL A   1      32.738  19.175  22.299  1.00  0.00     0.346 HD
ATOM     20  H   UNL A   1      31.306  18.702  22.974  1.00  0.00     0.346 HD
BRANCH  18  21
ATOM     21  C   UNL A   1      32.950  17.683  23.700  1.00  0.00     0.182 C 
ATOM     22  C   UNL A   1      34.422  17.856  24.088  1.00  0.00     0.065 C 
ATOM     23  C   UNL A   1      32.336  17.162  24.994  1.00  0.00     0.065 C 
ATOM     24  C   UNL A   1      34.723  16.610  24.907  1.00  0.00     0.006 C 
ATOM     25  C   UNL A   1      33.396  16.206  25.550  1.00  0.00     0.006 C 
ENDBRANCH  18  21
ENDBRANCH  17  18
ENDBRANCH  15  17
ENDBRANCH  10  15
ENDBRANCH   9  10
ENDBRANCH   7   9
ENDBRANCH   6   7
ENDBRANCH   5   6
ENDBRANCH   4   5
ENDBRANCH   3   4
ENDBRANCH   2   3
ENDBRANCH   1   2
BRANCH   1  26
ATOM     26  O   UNL A   1      41.971  19.579  25.391  1.00  0.00    -0.377 OA
BRANCH  26  27
ATOM     27  C   UNL A   1      43.255  19.019  25.564  1.00  0.00     0.188 C 
BRANCH  27  28
ATOM     28  C   UNL A   1      44.391  19.718  24.812  1.00  0.00     0.188 C 
BRANCH  28  29
ATOM     29  O   UNL A   1      45.390  20.415  25.571  1.00  0.00    -0.376 OA
BRANCH  29  30
ATOM     30  C   UNL A   1      45.394  21.844  25.639  1.00  0.00     0.202 C 
BRANCH  30  31
ATOM     31  C   UNL A   1      44.045  22.515  25.835  1.00  0.00     0.261 C 
BRANCH  31  32
ATOM     32  O   UNL A   1      44.234  23.678  26.645  1.00  0.00    -0.460 OA
BRANCH  32  33
ATOM     33  C   UNL A   1      44.044  24.842  25.994  1.00  0.00     0.338 C 
ATOM     34  O   UNL A   1      44.368  25.103  24.844  1.00  0.00    -0.246 OA
BRANCH  33  35
ATOM     35  C   UNL A   1      43.167  25.699  26.808  1.00  0.00     0.060 A 
ATOM     36  C   UNL A   1      43.465  27.067  26.836  1.00  0.00     0.016 A 
ATOM     37  C   UNL A   1      42.085  25.186  27.533  1.00  0.00     0.016 A 
ATOM     38  C   UNL A   1      42.759  27.909  27.675  1.00  0.00     0.010 A 
ATOM     39  C   UNL A   1      41.384  26.027  28.393  1.00  0.00     0.010 A 
ATOM     40  C   UNL A   1      41.782  27.368  28.518  1.00  0.00    -0.014 A 
BRANCH  40  41
ATOM     41  C   UNL A   1      41.451  28.131  29.734  1.00  0.00     0.031 A 
ATOM     42  C   UNL A   1      42.308  27.902  30.948  1.00  0.00     0.074 A 
ATOM     43  C   UNL A   1      40.493  29.067  29.715  1.00  0.00     0.049 A 
ATOM     44  N   UNL A   1      42.270  28.486  32.115  1.00  0.00    -0.248 NA
ATOM     45  C   UNL A   1      43.355  26.871  30.828  1.00  0.00     0.031 C 
ATOM     46  C   UNL A   1      39.648  29.387  28.565  1.00  0.00     0.029 A 
ATOM     47  N   UNL A   1      40.076  29.924  30.697  1.00  0.00    -0.354 N 
ATOM     48  C   UNL A   1      43.274  27.886  32.867  1.00  0.00     0.074 A 
ATOM     49  C   UNL A   1      43.880  26.868  32.041  1.00  0.00     0.031 C 
ATOM     50  C   UNL A   1      38.797  30.365  28.915  1.00  0.00     0.029 A 
ATOM     51  C   UNL A   1      39.026  30.719  30.315  1.00  0.00     0.049 A 
ATOM     52  H   UNL A   1      40.491  29.966  31.588  1.00  0.00     0.167 HD
ATOM     53  C   UNL A   1      43.659  28.168  34.133  1.00  0.00     0.037 A 
ATOM     54  C   UNL A   1      38.319  31.612  31.032  1.00  0.00     0.037 A 
ATOM     55  C   UNL A   1      43.033  29.183  34.936  1.00  0.00     0.049 A 
ATOM     56  C   UNL A   1      38.734  31.885  32.453  1.00  0.00     0.074 A 
ATOM     57  C   UNL A   1      43.341  29.576  36.224  1.00  0.00     0.029 A 
ATOM     58  N   UNL A   1      41.951  29.955  34.526  1.00  0.00    -0.354 N 
ATOM     59  N   UNL A   1      39.702  31.336  33.151  1.00  0.00    -0.248 NA
ATOM     60  C   UNL A   1      37.976  32.911  33.177  1.00  0.00     0.031 C 
ATOM     61  C   UNL A   1      42.405  30.538  36.618  1.00  0.00     0.029 A 
ATOM     62  C   UNL A   1      41.560  30.801  35.549  1.00  0.00     0.049 A 
ATOM     63  H   UNL A   1      41.528  29.907  33.639  1.00  0.00     0.167 HD
ATOM     64  C   UNL A   1      39.686  31.966  34.391  1.00  0.00     0.074 A 
ATOM     65  C   UNL A   1      38.617  32.946  34.337  1.00  0.00     0.031 C 
ATOM     66  C   UNL A   1      40.483  31.760  35.471  1.00  0.00     0.037 A 
BRANCH  53  67
ATOM     67  C   UNL A   1      44.751  27.318  34.728  1.00  0.00     0.058 A 
ATOM     68  C   UNL A   1      44.484  26.123  35.418  1.00  0.00     0.135 A 
ATOM     69  C   UNL A   1      46.090  27.731  34.636  1.00  0.00     0.135 A 
ATOM     70  F   UNL A   1      43.221  25.690  35.561  1.00  0.00    -0.206 F 
ATOM     71  C   UNL A   1      45.498  25.396  36.035  1.00  0.00     0.059 A 
ATOM     72  C   UNL A   1      47.123  27.000  35.214  1.00  0.00     0.059 A 
ATOM     73  F   UNL A   1      46.404  28.867  33.995  1.00  0.00    -0.206 F 
ATOM     74  C   UNL A   1      46.815  25.847  35.932  1.00  0.00     0.060 A 
BRANCH  74  75
ATOM     75  S   UNL A   1      48.118  24.915  36.765  1.00  0.00     0.124 S 
ATOM     76  O   UNL A   1      47.349  23.855  37.411  1.00  0.00    -0.237 OA
ATOM     77  O   UNL A   1      48.962  24.495  35.651  1.00  0.00    -0.237 OA
ATOM     78  O   UNL A   1      48.714  25.894  37.667  1.00  0.00    -0.744 OA
ENDBRANCH  74  75
ENDBRANCH  53  67
BRANCH  54  79
ATOM     79  C   UNL A   1      37.157  32.286  30.402  1.00  0.00     0.058 A 
ATOM     80  C   UNL A   1      37.316  33.407  29.576  1.00  0.00     0.135 A 
ATOM     81  C   UNL A   1      35.861  31.768  30.560  1.00  0.00     0.135 A 
ATOM     82  F   UNL A   1      38.532  33.944  29.399  1.00  0.00    -0.206 F 
ATOM     83  C   UNL A   1      36.233  33.986  28.921  1.00  0.00     0.059 A 
ATOM     84  C   UNL A   1      34.768  32.312  29.896  1.00  0.00     0.059 A 
ATOM     85  F   UNL A   1      35.659  30.687  31.330  1.00  0.00    -0.206 F 
ATOM     86  C   UNL A   1      34.965  33.421  29.076  1.00  0.00     0.060 A 
BRANCH  86  87
ATOM     87  S   UNL A   1      33.585  34.118  28.140  1.00  0.00     0.124 S 
ATOM     88  O   UNL A   1      32.916  32.914  27.662  1.00  0.00    -0.237 OA
ATOM     89  O   UNL A   1      32.879  34.880  29.164  1.00  0.00    -0.237 OA
ATOM     90  O   UNL A   1      34.247  34.921  27.117  1.00  0.00    -0.744 OA
ENDBRANCH  86  87
ENDBRANCH  54  79
BRANCH  66  91
ATOM     91  C   UNL A   1      40.251  32.638  36.671  1.00  0.00     0.058 A 
ATOM     92  C   UNL A   1      41.077  33.736  36.961  1.00  0.00     0.135 A 
ATOM     93  C   UNL A   1      39.158  32.398  37.520  1.00  0.00     0.135 A 
ATOM     94  F   UNL A   1      42.135  34.011  36.183  1.00  0.00    -0.206 F 
ATOM     95  C   UNL A   1      40.851  34.539  38.075  1.00  0.00     0.059 A 
ATOM     96  C   UNL A   1      38.893  33.208  38.618  1.00  0.00     0.059 A 
ATOM     97  F   UNL A   1      38.326  31.372  37.279  1.00  0.00    -0.206 F 
ATOM     98  C   UNL A   1      39.757  34.265  38.898  1.00  0.00     0.060 A 
BRANCH  98  99
ATOM     99  S   UNL A   1      39.474  35.315  40.338  1.00  0.00     0.124 S 
ATOM    100  O   UNL A   1      39.190  36.601  39.711  1.00  0.00    -0.237 OA
ATOM    101  O   UNL A   1      38.340  34.660  40.984  1.00  0.00    -0.237 OA
ATOM    102  O   UNL A   1      40.734  35.238  41.070  1.00  0.00    -0.744 OA
ENDBRANCH  98  99
ENDBRANCH  66  91
ENDBRANCH  40  41
ENDBRANCH  33  35
ENDBRANCH  32  33
ENDBRANCH  31  32
ENDBRANCH  30  31
ENDBRANCH  29  30
ENDBRANCH  28  29
ENDBRANCH  27  28
ENDBRANCH  26  27
ENDBRANCH   1  26
TORSDOF 29
ENDMDL
MODEL 2
REMARK VINA RESULT:      -8.4      2.012      8.246
REMARK SMILES CC(C)(C)N(CC(=O)OCCOCCOCCOCCOC(=O)c1ccc(-c2c3nc(c(-c4c(F)cc(S(=O)(=O)[O-])cc4F)c4ccc([nH]4)c(-c4c(F)cc(S(=O)(=O)[O-])cc4F)c4nc(c(-c5c(F)cc(S(=O)(=O)[O-])cc5F)c5ccc2[nH]5)C=C4)C=C3)cc1)C(=O)C[NH2+]C1CCCC1
REMARK SMILES IDX 14 1 13 2 12 3 11 4 10 5 9 6 7 7 8 8 6 9 5 10 2 11 1 12 3 13
REMARK SMILES IDX 4 14 90 15 91 16 92 17 93 18 94 21 95 22 98 23 96 24 97 25
REMARK SMILES IDX 15 26 16 27 17 28 18 29 19 30 20 31 21 32 22 33 23 34 24 35
REMARK SMILES IDX 25 36 89 37 26 38 88 39 27 40 28 41 29 42 82 43 30 44 87 45
REMARK SMILES IDX 81 46 83 47 31 48 86 49 80 50 79 51 32 53 66 54 45 55 65 56
REMARK SMILES IDX 46 57 49 58 64 59 84 60 47 61 48 62 63 64 85 65 50 66 33 67
REMARK SMILES IDX 34 68 43 69 35 70 36 71 42 72 44 73 37 74 38 75 39 76 40 77
REMARK SMILES IDX 41 78 67 79 68 80 77 81 69 82 70 83 76 84 78 85 71 86 72 87
REMARK SMILES IDX 73 88 74 89 75 90 51 91 52 92 61 93 53 94 54 95 60 96 62 97
REMARK SMILES IDX 55 98 56 99 57 100 58 101 59 102
REMARK H PARENT 93 19 93 20 83 52 49 63
REMARK Flexibility Score: inf
ROOT
ATOM      1  C   UNL A   1      41.910  21.068  26.947  1.00  0.00     0.188 C 
ENDROOT
BRANCH   1   2
ATOM      2  C   UNL A   1      41.284  22.468  27.004  1.00  0.00     0.188 C 
BRANCH   2   3
ATOM      3  O   UNL A   1      40.052  22.716  26.352  1.00  0.00    -0.376 OA
BRANCH   3   4
ATOM      4  C   UNL A   1      39.102  21.660  26.287  1.00  0.00     0.202 C 
BRANCH   4   5
ATOM      5  C   UNL A   1      38.045  21.710  25.163  1.00  0.00     0.261 C 
BRANCH   5   6
ATOM      6  O   UNL A   1      36.933  22.632  25.358  1.00  0.00    -0.462 OA
BRANCH   6   7
ATOM      7  C   UNL A   1      35.740  22.093  25.725  1.00  0.00     0.325 C 
ATOM      8  O   UNL A   1      35.581  20.892  25.937  1.00  0.00    -0.250 OA
BRANCH   7   9
ATOM      9  C   UNL A   1      34.570  23.090  26.004  1.00  0.00     0.242 C 
BRANCH   9  10
ATOM     10  N   UNL A   1      33.235  23.225  25.344  1.00  0.00    -0.322 N 
BRANCH  10  11
ATOM     11  C   UNL A   1      33.087  24.125  24.135  1.00  0.00     0.035 C 
ATOM     12  C   UNL A   1      33.249  23.373  22.795  1.00  0.00     0.034 C 
ATOM     13  C   UNL A   1      34.165  25.229  24.179  1.00  0.00     0.034 C 
ATOM     14  C   UNL A   1      31.690  24.799  24.066  1.00  0.00     0.034 C 
ENDBRANCH  10  11
BRANCH  10  15
ATOM     15  C   UNL A   1      32.140  22.410  25.707  1.00  0.00     0.278 C 
ATOM     16  O   UNL A   1      31.360  22.688  26.623  1.00  0.00    -0.268 OA
BRANCH  15  17
ATOM     17  C   UNL A   1      31.956  21.052  25.040  1.00  0.00     0.362 C 
BRANCH  17  18
ATOM     18  N   UNL A   1      32.801  19.958  25.539  1.00  0.00    -0.336 N 
ATOM     19  H   UNL A   1      32.260  19.352  26.155  1.00  0.00     0.346 HD
ATOM     20  H   UNL A   1      33.590  20.328  26.071  1.00  0.00     0.346 HD
BRANCH  18  21
ATOM     21  C   UNL A   1      33.276  19.196  24.372  1.00  0.00     0.182 C 
ATOM     22  C   UNL A   1      34.032  17.903  24.695  1.00  0.00     0.065 C 
ATOM     23  C   UNL A   1      32.159  18.697  23.463  1.00  0.00     0.065 C 
ATOM     24  C   UNL A   1      34.080  17.175  23.360  1.00  0.00     0.006 C 
ATOM     25  C   UNL A   1      32.834  17.629  22.597  1.00  0.00     0.006 C 
ENDBRANCH  18  21
ENDBRANCH  17  18
ENDBRANCH  15  17
ENDBRANCH  10  15
ENDBRANCH   9  10
ENDBRANCH   7   9
ENDBRANCH   6   7
ENDBRANCH   5   6
ENDBRANCH   4   5
ENDBRANCH   3   4
ENDBRANCH   2   3
ENDBRANCH   1   2
BRANCH   1  26
ATOM     26  O   UNL A   1      42.354  20.635  25.689  1.00  0.00    -0.377 OA
BRANCH  26  27
ATOM     27  C   UNL A   1      43.740  20.681  25.427  1.00  0.00     0.188 C 
BRANCH  27  28
ATOM     28  C   UNL A   1      44.271  22.015  24.894  1.00  0.00     0.188 C 
BRANCH  28  29
ATOM     29  O   UNL A   1      45.298  22.691  25.635  1.00  0.00    -0.376 OA
BRANCH  29  30
ATOM     30  C   UNL A   1      45.181  24.082  25.948  1.00  0.00     0.202 C 
BRANCH  30  31
ATOM     31  C   UNL A   1      43.871  24.526  26.576  1.00  0.00     0.261 C 
BRANCH  31  32
ATOM     32  O   UNL A   1      43.393  25.668  25.862  1.00  0.00    -0.460 OA
BRANCH  32  33
ATOM     33  C   UNL A   1      42.261  26.199  26.363  1.00  0.00     0.338 C 
ATOM     34  O   UNL A   1      41.117  25.967  26.002  1.00  0.00    -0.246 OA
BRANCH  33  35
ATOM     35  C   UNL A   1      42.594  26.946  27.587  1.00  0.00     0.060 A 
ATOM     36  C   UNL A   1      42.033  26.483  28.785  1.00  0.00     0.016 A 
ATOM     37  C   UNL A   1      43.423  28.073  27.572  1.00  0.00     0.016 A 
ATOM     38  C   UNL A   1      42.204  27.207  29.950  1.00  0.00     0.010 A 
ATOM     39  C   UNL A   1      43.582  28.814  28.740  1.00  0.00     0.010 A 
ATOM     40  C   UNL A   1      42.902  28.418  29.903  1.00  0.00    -0.014 A 
BRANCH  40  41
ATOM     41  C   UNL A   1      42.612  29.399  30.964  1.00  0.00     0.031 A 
ATOM     42  C   UNL A   1      41.327  30.173  30.857  1.00  0.00     0.074 A 
ATOM     43  C   UNL A   1      43.414  29.509  32.032  1.00  0.00     0.049 A 
ATOM     44  N   UNL A   1      40.808  31.041  31.683  1.00  0.00    -0.248 NA
ATOM     45  C   UNL A   1      40.513  29.932  29.652  1.00  0.00     0.031 C 
ATOM     46  C   UNL A   1      44.652  28.761  32.237  1.00  0.00     0.029 A 
ATOM     47  N   UNL A   1      43.296  30.293  33.146  1.00  0.00    -0.354 N 
ATOM     48  C   UNL A   1      39.620  31.457  31.091  1.00  0.00     0.074 A 
ATOM     49  C   UNL A   1      39.511  30.777  29.822  1.00  0.00     0.031 C 
ATOM     50  C   UNL A   1      45.193  29.136  33.408  1.00  0.00     0.029 A 
ATOM     51  C   UNL A   1      44.350  30.164  34.015  1.00  0.00     0.049 A 
ATOM     52  H   UNL A   1      42.531  30.889  33.309  1.00  0.00     0.167 HD
ATOM     53  C   UNL A   1      38.701  32.325  31.571  1.00  0.00     0.037 A 
ATOM     54  C   UNL A   1      44.606  30.826  35.159  1.00  0.00     0.037 A 
ATOM     55  C   UNL A   1      38.839  32.995  32.837  1.00  0.00     0.049 A 
ATOM     56  C   UNL A   1      43.592  31.818  35.660  1.00  0.00     0.074 A 
ATOM     57  C   UNL A   1      37.970  33.881  33.442  1.00  0.00     0.029 A 
ATOM     58  N   UNL A   1      39.934  32.860  33.683  1.00  0.00    -0.354 N 
ATOM     59  N   UNL A   1      42.456  32.188  35.112  1.00  0.00    -0.248 NA
ATOM     60  C   UNL A   1      43.882  32.469  36.942  1.00  0.00     0.031 C 
ATOM     61  C   UNL A   1      38.569  34.335  34.622  1.00  0.00     0.029 A 
ATOM     62  C   UNL A   1      39.777  33.674  34.791  1.00  0.00     0.049 A 
ATOM     63  H   UNL A   1      40.706  32.272  33.518  1.00  0.00     0.167 HD
ATOM     64  C   UNL A   1      41.883  33.098  35.993  1.00  0.00     0.074 A 
ATOM     65  C   UNL A   1      42.796  33.211  37.116  1.00  0.00     0.031 C 
ATOM     66  C   UNL A   1      40.710  33.774  35.890  1.00  0.00     0.037 A 
BRANCH  53  67
ATOM     67  C   UNL A   1      37.520  32.638  30.691  1.00  0.00     0.058 A 
ATOM     68  C   UNL A   1      37.575  33.607  29.673  1.00  0.00     0.135 A 
ATOM     69  C   UNL A   1      36.297  31.978  30.894  1.00  0.00     0.135 A 
ATOM     70  F   UNL A   1      38.710  34.288  29.447  1.00  0.00    -0.206 F 
ATOM     71  C   UNL A   1      36.450  33.943  28.926  1.00  0.00     0.059 A 
ATOM     72  C   UNL A   1      35.170  32.274  30.135  1.00  0.00     0.059 A 
ATOM     73  F   UNL A   1      36.183  31.049  31.855  1.00  0.00    -0.206 F 
ATOM     74  C   UNL A   1      35.249  33.274  29.169  1.00  0.00     0.060 A 
BRANCH  74  75
ATOM     75  S   UNL A   1      33.789  33.742  28.217  1.00  0.00     0.124 S 
ATOM     76  O   UNL A   1      32.938  34.319  29.254  1.00  0.00    -0.237 OA
ATOM     77  O   UNL A   1      34.337  34.688  27.250  1.00  0.00    -0.237 OA
ATOM     78  O   UNL A   1      33.325  32.476  27.659  1.00  0.00    -0.744 OA
ENDBRANCH  74  75
ENDBRANCH  53  67
BRANCH  54  79
ATOM     79  C   UNL A   1      45.877  30.559  35.878  1.00  0.00     0.058 A 
ATOM     80  C   UNL A   1      46.976  31.422  35.772  1.00  0.00     0.135 A 
ATOM     81  C   UNL A   1      45.986  29.463  36.749  1.00  0.00     0.135 A 
ATOM     82  F   UNL A   1      46.924  32.479  34.948  1.00  0.00    -0.206 F 
ATOM     83  C   UNL A   1      48.137  31.213  36.511  1.00  0.00     0.059 A 
ATOM     84  C   UNL A   1      47.124  29.248  37.518  1.00  0.00     0.059 A 
ATOM     85  F   UNL A   1      44.955  28.616  36.896  1.00  0.00    -0.206 F 
ATOM     86  C   UNL A   1      48.195  30.130  37.392  1.00  0.00     0.060 A 
BRANCH  86  87
ATOM     87  S   UNL A   1      49.665  29.929  38.422  1.00  0.00     0.124 S 
ATOM     88  O   UNL A   1      50.709  29.764  37.417  1.00  0.00    -0.237 OA
ATOM     89  O   UNL A   1      49.687  31.183  39.169  1.00  0.00    -0.237 OA
ATOM     90  O   UNL A   1      49.359  28.742  39.215  1.00  0.00    -0.744 OA
ENDBRANCH  86  87
ENDBRANCH  54  79
BRANCH  66  91
ATOM     91  C   UNL A   1      40.329  34.668  37.040  1.00  0.00     0.058 A 
ATOM     92  C   UNL A   1      39.360  34.294  37.984  1.00  0.00     0.135 A 
ATOM     93  C   UNL A   1      40.979  35.900  37.219  1.00  0.00     0.135 A 
ATOM     94  F   UNL A   1      38.708  33.127  37.860  1.00  0.00    -0.206 F 
ATOM     95  C   UNL A   1      39.017  35.131  39.041  1.00  0.00     0.059 A 
ATOM     96  C   UNL A   1      40.679  36.736  38.289  1.00  0.00     0.059 A 
ATOM     97  F   UNL A   1      41.927  36.298  36.356  1.00  0.00    -0.206 F 
ATOM     98  C   UNL A   1      39.682  36.351  39.183  1.00  0.00     0.060 A 
BRANCH  98  99
ATOM     99  S   UNL A   1      39.232  37.426  40.561  1.00  0.00     0.124 S 
ATOM    100  O   UNL A   1      38.726  36.462  41.532  1.00  0.00    -0.237 OA
ATOM    101  O   UNL A   1      40.506  38.056  40.895  1.00  0.00    -0.237 OA
ATOM    102  O   UNL A   1      38.231  38.319  39.983  1.00  0.00    -0.744 OA
ENDBRANCH  98  99
ENDBRANCH  66  91
ENDBRANCH  40  41
ENDBRANCH  33  35
ENDBRANCH  32  33
ENDBRANCH  31  32
ENDBRANCH  30  31
ENDBRANCH  29  30
ENDBRANCH  28  29
ENDBRANCH  27  28
ENDBRANCH  26  27
ENDBRANCH   1  26
TORSDOF 29
ENDMDL
MODEL 3
REMARK VINA RESULT:      -8.4      1.412      2.887
REMARK SMILES CC(C)(C)N(CC(=O)OCCOCCOCCOCCOC(=O)c1ccc(-c2c3nc(c(-c4c(F)cc(S(=O)(=O)[O-])cc4F)c4ccc([nH]4)c(-c4c(F)cc(S(=O)(=O)[O-])cc4F)c4nc(c(-c5c(F)cc(S(=O)(=O)[O-])cc5F)c5ccc2[nH]5)C=C4)C=C3)cc1)C(=O)C[NH2+]C1CCCC1
REMARK SMILES IDX 14 1 13 2 12 3 11 4 10 5 9 6 7 7 8 8 6 9 5 10 2 11 1 12 3 13
REMARK SMILES IDX 4 14 90 15 91 16 92 17 93 18 94 21 95 22 98 23 96 24 97 25
REMARK SMILES IDX 15 26 16 27 17 28 18 29 19 30 20 31 21 32 22 33 23 34 24 35
REMARK SMILES IDX 25 36 89 37 26 38 88 39 27 40 28 41 29 42 82 43 30 44 87 45
REMARK SMILES IDX 81 46 83 47 31 48 86 49 80 50 79 51 32 53 66 54 45 55 65 56
REMARK SMILES IDX 46 57 49 58 64 59 84 60 47 61 48 62 63 64 85 65 50 66 33 67
REMARK SMILES IDX 34 68 43 69 35 70 36 71 42 72 44 73 37 74 38 75 39 76 40 77
REMARK SMILES IDX 41 78 67 79 68 80 77 81 69 82 70 83 76 84 78 85 71 86 72 87
REMARK SMILES IDX 73 88 74 89 75 90 51 91 52 92 61 93 53 94 54 95 60 96 62 97
REMARK SMILES IDX 55 98 56 99 57 100 58 101 59 102
REMARK H PARENT 93 19 93 20 83 52 49 63
REMARK Flexibility Score: inf
ROOT
ATOM      1  C   UNL A   1      42.512  20.343  26.488  1.00  0.00     0.188 C 
ENDROOT
BRANCH   1   2
ATOM      2  C   UNL A   1      41.501  21.262  27.185  1.00  0.00     0.188 C 
BRANCH   2   3
ATOM      3  O   UNL A   1      40.160  21.307  26.732  1.00  0.00    -0.376 OA
BRANCH   3   4
ATOM      4  C   UNL A   1      39.604  22.574  26.403  1.00  0.00     0.202 C 
BRANCH   4   5
ATOM      5  C   UNL A   1      38.149  22.609  25.888  1.00  0.00     0.261 C 
BRANCH   5   6
ATOM      6  O   UNL A   1      37.568  21.331  25.496  1.00  0.00    -0.462 OA
BRANCH   6   7
ATOM      7  C   UNL A   1      36.438  21.371  24.743  1.00  0.00     0.325 C 
ATOM      8  O   UNL A   1      36.315  22.085  23.749  1.00  0.00    -0.250 OA
BRANCH   7   9
ATOM      9  C   UNL A   1      35.308  20.356  25.109  1.00  0.00     0.242 C 
BRANCH   9  10
ATOM     10  N   UNL A   1      33.933  20.191  24.544  1.00  0.00    -0.322 N 
BRANCH  10  11
ATOM     11  C   UNL A   1      33.366  18.801  24.351  1.00  0.00     0.035 C 
ATOM     12  C   UNL A   1      32.499  18.328  25.540  1.00  0.00     0.034 C 
ATOM     13  C   UNL A   1      34.521  17.791  24.190  1.00  0.00     0.034 C 
ATOM     14  C   UNL A   1      32.446  18.705  23.103  1.00  0.00     0.034 C 
ENDBRANCH  10  11
BRANCH  10  15
ATOM     15  C   UNL A   1      33.076  21.296  24.340  1.00  0.00     0.278 C 
ATOM     16  O   UNL A   1      32.247  21.677  25.172  1.00  0.00    -0.268 OA
BRANCH  15  17
ATOM     17  C   UNL A   1      33.059  21.999  22.987  1.00  0.00     0.362 C 
BRANCH  17  18
ATOM     18  N   UNL A   1      32.113  23.114  22.842  1.00  0.00    -0.336 N 
ATOM     19  H   UNL A   1      31.411  23.073  23.580  1.00  0.00     0.346 HD
ATOM     20  H   UNL A   1      31.633  23.063  21.943  1.00  0.00     0.346 HD
BRANCH  18  21
ATOM     21  C   UNL A   1      32.883  24.365  22.947  1.00  0.00     0.182 C 
ATOM     22  C   UNL A   1      32.806  25.288  21.726  1.00  0.00     0.065 C 
ATOM     23  C   UNL A   1      32.420  25.283  24.072  1.00  0.00     0.065 C 
ATOM     24  C   UNL A   1      33.371  26.604  22.238  1.00  0.00     0.006 C 
ATOM     25  C   UNL A   1      33.056  26.635  23.735  1.00  0.00     0.006 C 
ENDBRANCH  18  21
ENDBRANCH  17  18
ENDBRANCH  15  17
ENDBRANCH  10  15
ENDBRANCH   9  10
ENDBRANCH   7   9
ENDBRANCH   6   7
ENDBRANCH   5   6
ENDBRANCH   4   5
ENDBRANCH   3   4
ENDBRANCH   2   3
ENDBRANCH   1   2
BRANCH   1  26
ATOM     26  O   UNL A   1      42.993  20.776  25.244  1.00  0.00    -0.377 OA
BRANCH  26  27
ATOM     27  C   UNL A   1      44.324  20.454  24.902  1.00  0.00     0.188 C 
BRANCH  27  28
ATOM     28  C   UNL A   1      45.288  21.639  24.801  1.00  0.00     0.188 C 
BRANCH  28  29
ATOM     29  O   UNL A   1      46.188  21.888  25.892  1.00  0.00    -0.376 OA
BRANCH  29  30
ATOM     30  C   UNL A   1      46.181  23.144  26.575  1.00  0.00     0.202 C 
BRANCH  30  31
ATOM     31  C   UNL A   1      44.912  23.971  26.459  1.00  0.00     0.261 C 
BRANCH  31  32
ATOM     32  O   UNL A   1      45.032  25.106  27.320  1.00  0.00    -0.460 OA
BRANCH  32  33
ATOM     33  C   UNL A   1      44.663  26.271  26.754  1.00  0.00     0.338 C 
ATOM     34  O   UNL A   1      44.949  26.668  25.634  1.00  0.00    -0.246 OA
BRANCH  33  35
ATOM     35  C   UNL A   1      43.654  26.913  27.613  1.00  0.00     0.060 A 
ATOM     36  C   UNL A   1      43.515  28.302  27.499  1.00  0.00     0.016 A 
ATOM     37  C   UNL A   1      42.867  26.184  28.512  1.00  0.00     0.016 A 
ATOM     38  C   UNL A   1      42.675  28.983  28.361  1.00  0.00     0.010 A 
ATOM     39  C   UNL A   1      42.034  26.868  29.394  1.00  0.00     0.010 A 
ATOM     40  C   UNL A   1      42.008  28.272  29.364  1.00  0.00    -0.014 A 
BRANCH  40  41
ATOM     41  C   UNL A   1      41.586  29.032  30.554  1.00  0.00     0.031 A 
ATOM     42  C   UNL A   1      42.400  28.861  31.808  1.00  0.00     0.074 A 
ATOM     43  C   UNL A   1      40.584  29.918  30.481  1.00  0.00     0.049 A 
ATOM     44  N   UNL A   1      42.282  29.457  32.963  1.00  0.00    -0.248 NA
ATOM     45  C   UNL A   1      43.502  27.883  31.747  1.00  0.00     0.031 C 
ATOM     46  C   UNL A   1      39.775  30.180  29.292  1.00  0.00     0.029 A 
ATOM     47  N   UNL A   1      40.082  30.764  31.431  1.00  0.00    -0.354 N 
ATOM     48  C   UNL A   1      43.281  28.917  33.766  1.00  0.00     0.074 A 
ATOM     49  C   UNL A   1      43.973  27.922  32.982  1.00  0.00     0.031 C 
ATOM     50  C   UNL A   1      38.862  31.118  29.590  1.00  0.00     0.029 A 
ATOM     51  C   UNL A   1      39.011  31.500  30.994  1.00  0.00     0.049 A 
ATOM     52  H   UNL A   1      40.455  30.838  32.339  1.00  0.00     0.167 HD
ATOM     53  C   UNL A   1      43.595  29.234  35.043  1.00  0.00     0.037 A 
ATOM     54  C   UNL A   1      38.230  32.365  31.667  1.00  0.00     0.037 A 
ATOM     55  C   UNL A   1      42.884  30.226  35.804  1.00  0.00     0.049 A 
ATOM     56  C   UNL A   1      38.568  32.676  33.100  1.00  0.00     0.074 A 
ATOM     57  C   UNL A   1      43.116  30.650  37.098  1.00  0.00     0.029 A 
ATOM     58  N   UNL A   1      41.785  30.937  35.337  1.00  0.00    -0.354 N 
ATOM     59  N   UNL A   1      39.531  32.185  33.847  1.00  0.00    -0.248 NA
ATOM     60  C   UNL A   1      37.729  33.671  33.776  1.00  0.00     0.031 C 
ATOM     61  C   UNL A   1      42.116  31.567  37.438  1.00  0.00     0.029 A 
ATOM     62  C   UNL A   1      41.307  31.774  36.330  1.00  0.00     0.049 A 
ATOM     63  H   UNL A   1      41.403  30.857  34.434  1.00  0.00     0.167 HD
ATOM     64  C   UNL A   1      39.429  32.828  35.076  1.00  0.00     0.074 A 
ATOM     65  C   UNL A   1      38.316  33.753  34.962  1.00  0.00     0.031 C 
ATOM     66  C   UNL A   1      40.187  32.676  36.192  1.00  0.00     0.037 A 
BRANCH  53  67
ATOM     67  C   UNL A   1      44.701  28.449  35.697  1.00  0.00     0.058 A 
ATOM     68  C   UNL A   1      44.463  27.262  36.412  1.00  0.00     0.135 A 
ATOM     69  C   UNL A   1      46.025  28.915  35.635  1.00  0.00     0.135 A 
ATOM     70  F   UNL A   1      43.214  26.780  36.526  1.00  0.00    -0.206 F 
ATOM     71  C   UNL A   1      45.485  26.596  37.081  1.00  0.00     0.059 A 
ATOM     72  C   UNL A   1      47.068  28.245  36.267  1.00  0.00     0.059 A 
ATOM     73  F   UNL A   1      46.312  30.045  34.973  1.00  0.00    -0.206 F 
ATOM     74  C   UNL A   1      46.785  27.100  37.007  1.00  0.00     0.060 A 
BRANCH  74  75
ATOM     75  S   UNL A   1      48.097  26.247  37.907  1.00  0.00     0.124 S 
ATOM     76  O   UNL A   1      49.278  26.648  37.149  1.00  0.00    -0.237 OA
ATOM     77  O   UNL A   1      47.980  26.818  39.245  1.00  0.00    -0.237 OA
ATOM     78  O   UNL A   1      47.728  24.839  37.794  1.00  0.00    -0.744 OA
ENDBRANCH  74  75
ENDBRANCH  53  67
BRANCH  54  79
ATOM     79  C   UNL A   1      37.064  32.971  30.978  1.00  0.00     0.058 A 
ATOM     80  C   UNL A   1      37.208  34.061  30.109  1.00  0.00     0.135 A 
ATOM     81  C   UNL A   1      35.782  32.415  31.123  1.00  0.00     0.135 A 
ATOM     82  F   UNL A   1      38.410  34.633  29.942  1.00  0.00    -0.206 F 
ATOM     83  C   UNL A   1      36.125  34.575  29.402  1.00  0.00     0.059 A 
ATOM     84  C   UNL A   1      34.690  32.893  30.407  1.00  0.00     0.059 A 
ATOM     85  F   UNL A   1      35.595  31.361  31.932  1.00  0.00    -0.206 F 
ATOM     86  C   UNL A   1      34.873  33.973  29.547  1.00  0.00     0.060 A 
BRANCH  86  87
ATOM     87  S   UNL A   1      33.498  34.582  28.546  1.00  0.00     0.124 S 
ATOM     88  O   UNL A   1      33.231  35.875  29.165  1.00  0.00    -0.237 OA
ATOM     89  O   UNL A   1      34.088  34.620  27.211  1.00  0.00    -0.237 OA
ATOM     90  O   UNL A   1      32.468  33.565  28.737  1.00  0.00    -0.744 OA
ENDBRANCH  86  87
ENDBRANCH  54  79
BRANCH  66  91
ATOM     91  C   UNL A   1      39.860  33.556  37.369  1.00  0.00     0.058 A 
ATOM     92  C   UNL A   1      40.384  34.852  37.498  1.00  0.00     0.135 A 
ATOM     93  C   UNL A   1      38.973  33.106  38.360  1.00  0.00     0.135 A 
ATOM     94  F   UNL A   1      41.237  35.332  36.579  1.00  0.00    -0.206 F 
ATOM     95  C   UNL A   1      40.073  35.654  38.592  1.00  0.00     0.059 A 
ATOM     96  C   UNL A   1      38.619  33.903  39.442  1.00  0.00     0.059 A 
ATOM     97  F   UNL A   1      38.427  31.881  38.276  1.00  0.00    -0.206 F 
ATOM     98  C   UNL A   1      39.191  35.169  39.560  1.00  0.00     0.060 A 
BRANCH  98  99
ATOM     99  S   UNL A   1      38.793  36.220  40.972  1.00  0.00     0.124 S 
ATOM    100  O   UNL A   1      40.027  36.148  41.746  1.00  0.00    -0.237 OA
ATOM    101  O   UNL A   1      38.516  37.504  40.336  1.00  0.00    -0.237 OA
ATOM    102  O   UNL A   1      37.636  35.561  41.571  1.00  0.00    -0.744 OA
ENDBRANCH  98  99
ENDBRANCH  66  91
ENDBRANCH  40  41
ENDBRANCH  33  35
ENDBRANCH  32  33
ENDBRANCH  31  32
ENDBRANCH  30  31
ENDBRANCH  29  30
ENDBRANCH  28  29
ENDBRANCH  27  28
ENDBRANCH  26  27
ENDBRANCH   1  26
TORSDOF 29
ENDMDL
