MODEL 1
REMARK VINA RESULT:     -10.0      0.000      0.000
REMARK SMILES COc1ccc2c(c1)c(CC(=O)OCCOCCOCCOCCOC(=O)c1ccc(-c3c4nc(c(-c5c(F)cc(S(=O)(=O)[O-])cc5F)c5ccc([nH]5)c(-c5c(F)cc(S(=O)(=O)[O-])cc5F)c5nc(c(-c6c(F)cc(S(=O)(=O)[O-])cc6F)c6ccc3[nH]6)C=C5)C=C4)cc1)c(C)n2Cc1ccc(Br)cc1
REMARK SMILES IDX 19 1 18 2 17 3 16 4 15 5 14 6 13 7 11 8 12 9 10 10 9 11 3 12
REMARK SMILES IDX 4 13 8 14 5 15 7 16 6 17 96 18 94 19 95 20 2 21 1 22 97 23
REMARK SMILES IDX 98 24 99 25 104 26 100 27 103 28 101 29 102 30 20 31 21 32
REMARK SMILES IDX 22 33 23 34 24 35 25 36 26 37 27 38 28 39 29 40 93 41 30 42
REMARK SMILES IDX 92 43 31 44 32 45 33 46 86 47 34 48 91 49 85 50 87 51 35 52
REMARK SMILES IDX 90 53 84 54 83 55 36 57 70 58 49 59 69 60 50 61 53 62 68 63
REMARK SMILES IDX 88 64 51 65 52 66 67 68 89 69 54 70 37 71 38 72 47 73 39 74
REMARK SMILES IDX 40 75 46 76 48 77 41 78 42 79 43 80 44 81 45 82 71 83 72 84
REMARK SMILES IDX 81 85 73 86 74 87 80 88 82 89 75 90 76 91 77 92 78 93 79 94
REMARK SMILES IDX 55 95 56 96 65 97 57 98 58 99 64 100 66 101 59 102 60 103
REMARK SMILES IDX 61 104 62 105 63 106
REMARK H PARENT 87 56 53 67
REMARK Flexibility Score: inf
ROOT
ATOM      1  O   UNL A   1      42.410  18.248  25.753  1.00  0.00    -0.377 OA
ENDROOT
BRANCH   1   2
ATOM      2  C   UNL A   1      41.438  19.233  25.978  1.00  0.00     0.188 C 
BRANCH   2   3
ATOM      3  C   UNL A   1      41.296  19.907  27.336  1.00  0.00     0.188 C 
BRANCH   3   4
ATOM      4  O   UNL A   1      41.674  21.269  27.307  1.00  0.00    -0.376 OA
BRANCH   4   5
ATOM      5  C   UNL A   1      40.659  22.258  27.216  1.00  0.00     0.202 C 
BRANCH   5   6
ATOM      6  C   UNL A   1      39.614  22.252  26.072  1.00  0.00     0.261 C 
BRANCH   6   7
ATOM      7  O   UNL A   1      38.202  22.302  26.384  1.00  0.00    -0.463 OA
BRANCH   7   8
ATOM      8  C   UNL A   1      37.347  21.498  25.715  1.00  0.00     0.310 C 
ATOM      9  O   UNL A   1      37.721  20.636  24.923  1.00  0.00    -0.252 OA
BRANCH   8  10
ATOM     10  C   UNL A   1      35.859  21.664  26.057  1.00  0.00     0.160 C 
BRANCH  10  11
ATOM     11  C   UNL A   1      34.783  21.547  24.984  1.00  0.00    -0.008 A 
ATOM     12  C   UNL A   1      33.452  18.005  24.267  1.00  0.00     0.119 A 
ATOM     13  C   UNL A   1      32.400  18.404  23.455  1.00  0.00     0.048 A 
ATOM     14  C   UNL A   1      34.365  18.964  24.729  1.00  0.00     0.057 A 
ATOM     15  C   UNL A   1      32.235  19.755  23.104  1.00  0.00     0.031 A 
ATOM     16  C   UNL A   1      34.166  20.345  24.485  1.00  0.00     0.007 A 
ATOM     17  C   UNL A   1      33.132  20.715  23.620  1.00  0.00     0.049 A 
ATOM     18  N   UNL A   1      33.252  22.088  23.413  1.00  0.00    -0.340 N 
ATOM     19  C   UNL A   1      34.357  22.550  24.121  1.00  0.00     0.020 A 
ATOM     20  C   UNL A   1      34.988  23.885  23.937  1.00  0.00     0.065 C 
BRANCH  12  21
ATOM     21  O   UNL A   1      33.693  16.738  24.725  1.00  0.00    -0.497 OA
ATOM     22  C   UNL A   1      32.860  16.211  25.749  1.00  0.00     0.278 C 
ENDBRANCH  12  21
BRANCH  18  23
ATOM     23  C   UNL A   1      32.511  22.818  22.370  1.00  0.00     0.157 C 
BRANCH  23  24
ATOM     24  C   UNL A   1      31.993  24.190  22.754  1.00  0.00    -0.028 A 
ATOM     25  C   UNL A   1      32.474  25.351  22.130  1.00  0.00     0.007 A 
ATOM     26  C   UNL A   1      30.950  24.338  23.682  1.00  0.00     0.007 A 
ATOM     27  C   UNL A   1      31.987  26.618  22.454  1.00  0.00     0.016 A 
ATOM     28  C   UNL A   1      30.432  25.606  23.987  1.00  0.00     0.016 A 
ATOM     29  C   UNL A   1      30.965  26.742  23.381  1.00  0.00     0.017 A 
ATOM     30  Br  UNL A   1      30.286  28.454  23.801  1.00  0.00    -0.051 Br
ENDBRANCH  23  24
ENDBRANCH  18  23
ENDBRANCH  10  11
ENDBRANCH   8  10
ENDBRANCH   7   8
ENDBRANCH   6   7
ENDBRANCH   5   6
ENDBRANCH   4   5
ENDBRANCH   3   4
ENDBRANCH   2   3
ENDBRANCH   1   2
BRANCH   1  31
ATOM     31  C   UNL A   1      43.732  18.591  26.053  1.00  0.00     0.188 C 
BRANCH  31  32
ATOM     32  C   UNL A   1      44.473  19.137  24.828  1.00  0.00     0.188 C 
BRANCH  32  33
ATOM     33  O   UNL A   1      44.170  20.421  24.270  1.00  0.00    -0.376 OA
BRANCH  33  34
ATOM     34  C   UNL A   1      44.383  21.608  25.019  1.00  0.00     0.202 C 
BRANCH  34  35
ATOM     35  C   UNL A   1      43.651  22.889  24.568  1.00  0.00     0.261 C 
BRANCH  35  36
ATOM     36  O   UNL A   1      43.693  23.959  25.517  1.00  0.00    -0.460 OA
BRANCH  36  37
ATOM     37  C   UNL A   1      44.643  24.928  25.349  1.00  0.00     0.338 C 
ATOM     38  O   UNL A   1      45.592  24.906  24.628  1.00  0.00    -0.246 OA
BRANCH  37  39
ATOM     39  C   UNL A   1      44.082  26.144  26.007  1.00  0.00     0.060 A 
ATOM     40  C   UNL A   1      44.855  27.293  26.192  1.00  0.00     0.016 A 
ATOM     41  C   UNL A   1      42.893  25.958  26.728  1.00  0.00     0.016 A 
ATOM     42  C   UNL A   1      44.523  28.161  27.234  1.00  0.00     0.010 A 
ATOM     43  C   UNL A   1      42.570  26.828  27.773  1.00  0.00     0.010 A 
ATOM     44  C   UNL A   1      43.415  27.899  28.067  1.00  0.00    -0.014 A 
BRANCH  44  45
ATOM     45  C   UNL A   1      43.029  28.948  29.025  1.00  0.00     0.031 A 
ATOM     46  C   UNL A   1      42.820  28.366  30.379  1.00  0.00     0.074 A 
ATOM     47  C   UNL A   1      43.018  30.292  28.883  1.00  0.00     0.049 A 
ATOM     48  N   UNL A   1      41.735  28.307  31.077  1.00  0.00    -0.248 NA
ATOM     49  C   UNL A   1      43.946  27.591  30.931  1.00  0.00     0.031 C 
ATOM     50  C   UNL A   1      43.497  31.096  27.759  1.00  0.00     0.029 A 
ATOM     51  N   UNL A   1      42.652  31.244  29.803  1.00  0.00    -0.354 N 
ATOM     52  C   UNL A   1      42.094  27.645  32.248  1.00  0.00     0.074 A 
ATOM     53  C   UNL A   1      43.390  27.068  32.020  1.00  0.00     0.031 C 
ATOM     54  C   UNL A   1      43.591  32.392  28.146  1.00  0.00     0.029 A 
ATOM     55  C   UNL A   1      43.077  32.535  29.501  1.00  0.00     0.049 A 
ATOM     56  H   UNL A   1      42.131  31.030  30.610  1.00  0.00     0.167 HD
ATOM     57  C   UNL A   1      41.415  27.816  33.413  1.00  0.00     0.037 A 
ATOM     58  C   UNL A   1      43.069  33.618  30.327  1.00  0.00     0.037 A 
ATOM     59  C   UNL A   1      40.098  28.348  33.200  1.00  0.00     0.049 A 
ATOM     60  C   UNL A   1      42.122  33.335  31.435  1.00  0.00     0.074 A 
ATOM     61  C   UNL A   1      38.988  27.941  32.484  1.00  0.00     0.029 A 
ATOM     62  N   UNL A   1      39.876  29.663  33.522  1.00  0.00    -0.354 N 
ATOM     63  N   UNL A   1      40.825  33.269  31.309  1.00  0.00    -0.248 NA
ATOM     64  C   UNL A   1      42.659  32.764  32.661  1.00  0.00     0.031 C 
ATOM     65  C   UNL A   1      38.381  29.144  32.020  1.00  0.00     0.029 A 
ATOM     66  C   UNL A   1      39.141  30.210  32.502  1.00  0.00     0.049 A 
ATOM     67  H   UNL A   1      40.185  30.127  34.334  1.00  0.00     0.167 HD
ATOM     68  C   UNL A   1      40.430  32.306  32.222  1.00  0.00     0.074 A 
ATOM     69  C   UNL A   1      41.582  32.106  33.093  1.00  0.00     0.031 C 
ATOM     70  C   UNL A   1      39.304  31.564  32.024  1.00  0.00     0.037 A 
BRANCH  57  71
ATOM     71  C   UNL A   1      42.104  27.849  34.756  1.00  0.00     0.058 A 
ATOM     72  C   UNL A   1      43.147  28.767  34.974  1.00  0.00     0.135 A 
ATOM     73  C   UNL A   1      41.970  26.829  35.728  1.00  0.00     0.135 A 
ATOM     74  F   UNL A   1      43.372  29.766  34.106  1.00  0.00    -0.206 F 
ATOM     75  C   UNL A   1      44.043  28.633  36.035  1.00  0.00     0.059 A 
ATOM     76  C   UNL A   1      42.809  26.717  36.826  1.00  0.00     0.059 A 
ATOM     77  F   UNL A   1      41.091  25.827  35.605  1.00  0.00    -0.206 F 
ATOM     78  C   UNL A   1      43.874  27.591  36.944  1.00  0.00     0.060 A 
BRANCH  78  79
ATOM     79  S   UNL A   1      45.106  27.324  38.228  1.00  0.00     0.124 S 
ATOM     80  O   UNL A   1      44.284  26.779  39.302  1.00  0.00    -0.237 OA
ATOM     81  O   UNL A   1      46.020  26.390  37.580  1.00  0.00    -0.237 OA
ATOM     82  O   UNL A   1      45.643  28.662  38.459  1.00  0.00    -0.744 OA
ENDBRANCH  78  79
ENDBRANCH  57  71
BRANCH  58  83
ATOM     83  C   UNL A   1      44.005  34.780  30.395  1.00  0.00     0.058 A 
ATOM     84  C   UNL A   1      43.615  36.068  29.968  1.00  0.00     0.135 A 
ATOM     85  C   UNL A   1      45.195  34.721  31.145  1.00  0.00     0.135 A 
ATOM     86  F   UNL A   1      42.484  36.234  29.267  1.00  0.00    -0.206 F 
ATOM     87  C   UNL A   1      44.331  37.224  30.309  1.00  0.00     0.059 A 
ATOM     88  C   UNL A   1      45.933  35.857  31.484  1.00  0.00     0.059 A 
ATOM     89  F   UNL A   1      45.630  33.561  31.656  1.00  0.00    -0.206 F 
ATOM     90  C   UNL A   1      45.481  37.110  31.087  1.00  0.00     0.060 A 
BRANCH  90  91
ATOM     91  S   UNL A   1      46.313  38.605  31.676  1.00  0.00     0.124 S 
ATOM     92  O   UNL A   1      45.452  39.659  31.153  1.00  0.00    -0.237 OA
ATOM     93  O   UNL A   1      46.289  38.422  33.123  1.00  0.00    -0.237 OA
ATOM     94  O   UNL A   1      47.637  38.521  31.063  1.00  0.00    -0.744 OA
ENDBRANCH  90  91
ENDBRANCH  58  83
BRANCH  70  95
ATOM     95  C   UNL A   1      38.278  32.054  31.042  1.00  0.00     0.058 A 
ATOM     96  C   UNL A   1      38.238  31.696  29.684  1.00  0.00     0.135 A 
ATOM     97  C   UNL A   1      37.183  32.770  31.555  1.00  0.00     0.135 A 
ATOM     98  F   UNL A   1      39.199  30.934  29.139  1.00  0.00    -0.206 F 
ATOM     99  C   UNL A   1      37.158  32.047  28.872  1.00  0.00     0.059 A 
ATOM    100  C   UNL A   1      36.083  33.099  30.772  1.00  0.00     0.059 A 
ATOM    101  F   UNL A   1      37.145  33.099  32.858  1.00  0.00    -0.206 F 
ATOM    102  C   UNL A   1      36.076  32.729  29.430  1.00  0.00     0.060 A 
BRANCH 102 103
ATOM    103  S   UNL A   1      34.614  33.029  28.413  1.00  0.00     0.124 S 
ATOM    104  O   UNL A   1      33.660  33.543  29.389  1.00  0.00    -0.237 OA
ATOM    105  O   UNL A   1      35.109  33.995  27.435  1.00  0.00    -0.237 OA
ATOM    106  O   UNL A   1      34.300  31.711  27.867  1.00  0.00    -0.744 OA
ENDBRANCH 102 103
ENDBRANCH  70  95
ENDBRANCH  44  45
ENDBRANCH  37  39
ENDBRANCH  36  37
ENDBRANCH  35  36
ENDBRANCH  34  35
ENDBRANCH  33  34
ENDBRANCH  32  33
ENDBRANCH  31  32
ENDBRANCH   1  31
TORSDOF 27
ENDMDL
MODEL 2
REMARK VINA RESULT:      -9.3      1.519      2.095
REMARK SMILES COc1ccc2c(c1)c(CC(=O)OCCOCCOCCOCCOC(=O)c1ccc(-c3c4nc(c(-c5c(F)cc(S(=O)(=O)[O-])cc5F)c5ccc([nH]5)c(-c5c(F)cc(S(=O)(=O)[O-])cc5F)c5nc(c(-c6c(F)cc(S(=O)(=O)[O-])cc6F)c6ccc3[nH]6)C=C5)C=C4)cc1)c(C)n2Cc1ccc(Br)cc1
REMARK SMILES IDX 19 1 18 2 17 3 16 4 15 5 14 6 13 7 11 8 12 9 10 10 9 11 3 12
REMARK SMILES IDX 4 13 8 14 5 15 7 16 6 17 96 18 94 19 95 20 2 21 1 22 97 23
REMARK SMILES IDX 98 24 99 25 104 26 100 27 103 28 101 29 102 30 20 31 21 32
REMARK SMILES IDX 22 33 23 34 24 35 25 36 26 37 27 38 28 39 29 40 93 41 30 42
REMARK SMILES IDX 92 43 31 44 32 45 33 46 86 47 34 48 91 49 85 50 87 51 35 52
REMARK SMILES IDX 90 53 84 54 83 55 36 57 70 58 49 59 69 60 50 61 53 62 68 63
REMARK SMILES IDX 88 64 51 65 52 66 67 68 89 69 54 70 37 71 38 72 47 73 39 74
REMARK SMILES IDX 40 75 46 76 48 77 41 78 42 79 43 80 44 81 45 82 71 83 72 84
REMARK SMILES IDX 81 85 73 86 74 87 80 88 82 89 75 90 76 91 77 92 78 93 79 94
REMARK SMILES IDX 55 95 56 96 65 97 57 98 58 99 64 100 66 101 59 102 60 103
REMARK SMILES IDX 61 104 62 105 63 106
REMARK H PARENT 87 56 53 67
REMARK Flexibility Score: inf
ROOT
ATOM      1  O   UNL A   1      41.578  18.873  25.811  1.00  0.00    -0.377 OA
ENDROOT
BRANCH   1   2
ATOM      2  C   UNL A   1      40.771  19.979  26.114  1.00  0.00     0.188 C 
BRANCH   2   3
ATOM      3  C   UNL A   1      41.204  21.015  27.142  1.00  0.00     0.188 C 
BRANCH   3   4
ATOM      4  O   UNL A   1      40.880  22.334  26.751  1.00  0.00    -0.376 OA
BRANCH   4   5
ATOM      5  C   UNL A   1      39.938  23.065  27.522  1.00  0.00     0.202 C 
BRANCH   5   6
ATOM      6  C   UNL A   1      38.787  23.864  26.860  1.00  0.00     0.261 C 
BRANCH   6   7
ATOM      7  O   UNL A   1      38.478  23.661  25.461  1.00  0.00    -0.463 OA
BRANCH   7   8
ATOM      8  C   UNL A   1      37.207  23.386  25.096  1.00  0.00     0.310 C 
ATOM      9  O   UNL A   1      36.827  23.409  23.928  1.00  0.00    -0.252 OA
BRANCH   8  10
ATOM     10  C   UNL A   1      36.259  22.960  26.228  1.00  0.00     0.160 C 
BRANCH  10  11
ATOM     11  C   UNL A   1      34.810  22.585  25.945  1.00  0.00    -0.008 A 
ATOM     12  C   UNL A   1      34.185  19.027  24.610  1.00  0.00     0.119 A 
ATOM     13  C   UNL A   1      32.803  19.066  24.727  1.00  0.00     0.048 A 
ATOM     14  C   UNL A   1      34.930  20.184  24.882  1.00  0.00     0.057 A 
ATOM     15  C   UNL A   1      32.147  20.244  25.126  1.00  0.00     0.031 A 
ATOM     16  C   UNL A   1      34.312  21.353  25.389  1.00  0.00     0.007 A 
ATOM     17  C   UNL A   1      32.916  21.384  25.445  1.00  0.00     0.049 A 
ATOM     18  N   UNL A   1      32.556  22.680  25.810  1.00  0.00    -0.340 N 
ATOM     19  C   UNL A   1      33.713  23.439  25.953  1.00  0.00     0.020 A 
ATOM     20  C   UNL A   1      33.750  24.924  26.052  1.00  0.00     0.065 C 
BRANCH  12  21
ATOM     21  O   UNL A   1      34.946  17.936  24.287  1.00  0.00    -0.497 OA
ATOM     22  C   UNL A   1      34.394  16.947  23.428  1.00  0.00     0.278 C 
ENDBRANCH  12  21
BRANCH  18  23
ATOM     23  C   UNL A   1      31.176  23.190  25.734  1.00  0.00     0.157 C 
BRANCH  23  24
ATOM     24  C   UNL A   1      30.976  24.462  24.933  1.00  0.00    -0.028 A 
ATOM     25  C   UNL A   1      31.215  24.496  23.550  1.00  0.00     0.007 A 
ATOM     26  C   UNL A   1      30.460  25.623  25.530  1.00  0.00     0.007 A 
ATOM     27  C   UNL A   1      31.009  25.652  22.795  1.00  0.00     0.016 A 
ATOM     28  C   UNL A   1      30.218  26.777  24.771  1.00  0.00     0.016 A 
ATOM     29  C   UNL A   1      30.509  26.790  23.408  1.00  0.00     0.017 A 
ATOM     30  Br  UNL A   1      30.206  28.346  22.382  1.00  0.00    -0.051 Br
ENDBRANCH  23  24
ENDBRANCH  18  23
ENDBRANCH  10  11
ENDBRANCH   8  10
ENDBRANCH   7   8
ENDBRANCH   6   7
ENDBRANCH   5   6
ENDBRANCH   4   5
ENDBRANCH   3   4
ENDBRANCH   2   3
ENDBRANCH   1   2
BRANCH   1  31
ATOM     31  C   UNL A   1      42.904  18.925  26.253  1.00  0.00     0.188 C 
BRANCH  31  32
ATOM     32  C   UNL A   1      43.898  18.808  25.092  1.00  0.00     0.188 C 
BRANCH  32  33
ATOM     33  O   UNL A   1      44.573  19.952  24.556  1.00  0.00    -0.376 OA
BRANCH  33  34
ATOM     34  C   UNL A   1      44.141  21.266  24.874  1.00  0.00     0.202 C 
BRANCH  34  35
ATOM     35  C   UNL A   1      44.950  22.451  24.306  1.00  0.00     0.261 C 
BRANCH  35  36
ATOM     36  O   UNL A   1      44.682  23.707  24.938  1.00  0.00    -0.460 OA
BRANCH  36  37
ATOM     37  C   UNL A   1      45.374  24.010  26.078  1.00  0.00     0.338 C 
ATOM     38  O   UNL A   1      46.398  23.537  26.462  1.00  0.00    -0.246 OA
BRANCH  37  39
ATOM     39  C   UNL A   1      44.760  25.273  26.582  1.00  0.00     0.060 A 
ATOM     40  C   UNL A   1      45.502  26.452  26.686  1.00  0.00     0.016 A 
ATOM     41  C   UNL A   1      43.541  25.134  27.264  1.00  0.00     0.016 A 
ATOM     42  C   UNL A   1      45.106  27.413  27.618  1.00  0.00     0.010 A 
ATOM     43  C   UNL A   1      43.152  26.097  28.198  1.00  0.00     0.010 A 
ATOM     44  C   UNL A   1      43.963  27.211  28.421  1.00  0.00    -0.014 A 
BRANCH  44  45
ATOM     45  C   UNL A   1      43.512  28.341  29.249  1.00  0.00     0.031 A 
ATOM     46  C   UNL A   1      43.548  27.978  30.692  1.00  0.00     0.074 A 
ATOM     47  C   UNL A   1      43.265  29.625  28.905  1.00  0.00     0.049 A 
ATOM     48  N   UNL A   1      42.568  27.882  31.528  1.00  0.00    -0.248 NA
ATOM     49  C   UNL A   1      44.838  27.482  31.203  1.00  0.00     0.031 C 
ATOM     50  C   UNL A   1      43.482  30.284  27.618  1.00  0.00     0.029 A 
ATOM     51  N   UNL A   1      42.846  30.657  29.708  1.00  0.00    -0.354 N 
ATOM     52  C   UNL A   1      43.153  27.492  32.729  1.00  0.00     0.074 A 
ATOM     53  C   UNL A   1      44.496  27.079  32.423  1.00  0.00     0.031 C 
ATOM     54  C   UNL A   1      43.401  31.627  27.785  1.00  0.00     0.029 A 
ATOM     55  C   UNL A   1      43.017  31.925  29.158  1.00  0.00     0.049 A 
ATOM     56  H   UNL A   1      42.456  30.513  30.600  1.00  0.00     0.167 HD
ATOM     57  C   UNL A   1      42.584  27.760  33.934  1.00  0.00     0.037 A 
ATOM     58  C   UNL A   1      42.918  33.121  29.801  1.00  0.00     0.037 A 
ATOM     59  C   UNL A   1      41.182  28.050  33.816  1.00  0.00     0.049 A 
ATOM     60  C   UNL A   1      42.153  32.899  31.055  1.00  0.00     0.074 A 
ATOM     61  C   UNL A   1      40.084  27.369  33.324  1.00  0.00     0.029 A 
ATOM     62  N   UNL A   1      40.780  29.354  33.959  1.00  0.00    -0.354 N 
ATOM     63  N   UNL A   1      40.880  32.624  31.113  1.00  0.00    -0.248 NA
ATOM     64  C   UNL A   1      42.905  32.633  32.272  1.00  0.00     0.031 C 
ATOM     65  C   UNL A   1      39.241  28.372  32.765  1.00  0.00     0.029 A 
ATOM     66  C   UNL A   1      39.861  29.604  32.974  1.00  0.00     0.049 A 
ATOM     67  H   UNL A   1      41.093  29.991  34.642  1.00  0.00     0.167 HD
ATOM     68  C   UNL A   1      40.749  31.786  32.207  1.00  0.00     0.074 A 
ATOM     69  C   UNL A   1      42.003  31.909  32.938  1.00  0.00     0.031 C 
ATOM     70  C   UNL A   1      39.746  30.865  32.275  1.00  0.00     0.037 A 
BRANCH  57  71
ATOM     71  C   UNL A   1      43.395  28.125  35.152  1.00  0.00     0.058 A 
ATOM     72  C   UNL A   1      44.321  29.181  35.075  1.00  0.00     0.135 A 
ATOM     73  C   UNL A   1      43.503  27.297  36.296  1.00  0.00     0.135 A 
ATOM     74  F   UNL A   1      44.317  30.018  34.025  1.00  0.00    -0.206 F 
ATOM     75  C   UNL A   1      45.331  29.353  36.022  1.00  0.00     0.059 A 
ATOM     76  C   UNL A   1      44.458  27.491  37.282  1.00  0.00     0.059 A 
ATOM     77  F   UNL A   1      42.761  26.195  36.460  1.00  0.00    -0.206 F 
ATOM     78  C   UNL A   1      45.400  28.489  37.112  1.00  0.00     0.060 A 
BRANCH  78  79
ATOM     79  S   UNL A   1      46.782  28.612  38.256  1.00  0.00     0.124 S 
ATOM     80  O   UNL A   1      46.154  28.203  39.507  1.00  0.00    -0.237 OA
ATOM     81  O   UNL A   1      47.738  27.672  37.680  1.00  0.00    -0.237 OA
ATOM     82  O   UNL A   1      47.164  30.019  38.170  1.00  0.00    -0.744 OA
ENDBRANCH  78  79
ENDBRANCH  57  71
BRANCH  58  83
ATOM     83  C   UNL A   1      43.651  34.402  29.566  1.00  0.00     0.058 A 
ATOM     84  C   UNL A   1      45.045  34.501  29.765  1.00  0.00     0.135 A 
ATOM     85  C   UNL A   1      43.056  35.470  28.868  1.00  0.00     0.135 A 
ATOM     86  F   UNL A   1      45.710  33.524  30.398  1.00  0.00    -0.206 F 
ATOM     87  C   UNL A   1      45.804  35.565  29.257  1.00  0.00     0.059 A 
ATOM     88  C   UNL A   1      43.790  36.547  28.366  1.00  0.00     0.059 A 
ATOM     89  F   UNL A   1      41.750  35.455  28.568  1.00  0.00    -0.206 F 
ATOM     90  C   UNL A   1      45.169  36.575  28.539  1.00  0.00     0.060 A 
BRANCH  90  91
ATOM     91  S   UNL A   1      46.159  37.858  27.734  1.00  0.00     0.124 S 
ATOM     92  O   UNL A   1      45.270  38.304  26.667  1.00  0.00    -0.237 OA
ATOM     93  O   UNL A   1      46.378  38.806  28.820  1.00  0.00    -0.237 OA
ATOM     94  O   UNL A   1      47.351  37.138  27.289  1.00  0.00    -0.744 OA
ENDBRANCH  90  91
ENDBRANCH  58  83
BRANCH  70  95
ATOM     95  C   UNL A   1      38.554  31.023  31.374  1.00  0.00     0.058 A 
ATOM     96  C   UNL A   1      37.430  31.811  31.669  1.00  0.00     0.135 A 
ATOM     97  C   UNL A   1      38.652  30.493  30.076  1.00  0.00     0.135 A 
ATOM     98  F   UNL A   1      37.306  32.429  32.854  1.00  0.00    -0.206 F 
ATOM     99  C   UNL A   1      36.441  32.053  30.713  1.00  0.00     0.059 A 
ATOM    100  C   UNL A   1      37.697  30.750  29.100  1.00  0.00     0.059 A 
ATOM    101  F   UNL A   1      39.729  29.770  29.724  1.00  0.00    -0.206 F 
ATOM    102  C   UNL A   1      36.594  31.535  29.426  1.00  0.00     0.060 A 
BRANCH 102 103
ATOM    103  S   UNL A   1      35.397  31.992  28.153  1.00  0.00     0.124 S 
ATOM    104  O   UNL A   1      35.981  33.210  27.603  1.00  0.00    -0.237 OA
ATOM    105  O   UNL A   1      35.415  30.824  27.276  1.00  0.00    -0.237 OA
ATOM    106  O   UNL A   1      34.155  32.176  28.901  1.00  0.00    -0.744 OA
ENDBRANCH 102 103
ENDBRANCH  70  95
ENDBRANCH  44  45
ENDBRANCH  37  39
ENDBRANCH  36  37
ENDBRANCH  35  36
ENDBRANCH  34  35
ENDBRANCH  33  34
ENDBRANCH  32  33
ENDBRANCH  31  32
ENDBRANCH   1  31
TORSDOF 27
ENDMDL
MODEL 3
REMARK VINA RESULT:      -9.1      5.819     10.563
REMARK SMILES COc1ccc2c(c1)c(CC(=O)OCCOCCOCCOCCOC(=O)c1ccc(-c3c4nc(c(-c5c(F)cc(S(=O)(=O)[O-])cc5F)c5ccc([nH]5)c(-c5c(F)cc(S(=O)(=O)[O-])cc5F)c5nc(c(-c6c(F)cc(S(=O)(=O)[O-])cc6F)c6ccc3[nH]6)C=C5)C=C4)cc1)c(C)n2Cc1ccc(Br)cc1
REMARK SMILES IDX 19 1 18 2 17 3 16 4 15 5 14 6 13 7 11 8 12 9 10 10 9 11 3 12
REMARK SMILES IDX 4 13 8 14 5 15 7 16 6 17 96 18 94 19 95 20 2 21 1 22 97 23
REMARK SMILES IDX 98 24 99 25 104 26 100 27 103 28 101 29 102 30 20 31 21 32
REMARK SMILES IDX 22 33 23 34 24 35 25 36 26 37 27 38 28 39 29 40 93 41 30 42
REMARK SMILES IDX 92 43 31 44 32 45 33 46 86 47 34 48 91 49 85 50 87 51 35 52
REMARK SMILES IDX 90 53 84 54 83 55 36 57 70 58 49 59 69 60 50 61 53 62 68 63
REMARK SMILES IDX 88 64 51 65 52 66 67 68 89 69 54 70 37 71 38 72 47 73 39 74
REMARK SMILES IDX 40 75 46 76 48 77 41 78 42 79 43 80 44 81 45 82 71 83 72 84
REMARK SMILES IDX 81 85 73 86 74 87 80 88 82 89 75 90 76 91 77 92 78 93 79 94
REMARK SMILES IDX 55 95 56 96 65 97 57 98 58 99 64 100 66 101 59 102 60 103
REMARK SMILES IDX 61 104 62 105 63 106
REMARK H PARENT 87 56 53 67
REMARK Flexibility Score: inf
ROOT
ATOM      1  O   UNL A   1      42.617  36.003  26.130  1.00  0.00    -0.377 OA
ENDROOT
BRANCH   1   2
ATOM      2  C   UNL A   1      43.638  35.065  25.923  1.00  0.00     0.188 C 
BRANCH   2   3
ATOM      3  C   UNL A   1      43.625  34.135  24.718  1.00  0.00     0.188 C 
BRANCH   3   4
ATOM      4  O   UNL A   1      43.961  32.804  25.057  1.00  0.00    -0.376 OA
BRANCH   4   5
ATOM      5  C   UNL A   1      44.210  32.487  26.419  1.00  0.00     0.202 C 
BRANCH   5   6
ATOM      6  C   UNL A   1      44.028  31.050  26.968  1.00  0.00     0.261 C 
BRANCH   6   7
ATOM      7  O   UNL A   1      44.655  29.934  26.293  1.00  0.00    -0.463 OA
BRANCH   7   8
ATOM      8  C   UNL A   1      45.974  29.706  26.474  1.00  0.00     0.310 C 
ATOM      9  O   UNL A   1      46.844  30.233  25.784  1.00  0.00    -0.252 OA
BRANCH   8  10
ATOM     10  C   UNL A   1      46.345  28.799  27.656  1.00  0.00     0.160 C 
BRANCH  10  11
ATOM     11  C   UNL A   1      46.861  27.382  27.434  1.00  0.00    -0.008 A 
ATOM     12  C   UNL A   1      50.514  26.704  28.446  1.00  0.00     0.119 A 
ATOM     13  C   UNL A   1      50.456  25.327  28.295  1.00  0.00     0.048 A 
ATOM     14  C   UNL A   1      49.408  27.483  28.075  1.00  0.00     0.057 A 
ATOM     15  C   UNL A   1      49.301  24.706  27.790  1.00  0.00     0.031 A 
ATOM     16  C   UNL A   1      48.192  26.884  27.666  1.00  0.00     0.007 A 
ATOM     17  C   UNL A   1      48.178  25.499  27.470  1.00  0.00     0.049 A 
ATOM     18  N   UNL A   1      46.939  25.184  26.914  1.00  0.00    -0.340 N 
ATOM     19  C   UNL A   1      46.213  26.359  26.749  1.00  0.00     0.020 A 
ATOM     20  C   UNL A   1      44.975  26.488  25.934  1.00  0.00     0.065 C 
BRANCH  12  21
ATOM     21  O   UNL A   1      51.552  27.424  28.974  1.00  0.00    -0.497 OA
ATOM     22  C   UNL A   1      52.390  26.806  29.941  1.00  0.00     0.278 C 
ENDBRANCH  12  21
BRANCH  18  23
ATOM     23  C   UNL A   1      46.625  23.870  26.328  1.00  0.00     0.157 C 
BRANCH  23  24
ATOM     24  C   UNL A   1      45.273  23.284  26.685  1.00  0.00    -0.028 A 
ATOM     25  C   UNL A   1      44.779  23.340  27.997  1.00  0.00     0.007 A 
ATOM     26  C   UNL A   1      44.430  22.748  25.697  1.00  0.00     0.007 A 
ATOM     27  C   UNL A   1      43.525  22.830  28.335  1.00  0.00     0.016 A 
ATOM     28  C   UNL A   1      43.155  22.264  26.024  1.00  0.00     0.016 A 
ATOM     29  C   UNL A   1      42.714  22.294  27.346  1.00  0.00     0.017 A 
ATOM     30  Br  UNL A   1      41.006  21.628  27.798  1.00  0.00    -0.051 Br
ENDBRANCH  23  24
ENDBRANCH  18  23
ENDBRANCH  10  11
ENDBRANCH   8  10
ENDBRANCH   7   8
ENDBRANCH   6   7
ENDBRANCH   5   6
ENDBRANCH   4   5
ENDBRANCH   3   4
ENDBRANCH   2   3
ENDBRANCH   1   2
BRANCH   1  31
ATOM     31  C   UNL A   1      41.978  35.973  27.373  1.00  0.00     0.188 C 
BRANCH  31  32
ATOM     32  C   UNL A   1      42.154  37.288  28.139  1.00  0.00     0.188 C 
BRANCH  32  33
ATOM     33  O   UNL A   1      43.104  37.423  29.203  1.00  0.00    -0.376 OA
BRANCH  33  34
ATOM     34  C   UNL A   1      43.898  38.594  29.324  1.00  0.00     0.202 C 
BRANCH  34  35
ATOM     35  C   UNL A   1      45.334  38.557  28.762  1.00  0.00     0.261 C 
BRANCH  35  36
ATOM     36  O   UNL A   1      46.297  37.966  29.640  1.00  0.00    -0.460 OA
BRANCH  36  37
ATOM     37  C   UNL A   1      46.957  36.849  29.208  1.00  0.00     0.338 C 
ATOM     38  O   UNL A   1      48.032  36.784  28.697  1.00  0.00    -0.246 OA
BRANCH  37  39
ATOM     39  C   UNL A   1      46.205  35.700  29.793  1.00  0.00     0.060 A 
ATOM     40  C   UNL A   1      45.456  34.837  28.989  1.00  0.00     0.016 A 
ATOM     41  C   UNL A   1      46.001  35.743  31.180  1.00  0.00     0.016 A 
ATOM     42  C   UNL A   1      44.382  34.154  29.562  1.00  0.00     0.010 A 
ATOM     43  C   UNL A   1      44.920  35.062  31.746  1.00  0.00     0.010 A 
ATOM     44  C   UNL A   1      44.072  34.312  30.930  1.00  0.00    -0.014 A 
BRANCH  44  45
ATOM     45  C   UNL A   1      43.039  33.428  31.494  1.00  0.00     0.031 A 
ATOM     46  C   UNL A   1      43.400  32.000  31.277  1.00  0.00     0.074 A 
ATOM     47  C   UNL A   1      41.981  33.721  32.282  1.00  0.00     0.049 A 
ATOM     48  N   UNL A   1      42.787  31.107  30.572  1.00  0.00    -0.248 NA
ATOM     49  C   UNL A   1      44.724  31.584  31.773  1.00  0.00     0.031 C 
ATOM     50  C   UNL A   1      41.622  35.001  32.891  1.00  0.00     0.029 A 
ATOM     51  N   UNL A   1      41.035  32.866  32.792  1.00  0.00    -0.354 N 
ATOM     52  C   UNL A   1      43.560  29.956  30.695  1.00  0.00     0.074 A 
ATOM     53  C   UNL A   1      44.815  30.357  31.271  1.00  0.00     0.031 C 
ATOM     54  C   UNL A   1      40.681  34.793  33.845  1.00  0.00     0.029 A 
ATOM     55  C   UNL A   1      40.286  33.391  33.842  1.00  0.00     0.049 A 
ATOM     56  H   UNL A   1      40.898  31.955  32.444  1.00  0.00     0.167 HD
ATOM     57  C   UNL A   1      43.035  28.712  30.542  1.00  0.00     0.037 A 
ATOM     58  C   UNL A   1      39.460  32.711  34.684  1.00  0.00     0.037 A 
ATOM     59  C   UNL A   1      41.791  28.734  29.825  1.00  0.00     0.049 A 
ATOM     60  C   UNL A   1      39.118  31.418  34.036  1.00  0.00     0.074 A 
ATOM     61  C   UNL A   1      41.393  29.175  28.577  1.00  0.00     0.029 A 
ATOM     62  N   UNL A   1      40.635  28.531  30.537  1.00  0.00    -0.354 N 
ATOM     63  N   UNL A   1      38.355  31.289  32.987  1.00  0.00    -0.248 NA
ATOM     64  C   UNL A   1      39.934  30.258  34.362  1.00  0.00     0.031 C 
ATOM     65  C   UNL A   1      40.063  29.653  28.755  1.00  0.00     0.029 A 
ATOM     66  C   UNL A   1      39.720  29.450  30.093  1.00  0.00     0.049 A 
ATOM     67  H   UNL A   1      40.489  27.852  31.235  1.00  0.00     0.167 HD
ATOM     68  C   UNL A   1      38.885  30.211  32.296  1.00  0.00     0.074 A 
ATOM     69  C   UNL A   1      39.785  29.557  33.237  1.00  0.00     0.031 C 
ATOM     70  C   UNL A   1      38.753  30.106  30.943  1.00  0.00     0.037 A 
BRANCH  57  71
ATOM     71  C   UNL A   1      43.477  27.537  31.380  1.00  0.00     0.058 A 
ATOM     72  C   UNL A   1      43.388  27.615  32.782  1.00  0.00     0.135 A 
ATOM     73  C   UNL A   1      44.244  26.460  30.873  1.00  0.00     0.135 A 
ATOM     74  F   UNL A   1      42.698  28.606  33.368  1.00  0.00    -0.206 F 
ATOM     75  C   UNL A   1      44.078  26.738  33.618  1.00  0.00     0.059 A 
ATOM     76  C   UNL A   1      44.883  25.538  31.687  1.00  0.00     0.059 A 
ATOM     77  F   UNL A   1      44.503  26.312  29.568  1.00  0.00    -0.206 F 
ATOM     78  C   UNL A   1      44.838  25.714  33.058  1.00  0.00     0.060 A 
BRANCH  78  79
ATOM     79  S   UNL A   1      45.846  24.672  34.122  1.00  0.00     0.124 S 
ATOM     80  O   UNL A   1      45.717  25.361  35.401  1.00  0.00    -0.237 OA
ATOM     81  O   UNL A   1      45.168  23.385  34.015  1.00  0.00    -0.237 OA
ATOM     82  O   UNL A   1      47.165  24.734  33.500  1.00  0.00    -0.744 OA
ENDBRANCH  78  79
ENDBRANCH  57  71
BRANCH  58  83
ATOM     83  C   UNL A   1      39.140  32.956  36.122  1.00  0.00     0.058 A 
ATOM     84  C   UNL A   1      37.808  33.071  36.574  1.00  0.00     0.135 A 
ATOM     85  C   UNL A   1      40.113  32.795  37.128  1.00  0.00     0.135 A 
ATOM     86  F   UNL A   1      36.804  33.205  35.693  1.00  0.00    -0.206 F 
ATOM     87  C   UNL A   1      37.460  32.978  37.928  1.00  0.00     0.059 A 
ATOM     88  C   UNL A   1      39.792  32.714  38.484  1.00  0.00     0.059 A 
ATOM     89  F   UNL A   1      41.404  32.614  36.815  1.00  0.00    -0.206 F 
ATOM     90  C   UNL A   1      38.460  32.778  38.877  1.00  0.00     0.060 A 
BRANCH  90  91
ATOM     91  S   UNL A   1      38.007  32.484  40.604  1.00  0.00     0.124 S 
ATOM     92  O   UNL A   1      36.875  31.574  40.472  1.00  0.00    -0.237 OA
ATOM     93  O   UNL A   1      39.230  31.904  41.149  1.00  0.00    -0.237 OA
ATOM     94  O   UNL A   1      37.679  33.818  41.101  1.00  0.00    -0.744 OA
ENDBRANCH  90  91
ENDBRANCH  58  83
BRANCH  70  95
ATOM     95  C   UNL A   1      37.702  30.926  30.252  1.00  0.00     0.058 A 
ATOM     96  C   UNL A   1      36.388  30.496  30.005  1.00  0.00     0.135 A 
ATOM     97  C   UNL A   1      38.000  32.276  29.998  1.00  0.00     0.135 A 
ATOM     98  F   UNL A   1      35.998  29.248  30.307  1.00  0.00    -0.206 F 
ATOM     99  C   UNL A   1      35.416  31.372  29.517  1.00  0.00     0.059 A 
ATOM    100  C   UNL A   1      37.039  33.172  29.545  1.00  0.00     0.059 A 
ATOM    101  F   UNL A   1      39.229  32.754  30.259  1.00  0.00    -0.206 F 
ATOM    102  C   UNL A   1      35.746  32.712  29.310  1.00  0.00     0.060 A 
BRANCH 102 103
ATOM    103  S   UNL A   1      34.442  33.871  28.841  1.00  0.00     0.124 S 
ATOM    104  O   UNL A   1      35.205  34.987  28.294  1.00  0.00    -0.237 OA
ATOM    105  O   UNL A   1      33.669  33.093  27.876  1.00  0.00    -0.237 OA
ATOM    106  O   UNL A   1      33.753  34.140  30.101  1.00  0.00    -0.744 OA
ENDBRANCH 102 103
ENDBRANCH  70  95
ENDBRANCH  44  45
ENDBRANCH  37  39
ENDBRANCH  36  37
ENDBRANCH  35  36
ENDBRANCH  34  35
ENDBRANCH  33  34
ENDBRANCH  32  33
ENDBRANCH  31  32
ENDBRANCH   1  31
TORSDOF 27
ENDMDL
