MODEL 1
REMARK VINA RESULT:      -6.4      0.000      0.000
REMARK SMILES CCOc1cc2nccc(Nc3ccc(C(=O)OCCOCCOCCOCCOC(=O)c4ccc(-c5c6nc(c(-c7c(F)cc(S(=O)(=O)[O-])cc7F)c7ccc([nH]7)c(-c7c(F)cc(S(=O)(=O)[O-])cc7F)c7nc(c(-c8c(F)cc(S(=O)(=O)[O-])cc8F)c8ccc5[nH]8)C=C7)C=C6)cc4)cc3)c2cc1OCC
REMARK SMILES IDX 23 1 22 2 21 3 20 4 19 5 18 6 16 7 17 8 15 9 12 10 13 11
REMARK SMILES IDX 100 12 14 13 99 14 11 15 10 17 4 18 5 19 103 20 6 21 102 22
REMARK SMILES IDX 7 23 101 24 8 25 9 26 3 27 2 28 1 29 104 30 105 31 106 32
REMARK SMILES IDX 24 33 25 34 26 35 27 36 28 37 29 38 30 39 31 40 32 41 33 42
REMARK SMILES IDX 34 43 98 44 35 45 97 46 36 47 37 48 38 49 91 50 39 51 96 52
REMARK SMILES IDX 90 53 92 54 40 55 95 56 89 57 88 58 41 60 75 61 54 62 74 63
REMARK SMILES IDX 55 64 58 65 73 66 93 67 56 68 57 69 72 71 94 72 59 73 42 74
REMARK SMILES IDX 43 75 52 76 44 77 45 78 51 79 53 80 46 81 47 82 48 83 49 84
REMARK SMILES IDX 50 85 76 86 77 87 86 88 78 89 79 90 85 91 87 92 80 93 81 94
REMARK SMILES IDX 82 95 83 96 84 97 60 98 61 99 70 100 62 101 63 102 69 103
REMARK SMILES IDX 71 104 64 105 65 106 66 107 67 108 68 109
REMARK H PARENT 11 16 92 59 58 70
REMARK Flexibility Score: inf
ROOT
ATOM      1  C   UNL A   1      44.356  24.283  29.680  1.00  0.00     0.188 C 
ENDROOT
BRANCH   1   2
ATOM      2  C   UNL A   1      45.503  25.044  30.367  1.00  0.00     0.188 C 
BRANCH   2   3
ATOM      3  O   UNL A   1      45.069  26.163  31.135  1.00  0.00    -0.376 OA
BRANCH   3   4
ATOM      4  C   UNL A   1      46.019  26.761  32.007  1.00  0.00     0.202 C 
BRANCH   4   5
ATOM      5  C   UNL A   1      45.795  26.547  33.510  1.00  0.00     0.261 C 
BRANCH   5   6
ATOM      6  O   UNL A   1      44.913  27.491  34.132  1.00  0.00    -0.460 OA
BRANCH   6   7
ATOM      7  C   UNL A   1      43.598  27.375  33.865  1.00  0.00     0.338 C 
ATOM      8  O   UNL A   1      42.924  26.357  33.900  1.00  0.00    -0.246 OA
BRANCH   7   9
ATOM      9  C   UNL A   1      43.038  28.732  33.701  1.00  0.00     0.060 A 
ATOM     10  C   UNL A   1      42.032  31.332  33.520  1.00  0.00     0.038 A 
ATOM     11  C   UNL A   1      43.400  31.118  33.736  1.00  0.00     0.027 A 
ATOM     12  C   UNL A   1      41.191  30.234  33.310  1.00  0.00     0.027 A 
ATOM     13  C   UNL A   1      43.901  29.823  33.840  1.00  0.00     0.018 A 
ATOM     14  C   UNL A   1      41.690  28.935  33.391  1.00  0.00     0.018 A 
BRANCH  10  15
ATOM     15  N   UNL A   1      41.522  32.632  33.682  1.00  0.00    -0.355 N 
ATOM     16  H   UNL A   1      40.778  32.881  33.088  1.00  0.00     0.167 HD
BRANCH  15  17
ATOM     17  C   UNL A   1      41.948  33.630  34.601  1.00  0.00     0.050 A 
ATOM     18  C   UNL A   1      40.194  34.014  38.437  1.00  0.00     0.163 A 
ATOM     19  C   UNL A   1      41.191  34.894  37.998  1.00  0.00     0.079 A 
ATOM     20  C   UNL A   1      39.811  32.952  37.620  1.00  0.00     0.161 A 
ATOM     21  C   UNL A   1      41.797  34.753  36.752  1.00  0.00     0.076 A 
ATOM     22  C   UNL A   1      40.399  32.809  36.366  1.00  0.00     0.063 A 
ATOM     23  N   UNL A   1      42.738  35.642  36.400  1.00  0.00    -0.256 NA
ATOM     24  C   UNL A   1      41.379  33.707  35.898  1.00  0.00     0.028 A 
ATOM     25  C   UNL A   1      43.292  35.523  35.176  1.00  0.00     0.114 A 
ATOM     26  C   UNL A   1      42.936  34.556  34.260  1.00  0.00     0.047 A 
BRANCH  18  27
ATOM     27  O   UNL A   1      39.500  34.244  39.592  1.00  0.00    -0.490 OA
BRANCH  27  28
ATOM     28  C   UNL A   1      39.203  35.619  39.846  1.00  0.00     0.226 C 
ATOM     29  C   UNL A   1      39.626  35.908  41.279  1.00  0.00     0.049 C 
ENDBRANCH  27  28
ENDBRANCH  18  27
BRANCH  20  30
ATOM     30  O   UNL A   1      38.869  31.999  37.890  1.00  0.00    -0.490 OA
BRANCH  30  31
ATOM     31  C   UNL A   1      37.749  31.923  37.010  1.00  0.00     0.226 C 
ATOM     32  C   UNL A   1      37.090  33.268  36.735  1.00  0.00     0.049 C 
ENDBRANCH  30  31
ENDBRANCH  20  30
ENDBRANCH  15  17
ENDBRANCH  10  15
ENDBRANCH   7   9
ENDBRANCH   6   7
ENDBRANCH   5   6
ENDBRANCH   4   5
ENDBRANCH   3   4
ENDBRANCH   2   3
ENDBRANCH   1   2
BRANCH   1  33
ATOM     33  O   UNL A   1      44.398  24.267  28.265  1.00  0.00    -0.377 OA
BRANCH  33  34
ATOM     34  C   UNL A   1      45.213  23.302  27.603  1.00  0.00     0.188 C 
BRANCH  34  35
ATOM     35  C   UNL A   1      44.989  22.873  26.132  1.00  0.00     0.188 C 
BRANCH  35  36
ATOM     36  O   UNL A   1      44.413  21.583  25.957  1.00  0.00    -0.376 OA
BRANCH  36  37
ATOM     37  C   UNL A   1      43.348  21.242  26.833  1.00  0.00     0.202 C 
BRANCH  37  38
ATOM     38  C   UNL A   1      41.988  21.157  26.133  1.00  0.00     0.261 C 
BRANCH  38  39
ATOM     39  O   UNL A   1      41.374  22.427  25.867  1.00  0.00    -0.460 OA
BRANCH  39  40
ATOM     40  C   UNL A   1      40.196  22.661  26.487  1.00  0.00     0.338 C 
ATOM     41  O   UNL A   1      39.332  21.846  26.753  1.00  0.00    -0.246 OA
BRANCH  40  42
ATOM     42  C   UNL A   1      40.195  24.055  26.965  1.00  0.00     0.060 A 
ATOM     43  C   UNL A   1      40.335  25.084  26.025  1.00  0.00     0.016 A 
ATOM     44  C   UNL A   1      40.093  24.340  28.329  1.00  0.00     0.016 A 
ATOM     45  C   UNL A   1      40.457  26.402  26.459  1.00  0.00     0.010 A 
ATOM     46  C   UNL A   1      40.228  25.659  28.763  1.00  0.00     0.010 A 
ATOM     47  C   UNL A   1      40.469  26.684  27.831  1.00  0.00    -0.014 A 
BRANCH  47  48
ATOM     48  C   UNL A   1      41.014  27.983  28.289  1.00  0.00     0.031 A 
ATOM     49  C   UNL A   1      42.485  28.236  28.085  1.00  0.00     0.074 A 
ATOM     50  C   UNL A   1      40.226  28.932  28.822  1.00  0.00     0.049 A 
ATOM     51  N   UNL A   1      43.192  29.302  28.352  1.00  0.00    -0.248 NA
ATOM     52  C   UNL A   1      43.261  27.130  27.498  1.00  0.00     0.031 C 
ATOM     53  C   UNL A   1      38.786  28.816  29.033  1.00  0.00     0.029 A 
ATOM     54  N   UNL A   1      40.537  30.188  29.273  1.00  0.00    -0.354 N 
ATOM     55  C   UNL A   1      44.492  28.996  27.966  1.00  0.00     0.074 A 
ATOM     56  C   UNL A   1      44.484  27.631  27.489  1.00  0.00     0.031 C 
ATOM     57  C   UNL A   1      38.332  29.965  29.566  1.00  0.00     0.029 A 
ATOM     58  C   UNL A   1      39.455  30.886  29.749  1.00  0.00     0.049 A 
ATOM     59  H   UNL A   1      41.450  30.556  29.257  1.00  0.00     0.167 HD
ATOM     60  C   UNL A   1      45.593  29.784  27.991  1.00  0.00     0.037 A 
ATOM     61  C   UNL A   1      39.384  32.128  30.269  1.00  0.00     0.037 A 
ATOM     62  C   UNL A   1      45.599  31.136  28.481  1.00  0.00     0.049 A 
ATOM     63  C   UNL A   1      40.633  32.966  30.352  1.00  0.00     0.074 A 
ATOM     64  C   UNL A   1      46.657  32.023  28.553  1.00  0.00     0.029 A 
ATOM     65  N   UNL A   1      44.491  31.791  28.997  1.00  0.00    -0.354 N 
ATOM     66  N   UNL A   1      41.852  32.677  29.962  1.00  0.00    -0.248 NA
ATOM     67  C   UNL A   1      40.493  34.307  30.938  1.00  0.00     0.031 C 
ATOM     68  C   UNL A   1      46.198  33.200  29.155  1.00  0.00     0.029 A 
ATOM     69  C   UNL A   1      44.842  33.066  29.408  1.00  0.00     0.049 A 
ATOM     70  H   UNL A   1      43.586  31.407  29.062  1.00  0.00     0.167 HD
ATOM     71  C   UNL A   1      42.615  33.813  30.215  1.00  0.00     0.074 A 
ATOM     72  C   UNL A   1      41.718  34.793  30.797  1.00  0.00     0.031 C 
ATOM     73  C   UNL A   1      43.934  34.032  29.977  1.00  0.00     0.037 A 
BRANCH  60  74
ATOM     74  C   UNL A   1      46.878  29.168  27.511  1.00  0.00     0.058 A 
ATOM     75  C   UNL A   1      47.146  28.979  26.144  1.00  0.00     0.135 A 
ATOM     76  C   UNL A   1      47.837  28.716  28.432  1.00  0.00     0.135 A 
ATOM     77  F   UNL A   1      46.255  29.373  25.220  1.00  0.00    -0.206 F 
ATOM     78  C   UNL A   1      48.288  28.313  25.711  1.00  0.00     0.059 A 
ATOM     79  C   UNL A   1      49.000  28.075  28.021  1.00  0.00     0.059 A 
ATOM     80  F   UNL A   1      47.633  28.871  29.751  1.00  0.00    -0.206 F 
ATOM     81  C   UNL A   1      49.203  27.853  26.659  1.00  0.00     0.060 A 
BRANCH  81  82
ATOM     82  S   UNL A   1      50.653  26.940  26.092  1.00  0.00     0.124 S 
ATOM     83  O   UNL A   1      50.811  27.461  24.737  1.00  0.00    -0.237 OA
ATOM     84  O   UNL A   1      51.676  27.347  27.050  1.00  0.00    -0.237 OA
ATOM     85  O   UNL A   1      50.233  25.546  26.183  1.00  0.00    -0.744 OA
ENDBRANCH  81  82
ENDBRANCH  60  74
BRANCH  61  86
ATOM     86  C   UNL A   1      38.071  32.667  30.712  1.00  0.00     0.058 A 
ATOM     87  C   UNL A   1      37.552  32.348  31.975  1.00  0.00     0.135 A 
ATOM     88  C   UNL A   1      37.324  33.533  29.897  1.00  0.00     0.135 A 
ATOM     89  F   UNL A   1      38.223  31.515  32.784  1.00  0.00    -0.206 F 
ATOM     90  C   UNL A   1      36.338  32.865  32.417  1.00  0.00     0.059 A 
ATOM     91  C   UNL A   1      36.119  34.081  30.324  1.00  0.00     0.059 A 
ATOM     92  F   UNL A   1      37.782  33.874  28.682  1.00  0.00    -0.206 F 
ATOM     93  C   UNL A   1      35.633  33.738  31.586  1.00  0.00     0.060 A 
BRANCH  93  94
ATOM     94  S   UNL A   1      34.099  34.468  32.203  1.00  0.00     0.124 S 
ATOM     95  O   UNL A   1      34.573  35.736  32.744  1.00  0.00    -0.237 OA
ATOM     96  O   UNL A   1      33.292  34.551  30.989  1.00  0.00    -0.237 OA
ATOM     97  O   UNL A   1      33.637  33.493  33.187  1.00  0.00    -0.744 OA
ENDBRANCH  93  94
ENDBRANCH  61  86
BRANCH  73  98
ATOM     98  C   UNL A   1      44.478  35.399  30.290  1.00  0.00     0.058 A 
ATOM     99  C   UNL A   1      44.289  36.493  29.431  1.00  0.00     0.135 A 
ATOM    100  C   UNL A   1      45.164  35.624  31.496  1.00  0.00     0.135 A 
ATOM    101  F   UNL A   1      43.642  36.333  28.266  1.00  0.00    -0.206 F 
ATOM    102  C   UNL A   1      44.789  37.754  29.741  1.00  0.00     0.059 A 
ATOM    103  C   UNL A   1      45.648  36.883  31.838  1.00  0.00     0.059 A 
ATOM    104  F   UNL A   1      45.358  34.617  32.362  1.00  0.00    -0.206 F 
ATOM    105  C   UNL A   1      45.470  37.938  30.946  1.00  0.00     0.060 A 
BRANCH 105 106
ATOM    106  S   UNL A   1      46.102  39.582  31.344  1.00  0.00     0.124 S 
ATOM    107  O   UNL A   1      45.766  40.326  30.135  1.00  0.00    -0.237 OA
ATOM    108  O   UNL A   1      45.337  39.932  32.538  1.00  0.00    -0.237 OA
ATOM    109  O   UNL A   1      47.526  39.354  31.567  1.00  0.00    -0.744 OA
ENDBRANCH 105 106
ENDBRANCH  73  98
ENDBRANCH  47  48
ENDBRANCH  40  42
ENDBRANCH  39  40
ENDBRANCH  38  39
ENDBRANCH  37  38
ENDBRANCH  36  37
ENDBRANCH  35  36
ENDBRANCH  34  35
ENDBRANCH  33  34
ENDBRANCH   1  33
TORSDOF 29
ENDMDL
MODEL 2
REMARK VINA RESULT:      -6.3      4.047      8.866
REMARK SMILES CCOc1cc2nccc(Nc3ccc(C(=O)OCCOCCOCCOCCOC(=O)c4ccc(-c5c6nc(c(-c7c(F)cc(S(=O)(=O)[O-])cc7F)c7ccc([nH]7)c(-c7c(F)cc(S(=O)(=O)[O-])cc7F)c7nc(c(-c8c(F)cc(S(=O)(=O)[O-])cc8F)c8ccc5[nH]8)C=C7)C=C6)cc4)cc3)c2cc1OCC
REMARK SMILES IDX 23 1 22 2 21 3 20 4 19 5 18 6 16 7 17 8 15 9 12 10 13 11
REMARK SMILES IDX 100 12 14 13 99 14 11 15 10 17 4 18 5 19 103 20 6 21 102 22
REMARK SMILES IDX 7 23 101 24 8 25 9 26 3 27 2 28 1 29 104 30 105 31 106 32
REMARK SMILES IDX 24 33 25 34 26 35 27 36 28 37 29 38 30 39 31 40 32 41 33 42
REMARK SMILES IDX 34 43 98 44 35 45 97 46 36 47 37 48 38 49 91 50 39 51 96 52
REMARK SMILES IDX 90 53 92 54 40 55 95 56 89 57 88 58 41 60 75 61 54 62 74 63
REMARK SMILES IDX 55 64 58 65 73 66 93 67 56 68 57 69 72 71 94 72 59 73 42 74
REMARK SMILES IDX 43 75 52 76 44 77 45 78 51 79 53 80 46 81 47 82 48 83 49 84
REMARK SMILES IDX 50 85 76 86 77 87 86 88 78 89 79 90 85 91 87 92 80 93 81 94
REMARK SMILES IDX 82 95 83 96 84 97 60 98 61 99 70 100 62 101 63 102 69 103
REMARK SMILES IDX 71 104 64 105 65 106 66 107 67 108 68 109
REMARK H PARENT 11 16 92 59 58 70
REMARK Flexibility Score: inf
ROOT
ATOM      1  C   UNL A   1      46.768  27.248  29.338  1.00  0.00     0.188 C 
ENDROOT
BRANCH   1   2
ATOM      2  C   UNL A   1      46.314  28.667  29.727  1.00  0.00     0.188 C 
BRANCH   2   3
ATOM      3  O   UNL A   1      46.825  29.686  28.873  1.00  0.00    -0.376 OA
BRANCH   3   4
ATOM      4  C   UNL A   1      47.095  30.951  29.459  1.00  0.00     0.202 C 
BRANCH   4   5
ATOM      5  C   UNL A   1      47.559  32.061  28.506  1.00  0.00     0.261 C 
BRANCH   5   6
ATOM      6  O   UNL A   1      46.516  32.913  28.013  1.00  0.00    -0.460 OA
BRANCH   6   7
ATOM      7  C   UNL A   1      46.748  33.567  26.859  1.00  0.00     0.338 C 
ATOM      8  O   UNL A   1      47.287  33.127  25.856  1.00  0.00    -0.246 OA
BRANCH   7   9
ATOM      9  C   UNL A   1      46.067  34.876  26.925  1.00  0.00     0.060 A 
ATOM     10  C   UNL A   1      44.873  37.392  27.149  1.00  0.00     0.038 A 
ATOM     11  C   UNL A   1      46.237  37.283  26.848  1.00  0.00     0.027 A 
ATOM     12  C   UNL A   1      44.097  36.231  27.251  1.00  0.00     0.027 A 
ATOM     13  C   UNL A   1      46.837  36.030  26.750  1.00  0.00     0.018 A 
ATOM     14  C   UNL A   1      44.687  34.974  27.131  1.00  0.00     0.018 A 
BRANCH  10  15
ATOM     15  N   UNL A   1      44.361  38.653  27.499  1.00  0.00    -0.355 N 
ATOM     16  H   UNL A   1      44.719  39.051  28.326  1.00  0.00     0.167 HD
BRANCH  15  17
ATOM     17  C   UNL A   1      43.390  39.425  26.806  1.00  0.00     0.050 A 
ATOM     18  C   UNL A   1      44.485  42.740  24.408  1.00  0.00     0.163 A 
ATOM     19  C   UNL A   1      43.144  42.381  24.590  1.00  0.00     0.079 A 
ATOM     20  C   UNL A   1      45.486  41.957  24.978  1.00  0.00     0.161 A 
ATOM     21  C   UNL A   1      42.777  41.273  25.348  1.00  0.00     0.076 A 
ATOM     22  C   UNL A   1      45.132  40.854  25.751  1.00  0.00     0.063 A 
ATOM     23  N   UNL A   1      41.470  40.999  25.483  1.00  0.00    -0.256 NA
ATOM     24  C   UNL A   1      43.785  40.501  25.969  1.00  0.00     0.028 A 
ATOM     25  C   UNL A   1      41.122  39.947  26.251  1.00  0.00     0.114 A 
ATOM     26  C   UNL A   1      42.025  39.149  26.921  1.00  0.00     0.047 A 
BRANCH  18  27
ATOM     27  O   UNL A   1      44.831  43.910  23.791  1.00  0.00    -0.490 OA
BRANCH  27  28
ATOM     28  C   UNL A   1      44.119  44.181  22.582  1.00  0.00     0.226 C 
ATOM     29  C   UNL A   1      44.571  43.150  21.558  1.00  0.00     0.049 C 
ENDBRANCH  27  28
ENDBRANCH  18  27
BRANCH  20  30
ATOM     30  O   UNL A   1      46.836  42.152  24.896  1.00  0.00    -0.490 OA
BRANCH  30  31
ATOM     31  C   UNL A   1      47.388  43.223  25.661  1.00  0.00     0.226 C 
ATOM     32  C   UNL A   1      47.465  42.935  27.154  1.00  0.00     0.049 C 
ENDBRANCH  30  31
ENDBRANCH  20  30
ENDBRANCH  15  17
ENDBRANCH  10  15
ENDBRANCH   7   9
ENDBRANCH   6   7
ENDBRANCH   5   6
ENDBRANCH   4   5
ENDBRANCH   3   4
ENDBRANCH   2   3
ENDBRANCH   1   2
BRANCH   1  33
ATOM     33  O   UNL A   1      46.789  26.977  27.950  1.00  0.00    -0.377 OA
BRANCH  33  34
ATOM     34  C   UNL A   1      47.793  26.111  27.423  1.00  0.00     0.188 C 
BRANCH  34  35
ATOM     35  C   UNL A   1      47.539  25.141  26.244  1.00  0.00     0.188 C 
BRANCH  35  36
ATOM     36  O   UNL A   1      47.337  23.780  26.611  1.00  0.00    -0.376 OA
BRANCH  36  37
ATOM     37  C   UNL A   1      46.025  23.266  26.434  1.00  0.00     0.202 C 
BRANCH  37  38
ATOM     38  C   UNL A   1      45.058  24.272  25.803  1.00  0.00     0.261 C 
BRANCH  38  39
ATOM     39  O   UNL A   1      44.401  25.138  26.741  1.00  0.00    -0.460 OA
BRANCH  39  40
ATOM     40  C   UNL A   1      43.188  24.731  27.179  1.00  0.00     0.338 C 
ATOM     41  O   UNL A   1      42.736  23.602  27.146  1.00  0.00    -0.246 OA
BRANCH  40  42
ATOM     42  C   UNL A   1      42.551  25.858  27.884  1.00  0.00     0.060 A 
ATOM     43  C   UNL A   1      43.236  27.078  27.952  1.00  0.00     0.016 A 
ATOM     44  C   UNL A   1      41.308  25.700  28.501  1.00  0.00     0.016 A 
ATOM     45  C   UNL A   1      42.713  28.121  28.711  1.00  0.00     0.010 A 
ATOM     46  C   UNL A   1      40.790  26.741  29.272  1.00  0.00     0.010 A 
ATOM     47  C   UNL A   1      41.522  27.932  29.425  1.00  0.00    -0.014 A 
BRANCH  47  48
ATOM     48  C   UNL A   1      41.202  28.856  30.538  1.00  0.00     0.031 A 
ATOM     49  C   UNL A   1      42.094  28.827  31.751  1.00  0.00     0.074 A 
ATOM     50  C   UNL A   1      40.185  29.731  30.459  1.00  0.00     0.049 A 
ATOM     51  N   UNL A   1      42.058  29.563  32.830  1.00  0.00    -0.248 NA
ATOM     52  C   UNL A   1      43.177  27.827  31.740  1.00  0.00     0.031 C 
ATOM     53  C   UNL A   1      39.279  29.877  29.324  1.00  0.00     0.029 A 
ATOM     54  N   UNL A   1      39.756  30.670  31.361  1.00  0.00    -0.354 N 
ATOM     55  C   UNL A   1      43.108  29.117  33.624  1.00  0.00     0.074 A 
ATOM     56  C   UNL A   1      43.734  28.019  32.923  1.00  0.00     0.031 C 
ATOM     57  C   UNL A   1      38.403  30.862  29.592  1.00  0.00     0.029 A 
ATOM     58  C   UNL A   1      38.676  31.398  30.926  1.00  0.00     0.049 A 
ATOM     59  H   UNL A   1      40.181  30.809  32.238  1.00  0.00     0.167 HD
ATOM     60  C   UNL A   1      43.526  29.588  34.823  1.00  0.00     0.037 A 
ATOM     61  C   UNL A   1      37.993  32.387  31.537  1.00  0.00     0.037 A 
ATOM     62  C   UNL A   1      42.890  30.670  35.524  1.00  0.00     0.049 A 
ATOM     63  C   UNL A   1      38.431  32.852  32.902  1.00  0.00     0.074 A 
ATOM     64  C   UNL A   1      43.229  31.226  36.744  1.00  0.00     0.029 A 
ATOM     65  N   UNL A   1      41.770  31.352  35.070  1.00  0.00    -0.354 N 
ATOM     66  N   UNL A   1      39.440  32.441  33.633  1.00  0.00    -0.248 NA
ATOM     67  C   UNL A   1      37.640  33.926  33.520  1.00  0.00     0.031 C 
ATOM     68  C   UNL A   1      42.286  32.215  37.048  1.00  0.00     0.029 A 
ATOM     69  C   UNL A   1      41.393  32.312  35.993  1.00  0.00     0.049 A 
ATOM     70  H   UNL A   1      41.311  31.179  34.216  1.00  0.00     0.167 HD
ATOM     71  C   UNL A   1      39.432  33.233  34.777  1.00  0.00     0.074 A 
ATOM     72  C   UNL A   1      38.313  34.145  34.641  1.00  0.00     0.031 C 
ATOM     73  C   UNL A   1      40.280  33.217  35.838  1.00  0.00     0.037 A 
BRANCH  60  74
ATOM     74  C   UNL A   1      44.700  28.890  35.453  1.00  0.00     0.058 A 
ATOM     75  C   UNL A   1      46.025  29.245  35.147  1.00  0.00     0.135 A 
ATOM     76  C   UNL A   1      44.499  27.821  36.340  1.00  0.00     0.135 A 
ATOM     77  F   UNL A   1      46.276  30.247  34.290  1.00  0.00    -0.206 F 
ATOM     78  C   UNL A   1      47.105  28.528  35.651  1.00  0.00     0.059 A 
ATOM     79  C   UNL A   1      45.564  27.108  36.880  1.00  0.00     0.059 A 
ATOM     80  F   UNL A   1      43.253  27.438  36.667  1.00  0.00    -0.206 F 
ATOM     81  C   UNL A   1      46.863  27.452  36.507  1.00  0.00     0.060 A 
BRANCH  81  82
ATOM     82  S   UNL A   1      48.268  26.492  37.109  1.00  0.00     0.124 S 
ATOM     83  O   UNL A   1      49.055  26.335  35.890  1.00  0.00    -0.237 OA
ATOM     84  O   UNL A   1      48.839  27.372  38.124  1.00  0.00    -0.237 OA
ATOM     85  O   UNL A   1      47.651  25.272  37.620  1.00  0.00    -0.744 OA
ENDBRANCH  81  82
ENDBRANCH  60  74
BRANCH  61  86
ATOM     86  C   UNL A   1      36.849  33.032  30.841  1.00  0.00     0.058 A 
ATOM     87  C   UNL A   1      35.527  32.727  31.198  1.00  0.00     0.135 A 
ATOM     88  C   UNL A   1      37.052  33.982  29.828  1.00  0.00     0.135 A 
ATOM     89  F   UNL A   1      35.283  31.816  32.151  1.00  0.00    -0.206 F 
ATOM     90  C   UNL A   1      34.444  33.341  30.576  1.00  0.00     0.059 A 
ATOM     91  C   UNL A   1      35.986  34.626  29.207  1.00  0.00     0.059 A 
ATOM     92  F   UNL A   1      38.298  34.313  29.456  1.00  0.00    -0.206 F 
ATOM     93  C   UNL A   1      34.685  34.296  29.587  1.00  0.00     0.060 A 
BRANCH  93  94
ATOM     94  S   UNL A   1      33.274  35.146  28.844  1.00  0.00     0.124 S 
ATOM     95  O   UNL A   1      33.928  36.236  28.130  1.00  0.00    -0.237 OA
ATOM     96  O   UNL A   1      32.690  34.097  28.013  1.00  0.00    -0.237 OA
ATOM     97  O   UNL A   1      32.472  35.538  29.999  1.00  0.00    -0.744 OA
ENDBRANCH  93  94
ENDBRANCH  61  86
BRANCH  73  98
ATOM     98  C   UNL A   1      40.068  34.252  36.910  1.00  0.00     0.058 A 
ATOM     99  C   UNL A   1      39.267  34.006  38.036  1.00  0.00     0.135 A 
ATOM    100  C   UNL A   1      40.717  35.495  36.826  1.00  0.00     0.135 A 
ATOM    101  F   UNL A   1      38.623  32.836  38.165  1.00  0.00    -0.206 F 
ATOM    102  C   UNL A   1      39.089  34.970  39.024  1.00  0.00     0.059 A 
ATOM    103  C   UNL A   1      40.576  36.462  37.817  1.00  0.00     0.059 A 
ATOM    104  F   UNL A   1      41.509  35.776  35.779  1.00  0.00    -0.206 F 
ATOM    105  C   UNL A   1      39.747  36.196  38.904  1.00  0.00     0.060 A 
BRANCH 105 106
ATOM    106  S   UNL A   1      39.522  37.433  40.200  1.00  0.00     0.124 S 
ATOM    107  O   UNL A   1      40.618  38.355  39.919  1.00  0.00    -0.237 OA
ATOM    108  O   UNL A   1      38.181  37.939  39.923  1.00  0.00    -0.237 OA
ATOM    109  O   UNL A   1      39.650  36.661  41.432  1.00  0.00    -0.744 OA
ENDBRANCH 105 106
ENDBRANCH  73  98
ENDBRANCH  47  48
ENDBRANCH  40  42
ENDBRANCH  39  40
ENDBRANCH  38  39
ENDBRANCH  37  38
ENDBRANCH  36  37
ENDBRANCH  35  36
ENDBRANCH  34  35
ENDBRANCH  33  34
ENDBRANCH   1  33
TORSDOF 29
ENDMDL
MODEL 3
REMARK VINA RESULT:      -6.2      3.415     10.556
REMARK SMILES CCOc1cc2nccc(Nc3ccc(C(=O)OCCOCCOCCOCCOC(=O)c4ccc(-c5c6nc(c(-c7c(F)cc(S(=O)(=O)[O-])cc7F)c7ccc([nH]7)c(-c7c(F)cc(S(=O)(=O)[O-])cc7F)c7nc(c(-c8c(F)cc(S(=O)(=O)[O-])cc8F)c8ccc5[nH]8)C=C7)C=C6)cc4)cc3)c2cc1OCC
REMARK SMILES IDX 23 1 22 2 21 3 20 4 19 5 18 6 16 7 17 8 15 9 12 10 13 11
REMARK SMILES IDX 100 12 14 13 99 14 11 15 10 17 4 18 5 19 103 20 6 21 102 22
REMARK SMILES IDX 7 23 101 24 8 25 9 26 3 27 2 28 1 29 104 30 105 31 106 32
REMARK SMILES IDX 24 33 25 34 26 35 27 36 28 37 29 38 30 39 31 40 32 41 33 42
REMARK SMILES IDX 34 43 98 44 35 45 97 46 36 47 37 48 38 49 91 50 39 51 96 52
REMARK SMILES IDX 90 53 92 54 40 55 95 56 89 57 88 58 41 60 75 61 54 62 74 63
REMARK SMILES IDX 55 64 58 65 73 66 93 67 56 68 57 69 72 71 94 72 59 73 42 74
REMARK SMILES IDX 43 75 52 76 44 77 45 78 51 79 53 80 46 81 47 82 48 83 49 84
REMARK SMILES IDX 50 85 76 86 77 87 86 88 78 89 79 90 85 91 87 92 80 93 81 94
REMARK SMILES IDX 82 95 83 96 84 97 60 98 61 99 70 100 62 101 63 102 69 103
REMARK SMILES IDX 71 104 64 105 65 106 66 107 67 108 68 109
REMARK H PARENT 11 16 92 59 58 70
REMARK Flexibility Score: inf
ROOT
ATOM      1  C   UNL A   1      44.274  27.999  30.812  1.00  0.00     0.188 C 
ENDROOT
BRANCH   1   2
ATOM      2  C   UNL A   1      45.342  28.779  30.025  1.00  0.00     0.188 C 
BRANCH   2   3
ATOM      3  O   UNL A   1      46.093  27.972  29.123  1.00  0.00    -0.376 OA
BRANCH   3   4
ATOM      4  C   UNL A   1      46.815  28.641  28.098  1.00  0.00     0.202 C 
BRANCH   4   5
ATOM      5  C   UNL A   1      47.775  27.780  27.265  1.00  0.00     0.261 C 
BRANCH   5   6
ATOM      6  O   UNL A   1      48.083  26.498  27.828  1.00  0.00    -0.460 OA
BRANCH   6   7
ATOM      7  C   UNL A   1      48.401  25.510  26.971  1.00  0.00     0.338 C 
ATOM      8  O   UNL A   1      49.520  25.118  26.677  1.00  0.00    -0.246 OA
BRANCH   7   9
ATOM      9  C   UNL A   1      47.154  24.826  26.570  1.00  0.00     0.060 A 
ATOM     10  C   UNL A   1      44.851  23.411  25.863  1.00  0.00     0.038 A 
ATOM     11  C   UNL A   1      45.313  23.391  27.186  1.00  0.00     0.027 A 
ATOM     12  C   UNL A   1      45.503  24.214  24.920  1.00  0.00     0.027 A 
ATOM     13  C   UNL A   1      46.469  24.085  27.538  1.00  0.00     0.018 A 
ATOM     14  C   UNL A   1      46.648  24.928  25.271  1.00  0.00     0.018 A 
BRANCH  10  15
ATOM     15  N   UNL A   1      43.849  22.500  25.488  1.00  0.00    -0.355 N 
ATOM     16  H   UNL A   1      44.033  21.961  24.685  1.00  0.00     0.167 HD
BRANCH  15  17
ATOM     17  C   UNL A   1      42.601  22.261  26.127  1.00  0.00     0.050 A 
ATOM     18  C   UNL A   1      40.026  25.437  27.229  1.00  0.00     0.163 A 
ATOM     19  C   UNL A   1      39.708  24.105  27.518  1.00  0.00     0.079 A 
ATOM     20  C   UNL A   1      41.185  25.724  26.511  1.00  0.00     0.161 A 
ATOM     21  C   UNL A   1      40.532  23.053  27.128  1.00  0.00     0.076 A 
ATOM     22  C   UNL A   1      42.025  24.681  26.129  1.00  0.00     0.063 A 
ATOM     23  N   UNL A   1      40.162  21.804  27.451  1.00  0.00    -0.256 NA
ATOM     24  C   UNL A   1      41.734  23.339  26.442  1.00  0.00     0.028 A 
ATOM     25  C   UNL A   1      40.985  20.793  27.105  1.00  0.00     0.114 A 
ATOM     26  C   UNL A   1      42.191  20.968  26.458  1.00  0.00     0.047 A 
BRANCH  18  27
ATOM     27  O   UNL A   1      39.293  26.472  27.742  1.00  0.00    -0.490 OA
BRANCH  27  28
ATOM     28  C   UNL A   1      39.416  26.647  29.155  1.00  0.00     0.226 C 
ATOM     29  C   UNL A   1      38.941  28.058  29.472  1.00  0.00     0.049 C 
ENDBRANCH  27  28
ENDBRANCH  18  27
BRANCH  20  30
ATOM     30  O   UNL A   1      41.642  26.956  26.135  1.00  0.00    -0.490 OA
BRANCH  30  31
ATOM     31  C   UNL A   1      42.410  27.685  27.091  1.00  0.00     0.226 C 
ATOM     32  C   UNL A   1      43.055  28.945  26.529  1.00  0.00     0.049 C 
ENDBRANCH  30  31
ENDBRANCH  20  30
ENDBRANCH  15  17
ENDBRANCH  10  15
ENDBRANCH   7   9
ENDBRANCH   6   7
ENDBRANCH   5   6
ENDBRANCH   4   5
ENDBRANCH   3   4
ENDBRANCH   2   3
ENDBRANCH   1   2
BRANCH   1  33
ATOM     33  O   UNL A   1      44.584  26.644  31.077  1.00  0.00    -0.377 OA
BRANCH  33  34
ATOM     34  C   UNL A   1      45.465  26.328  32.154  1.00  0.00     0.188 C 
BRANCH  34  35
ATOM     35  C   UNL A   1      44.969  25.995  33.582  1.00  0.00     0.188 C 
BRANCH  35  36
ATOM     36  O   UNL A   1      44.305  24.742  33.717  1.00  0.00    -0.376 OA
BRANCH  36  37
ATOM     37  C   UNL A   1      44.558  24.019  34.912  1.00  0.00     0.202 C 
BRANCH  37  38
ATOM     38  C   UNL A   1      43.312  23.824  35.781  1.00  0.00     0.261 C 
BRANCH  38  39
ATOM     39  O   UNL A   1      43.051  24.898  36.699  1.00  0.00    -0.460 OA
BRANCH  39  40
ATOM     40  C   UNL A   1      41.783  25.366  36.723  1.00  0.00     0.338 C 
ATOM     41  O   UNL A   1      40.855  24.939  37.385  1.00  0.00    -0.246 OA
BRANCH  40  42
ATOM     42  C   UNL A   1      41.737  26.615  35.943  1.00  0.00     0.060 A 
ATOM     43  C   UNL A   1      41.478  26.537  34.569  1.00  0.00     0.016 A 
ATOM     44  C   UNL A   1      41.984  27.847  36.556  1.00  0.00     0.016 A 
ATOM     45  C   UNL A   1      41.547  27.687  33.787  1.00  0.00     0.010 A 
ATOM     46  C   UNL A   1      42.065  28.996  35.770  1.00  0.00     0.010 A 
ATOM     47  C   UNL A   1      41.905  28.907  34.376  1.00  0.00    -0.014 A 
BRANCH  47  48
ATOM     48  C   UNL A   1      42.386  30.007  33.507  1.00  0.00     0.031 A 
ATOM     49  C   UNL A   1      41.364  30.741  32.679  1.00  0.00     0.074 A 
ATOM     50  C   UNL A   1      43.676  30.380  33.488  1.00  0.00     0.049 A 
ATOM     51  N   UNL A   1      41.519  31.764  31.880  1.00  0.00    -0.248 NA
ATOM     52  C   UNL A   1      39.978  30.250  32.767  1.00  0.00     0.031 C 
ATOM     53  C   UNL A   1      44.746  29.770  34.273  1.00  0.00     0.029 A 
ATOM     54  N   UNL A   1      44.298  31.376  32.780  1.00  0.00    -0.354 N 
ATOM     55  C   UNL A   1      40.254  32.038  31.372  1.00  0.00     0.074 A 
ATOM     56  C   UNL A   1      39.354  31.047  31.918  1.00  0.00     0.031 C 
ATOM     57  C   UNL A   1      45.897  30.415  34.012  1.00  0.00     0.029 A 
ATOM     58  C   UNL A   1      45.645  31.468  33.027  1.00  0.00     0.049 A 
ATOM     59  H   UNL A   1      43.823  31.969  32.154  1.00  0.00     0.167 HD
ATOM     60  C   UNL A   1      39.871  33.034  30.538  1.00  0.00     0.037 A 
ATOM     61  C   UNL A   1      46.565  32.311  32.516  1.00  0.00     0.037 A 
ATOM     62  C   UNL A   1      40.774  34.007  29.985  1.00  0.00     0.049 A 
ATOM     63  C   UNL A   1      46.132  33.370  31.536  1.00  0.00     0.074 A 
ATOM     64  C   UNL A   1      40.494  35.057  29.130  1.00  0.00     0.029 A 
ATOM     65  N   UNL A   1      42.140  34.038  30.224  1.00  0.00    -0.354 N 
ATOM     66  N   UNL A   1      44.930  33.637  31.082  1.00  0.00    -0.248 NA
ATOM     67  C   UNL A   1      47.182  34.252  31.008  1.00  0.00     0.031 C 
ATOM     68  C   UNL A   1      41.698  35.696  28.817  1.00  0.00     0.029 A 
ATOM     69  C   UNL A   1      42.721  35.078  29.519  1.00  0.00     0.049 A 
ATOM     70  H   UNL A   1      42.626  33.413  30.810  1.00  0.00     0.167 HD
ATOM     71  C   UNL A   1      45.073  34.742  30.248  1.00  0.00     0.074 A 
ATOM     72  C   UNL A   1      46.479  35.090  30.258  1.00  0.00     0.031 C 
ATOM     73  C   UNL A   1      44.124  35.416  29.548  1.00  0.00     0.037 A 
BRANCH  60  74
ATOM     74  C   UNL A   1      38.418  33.073  30.152  1.00  0.00     0.058 A 
ATOM     75  C   UNL A   1      37.887  32.212  29.177  1.00  0.00     0.135 A 
ATOM     76  C   UNL A   1      37.555  34.017  30.731  1.00  0.00     0.135 A 
ATOM     77  F   UNL A   1      38.672  31.304  28.576  1.00  0.00    -0.206 F 
ATOM     78  C   UNL A   1      36.568  32.324  28.748  1.00  0.00     0.059 A 
ATOM     79  C   UNL A   1      36.225  34.126  30.340  1.00  0.00     0.059 A 
ATOM     80  F   UNL A   1      38.009  34.865  31.668  1.00  0.00    -0.206 F 
ATOM     81  C   UNL A   1      35.749  33.294  29.327  1.00  0.00     0.060 A 
BRANCH  81  82
ATOM     82  S   UNL A   1      34.056  33.471  28.725  1.00  0.00     0.124 S 
ATOM     83  O   UNL A   1      33.613  32.080  28.693  1.00  0.00    -0.237 OA
ATOM     84  O   UNL A   1      33.442  34.308  29.751  1.00  0.00    -0.237 OA
ATOM     85  O   UNL A   1      34.224  34.105  27.422  1.00  0.00    -0.744 OA
ENDBRANCH  81  82
ENDBRANCH  60  74
BRANCH  61  86
ATOM     86  C   UNL A   1      47.981  32.212  32.958  1.00  0.00     0.058 A 
ATOM     87  C   UNL A   1      48.444  32.948  34.057  1.00  0.00     0.135 A 
ATOM     88  C   UNL A   1      48.891  31.361  32.309  1.00  0.00     0.135 A 
ATOM     89  F   UNL A   1      47.615  33.783  34.701  1.00  0.00    -0.206 F 
ATOM     90  C   UNL A   1      49.759  32.847  34.501  1.00  0.00     0.059 A 
ATOM     91  C   UNL A   1      50.205  31.226  32.747  1.00  0.00     0.059 A 
ATOM     92  F   UNL A   1      48.494  30.630  31.256  1.00  0.00    -0.206 F 
ATOM     93  C   UNL A   1      50.629  31.976  33.844  1.00  0.00     0.060 A 
BRANCH  93  94
ATOM     94  S   UNL A   1      52.311  31.793  34.479  1.00  0.00     0.124 S 
ATOM     95  O   UNL A   1      52.911  33.066  34.096  1.00  0.00    -0.237 OA
ATOM     96  O   UNL A   1      52.078  31.601  35.907  1.00  0.00    -0.237 OA
ATOM     97  O   UNL A   1      52.812  30.619  33.771  1.00  0.00    -0.744 OA
ENDBRANCH  93  94
ENDBRANCH  61  86
BRANCH  73  98
ATOM     98  C   UNL A   1      44.563  36.633  28.779  1.00  0.00     0.058 A 
ATOM     99  C   UNL A   1      44.513  37.922  29.330  1.00  0.00     0.135 A 
ATOM    100  C   UNL A   1      45.084  36.494  27.481  1.00  0.00     0.135 A 
ATOM    101  F   UNL A   1      44.023  38.111  30.564  1.00  0.00    -0.206 F 
ATOM    102  C   UNL A   1      44.933  39.036  28.609  1.00  0.00     0.059 A 
ATOM    103  C   UNL A   1      45.536  37.591  26.753  1.00  0.00     0.059 A 
ATOM    104  F   UNL A   1      45.170  35.282  26.912  1.00  0.00    -0.206 F 
ATOM    105  C   UNL A   1      45.441  38.860  27.320  1.00  0.00     0.060 A 
BRANCH 105 106
ATOM    106  S   UNL A   1      45.998  40.310  26.399  1.00  0.00     0.124 S 
ATOM    107  O   UNL A   1      45.982  41.338  27.435  1.00  0.00    -0.237 OA
ATOM    108  O   UNL A   1      47.319  39.899  25.933  1.00  0.00    -0.237 OA
ATOM    109  O   UNL A   1      44.990  40.456  25.354  1.00  0.00    -0.744 OA
ENDBRANCH 105 106
ENDBRANCH  73  98
ENDBRANCH  47  48
ENDBRANCH  40  42
ENDBRANCH  39  40
ENDBRANCH  38  39
ENDBRANCH  37  38
ENDBRANCH  36  37
ENDBRANCH  35  36
ENDBRANCH  34  35
ENDBRANCH  33  34
ENDBRANCH   1  33
TORSDOF 29
ENDMDL
