MODEL 1
REMARK VINA RESULT:      -9.4      0.000      0.000
REMARK SMILES CC1(C)CSC[C@H]([NH2+][C@H](C(=O)OCCOCCOCCOCCOC(=O)c2ccc(-c3c4nc(c(-c5c(F)cc(S(=O)(=O)[O-])cc5F)c5ccc([nH]5)c(-c5c(F)cc(S(=O)(=O)[O-])cc5F)c5nc(c(-c6c(F)cc(S(=O)(=O)[O-])cc6F)c6ccc3[nH]6)C=C5)C=C4)cc2)c2ccccc2)C1
REMARK SMILES IDX 19 1 18 2 17 3 16 4 15 5 14 6 13 7 12 8 10 9 11 10 9 11 8 12
REMARK SMILES IDX 7 15 1 16 2 17 3 18 4 19 99 20 5 21 6 22 93 23 94 24 98 25
REMARK SMILES IDX 95 26 97 27 96 28 20 29 21 30 22 31 23 32 24 33 25 34 26 35
REMARK SMILES IDX 27 36 28 37 92 38 29 39 91 40 30 41 31 42 32 43 85 44 33 45
REMARK SMILES IDX 90 46 84 47 86 48 34 49 89 50 83 51 82 52 35 54 69 55 48 56
REMARK SMILES IDX 68 57 49 58 52 59 67 60 87 61 50 62 51 63 66 65 88 66 53 67
REMARK SMILES IDX 36 68 37 69 46 70 38 71 39 72 45 73 47 74 40 75 41 76 42 77
REMARK SMILES IDX 43 78 44 79 70 80 71 81 80 82 72 83 73 84 79 85 81 86 74 87
REMARK SMILES IDX 75 88 76 89 77 90 78 91 54 92 55 93 64 94 56 95 57 96 63 97
REMARK SMILES IDX 65 98 58 99 59 100 60 101 61 102 62 103
REMARK H PARENT 8 13 8 14 86 53 52 64
REMARK Flexibility Score: inf
ROOT
ATOM      1  C   UNL A   1      34.549  31.417  28.262  1.00  0.00     0.188 C 
ENDROOT
BRANCH   1   2
ATOM      2  O   UNL A   1      34.433  30.386  27.292  1.00  0.00    -0.377 OA
BRANCH   2   3
ATOM      3  C   UNL A   1      33.272  30.242  26.499  1.00  0.00     0.188 C 
BRANCH   3   4
ATOM      4  C   UNL A   1      33.206  28.934  25.718  1.00  0.00     0.188 C 
BRANCH   4   5
ATOM      5  O   UNL A   1      33.790  28.949  24.431  1.00  0.00    -0.376 OA
BRANCH   5   6
ATOM      6  C   UNL A   1      33.060  28.348  23.363  1.00  0.00     0.202 C 
BRANCH   6   7
ATOM      7  C   UNL A   1      33.759  27.785  22.103  1.00  0.00     0.261 C 
BRANCH   7   8
ATOM      8  O   UNL A   1      34.011  26.344  22.027  1.00  0.00    -0.459 OA
BRANCH   8   9
ATOM      9  C   UNL A   1      33.030  25.636  21.402  1.00  0.00     0.369 C 
ATOM     10  O   UNL A   1      32.913  25.700  20.171  1.00  0.00    -0.245 OA
BRANCH   9  11
ATOM     11  C   UNL A   1      31.962  24.841  22.247  1.00  0.00     0.325 C 
BRANCH  11  12
ATOM     12  N   UNL A   1      32.472  23.421  22.270  1.00  0.00    -0.328 N 
ATOM     13  H   UNL A   1      31.665  22.809  22.154  1.00  0.00     0.347 HD
ATOM     14  H   UNL A   1      33.166  23.390  21.523  1.00  0.00     0.347 HD
BRANCH  12  15
ATOM     15  C   UNL A   1      33.206  22.960  23.475  1.00  0.00     0.193 C 
ATOM     16  C   UNL A   1      35.469  23.445  25.752  1.00  0.00     0.012 C 
ATOM     17  C   UNL A   1      35.538  22.428  24.586  1.00  0.00    -0.021 C 
ATOM     18  C   UNL A   1      37.028  22.271  24.196  1.00  0.00     0.012 C 
ATOM     19  C   UNL A   1      35.044  21.032  25.009  1.00  0.00     0.076 C 
ATOM     20  C   UNL A   1      34.747  22.947  23.352  1.00  0.00     0.073 C 
ATOM     21  S   UNL A   1      33.280  20.963  25.411  1.00  0.00    -0.155 SA
ATOM     22  C   UNL A   1      32.649  21.570  23.822  1.00  0.00     0.134 C 
ENDBRANCH  12  15
ENDBRANCH  11  12
BRANCH  11  23
ATOM     23  C   UNL A   1      31.357  25.214  23.620  1.00  0.00     0.021 A 
ATOM     24  C   UNL A   1      30.018  25.487  23.869  1.00  0.00     0.010 A 
ATOM     25  C   UNL A   1      32.178  25.177  24.783  1.00  0.00     0.010 A 
ATOM     26  C   UNL A   1      29.583  25.946  25.132  1.00  0.00     0.001 A 
ATOM     27  C   UNL A   1      31.768  25.653  26.031  1.00  0.00     0.001 A 
ATOM     28  C   UNL A   1      30.469  26.087  26.196  1.00  0.00     0.000 A 
ENDBRANCH  11  23
ENDBRANCH   9  11
ENDBRANCH   8   9
ENDBRANCH   7   8
ENDBRANCH   6   7
ENDBRANCH   5   6
ENDBRANCH   4   5
ENDBRANCH   3   4
ENDBRANCH   2   3
ENDBRANCH   1   2
BRANCH   1  29
ATOM     29  C   UNL A   1      35.299  32.676  27.844  1.00  0.00     0.188 C 
BRANCH  29  30
ATOM     30  O   UNL A   1      34.523  33.861  27.645  1.00  0.00    -0.376 OA
BRANCH  30  31
ATOM     31  C   UNL A   1      33.137  33.831  27.977  1.00  0.00     0.202 C 
BRANCH  31  32
ATOM     32  C   UNL A   1      32.547  35.163  28.437  1.00  0.00     0.261 C 
BRANCH  32  33
ATOM     33  O   UNL A   1      33.369  35.811  29.420  1.00  0.00    -0.460 OA
BRANCH  33  34
ATOM     34  C   UNL A   1      33.268  35.305  30.674  1.00  0.00     0.338 C 
ATOM     35  O   UNL A   1      32.313  35.370  31.421  1.00  0.00    -0.246 OA
BRANCH  34  36
ATOM     36  C   UNL A   1      34.469  34.500  30.965  1.00  0.00     0.060 A 
ATOM     37  C   UNL A   1      34.330  33.365  31.777  1.00  0.00     0.016 A 
ATOM     38  C   UNL A   1      35.725  34.900  30.505  1.00  0.00     0.016 A 
ATOM     39  C   UNL A   1      35.458  32.652  32.173  1.00  0.00     0.010 A 
ATOM     40  C   UNL A   1      36.855  34.194  30.916  1.00  0.00     0.010 A 
ATOM     41  C   UNL A   1      36.726  33.096  31.784  1.00  0.00    -0.014 A 
BRANCH  41  42
ATOM     42  C   UNL A   1      37.932  32.540  32.433  1.00  0.00     0.031 A 
ATOM     43  C   UNL A   1      38.649  31.412  31.748  1.00  0.00     0.074 A 
ATOM     44  C   UNL A   1      38.366  33.029  33.606  1.00  0.00     0.049 A 
ATOM     45  N   UNL A   1      39.653  30.689  32.169  1.00  0.00    -0.248 NA
ATOM     46  C   UNL A   1      38.161  31.041  30.407  1.00  0.00     0.031 C 
ATOM     47  C   UNL A   1      37.768  34.152  34.326  1.00  0.00     0.029 A 
ATOM     48  N   UNL A   1      39.403  32.626  34.408  1.00  0.00    -0.354 N 
ATOM     49  C   UNL A   1      39.906  29.771  31.157  1.00  0.00     0.074 A 
ATOM     50  C   UNL A   1      38.934  30.008  30.113  1.00  0.00     0.031 C 
ATOM     51  C   UNL A   1      38.435  34.334  35.479  1.00  0.00     0.029 A 
ATOM     52  C   UNL A   1      39.476  33.314  35.594  1.00  0.00     0.049 A 
ATOM     53  H   UNL A   1      40.032  31.912  34.158  1.00  0.00     0.167 HD
ATOM     54  C   UNL A   1      40.866  28.819  31.107  1.00  0.00     0.037 A 
ATOM     55  C   UNL A   1      40.272  33.115  36.663  1.00  0.00     0.037 A 
ATOM     56  C   UNL A   1      41.821  28.599  32.161  1.00  0.00     0.049 A 
ATOM     57  C   UNL A   1      41.285  32.001  36.617  1.00  0.00     0.074 A 
ATOM     58  C   UNL A   1      42.850  27.677  32.211  1.00  0.00     0.029 A 
ATOM     59  N   UNL A   1      41.857  29.305  33.356  1.00  0.00    -0.354 N 
ATOM     60  N   UNL A   1      41.531  31.149  35.649  1.00  0.00    -0.248 NA
ATOM     61  C   UNL A   1      42.130  31.819  37.805  1.00  0.00     0.031 C 
ATOM     62  C   UNL A   1      43.469  27.784  33.461  1.00  0.00     0.029 A 
ATOM     63  C   UNL A   1      42.870  28.818  34.164  1.00  0.00     0.049 A 
ATOM     64  H   UNL A   1      41.251  30.043  33.593  1.00  0.00     0.167 HD
ATOM     65  C   UNL A   1      42.579  30.351  36.099  1.00  0.00     0.074 A 
ATOM     66  C   UNL A   1      42.924  30.829  37.422  1.00  0.00     0.031 C 
ATOM     67  C   UNL A   1      43.200  29.319  35.476  1.00  0.00     0.037 A 
BRANCH  54  68
ATOM     68  C   UNL A   1      40.907  27.926  29.896  1.00  0.00     0.058 A 
ATOM     69  C   UNL A   1      41.919  28.029  28.928  1.00  0.00     0.135 A 
ATOM     70  C   UNL A   1      39.932  26.930  29.717  1.00  0.00     0.135 A 
ATOM     71  F   UNL A   1      42.864  28.976  29.036  1.00  0.00    -0.206 F 
ATOM     72  C   UNL A   1      41.949  27.196  27.815  1.00  0.00     0.059 A 
ATOM     73  C   UNL A   1      39.960  26.065  28.628  1.00  0.00     0.059 A 
ATOM     74  F   UNL A   1      38.937  26.790  30.607  1.00  0.00    -0.206 F 
ATOM     75  C   UNL A   1      40.966  26.214  27.675  1.00  0.00     0.060 A 
BRANCH  75  76
ATOM     76  S   UNL A   1      41.028  25.134  26.230  1.00  0.00     0.124 S 
ATOM     77  O   UNL A   1      39.643  24.678  26.147  1.00  0.00    -0.237 OA
ATOM     78  O   UNL A   1      41.459  26.046  25.177  1.00  0.00    -0.237 OA
ATOM     79  O   UNL A   1      42.001  24.113  26.609  1.00  0.00    -0.744 OA
ENDBRANCH  75  76
ENDBRANCH  54  68
BRANCH  55  80
ATOM     80  C   UNL A   1      40.127  33.976  37.868  1.00  0.00     0.058 A 
ATOM     81  C   UNL A   1      39.195  33.669  38.870  1.00  0.00     0.135 A 
ATOM     82  C   UNL A   1      40.926  35.116  38.047  1.00  0.00     0.135 A 
ATOM     83  F   UNL A   1      38.401  32.595  38.741  1.00  0.00    -0.206 F 
ATOM     84  C   UNL A   1      39.051  34.468  40.000  1.00  0.00     0.059 A 
ATOM     85  C   UNL A   1      40.821  35.914  39.183  1.00  0.00     0.059 A 
ATOM     86  F   UNL A   1      41.842  35.449  37.125  1.00  0.00    -0.206 F 
ATOM     87  C   UNL A   1      39.872  35.586  40.149  1.00  0.00     0.060 A 
BRANCH  87  88
ATOM     88  S   UNL A   1      39.711  36.583  41.646  1.00  0.00     0.124 S 
ATOM     89  O   UNL A   1      41.069  36.543  42.173  1.00  0.00    -0.237 OA
ATOM     90  O   UNL A   1      39.270  37.867  41.108  1.00  0.00    -0.237 OA
ATOM     91  O   UNL A   1      38.709  35.861  42.424  1.00  0.00    -0.744 OA
ENDBRANCH  87  88
ENDBRANCH  55  80
BRANCH  67  92
ATOM     92  C   UNL A   1      44.345  28.658  36.197  1.00  0.00     0.058 A 
ATOM     93  C   UNL A   1      45.655  29.157  36.122  1.00  0.00     0.135 A 
ATOM     94  C   UNL A   1      44.111  27.551  37.029  1.00  0.00     0.135 A 
ATOM     95  F   UNL A   1      45.933  30.208  35.334  1.00  0.00    -0.206 F 
ATOM     96  C   UNL A   1      46.695  28.571  36.834  1.00  0.00     0.059 A 
ATOM     97  C   UNL A   1      45.131  26.970  37.776  1.00  0.00     0.059 A 
ATOM     98  F   UNL A   1      42.875  27.041  37.146  1.00  0.00    -0.206 F 
ATOM     99  C   UNL A   1      46.422  27.481  37.664  1.00  0.00     0.060 A 
BRANCH  99 100
ATOM    100  S   UNL A   1      47.774  26.762  38.618  1.00  0.00     0.124 S 
ATOM    101  O   UNL A   1      48.551  27.946  38.969  1.00  0.00    -0.237 OA
ATOM    102  O   UNL A   1      47.066  26.118  39.721  1.00  0.00    -0.237 OA
ATOM    103  O   UNL A   1      48.411  25.850  37.673  1.00  0.00    -0.744 OA
ENDBRANCH  99 100
ENDBRANCH  67  92
ENDBRANCH  41  42
ENDBRANCH  34  36
ENDBRANCH  33  34
ENDBRANCH  32  33
ENDBRANCH  31  32
ENDBRANCH  30  31
ENDBRANCH  29  30
ENDBRANCH   1  29
TORSDOF 26
ENDMDL
MODEL 2
REMARK VINA RESULT:      -9.2      6.446     11.952
REMARK SMILES CC1(C)CSC[C@H]([NH2+][C@H](C(=O)OCCOCCOCCOCCOC(=O)c2ccc(-c3c4nc(c(-c5c(F)cc(S(=O)(=O)[O-])cc5F)c5ccc([nH]5)c(-c5c(F)cc(S(=O)(=O)[O-])cc5F)c5nc(c(-c6c(F)cc(S(=O)(=O)[O-])cc6F)c6ccc3[nH]6)C=C5)C=C4)cc2)c2ccccc2)C1
REMARK SMILES IDX 19 1 18 2 17 3 16 4 15 5 14 6 13 7 12 8 10 9 11 10 9 11 8 12
REMARK SMILES IDX 7 15 1 16 2 17 3 18 4 19 99 20 5 21 6 22 93 23 94 24 98 25
REMARK SMILES IDX 95 26 97 27 96 28 20 29 21 30 22 31 23 32 24 33 25 34 26 35
REMARK SMILES IDX 27 36 28 37 92 38 29 39 91 40 30 41 31 42 32 43 85 44 33 45
REMARK SMILES IDX 90 46 84 47 86 48 34 49 89 50 83 51 82 52 35 54 69 55 48 56
REMARK SMILES IDX 68 57 49 58 52 59 67 60 87 61 50 62 51 63 66 65 88 66 53 67
REMARK SMILES IDX 36 68 37 69 46 70 38 71 39 72 45 73 47 74 40 75 41 76 42 77
REMARK SMILES IDX 43 78 44 79 70 80 71 81 80 82 72 83 73 84 79 85 81 86 74 87
REMARK SMILES IDX 75 88 76 89 77 90 78 91 54 92 55 93 64 94 56 95 57 96 63 97
REMARK SMILES IDX 65 98 58 99 59 100 60 101 61 102 62 103
REMARK H PARENT 8 13 8 14 86 53 52 64
REMARK Flexibility Score: inf
ROOT
ATOM      1  C   UNL A   1      35.319  22.725  24.211  1.00  0.00     0.188 C 
ENDROOT
BRANCH   1   2
ATOM      2  O   UNL A   1      34.331  22.539  23.209  1.00  0.00    -0.377 OA
BRANCH   2   3
ATOM      3  C   UNL A   1      33.540  23.612  22.741  1.00  0.00     0.188 C 
BRANCH   3   4
ATOM      4  C   UNL A   1      32.359  23.959  23.642  1.00  0.00     0.188 C 
BRANCH   4   5
ATOM      5  O   UNL A   1      31.078  23.636  23.141  1.00  0.00    -0.376 OA
BRANCH   5   6
ATOM      6  C   UNL A   1      29.977  24.436  23.566  1.00  0.00     0.202 C 
BRANCH   6   7
ATOM      7  C   UNL A   1      30.157  25.892  24.056  1.00  0.00     0.261 C 
BRANCH   7   8
ATOM      8  O   UNL A   1      29.244  26.919  23.550  1.00  0.00    -0.459 OA
BRANCH   8   9
ATOM      9  C   UNL A   1      29.836  27.854  22.756  1.00  0.00     0.369 C 
ATOM     10  O   UNL A   1      30.499  27.496  21.773  1.00  0.00    -0.245 OA
BRANCH   9  11
ATOM     11  C   UNL A   1      29.794  29.378  23.157  1.00  0.00     0.325 C 
BRANCH  11  12
ATOM     12  N   UNL A   1      31.234  29.745  23.417  1.00  0.00    -0.328 N 
ATOM     13  H   UNL A   1      31.764  29.503  22.581  1.00  0.00     0.347 HD
ATOM     14  H   UNL A   1      31.202  30.738  23.653  1.00  0.00     0.347 HD
BRANCH  12  15
ATOM     15  C   UNL A   1      31.919  29.114  24.572  1.00  0.00     0.193 C 
ATOM     16  C   UNL A   1      32.152  28.592  27.769  1.00  0.00     0.012 C 
ATOM     17  C   UNL A   1      33.109  29.447  26.903  1.00  0.00    -0.021 C 
ATOM     18  C   UNL A   1      33.658  30.582  27.801  1.00  0.00     0.012 C 
ATOM     19  C   UNL A   1      34.328  28.639  26.421  1.00  0.00     0.076 C 
ATOM     20  C   UNL A   1      32.352  30.079  25.700  1.00  0.00     0.073 C 
ATOM     21  S   UNL A   1      33.922  27.309  25.262  1.00  0.00    -0.155 SA
ATOM     22  C   UNL A   1      33.113  28.332  24.001  1.00  0.00     0.134 C 
ENDBRANCH  12  15
ENDBRANCH  11  12
BRANCH  11  23
ATOM     23  C   UNL A   1      29.067  30.538  22.437  1.00  0.00     0.021 A 
ATOM     24  C   UNL A   1      28.401  30.449  21.221  1.00  0.00     0.010 A 
ATOM     25  C   UNL A   1      28.943  31.798  23.087  1.00  0.00     0.010 A 
ATOM     26  C   UNL A   1      27.881  31.595  20.582  1.00  0.00     0.001 A 
ATOM     27  C   UNL A   1      28.454  32.946  22.457  1.00  0.00     0.001 A 
ATOM     28  C   UNL A   1      27.961  32.852  21.172  1.00  0.00     0.000 A 
ENDBRANCH  11  23
ENDBRANCH   9  11
ENDBRANCH   8   9
ENDBRANCH   7   8
ENDBRANCH   6   7
ENDBRANCH   5   6
ENDBRANCH   4   5
ENDBRANCH   3   4
ENDBRANCH   2   3
ENDBRANCH   1   2
BRANCH   1  29
ATOM     29  C   UNL A   1      36.775  22.657  23.765  1.00  0.00     0.188 C 
BRANCH  29  30
ATOM     30  O   UNL A   1      37.770  22.624  24.793  1.00  0.00    -0.376 OA
BRANCH  30  31
ATOM     31  C   UNL A   1      37.833  21.481  25.643  1.00  0.00     0.202 C 
BRANCH  31  32
ATOM     32  C   UNL A   1      39.126  20.673  25.555  1.00  0.00     0.261 C 
BRANCH  32  33
ATOM     33  O   UNL A   1      40.060  21.028  26.587  1.00  0.00    -0.460 OA
BRANCH  33  34
ATOM     34  C   UNL A   1      41.323  20.573  26.397  1.00  0.00     0.338 C 
ATOM     35  O   UNL A   1      41.660  19.474  26.006  1.00  0.00    -0.246 OA
BRANCH  34  36
ATOM     36  C   UNL A   1      42.269  21.688  26.592  1.00  0.00     0.060 A 
ATOM     37  C   UNL A   1      42.774  21.916  27.880  1.00  0.00     0.016 A 
ATOM     38  C   UNL A   1      42.595  22.540  25.535  1.00  0.00     0.016 A 
ATOM     39  C   UNL A   1      43.570  23.031  28.126  1.00  0.00     0.010 A 
ATOM     40  C   UNL A   1      43.379  23.665  25.787  1.00  0.00     0.010 A 
ATOM     41  C   UNL A   1      43.832  23.934  27.090  1.00  0.00    -0.014 A 
BRANCH  41  42
ATOM     42  C   UNL A   1      44.412  25.259  27.398  1.00  0.00     0.031 A 
ATOM     43  C   UNL A   1      43.531  26.282  28.057  1.00  0.00     0.074 A 
ATOM     44  C   UNL A   1      45.689  25.536  27.089  1.00  0.00     0.049 A 
ATOM     45  N   UNL A   1      43.773  27.538  28.321  1.00  0.00    -0.248 NA
ATOM     46  C   UNL A   1      42.190  25.828  28.466  1.00  0.00     0.031 C 
ATOM     47  C   UNL A   1      46.637  24.597  26.492  1.00  0.00     0.029 A 
ATOM     48  N   UNL A   1      46.401  26.700  27.217  1.00  0.00    -0.354 N 
ATOM     49  C   UNL A   1      42.614  28.029  28.909  1.00  0.00     0.074 A 
ATOM     50  C   UNL A   1      41.658  26.944  28.940  1.00  0.00     0.031 C 
ATOM     51  C   UNL A   1      47.804  25.230  26.283  1.00  0.00     0.029 A 
ATOM     52  C   UNL A   1      47.668  26.627  26.691  1.00  0.00     0.049 A 
ATOM     53  H   UNL A   1      46.039  27.510  27.643  1.00  0.00     0.167 HD
ATOM     54  C   UNL A   1      42.374  29.274  29.383  1.00  0.00     0.037 A 
ATOM     55  C   UNL A   1      48.595  27.591  26.529  1.00  0.00     0.037 A 
ATOM     56  C   UNL A   1      43.340  30.339  29.340  1.00  0.00     0.049 A 
ATOM     57  C   UNL A   1      48.280  28.989  26.996  1.00  0.00     0.074 A 
ATOM     58  C   UNL A   1      43.215  31.634  29.807  1.00  0.00     0.029 A 
ATOM     59  N   UNL A   1      44.610  30.234  28.786  1.00  0.00    -0.354 N 
ATOM     60  N   UNL A   1      47.188  29.441  27.569  1.00  0.00    -0.248 NA
ATOM     61  C   UNL A   1      49.319  30.008  26.796  1.00  0.00     0.031 C 
ATOM     62  C   UNL A   1      44.384  32.329  29.481  1.00  0.00     0.029 A 
ATOM     63  C   UNL A   1      45.266  31.449  28.872  1.00  0.00     0.049 A 
ATOM     64  H   UNL A   1      44.986  29.414  28.392  1.00  0.00     0.167 HD
ATOM     65  C   UNL A   1      47.422  30.788  27.826  1.00  0.00     0.074 A 
ATOM     66  C   UNL A   1      48.761  31.074  27.354  1.00  0.00     0.031 C 
ATOM     67  C   UNL A   1      46.606  31.706  28.401  1.00  0.00     0.037 A 
BRANCH  54  68
ATOM     68  C   UNL A   1      41.011  29.557  29.954  1.00  0.00     0.058 A 
ATOM     69  C   UNL A   1      40.785  29.645  31.336  1.00  0.00     0.135 A 
ATOM     70  C   UNL A   1      39.917  29.773  29.099  1.00  0.00     0.135 A 
ATOM     71  F   UNL A   1      41.788  29.426  32.201  1.00  0.00    -0.206 F 
ATOM     72  C   UNL A   1      39.520  29.912  31.852  1.00  0.00     0.059 A 
ATOM     73  C   UNL A   1      38.650  30.071  29.591  1.00  0.00     0.059 A 
ATOM     74  F   UNL A   1      40.072  29.694  27.768  1.00  0.00    -0.206 F 
ATOM     75  C   UNL A   1      38.459  30.126  30.971  1.00  0.00     0.060 A 
BRANCH  75  76
ATOM     76  S   UNL A   1      36.828  30.483  31.657  1.00  0.00     0.124 S 
ATOM     77  O   UNL A   1      36.615  29.324  32.518  1.00  0.00    -0.237 OA
ATOM     78  O   UNL A   1      37.050  31.750  32.344  1.00  0.00    -0.237 OA
ATOM     79  O   UNL A   1      35.970  30.553  30.478  1.00  0.00    -0.744 OA
ENDBRANCH  75  76
ENDBRANCH  54  68
BRANCH  55  80
ATOM     80  C   UNL A   1      49.895  27.270  25.879  1.00  0.00     0.058 A 
ATOM     81  C   UNL A   1      50.990  26.823  26.632  1.00  0.00     0.135 A 
ATOM     82  C   UNL A   1      50.064  27.394  24.491  1.00  0.00     0.135 A 
ATOM     83  F   UNL A   1      50.881  26.697  27.963  1.00  0.00    -0.206 F 
ATOM     84  C   UNL A   1      52.210  26.522  26.035  1.00  0.00     0.059 A 
ATOM     85  C   UNL A   1      51.266  27.070  23.867  1.00  0.00     0.059 A 
ATOM     86  F   UNL A   1      49.045  27.807  23.722  1.00  0.00    -0.206 F 
ATOM     87  C   UNL A   1      52.336  26.644  24.651  1.00  0.00     0.060 A 
BRANCH  87  88
ATOM     88  S   UNL A   1      53.909  26.199  23.884  1.00  0.00     0.124 S 
ATOM     89  O   UNL A   1      54.670  27.434  24.037  1.00  0.00    -0.237 OA
ATOM     90  O   UNL A   1      54.341  25.074  24.707  1.00  0.00    -0.237 OA
ATOM     91  O   UNL A   1      53.530  25.857  22.516  1.00  0.00    -0.744 OA
ENDBRANCH  87  88
ENDBRANCH  55  80
BRANCH  67  92
ATOM     92  C   UNL A   1      47.147  33.098  28.592  1.00  0.00     0.058 A 
ATOM     93  C   UNL A   1      47.920  33.445  29.710  1.00  0.00     0.135 A 
ATOM     94  C   UNL A   1      46.946  34.075  27.603  1.00  0.00     0.135 A 
ATOM     95  F   UNL A   1      48.135  32.550  30.688  1.00  0.00    -0.206 F 
ATOM     96  C   UNL A   1      48.460  34.719  29.850  1.00  0.00     0.059 A 
ATOM     97  C   UNL A   1      47.505  35.345  27.707  1.00  0.00     0.059 A 
ATOM     98  F   UNL A   1      46.224  33.792  26.508  1.00  0.00    -0.206 F 
ATOM     99  C   UNL A   1      48.253  35.661  28.840  1.00  0.00     0.060 A 
BRANCH  99 100
ATOM    100  S   UNL A   1      49.000  37.293  29.013  1.00  0.00     0.124 S 
ATOM    101  O   UNL A   1      48.156  38.099  28.139  1.00  0.00    -0.237 OA
ATOM    102  O   UNL A   1      48.858  37.549  30.444  1.00  0.00    -0.237 OA
ATOM    103  O   UNL A   1      50.371  37.092  28.552  1.00  0.00    -0.744 OA
ENDBRANCH  99 100
ENDBRANCH  67  92
ENDBRANCH  41  42
ENDBRANCH  34  36
ENDBRANCH  33  34
ENDBRANCH  32  33
ENDBRANCH  31  32
ENDBRANCH  30  31
ENDBRANCH  29  30
ENDBRANCH   1  29
TORSDOF 26
ENDMDL
MODEL 3
REMARK VINA RESULT:      -8.5      6.000     12.813
REMARK SMILES CC1(C)CSC[C@H]([NH2+][C@H](C(=O)OCCOCCOCCOCCOC(=O)c2ccc(-c3c4nc(c(-c5c(F)cc(S(=O)(=O)[O-])cc5F)c5ccc([nH]5)c(-c5c(F)cc(S(=O)(=O)[O-])cc5F)c5nc(c(-c6c(F)cc(S(=O)(=O)[O-])cc6F)c6ccc3[nH]6)C=C5)C=C4)cc2)c2ccccc2)C1
REMARK SMILES IDX 19 1 18 2 17 3 16 4 15 5 14 6 13 7 12 8 10 9 11 10 9 11 8 12
REMARK SMILES IDX 7 15 1 16 2 17 3 18 4 19 99 20 5 21 6 22 93 23 94 24 98 25
REMARK SMILES IDX 95 26 97 27 96 28 20 29 21 30 22 31 23 32 24 33 25 34 26 35
REMARK SMILES IDX 27 36 28 37 92 38 29 39 91 40 30 41 31 42 32 43 85 44 33 45
REMARK SMILES IDX 90 46 84 47 86 48 34 49 89 50 83 51 82 52 35 54 69 55 48 56
REMARK SMILES IDX 68 57 49 58 52 59 67 60 87 61 50 62 51 63 66 65 88 66 53 67
REMARK SMILES IDX 36 68 37 69 46 70 38 71 39 72 45 73 47 74 40 75 41 76 42 77
REMARK SMILES IDX 43 78 44 79 70 80 71 81 80 82 72 83 73 84 79 85 81 86 74 87
REMARK SMILES IDX 75 88 76 89 77 90 78 91 54 92 55 93 64 94 56 95 57 96 63 97
REMARK SMILES IDX 65 98 58 99 59 100 60 101 61 102 62 103
REMARK H PARENT 8 13 8 14 86 53 52 64
REMARK Flexibility Score: inf
ROOT
ATOM      1  C   UNL A   1      34.110  23.032  24.691  1.00  0.00     0.188 C 
ENDROOT
BRANCH   1   2
ATOM      2  O   UNL A   1      33.508  24.235  24.238  1.00  0.00    -0.377 OA
BRANCH   2   3
ATOM      3  C   UNL A   1      34.174  25.478  24.332  1.00  0.00     0.188 C 
BRANCH   3   4
ATOM      4  C   UNL A   1      33.989  26.187  25.670  1.00  0.00     0.188 C 
BRANCH   4   5
ATOM      5  O   UNL A   1      32.888  27.068  25.759  1.00  0.00    -0.376 OA
BRANCH   5   6
ATOM      6  C   UNL A   1      33.157  28.468  25.777  1.00  0.00     0.202 C 
BRANCH   6   7
ATOM      7  C   UNL A   1      33.558  29.214  27.072  1.00  0.00     0.261 C 
BRANCH   7   8
ATOM      8  O   UNL A   1      34.981  29.336  27.396  1.00  0.00    -0.459 OA
BRANCH   8   9
ATOM      9  C   UNL A   1      35.294  30.433  28.141  1.00  0.00     0.369 C 
ATOM     10  O   UNL A   1      34.733  31.513  27.913  1.00  0.00    -0.245 OA
BRANCH   9  11
ATOM     11  C   UNL A   1      36.460  30.368  29.200  1.00  0.00     0.325 C 
BRANCH  11  12
ATOM     12  N   UNL A   1      35.802  30.708  30.515  1.00  0.00    -0.328 N 
ATOM     13  H   UNL A   1      34.876  31.076  30.303  1.00  0.00     0.347 HD
ATOM     14  H   UNL A   1      35.825  29.835  31.042  1.00  0.00     0.347 HD
BRANCH  12  15
ATOM     15  C   UNL A   1      36.476  31.691  31.401  1.00  0.00     0.193 C 
ATOM     16  C   UNL A   1      37.256  32.730  34.376  1.00  0.00     0.012 C 
ATOM     17  C   UNL A   1      36.253  33.395  33.402  1.00  0.00    -0.021 C 
ATOM     18  C   UNL A   1      35.161  34.081  34.258  1.00  0.00     0.012 C 
ATOM     19  C   UNL A   1      36.915  34.503  32.562  1.00  0.00     0.076 C 
ATOM     20  C   UNL A   1      35.581  32.331  32.488  1.00  0.00     0.073 C 
ATOM     21  S   UNL A   1      38.166  33.902  31.399  1.00  0.00    -0.155 SA
ATOM     22  C   UNL A   1      37.105  32.751  30.482  1.00  0.00     0.134 C 
ENDBRANCH  12  15
ENDBRANCH  11  12
BRANCH  11  23
ATOM     23  C   UNL A   1      37.511  29.252  29.401  1.00  0.00     0.021 A 
ATOM     24  C   UNL A   1      37.729  28.545  30.577  1.00  0.00     0.010 A 
ATOM     25  C   UNL A   1      38.268  28.792  28.287  1.00  0.00     0.010 A 
ATOM     26  C   UNL A   1      38.801  27.634  30.699  1.00  0.00     0.001 A 
ATOM     27  C   UNL A   1      39.348  27.912  28.398  1.00  0.00     0.001 A 
ATOM     28  C   UNL A   1      39.647  27.363  29.628  1.00  0.00     0.000 A 
ENDBRANCH  11  23
ENDBRANCH   9  11
ENDBRANCH   8   9
ENDBRANCH   7   8
ENDBRANCH   6   7
ENDBRANCH   5   6
ENDBRANCH   4   5
ENDBRANCH   3   4
ENDBRANCH   2   3
ENDBRANCH   1   2
BRANCH   1  29
ATOM     29  C   UNL A   1      35.366  22.572  23.961  1.00  0.00     0.188 C 
BRANCH  29  30
ATOM     30  O   UNL A   1      36.624  22.998  24.495  1.00  0.00    -0.376 OA
BRANCH  30  31
ATOM     31  C   UNL A   1      37.179  22.272  25.589  1.00  0.00     0.202 C 
BRANCH  31  32
ATOM     32  C   UNL A   1      38.519  21.591  25.307  1.00  0.00     0.261 C 
BRANCH  32  33
ATOM     33  O   UNL A   1      39.297  21.410  26.500  1.00  0.00    -0.460 OA
BRANCH  33  34
ATOM     34  C   UNL A   1      40.487  20.785  26.318  1.00  0.00     0.338 C 
ATOM     35  O   UNL A   1      40.671  19.624  26.012  1.00  0.00    -0.246 OA
BRANCH  34  36
ATOM     36  C   UNL A   1      41.570  21.783  26.395  1.00  0.00     0.060 A 
ATOM     37  C   UNL A   1      42.893  21.326  26.469  1.00  0.00     0.016 A 
ATOM     38  C   UNL A   1      41.280  23.147  26.469  1.00  0.00     0.016 A 
ATOM     39  C   UNL A   1      43.932  22.231  26.667  1.00  0.00     0.010 A 
ATOM     40  C   UNL A   1      42.320  24.051  26.684  1.00  0.00     0.010 A 
ATOM     41  C   UNL A   1      43.640  23.590  26.825  1.00  0.00    -0.014 A 
BRANCH  41  42
ATOM     42  C   UNL A   1      44.680  24.512  27.330  1.00  0.00     0.031 A 
ATOM     43  C   UNL A   1      44.582  24.978  28.755  1.00  0.00     0.074 A 
ATOM     44  C   UNL A   1      45.679  24.922  26.531  1.00  0.00     0.049 A 
ATOM     45  N   UNL A   1      45.301  25.866  29.388  1.00  0.00    -0.248 NA
ATOM     46  C   UNL A   1      43.521  24.366  29.574  1.00  0.00     0.031 C 
ATOM     47  C   UNL A   1      45.888  24.489  25.151  1.00  0.00     0.029 A 
ATOM     48  N   UNL A   1      46.694  25.813  26.765  1.00  0.00    -0.354 N 
ATOM     49  C   UNL A   1      44.772  25.932  30.671  1.00  0.00     0.074 A 
ATOM     50  C   UNL A   1      43.654  25.015  30.720  1.00  0.00     0.031 C 
ATOM     51  C   UNL A   1      46.955  25.136  24.649  1.00  0.00     0.029 A 
ATOM     52  C   UNL A   1      47.473  26.056  25.660  1.00  0.00     0.049 A 
ATOM     53  H   UNL A   1      46.849  26.238  27.639  1.00  0.00     0.167 HD
ATOM     54  C   UNL A   1      45.186  26.689  31.713  1.00  0.00     0.037 A 
ATOM     55  C   UNL A   1      48.466  26.948  25.480  1.00  0.00     0.037 A 
ATOM     56  C   UNL A   1      46.300  27.598  31.640  1.00  0.00     0.049 A 
ATOM     57  C   UNL A   1      48.864  27.835  26.632  1.00  0.00     0.074 A 
ATOM     58  C   UNL A   1      46.822  28.401  32.637  1.00  0.00     0.029 A 
ATOM     59  N   UNL A   1      47.058  27.830  30.500  1.00  0.00    -0.354 N 
ATOM     60  N   UNL A   1      48.372  27.878  27.848  1.00  0.00    -0.248 NA
ATOM     61  C   UNL A   1      49.951  28.793  26.390  1.00  0.00     0.031 C 
ATOM     62  C   UNL A   1      47.855  29.164  32.084  1.00  0.00     0.029 A 
ATOM     63  C   UNL A   1      48.023  28.788  30.760  1.00  0.00     0.049 A 
ATOM     64  H   UNL A   1      46.927  27.379  29.635  1.00  0.00     0.167 HD
ATOM     65  C   UNL A   1      49.109  28.845  28.525  1.00  0.00     0.074 A 
ATOM     66  C   UNL A   1      50.086  29.354  27.584  1.00  0.00     0.031 C 
ATOM     67  C   UNL A   1      48.991  29.272  29.807  1.00  0.00     0.037 A 
BRANCH  54  68
ATOM     68  C   UNL A   1      44.414  26.593  33.002  1.00  0.00     0.058 A 
ATOM     69  C   UNL A   1      44.791  25.718  34.033  1.00  0.00     0.135 A 
ATOM     70  C   UNL A   1      43.295  27.414  33.219  1.00  0.00     0.135 A 
ATOM     71  F   UNL A   1      45.839  24.895  33.872  1.00  0.00    -0.206 F 
ATOM     72  C   UNL A   1      44.071  25.641  35.221  1.00  0.00     0.059 A 
ATOM     73  C   UNL A   1      42.580  27.377  34.412  1.00  0.00     0.059 A 
ATOM     74  F   UNL A   1      42.885  28.266  32.266  1.00  0.00    -0.206 F 
ATOM     75  C   UNL A   1      42.968  26.477  35.403  1.00  0.00     0.060 A 
BRANCH  75  76
ATOM     76  S   UNL A   1      42.055  26.372  36.956  1.00  0.00     0.124 S 
ATOM     77  O   UNL A   1      43.121  26.566  37.935  1.00  0.00    -0.237 OA
ATOM     78  O   UNL A   1      41.102  27.470  36.832  1.00  0.00    -0.237 OA
ATOM     79  O   UNL A   1      41.475  25.033  36.921  1.00  0.00    -0.744 OA
ENDBRANCH  75  76
ENDBRANCH  54  68
BRANCH  55  80
ATOM     80  C   UNL A   1      49.137  27.057  24.156  1.00  0.00     0.058 A 
ATOM     81  C   UNL A   1      50.440  26.577  23.962  1.00  0.00     0.135 A 
ATOM     82  C   UNL A   1      48.483  27.635  23.056  1.00  0.00     0.135 A 
ATOM     83  F   UNL A   1      51.110  26.025  24.985  1.00  0.00    -0.206 F 
ATOM     84  C   UNL A   1      51.076  26.675  22.729  1.00  0.00     0.059 A 
ATOM     85  C   UNL A   1      49.089  27.717  21.805  1.00  0.00     0.059 A 
ATOM     86  F   UNL A   1      47.232  28.100  23.183  1.00  0.00    -0.206 F 
ATOM     87  C   UNL A   1      50.390  27.243  21.655  1.00  0.00     0.060 A 
BRANCH  87  88
ATOM     88  S   UNL A   1      51.209  27.316  20.047  1.00  0.00     0.124 S 
ATOM     89  O   UNL A   1      51.511  28.739  19.937  1.00  0.00    -0.237 OA
ATOM     90  O   UNL A   1      52.353  26.433  20.249  1.00  0.00    -0.237 OA
ATOM     91  O   UNL A   1      50.192  26.813  19.129  1.00  0.00    -0.744 OA
ENDBRANCH  87  88
ENDBRANCH  55  80
BRANCH  67  92
ATOM     92  C   UNL A   1      49.966  30.315  30.285  1.00  0.00     0.058 A 
ATOM     93  C   UNL A   1      51.242  29.974  30.760  1.00  0.00     0.135 A 
ATOM     94  C   UNL A   1      49.640  31.679  30.199  1.00  0.00     0.135 A 
ATOM     95  F   UNL A   1      51.600  28.685  30.870  1.00  0.00    -0.206 F 
ATOM     96  C   UNL A   1      52.154  30.949  31.150  1.00  0.00     0.059 A 
ATOM     97  C   UNL A   1      50.549  32.671  30.552  1.00  0.00     0.059 A 
ATOM     98  F   UNL A   1      48.437  32.060  29.741  1.00  0.00    -0.206 F 
ATOM     99  C   UNL A   1      51.801  32.295  31.036  1.00  0.00     0.060 A 
BRANCH  99 100
ATOM    100  S   UNL A   1      53.013  33.549  31.500  1.00  0.00     0.124 S 
ATOM    101  O   UNL A   1      52.153  34.645  31.932  1.00  0.00    -0.237 OA
ATOM    102  O   UNL A   1      53.764  32.877  32.557  1.00  0.00    -0.237 OA
ATOM    103  O   UNL A   1      53.754  33.781  30.264  1.00  0.00    -0.744 OA
ENDBRANCH  99 100
ENDBRANCH  67  92
ENDBRANCH  41  42
ENDBRANCH  34  36
ENDBRANCH  33  34
ENDBRANCH  32  33
ENDBRANCH  31  32
ENDBRANCH  30  31
ENDBRANCH  29  30
ENDBRANCH   1  29
TORSDOF 26
ENDMDL
