MODEL 1
REMARK VINA RESULT:      -8.0      0.000      0.000
REMARK SMILES C#CC[N@@H+](CC(=O)OCCOCCOCCOCCOC(=O)c1ccc(-c2c3nc(c(-c4c(F)cc(S(=O)(=O)[O-])cc4F)c4ccc([nH]4)c(-c4c(F)cc(S(=O)(=O)[O-])cc4F)c4nc(c(-c5c(F)cc(S(=O)(=O)[O-])cc5F)c5ccc2[nH]5)C=C4)C=C3)cc1)Cc1cn(CC)c2ccccc12
REMARK SMILES IDX 13 1 12 2 11 3 10 4 9 5 8 6 6 7 7 8 5 9 4 10 3 12 2 13 1 14
REMARK SMILES IDX 89 15 90 16 91 17 100 18 92 19 95 20 99 21 96 22 98 23 97 24
REMARK SMILES IDX 93 25 94 26 14 27 15 28 16 29 17 30 18 31 19 32 20 33 21 34
REMARK SMILES IDX 22 35 23 36 24 37 88 38 25 39 87 40 26 41 27 42 28 43 81 44
REMARK SMILES IDX 29 45 86 46 80 47 82 48 30 49 85 50 79 51 78 52 31 54 65 55
REMARK SMILES IDX 44 56 64 57 45 58 48 59 63 60 83 61 46 62 47 63 62 65 84 66
REMARK SMILES IDX 49 67 32 68 33 69 42 70 34 71 35 72 41 73 43 74 36 75 37 76
REMARK SMILES IDX 38 77 39 78 40 79 66 80 67 81 76 82 68 83 69 84 75 85 77 86
REMARK SMILES IDX 70 87 71 88 72 89 73 90 74 91 50 92 51 93 60 94 52 95 53 96
REMARK SMILES IDX 59 97 61 98 54 99 55 100 56 101 57 102 58 103
REMARK H PARENT 4 11 82 53 48 64
REMARK Flexibility Score: inf
ROOT
ATOM      1  C   UNL A   1      34.773  25.024  24.983  1.00  0.00     0.188 C 
ENDROOT
BRANCH   1   2
ATOM      2  C   UNL A   1      33.899  25.529  26.126  1.00  0.00     0.188 C 
BRANCH   2   3
ATOM      3  O   UNL A   1      33.821  26.939  26.209  1.00  0.00    -0.376 OA
BRANCH   3   4
ATOM      4  C   UNL A   1      32.530  27.555  26.215  1.00  0.00     0.202 C 
BRANCH   4   5
ATOM      5  C   UNL A   1      31.302  26.901  26.889  1.00  0.00     0.261 C 
BRANCH   5   6
ATOM      6  O   UNL A   1      30.980  25.517  26.554  1.00  0.00    -0.459 OA
BRANCH   6   7
ATOM      7  C   UNL A   1      29.667  25.320  26.214  1.00  0.00     0.361 C 
ATOM      8  O   UNL A   1      28.811  25.071  27.070  1.00  0.00    -0.245 OA
BRANCH   7   9
ATOM      9  C   UNL A   1      29.243  25.299  24.723  1.00  0.00     0.387 C 
BRANCH   9  10
ATOM     10  N   UNL A   1      29.901  24.472  23.663  1.00  0.00    -0.312 N 
ATOM     11  H   UNL A   1      29.115  24.066  23.155  1.00  0.00     0.349 HD
BRANCH  10  12
ATOM     12  C   UNL A   1      30.744  23.528  24.318  1.00  0.00     0.354 C 
BRANCH  12  13
ATOM     13  C   UNL A   1      31.852  22.791  23.585  1.00  0.00    -0.047 C 
ATOM     14  C   UNL A   1      32.802  22.158  22.955  1.00  0.00     0.010 C 
ENDBRANCH  12  13
ENDBRANCH  10  12
BRANCH  10  15
ATOM     15  C   UNL A   1      30.615  25.115  22.554  1.00  0.00     0.302 C 
BRANCH  15  16
ATOM     16  C   UNL A   1      30.871  26.539  22.864  1.00  0.00     0.032 A 
ATOM     17  C   UNL A   1      29.870  27.467  22.989  1.00  0.00     0.096 A 
ATOM     18  C   UNL A   1      32.093  27.259  22.835  1.00  0.00     0.008 A 
ATOM     19  N   UNL A   1      30.393  28.709  22.814  1.00  0.00    -0.347 N 
ATOM     20  C   UNL A   1      31.767  28.624  22.833  1.00  0.00     0.048 A 
ATOM     21  C   UNL A   1      33.433  26.870  22.660  1.00  0.00     0.011 A 
ATOM     22  C   UNL A   1      32.744  29.617  22.732  1.00  0.00     0.027 A 
ATOM     23  C   UNL A   1      34.410  27.854  22.516  1.00  0.00     0.001 A 
ATOM     24  C   UNL A   1      34.070  29.204  22.568  1.00  0.00     0.002 A 
BRANCH  19  25
ATOM     25  C   UNL A   1      29.591  29.806  22.300  1.00  0.00     0.119 C 
ATOM     26  C   UNL A   1      29.218  30.828  23.349  1.00  0.00     0.027 C 
ENDBRANCH  19  25
ENDBRANCH  15  16
ENDBRANCH  10  15
ENDBRANCH   9  10
ENDBRANCH   7   9
ENDBRANCH   6   7
ENDBRANCH   5   6
ENDBRANCH   4   5
ENDBRANCH   3   4
ENDBRANCH   2   3
ENDBRANCH   1   2
BRANCH   1  27
ATOM     27  O   UNL A   1      35.857  24.213  25.420  1.00  0.00    -0.377 OA
BRANCH  27  28
ATOM     28  C   UNL A   1      35.538  22.869  25.781  1.00  0.00     0.188 C 
BRANCH  28  29
ATOM     29  C   UNL A   1      35.845  21.804  24.723  1.00  0.00     0.188 C 
BRANCH  29  30
ATOM     30  O   UNL A   1      37.219  21.489  24.488  1.00  0.00    -0.376 OA
BRANCH  30  31
ATOM     31  C   UNL A   1      37.949  20.832  25.520  1.00  0.00     0.202 C 
BRANCH  31  32
ATOM     32  C   UNL A   1      39.338  21.391  25.841  1.00  0.00     0.261 C 
BRANCH  32  33
ATOM     33  O   UNL A   1      40.077  20.602  26.783  1.00  0.00    -0.460 OA
BRANCH  33  34
ATOM     34  C   UNL A   1      41.291  20.187  26.343  1.00  0.00     0.338 C 
ATOM     35  O   UNL A   1      41.552  19.169  25.734  1.00  0.00    -0.246 OA
BRANCH  34  36
ATOM     36  C   UNL A   1      42.274  21.255  26.595  1.00  0.00     0.060 A 
ATOM     37  C   UNL A   1      42.507  21.669  27.914  1.00  0.00     0.016 A 
ATOM     38  C   UNL A   1      42.880  21.905  25.521  1.00  0.00     0.016 A 
ATOM     39  C   UNL A   1      43.318  22.767  28.163  1.00  0.00     0.010 A 
ATOM     40  C   UNL A   1      43.668  23.027  25.768  1.00  0.00     0.010 A 
ATOM     41  C   UNL A   1      43.849  23.482  27.085  1.00  0.00    -0.014 A 
BRANCH  41  42
ATOM     42  C   UNL A   1      44.390  24.834  27.320  1.00  0.00     0.031 A 
ATOM     43  C   UNL A   1      43.433  25.905  27.762  1.00  0.00     0.074 A 
ATOM     44  C   UNL A   1      45.698  25.083  27.157  1.00  0.00     0.049 A 
ATOM     45  N   UNL A   1      43.642  27.182  27.935  1.00  0.00    -0.248 NA
ATOM     46  C   UNL A   1      42.049  25.477  28.038  1.00  0.00     0.031 C 
ATOM     47  C   UNL A   1      46.707  24.091  26.790  1.00  0.00     0.029 A 
ATOM     48  N   UNL A   1      46.398  26.255  27.270  1.00  0.00    -0.354 N 
ATOM     49  C   UNL A   1      42.418  27.711  28.326  1.00  0.00     0.074 A 
ATOM     50  C   UNL A   1      41.464  26.627  28.338  1.00  0.00     0.031 C 
ATOM     51  C   UNL A   1      47.898  24.704  26.683  1.00  0.00     0.029 A 
ATOM     52  C   UNL A   1      47.723  26.133  26.934  1.00  0.00     0.049 A 
ATOM     53  H   UNL A   1      45.990  27.101  27.562  1.00  0.00     0.167 HD
ATOM     54  C   UNL A   1      42.125  28.992  28.650  1.00  0.00     0.037 A 
ATOM     55  C   UNL A   1      48.672  27.080  26.812  1.00  0.00     0.037 A 
ATOM     56  C   UNL A   1      43.095  30.054  28.629  1.00  0.00     0.049 A 
ATOM     57  C   UNL A   1      48.302  28.513  27.102  1.00  0.00     0.074 A 
ATOM     58  C   UNL A   1      42.918  31.389  28.945  1.00  0.00     0.029 A 
ATOM     59  N   UNL A   1      44.425  29.901  28.263  1.00  0.00    -0.354 N 
ATOM     60  N   UNL A   1      47.145  29.008  27.480  1.00  0.00    -0.248 NA
ATOM     61  C   UNL A   1      49.364  29.515  26.951  1.00  0.00     0.031 C 
ATOM     62  C   UNL A   1      44.126  32.053  28.714  1.00  0.00     0.029 A 
ATOM     63  C   UNL A   1      45.074  31.122  28.318  1.00  0.00     0.049 A 
ATOM     64  H   UNL A   1      44.845  29.049  28.002  1.00  0.00     0.167 HD
ATOM     65  C   UNL A   1      47.349  30.374  27.642  1.00  0.00     0.074 A 
ATOM     66  C   UNL A   1      48.743  30.624  27.333  1.00  0.00     0.031 C 
ATOM     67  C   UNL A   1      46.468  31.337  28.013  1.00  0.00     0.037 A 
BRANCH  54  68
ATOM     68  C   UNL A   1      40.703  29.315  29.018  1.00  0.00     0.058 A 
ATOM     69  C   UNL A   1      39.701  29.472  28.048  1.00  0.00     0.135 A 
ATOM     70  C   UNL A   1      40.331  29.436  30.368  1.00  0.00     0.135 A 
ATOM     71  F   UNL A   1      40.003  29.392  26.742  1.00  0.00    -0.206 F 
ATOM     72  C   UNL A   1      38.384  29.756  28.401  1.00  0.00     0.059 A 
ATOM     73  C   UNL A   1      39.015  29.690  30.744  1.00  0.00     0.059 A 
ATOM     74  F   UNL A   1      41.251  29.306  31.336  1.00  0.00    -0.206 F 
ATOM     75  C   UNL A   1      38.051  29.858  29.753  1.00  0.00     0.060 A 
BRANCH  75  76
ATOM     76  S   UNL A   1      36.334  30.203  30.193  1.00  0.00     0.124 S 
ATOM     77  O   UNL A   1      36.171  29.390  31.394  1.00  0.00    -0.237 OA
ATOM     78  O   UNL A   1      36.352  31.647  30.403  1.00  0.00    -0.237 OA
ATOM     79  O   UNL A   1      35.586  29.750  29.024  1.00  0.00    -0.744 OA
ENDBRANCH  75  76
ENDBRANCH  54  68
BRANCH  55  80
ATOM     80  C   UNL A   1      50.045  26.711  26.380  1.00  0.00     0.058 A 
ATOM     81  C   UNL A   1      51.030  26.365  27.314  1.00  0.00     0.135 A 
ATOM     82  C   UNL A   1      50.401  26.695  25.021  1.00  0.00     0.135 A 
ATOM     83  F   UNL A   1      50.743  26.371  28.625  1.00  0.00    -0.206 F 
ATOM     84  C   UNL A   1      52.324  26.035  26.923  1.00  0.00     0.059 A 
ATOM     85  C   UNL A   1      51.678  26.340  24.602  1.00  0.00     0.059 A 
ATOM     86  F   UNL A   1      49.492  27.003  24.083  1.00  0.00    -0.206 F 
ATOM     87  C   UNL A   1      52.637  26.024  25.562  1.00  0.00     0.060 A 
BRANCH  87  88
ATOM     88  S   UNL A   1      54.309  25.556  25.066  1.00  0.00     0.124 S 
ATOM     89  O   UNL A   1      54.269  24.107  25.230  1.00  0.00    -0.237 OA
ATOM     90  O   UNL A   1      54.366  26.043  23.692  1.00  0.00    -0.237 OA
ATOM     91  O   UNL A   1      55.154  26.276  26.014  1.00  0.00    -0.744 OA
ENDBRANCH  87  88
ENDBRANCH  55  80
BRANCH  67  92
ATOM     92  C   UNL A   1      46.995  32.741  28.144  1.00  0.00     0.058 A 
ATOM     93  C   UNL A   1      47.673  33.172  29.293  1.00  0.00     0.135 A 
ATOM     94  C   UNL A   1      46.867  33.646  27.077  1.00  0.00     0.135 A 
ATOM     95  F   UNL A   1      47.818  32.349  30.343  1.00  0.00    -0.206 F 
ATOM     96  C   UNL A   1      48.182  34.463  29.393  1.00  0.00     0.059 A 
ATOM     97  C   UNL A   1      47.399  34.929  27.141  1.00  0.00     0.059 A 
ATOM     98  F   UNL A   1      46.238  33.279  25.949  1.00  0.00    -0.206 F 
ATOM     99  C   UNL A   1      48.043  35.333  28.309  1.00  0.00     0.060 A 
BRANCH  99 100
ATOM    100  S   UNL A   1      48.738  36.992  28.440  1.00  0.00     0.124 S 
ATOM    101  O   UNL A   1      49.034  37.076  29.866  1.00  0.00    -0.237 OA
ATOM    102  O   UNL A   1      49.898  36.915  27.555  1.00  0.00    -0.237 OA
ATOM    103  O   UNL A   1      47.657  37.854  27.971  1.00  0.00    -0.744 OA
ENDBRANCH  99 100
ENDBRANCH  67  92
ENDBRANCH  41  42
ENDBRANCH  34  36
ENDBRANCH  33  34
ENDBRANCH  32  33
ENDBRANCH  31  32
ENDBRANCH  30  31
ENDBRANCH  29  30
ENDBRANCH  28  29
ENDBRANCH  27  28
ENDBRANCH   1  27
TORSDOF 29
ENDMDL
MODEL 2
REMARK VINA RESULT:      -8.0      7.319     16.983
REMARK SMILES C#CC[N@@H+](CC(=O)OCCOCCOCCOCCOC(=O)c1ccc(-c2c3nc(c(-c4c(F)cc(S(=O)(=O)[O-])cc4F)c4ccc([nH]4)c(-c4c(F)cc(S(=O)(=O)[O-])cc4F)c4nc(c(-c5c(F)cc(S(=O)(=O)[O-])cc5F)c5ccc2[nH]5)C=C4)C=C3)cc1)Cc1cn(CC)c2ccccc12
REMARK SMILES IDX 13 1 12 2 11 3 10 4 9 5 8 6 6 7 7 8 5 9 4 10 3 12 2 13 1 14
REMARK SMILES IDX 89 15 90 16 91 17 100 18 92 19 95 20 99 21 96 22 98 23 97 24
REMARK SMILES IDX 93 25 94 26 14 27 15 28 16 29 17 30 18 31 19 32 20 33 21 34
REMARK SMILES IDX 22 35 23 36 24 37 88 38 25 39 87 40 26 41 27 42 28 43 81 44
REMARK SMILES IDX 29 45 86 46 80 47 82 48 30 49 85 50 79 51 78 52 31 54 65 55
REMARK SMILES IDX 44 56 64 57 45 58 48 59 63 60 83 61 46 62 47 63 62 65 84 66
REMARK SMILES IDX 49 67 32 68 33 69 42 70 34 71 35 72 41 73 43 74 36 75 37 76
REMARK SMILES IDX 38 77 39 78 40 79 66 80 67 81 76 82 68 83 69 84 75 85 77 86
REMARK SMILES IDX 70 87 71 88 72 89 73 90 74 91 50 92 51 93 60 94 52 95 53 96
REMARK SMILES IDX 59 97 61 98 54 99 55 100 56 101 57 102 58 103
REMARK H PARENT 4 11 82 53 48 64
REMARK Flexibility Score: inf
ROOT
ATOM      1  C   UNL A   1      46.833  42.806  26.598  1.00  0.00     0.188 C 
ENDROOT
BRANCH   1   2
ATOM      2  C   UNL A   1      45.983  44.019  26.964  1.00  0.00     0.188 C 
BRANCH   2   3
ATOM      3  O   UNL A   1      46.426  45.228  26.378  1.00  0.00    -0.376 OA
BRANCH   3   4
ATOM      4  C   UNL A   1      47.409  45.167  25.341  1.00  0.00     0.202 C 
BRANCH   4   5
ATOM      5  C   UNL A   1      47.075  44.691  23.908  1.00  0.00     0.261 C 
BRANCH   5   6
ATOM      6  O   UNL A   1      47.449  45.547  22.787  1.00  0.00    -0.459 OA
BRANCH   6   7
ATOM      7  C   UNL A   1      46.453  45.714  21.860  1.00  0.00     0.361 C 
ATOM      8  O   UNL A   1      45.842  46.783  21.758  1.00  0.00    -0.245 OA
BRANCH   7   9
ATOM      9  C   UNL A   1      45.994  44.519  20.985  1.00  0.00     0.387 C 
BRANCH   9  10
ATOM     10  N   UNL A   1      45.016  44.617  19.857  1.00  0.00    -0.312 N 
ATOM     11  H   UNL A   1      44.615  45.548  19.969  1.00  0.00     0.349 HD
BRANCH  10  12
ATOM     12  C   UNL A   1      44.090  43.542  19.999  1.00  0.00     0.354 C 
BRANCH  12  13
ATOM     13  C   UNL A   1      42.593  43.740  19.827  1.00  0.00    -0.047 C 
ATOM     14  C   UNL A   1      41.308  43.909  19.680  1.00  0.00     0.010 C 
ENDBRANCH  12  13
ENDBRANCH  10  12
BRANCH  10  15
ATOM     15  C   UNL A   1      45.487  44.709  18.470  1.00  0.00     0.302 C 
BRANCH  15  16
ATOM     16  C   UNL A   1      45.159  46.037  17.904  1.00  0.00     0.032 A 
ATOM     17  C   UNL A   1      45.867  47.171  18.203  1.00  0.00     0.096 A 
ATOM     18  C   UNL A   1      43.993  46.456  17.213  1.00  0.00     0.008 A 
ATOM     19  N   UNL A   1      45.100  48.259  17.933  1.00  0.00    -0.347 N 
ATOM     20  C   UNL A   1      43.992  47.859  17.219  1.00  0.00     0.048 A 
ATOM     21  C   UNL A   1      42.872  45.768  16.716  1.00  0.00     0.011 A 
ATOM     22  C   UNL A   1      42.937  48.599  16.681  1.00  0.00     0.027 A 
ATOM     23  C   UNL A   1      41.795  46.499  16.217  1.00  0.00     0.001 A 
ATOM     24  C   UNL A   1      41.837  47.892  16.187  1.00  0.00     0.002 A 
BRANCH  19  25
ATOM     25  C   UNL A   1      45.273  49.510  18.652  1.00  0.00     0.119 C 
ATOM     26  C   UNL A   1      44.488  49.580  19.941  1.00  0.00     0.027 C 
ENDBRANCH  19  25
ENDBRANCH  15  16
ENDBRANCH  10  15
ENDBRANCH   9  10
ENDBRANCH   7   9
ENDBRANCH   6   7
ENDBRANCH   5   6
ENDBRANCH   4   5
ENDBRANCH   3   4
ENDBRANCH   2   3
ENDBRANCH   1   2
BRANCH   1  27
ATOM     27  O   UNL A   1      46.954  41.865  27.658  1.00  0.00    -0.377 OA
BRANCH  27  28
ATOM     28  C   UNL A   1      46.724  40.497  27.321  1.00  0.00     0.188 C 
BRANCH  28  29
ATOM     29  C   UNL A   1      47.644  39.479  28.002  1.00  0.00     0.188 C 
BRANCH  29  30
ATOM     30  O   UNL A   1      48.374  39.918  29.150  1.00  0.00    -0.376 OA
BRANCH  30  31
ATOM     31  C   UNL A   1      49.341  39.038  29.714  1.00  0.00     0.202 C 
BRANCH  31  32
ATOM     32  C   UNL A   1      50.093  38.128  28.737  1.00  0.00     0.261 C 
BRANCH  32  33
ATOM     33  O   UNL A   1      49.448  36.870  28.504  1.00  0.00    -0.460 OA
BRANCH  33  34
ATOM     34  C   UNL A   1      49.831  35.873  29.341  1.00  0.00     0.338 C 
ATOM     35  O   UNL A   1      50.778  35.866  30.102  1.00  0.00    -0.246 OA
BRANCH  34  36
ATOM     36  C   UNL A   1      48.815  34.807  29.301  1.00  0.00     0.060 A 
ATOM     37  C   UNL A   1      48.646  33.985  30.423  1.00  0.00     0.016 A 
ATOM     38  C   UNL A   1      48.111  34.566  28.122  1.00  0.00     0.016 A 
ATOM     39  C   UNL A   1      47.799  32.887  30.358  1.00  0.00     0.010 A 
ATOM     40  C   UNL A   1      47.287  33.446  28.044  1.00  0.00     0.010 A 
ATOM     41  C   UNL A   1      47.167  32.584  29.148  1.00  0.00    -0.014 A 
BRANCH  41  42
ATOM     42  C   UNL A   1      46.578  31.245  28.965  1.00  0.00     0.031 A 
ATOM     43  C   UNL A   1      47.459  30.159  28.418  1.00  0.00     0.074 A 
ATOM     44  C   UNL A   1      45.298  31.012  29.297  1.00  0.00     0.049 A 
ATOM     45  N   UNL A   1      47.152  28.937  28.076  1.00  0.00    -0.248 NA
ATOM     46  C   UNL A   1      48.880  30.501  28.222  1.00  0.00     0.031 C 
ATOM     47  C   UNL A   1      44.388  31.990  29.891  1.00  0.00     0.029 A 
ATOM     48  N   UNL A   1      44.542  29.878  29.167  1.00  0.00    -0.354 N 
ATOM     49  C   UNL A   1      48.334  28.370  27.612  1.00  0.00     0.074 A 
ATOM     50  C   UNL A   1      49.357  29.387  27.689  1.00  0.00     0.031 C 
ATOM     51  C   UNL A   1      43.183  31.418  30.052  1.00  0.00     0.029 A 
ATOM     52  C   UNL A   1      43.231  30.052  29.536  1.00  0.00     0.049 A 
ATOM     53  H   UNL A   1      44.902  29.023  28.842  1.00  0.00     0.167 HD
ATOM     54  C   UNL A   1      48.540  27.109  27.167  1.00  0.00     0.037 A 
ATOM     55  C   UNL A   1      42.187  29.208  29.432  1.00  0.00     0.037 A 
ATOM     56  C   UNL A   1      47.502  26.116  27.100  1.00  0.00     0.049 A 
ATOM     57  C   UNL A   1      42.425  27.834  28.860  1.00  0.00     0.074 A 
ATOM     58  C   UNL A   1      47.592  24.802  26.676  1.00  0.00     0.029 A 
ATOM     59  N   UNL A   1      46.179  26.331  27.461  1.00  0.00    -0.354 N 
ATOM     60  N   UNL A   1      43.546  27.299  28.432  1.00  0.00    -0.248 NA
ATOM     61  C   UNL A   1      41.260  26.947  28.758  1.00  0.00     0.031 C 
ATOM     62  C   UNL A   1      46.313  24.242  26.726  1.00  0.00     0.029 A 
ATOM     63  C   UNL A   1      45.436  25.184  27.244  1.00  0.00     0.049 A 
ATOM     64  H   UNL A   1      45.821  27.176  27.820  1.00  0.00     0.167 HD
ATOM     65  C   UNL A   1      43.226  26.004  28.038  1.00  0.00     0.074 A 
ATOM     66  C   UNL A   1      41.809  25.833  28.293  1.00  0.00     0.031 C 
ATOM     67  C   UNL A   1      44.027  25.041  27.515  1.00  0.00     0.037 A 
BRANCH  54  68
ATOM     68  C   UNL A   1      49.921  26.749  26.692  1.00  0.00     0.058 A 
ATOM     69  C   UNL A   1      50.906  26.267  27.568  1.00  0.00     0.135 A 
ATOM     70  C   UNL A   1      50.252  26.856  25.331  1.00  0.00     0.135 A 
ATOM     71  F   UNL A   1      50.654  26.167  28.883  1.00  0.00    -0.206 F 
ATOM     72  C   UNL A   1      52.177  25.922  27.115  1.00  0.00     0.059 A 
ATOM     73  C   UNL A   1      51.506  26.489  24.852  1.00  0.00     0.059 A 
ATOM     74  F   UNL A   1      49.351  27.321  24.451  1.00  0.00    -0.206 F 
ATOM     75  C   UNL A   1      52.465  26.032  25.753  1.00  0.00     0.060 A 
BRANCH  75  76
ATOM     76  S   UNL A   1      54.110  25.557  25.180  1.00  0.00     0.124 S 
ATOM     77  O   UNL A   1      54.857  25.523  26.433  1.00  0.00    -0.237 OA
ATOM     78  O   UNL A   1      53.859  24.261  24.557  1.00  0.00    -0.237 OA
ATOM     79  O   UNL A   1      54.474  26.632  24.262  1.00  0.00    -0.744 OA
ENDBRANCH  75  76
ENDBRANCH  54  68
BRANCH  55  80
ATOM     80  C   UNL A   1      40.831  29.642  29.857  1.00  0.00     0.058 A 
ATOM     81  C   UNL A   1      40.517  29.820  31.211  1.00  0.00     0.135 A 
ATOM     82  C   UNL A   1      39.817  29.889  28.915  1.00  0.00     0.135 A 
ATOM     83  F   UNL A   1      41.448  29.591  32.150  1.00  0.00    -0.206 F 
ATOM     84  C   UNL A   1      39.247  30.209  31.622  1.00  0.00     0.059 A 
ATOM     85  C   UNL A   1      38.548  30.308  29.298  1.00  0.00     0.059 A 
ATOM     86  F   UNL A   1      40.068  29.749  27.604  1.00  0.00    -0.206 F 
ATOM     87  C   UNL A   1      38.268  30.452  30.655  1.00  0.00     0.060 A 
BRANCH  87  88
ATOM     88  S   UNL A   1      36.634  30.994  31.199  1.00  0.00     0.124 S 
ATOM     89  O   UNL A   1      35.967  29.719  31.439  1.00  0.00    -0.237 OA
ATOM     90  O   UNL A   1      36.954  31.782  32.384  1.00  0.00    -0.237 OA
ATOM     91  O   UNL A   1      36.139  31.762  30.060  1.00  0.00    -0.744 OA
ENDBRANCH  87  88
ENDBRANCH  55  80
BRANCH  67  92
ATOM     92  C   UNL A   1      43.398  23.706  27.223  1.00  0.00     0.058 A 
ATOM     93  C   UNL A   1      42.988  23.348  25.930  1.00  0.00     0.135 A 
ATOM     94  C   UNL A   1      43.260  22.751  28.244  1.00  0.00     0.135 A 
ATOM     95  F   UNL A   1      43.093  24.225  24.919  1.00  0.00    -0.206 F 
ATOM     96  C   UNL A   1      42.435  22.100  25.664  1.00  0.00     0.059 A 
ATOM     97  C   UNL A   1      42.742  21.485  27.995  1.00  0.00     0.059 A 
ATOM     98  F   UNL A   1      43.649  23.038  29.497  1.00  0.00    -0.206 F 
ATOM     99  C   UNL A   1      42.320  21.173  26.703  1.00  0.00     0.060 A 
BRANCH  99 100
ATOM    100  S   UNL A   1      41.632  19.546  26.337  1.00  0.00     0.124 S 
ATOM    101  O   UNL A   1      42.389  19.168  25.148  1.00  0.00    -0.237 OA
ATOM    102  O   UNL A   1      41.943  18.796  27.551  1.00  0.00    -0.237 OA
ATOM    103  O   UNL A   1      40.214  19.816  26.119  1.00  0.00    -0.744 OA
ENDBRANCH  99 100
ENDBRANCH  67  92
ENDBRANCH  41  42
ENDBRANCH  34  36
ENDBRANCH  33  34
ENDBRANCH  32  33
ENDBRANCH  31  32
ENDBRANCH  30  31
ENDBRANCH  29  30
ENDBRANCH  28  29
ENDBRANCH  27  28
ENDBRANCH   1  27
TORSDOF 29
ENDMDL
MODEL 3
REMARK VINA RESULT:      -7.9      6.200     10.710
REMARK SMILES C#CC[N@@H+](CC(=O)OCCOCCOCCOCCOC(=O)c1ccc(-c2c3nc(c(-c4c(F)cc(S(=O)(=O)[O-])cc4F)c4ccc([nH]4)c(-c4c(F)cc(S(=O)(=O)[O-])cc4F)c4nc(c(-c5c(F)cc(S(=O)(=O)[O-])cc5F)c5ccc2[nH]5)C=C4)C=C3)cc1)Cc1cn(CC)c2ccccc12
REMARK SMILES IDX 13 1 12 2 11 3 10 4 9 5 8 6 6 7 7 8 5 9 4 10 3 12 2 13 1 14
REMARK SMILES IDX 89 15 90 16 91 17 100 18 92 19 95 20 99 21 96 22 98 23 97 24
REMARK SMILES IDX 93 25 94 26 14 27 15 28 16 29 17 30 18 31 19 32 20 33 21 34
REMARK SMILES IDX 22 35 23 36 24 37 88 38 25 39 87 40 26 41 27 42 28 43 81 44
REMARK SMILES IDX 29 45 86 46 80 47 82 48 30 49 85 50 79 51 78 52 31 54 65 55
REMARK SMILES IDX 44 56 64 57 45 58 48 59 63 60 83 61 46 62 47 63 62 65 84 66
REMARK SMILES IDX 49 67 32 68 33 69 42 70 34 71 35 72 41 73 43 74 36 75 37 76
REMARK SMILES IDX 38 77 39 78 40 79 66 80 67 81 76 82 68 83 69 84 75 85 77 86
REMARK SMILES IDX 70 87 71 88 72 89 73 90 74 91 50 92 51 93 60 94 52 95 53 96
REMARK SMILES IDX 59 97 61 98 54 99 55 100 56 101 57 102 58 103
REMARK H PARENT 4 11 82 53 48 64
REMARK Flexibility Score: inf
ROOT
ATOM      1  C   UNL A   1      37.911  21.837  24.979  1.00  0.00     0.188 C 
ENDROOT
BRANCH   1   2
ATOM      2  C   UNL A   1      36.648  21.049  25.312  1.00  0.00     0.188 C 
BRANCH   2   3
ATOM      3  O   UNL A   1      35.712  21.768  26.092  1.00  0.00    -0.376 OA
BRANCH   3   4
ATOM      4  C   UNL A   1      34.830  22.682  25.435  1.00  0.00     0.202 C 
BRANCH   4   5
ATOM      5  C   UNL A   1      34.380  22.491  23.968  1.00  0.00     0.261 C 
BRANCH   5   6
ATOM      6  O   UNL A   1      33.027  22.004  23.714  1.00  0.00    -0.459 OA
BRANCH   6   7
ATOM      7  C   UNL A   1      32.221  22.003  24.821  1.00  0.00     0.361 C 
ATOM      8  O   UNL A   1      32.316  21.125  25.686  1.00  0.00    -0.245 OA
BRANCH   7   9
ATOM      9  C   UNL A   1      31.089  23.053  24.962  1.00  0.00     0.387 C 
BRANCH   9  10
ATOM     10  N   UNL A   1      31.168  24.462  24.464  1.00  0.00    -0.312 N 
ATOM     11  H   UNL A   1      30.427  24.939  24.979  1.00  0.00     0.349 HD
BRANCH  10  12
ATOM     12  C   UNL A   1      30.990  24.426  23.051  1.00  0.00     0.354 C 
BRANCH  12  13
ATOM     13  C   UNL A   1      32.011  25.022  22.094  1.00  0.00    -0.047 C 
ATOM     14  C   UNL A   1      32.886  25.533  21.274  1.00  0.00     0.010 C 
ENDBRANCH  12  13
ENDBRANCH  10  12
BRANCH  10  15
ATOM     15  C   UNL A   1      32.310  25.313  24.817  1.00  0.00     0.302 C 
BRANCH  15  16
ATOM     16  C   UNL A   1      31.852  26.686  25.125  1.00  0.00     0.032 A 
ATOM     17  C   UNL A   1      30.738  27.246  24.556  1.00  0.00     0.096 A 
ATOM     18  C   UNL A   1      32.536  27.733  25.795  1.00  0.00     0.008 A 
ATOM     19  N   UNL A   1      30.822  28.599  24.653  1.00  0.00    -0.347 N 
ATOM     20  C   UNL A   1      31.853  28.924  25.507  1.00  0.00     0.048 A 
ATOM     21  C   UNL A   1      33.755  27.789  26.495  1.00  0.00     0.011 A 
ATOM     22  C   UNL A   1      32.310  30.165  25.954  1.00  0.00     0.027 A 
ATOM     23  C   UNL A   1      34.241  29.029  26.908  1.00  0.00     0.001 A 
ATOM     24  C   UNL A   1      33.520  30.194  26.654  1.00  0.00     0.002 A 
BRANCH  19  25
ATOM     25  C   UNL A   1      30.177  29.472  23.687  1.00  0.00     0.119 C 
ATOM     26  C   UNL A   1      29.128  28.778  22.850  1.00  0.00     0.027 C 
ENDBRANCH  19  25
ENDBRANCH  15  16
ENDBRANCH  10  15
ENDBRANCH   9  10
ENDBRANCH   7   9
ENDBRANCH   6   7
ENDBRANCH   5   6
ENDBRANCH   4   5
ENDBRANCH   3   4
ENDBRANCH   2   3
ENDBRANCH   1   2
BRANCH   1  27
ATOM     27  O   UNL A   1      38.777  22.006  26.094  1.00  0.00    -0.377 OA
BRANCH  27  28
ATOM     28  C   UNL A   1      38.571  23.175  26.886  1.00  0.00     0.188 C 
BRANCH  28  29
ATOM     29  C   UNL A   1      39.107  24.483  26.297  1.00  0.00     0.188 C 
BRANCH  29  30
ATOM     30  O   UNL A   1      40.492  24.777  26.501  1.00  0.00    -0.376 OA
BRANCH  30  31
ATOM     31  C   UNL A   1      41.001  26.011  26.006  1.00  0.00     0.202 C 
BRANCH  31  32
ATOM     32  C   UNL A   1      42.373  25.964  25.326  1.00  0.00     0.261 C 
BRANCH  32  33
ATOM     33  O   UNL A   1      43.429  26.528  26.114  1.00  0.00    -0.460 OA
BRANCH  33  34
ATOM     34  C   UNL A   1      43.806  25.775  27.177  1.00  0.00     0.338 C 
ATOM     35  O   UNL A   1      44.164  24.614  27.175  1.00  0.00    -0.246 OA
BRANCH  34  36
ATOM     36  C   UNL A   1      43.859  26.638  28.370  1.00  0.00     0.060 A 
ATOM     37  C   UNL A   1      43.173  26.243  29.527  1.00  0.00     0.016 A 
ATOM     38  C   UNL A   1      44.499  27.875  28.303  1.00  0.00     0.016 A 
ATOM     39  C   UNL A   1      43.090  27.104  30.612  1.00  0.00     0.010 A 
ATOM     40  C   UNL A   1      44.387  28.753  29.378  1.00  0.00     0.010 A 
ATOM     41  C   UNL A   1      43.645  28.383  30.513  1.00  0.00    -0.014 A 
BRANCH  41  42
ATOM     42  C   UNL A   1      43.248  29.413  31.491  1.00  0.00     0.031 A 
ATOM     43  C   UNL A   1      44.121  29.608  32.697  1.00  0.00     0.074 A 
ATOM     44  C   UNL A   1      42.150  30.158  31.289  1.00  0.00     0.049 A 
ATOM     45  N   UNL A   1      43.935  30.373  33.739  1.00  0.00    -0.248 NA
ATOM     46  C   UNL A   1      45.372  28.828  32.738  1.00  0.00     0.031 C 
ATOM     47  C   UNL A   1      41.279  30.078  30.117  1.00  0.00     0.029 A 
ATOM     48  N   UNL A   1      41.575  31.120  32.076  1.00  0.00    -0.354 N 
ATOM     49  C   UNL A   1      45.033  30.155  34.563  1.00  0.00     0.074 A 
ATOM     50  C   UNL A   1      45.868  29.170  33.917  1.00  0.00     0.031 C 
ATOM     51  C   UNL A   1      40.262  30.942  30.274  1.00  0.00     0.029 A 
ATOM     52  C   UNL A   1      40.392  31.601  31.572  1.00  0.00     0.049 A 
ATOM     53  H   UNL A   1      41.972  31.435  32.919  1.00  0.00     0.167 HD
ATOM     54  C   UNL A   1      45.316  30.736  35.752  1.00  0.00     0.037 A 
ATOM     55  C   UNL A   1      39.504  32.450  32.122  1.00  0.00     0.037 A 
ATOM     56  C   UNL A   1      44.466  31.716  36.374  1.00  0.00     0.049 A 
ATOM     57  C   UNL A   1      39.802  33.025  33.483  1.00  0.00     0.074 A 
ATOM     58  C   UNL A   1      44.651  32.381  37.573  1.00  0.00     0.029 A 
ATOM     59  N   UNL A   1      43.263  32.166  35.848  1.00  0.00    -0.354 N 
ATOM     60  N   UNL A   1      40.847  32.824  34.254  1.00  0.00    -0.248 NA
ATOM     61  C   UNL A   1      38.806  33.942  34.049  1.00  0.00     0.031 C 
ATOM     62  C   UNL A   1      43.534  33.189  37.798  1.00  0.00     0.029 A 
ATOM     63  C   UNL A   1      42.681  33.079  36.710  1.00  0.00     0.049 A 
ATOM     64  H   UNL A   1      42.879  31.878  34.988  1.00  0.00     0.167 HD
ATOM     65  C   UNL A   1      40.646  33.614  35.382  1.00  0.00     0.074 A 
ATOM     66  C   UNL A   1      39.387  34.305  35.184  1.00  0.00     0.031 C 
ATOM     67  C   UNL A   1      41.429  33.758  36.481  1.00  0.00     0.037 A 
BRANCH  54  68
ATOM     68  C   UNL A   1      46.568  30.305  36.464  1.00  0.00     0.058 A 
ATOM     69  C   UNL A   1      46.577  29.231  37.368  1.00  0.00     0.135 A 
ATOM     70  C   UNL A   1      47.787  30.957  36.212  1.00  0.00     0.135 A 
ATOM     71  F   UNL A   1      45.438  28.586  37.666  1.00  0.00    -0.206 F 
ATOM     72  C   UNL A   1      47.746  28.830  38.010  1.00  0.00     0.059 A 
ATOM     73  C   UNL A   1      48.972  30.554  36.820  1.00  0.00     0.059 A 
ATOM     74  F   UNL A   1      47.834  31.997  35.365  1.00  0.00    -0.206 F 
ATOM     75  C   UNL A   1      48.940  29.496  37.725  1.00  0.00     0.060 A 
BRANCH  75  76
ATOM     76  S   UNL A   1      50.449  28.947  38.549  1.00  0.00     0.124 S 
ATOM     77  O   UNL A   1      51.388  29.998  38.171  1.00  0.00    -0.237 OA
ATOM     78  O   UNL A   1      50.048  28.930  39.952  1.00  0.00    -0.237 OA
ATOM     79  O   UNL A   1      50.703  27.637  37.956  1.00  0.00    -0.744 OA
ENDBRANCH  75  76
ENDBRANCH  54  68
BRANCH  55  80
ATOM     80  C   UNL A   1      38.250  32.789  31.399  1.00  0.00     0.058 A 
ATOM     81  C   UNL A   1      38.234  33.767  30.395  1.00  0.00     0.135 A 
ATOM     82  C   UNL A   1      37.040  32.142  31.698  1.00  0.00     0.135 A 
ATOM     83  F   UNL A   1      39.363  34.419  30.075  1.00  0.00    -0.206 F 
ATOM     84  C   UNL A   1      37.063  34.106  29.725  1.00  0.00     0.059 A 
ATOM     85  C   UNL A   1      35.862  32.441  31.023  1.00  0.00     0.059 A 
ATOM     86  F   UNL A   1      37.002  31.188  32.642  1.00  0.00    -0.206 F 
ATOM     87  C   UNL A   1      35.881  33.435  30.045  1.00  0.00     0.060 A 
BRANCH  87  88
ATOM     88  S   UNL A   1      34.377  33.857  29.141  1.00  0.00     0.124 S 
ATOM     89  O   UNL A   1      33.528  34.372  30.208  1.00  0.00    -0.237 OA
ATOM     90  O   UNL A   1      34.865  34.839  28.179  1.00  0.00    -0.237 OA
ATOM     91  O   UNL A   1      33.963  32.580  28.565  1.00  0.00    -0.744 OA
ENDBRANCH  87  88
ENDBRANCH  55  80
BRANCH  67  92
ATOM     92  C   UNL A   1      40.966  34.728  37.534  1.00  0.00     0.058 A 
ATOM     93  C   UNL A   1      41.314  36.086  37.494  1.00  0.00     0.135 A 
ATOM     94  C   UNL A   1      40.115  34.297  38.566  1.00  0.00     0.135 A 
ATOM     95  F   UNL A   1      42.130  36.547  36.533  1.00  0.00    -0.206 F 
ATOM     96  C   UNL A   1      40.857  36.981  38.456  1.00  0.00     0.059 A 
ATOM     97  C   UNL A   1      39.618  35.181  39.518  1.00  0.00     0.059 A 
ATOM     98  F   UNL A   1      39.740  33.010  38.643  1.00  0.00    -0.206 F 
ATOM     99  C   UNL A   1      40.006  36.519  39.463  1.00  0.00     0.060 A 
BRANCH  99 100
ATOM    100  S   UNL A   1      39.394  37.697  40.684  1.00  0.00     0.124 S 
ATOM    101  O   UNL A   1      38.228  38.248  40.002  1.00  0.00    -0.237 OA
ATOM    102  O   UNL A   1      39.110  36.838  41.830  1.00  0.00    -0.237 OA
ATOM    103  O   UNL A   1      40.512  38.618  40.860  1.00  0.00    -0.744 OA
ENDBRANCH  99 100
ENDBRANCH  67  92
ENDBRANCH  41  42
ENDBRANCH  34  36
ENDBRANCH  33  34
ENDBRANCH  32  33
ENDBRANCH  31  32
ENDBRANCH  30  31
ENDBRANCH  29  30
ENDBRANCH  28  29
ENDBRANCH  27  28
ENDBRANCH   1  27
TORSDOF 29
ENDMDL
