MODEL 1
REMARK VINA RESULT:     -10.2      0.000      0.000
REMARK SMILES CCOc1ccc2[nH]c(C)c/c(=N\c3cccc(C(=O)OCCOCCOCCOCCOC(=O)c4ccc(-c5c6nc(c(-c7c(F)cc(S(=O)(=O)[O-])cc7F)c7ccc([nH]7)c(-c7c(F)cc(S(=O)(=O)[O-])cc7F)c7nc(c(-c8c(F)cc(S(=O)(=O)[O-])cc8F)c8ccc5[nH]8)C=C7)C=C6)cc4)c3)c2c1
REMARK SMILES IDX 27 1 26 2 25 3 24 4 23 5 22 6 21 7 19 8 20 9 18 10 14 11
REMARK SMILES IDX 15 12 102 13 16 14 17 15 13 16 4 17 5 18 104 19 6 20 103 21
REMARK SMILES IDX 7 22 12 23 8 24 11 25 9 26 10 28 3 29 2 30 1 31 28 32 29 33
REMARK SMILES IDX 30 34 31 35 32 36 33 37 34 38 35 39 36 40 37 41 101 42 38 43
REMARK SMILES IDX 100 44 39 45 40 46 41 47 94 48 42 49 99 50 93 51 95 52 43 53
REMARK SMILES IDX 98 54 92 55 91 56 44 58 78 59 57 60 77 61 58 62 61 63 76 64
REMARK SMILES IDX 96 65 59 66 60 67 75 69 97 70 62 71 45 72 46 73 55 74 47 75
REMARK SMILES IDX 48 76 54 77 56 78 49 79 50 80 51 81 52 82 53 83 79 84 80 85
REMARK SMILES IDX 89 86 81 87 82 88 88 89 90 90 83 91 84 92 85 93 86 94 87 95
REMARK SMILES IDX 63 96 64 97 73 98 65 99 66 100 72 101 74 102 67 103 68 104
REMARK SMILES IDX 69 105 70 106 71 107
REMARK H PARENT 8 27 95 57 61 68
REMARK Flexibility Score: inf
ROOT
ATOM      1  O   UNL A   1      33.349  29.686  24.493  1.00  0.00    -0.377 OA
ENDROOT
BRANCH   1   2
ATOM      2  C   UNL A   1      33.907  28.525  23.903  1.00  0.00     0.188 C 
BRANCH   2   3
ATOM      3  C   UNL A   1      34.239  28.500  22.399  1.00  0.00     0.188 C 
BRANCH   3   4
ATOM      4  O   UNL A   1      33.748  27.372  21.684  1.00  0.00    -0.376 OA
BRANCH   4   5
ATOM      5  C   UNL A   1      32.869  26.515  22.403  1.00  0.00     0.202 C 
BRANCH   5   6
ATOM      6  C   UNL A   1      31.400  26.947  22.347  1.00  0.00     0.261 C 
BRANCH   6   7
ATOM      7  O   UNL A   1      30.470  25.862  22.482  1.00  0.00    -0.460 OA
BRANCH   7   8
ATOM      8  C   UNL A   1      29.672  25.877  23.572  1.00  0.00     0.338 C 
ATOM      9  O   UNL A   1      28.510  26.248  23.617  1.00  0.00    -0.246 OA
BRANCH   8  10
ATOM     10  C   UNL A   1      30.353  25.149  24.669  1.00  0.00     0.062 A 
ATOM     11  C   UNL A   1      31.473  23.188  25.560  1.00  0.00     0.065 A 
ATOM     12  C   UNL A   1      31.496  23.802  26.820  1.00  0.00     0.028 A 
ATOM     13  C   UNL A   1      30.920  23.880  24.480  1.00  0.00     0.044 A 
ATOM     14  C   UNL A   1      30.913  25.056  27.020  1.00  0.00     0.003 A 
ATOM     15  C   UNL A   1      30.342  25.730  25.944  1.00  0.00     0.016 A 
BRANCH  11  16
ATOM     16  N   UNL A   1      32.043  21.925  25.346  1.00  0.00    -0.248 NA
ATOM     17  C   UNL A   1      33.528  17.997  24.671  1.00  0.00     0.120 A 
ATOM     18  C   UNL A   1      34.900  17.828  24.496  1.00  0.00     0.048 A 
ATOM     19  C   UNL A   1      32.998  19.259  24.946  1.00  0.00     0.059 A 
ATOM     20  C   UNL A   1      35.761  18.912  24.647  1.00  0.00     0.030 A 
ATOM     21  C   UNL A   1      33.862  20.354  25.088  1.00  0.00     0.027 A 
ATOM     22  C   UNL A   1      35.252  20.180  24.947  1.00  0.00     0.048 A 
ATOM     23  C   UNL A   1      33.332  21.734  25.360  1.00  0.00     0.075 A 
ATOM     24  N   UNL A   1      36.123  21.267  25.077  1.00  0.00    -0.359 N 
ATOM     25  C   UNL A   1      34.373  22.790  25.605  1.00  0.00     0.050 A 
ATOM     26  C   UNL A   1      35.675  22.518  25.422  1.00  0.00     0.014 A 
ATOM     27  H   UNL A   1      37.084  21.132  24.916  1.00  0.00     0.166 HD
ATOM     28  C   UNL A   1      36.721  23.586  25.584  1.00  0.00     0.064 C 
BRANCH  17  29
ATOM     29  O   UNL A   1      32.684  16.947  24.445  1.00  0.00    -0.494 OA
BRANCH  29  30
ATOM     30  C   UNL A   1      32.477  16.143  25.616  1.00  0.00     0.226 C 
ATOM     31  C   UNL A   1      33.079  14.754  25.452  1.00  0.00     0.049 C 
ENDBRANCH  29  30
ENDBRANCH  17  29
ENDBRANCH  11  16
ENDBRANCH   8  10
ENDBRANCH   7   8
ENDBRANCH   6   7
ENDBRANCH   5   6
ENDBRANCH   4   5
ENDBRANCH   3   4
ENDBRANCH   2   3
ENDBRANCH   1   2
BRANCH   1  32
ATOM     32  C   UNL A   1      32.223  29.569  25.351  1.00  0.00     0.188 C 
BRANCH  32  33
ATOM     33  C   UNL A   1      32.209  28.515  26.476  1.00  0.00     0.188 C 
BRANCH  33  34
ATOM     34  O   UNL A   1      32.971  28.859  27.628  1.00  0.00    -0.376 OA
BRANCH  34  35
ATOM     35  C   UNL A   1      33.488  30.182  27.654  1.00  0.00     0.202 C 
BRANCH  35  36
ATOM     36  C   UNL A   1      35.019  30.257  27.659  1.00  0.00     0.261 C 
BRANCH  36  37
ATOM     37  O   UNL A   1      35.672  29.349  28.558  1.00  0.00    -0.460 OA
BRANCH  37  38
ATOM     38  C   UNL A   1      36.404  29.874  29.566  1.00  0.00     0.338 C 
ATOM     39  O   UNL A   1      35.997  30.278  30.640  1.00  0.00    -0.246 OA
BRANCH  38  40
ATOM     40  C   UNL A   1      37.825  29.699  29.204  1.00  0.00     0.060 A 
ATOM     41  C   UNL A   1      38.797  29.616  30.205  1.00  0.00     0.016 A 
ATOM     42  C   UNL A   1      38.192  29.674  27.853  1.00  0.00     0.016 A 
ATOM     43  C   UNL A   1      40.139  29.485  29.851  1.00  0.00     0.010 A 
ATOM     44  C   UNL A   1      39.539  29.554  27.501  1.00  0.00     0.010 A 
ATOM     45  C   UNL A   1      40.519  29.437  28.498  1.00  0.00    -0.014 A 
BRANCH  45  46
ATOM     46  C   UNL A   1      41.912  29.073  28.149  1.00  0.00     0.031 A 
ATOM     47  C   UNL A   1      43.031  30.067  28.182  1.00  0.00     0.074 A 
ATOM     48  C   UNL A   1      42.149  27.791  27.813  1.00  0.00     0.049 A 
ATOM     49  N   UNL A   1      44.311  29.861  27.996  1.00  0.00    -0.248 NA
ATOM     50  C   UNL A   1      42.677  31.467  28.451  1.00  0.00     0.031 C 
ATOM     51  C   UNL A   1      41.126  26.746  27.733  1.00  0.00     0.029 A 
ATOM     52  N   UNL A   1      43.313  27.146  27.492  1.00  0.00    -0.354 N 
ATOM     53  C   UNL A   1      44.924  31.098  28.151  1.00  0.00     0.074 A 
ATOM     54  C   UNL A   1      43.866  32.058  28.401  1.00  0.00     0.031 C 
ATOM     55  C   UNL A   1      41.712  25.584  27.409  1.00  0.00     0.029 A 
ATOM     56  C   UNL A   1      43.145  25.805  27.241  1.00  0.00     0.049 A 
ATOM     57  H   UNL A   1      44.187  27.598  27.445  1.00  0.00     0.167 HD
ATOM     58  C   UNL A   1      46.246  31.393  28.106  1.00  0.00     0.037 A 
ATOM     59  C   UNL A   1      44.043  24.855  26.921  1.00  0.00     0.037 A 
ATOM     60  C   UNL A   1      47.287  30.429  27.836  1.00  0.00     0.049 A 
ATOM     61  C   UNL A   1      45.497  25.219  26.833  1.00  0.00     0.074 A 
ATOM     62  C   UNL A   1      48.658  30.629  27.803  1.00  0.00     0.029 A 
ATOM     63  N   UNL A   1      47.077  29.089  27.541  1.00  0.00    -0.354 N 
ATOM     64  N   UNL A   1      46.068  26.381  27.047  1.00  0.00    -0.248 NA
ATOM     65  C   UNL A   1      46.429  24.146  26.466  1.00  0.00     0.031 C 
ATOM     66  C   UNL A   1      49.271  29.424  27.441  1.00  0.00     0.029 A 
ATOM     67  C   UNL A   1      48.288  28.459  27.297  1.00  0.00     0.049 A 
ATOM     68  H   UNL A   1      46.197  28.650  27.508  1.00  0.00     0.167 HD
ATOM     69  C   UNL A   1      47.428  26.174  26.860  1.00  0.00     0.074 A 
ATOM     70  C   UNL A   1      47.596  24.773  26.529  1.00  0.00     0.031 C 
ATOM     71  C   UNL A   1      48.446  27.066  26.957  1.00  0.00     0.037 A 
BRANCH  58  72
ATOM     72  C   UNL A   1      46.660  32.816  28.365  1.00  0.00     0.058 A 
ATOM     73  C   UNL A   1      46.747  33.751  27.321  1.00  0.00     0.135 A 
ATOM     74  C   UNL A   1      46.890  33.274  29.674  1.00  0.00     0.135 A 
ATOM     75  F   UNL A   1      46.542  33.367  26.051  1.00  0.00    -0.206 F 
ATOM     76  C   UNL A   1      47.060  35.085  27.563  1.00  0.00     0.059 A 
ATOM     77  C   UNL A   1      47.181  34.609  29.941  1.00  0.00     0.059 A 
ATOM     78  F   UNL A   1      46.814  32.424  30.709  1.00  0.00    -0.206 F 
ATOM     79  C   UNL A   1      47.273  35.505  28.877  1.00  0.00     0.060 A 
BRANCH  79  80
ATOM     80  S   UNL A   1      47.658  37.245  29.172  1.00  0.00     0.124 S 
ATOM     81  O   UNL A   1      48.546  37.540  28.052  1.00  0.00    -0.237 OA
ATOM     82  O   UNL A   1      46.340  37.869  29.118  1.00  0.00    -0.237 OA
ATOM     83  O   UNL A   1      48.291  37.236  30.488  1.00  0.00    -0.744 OA
ENDBRANCH  79  80
ENDBRANCH  58  72
BRANCH  59  84
ATOM     84  C   UNL A   1      43.584  23.461  26.708  1.00  0.00     0.058 A 
ATOM     85  C   UNL A   1      43.564  22.900  25.424  1.00  0.00     0.135 A 
ATOM     86  C   UNL A   1      43.207  22.647  27.788  1.00  0.00     0.135 A 
ATOM     87  F   UNL A   1      43.916  23.642  24.363  1.00  0.00    -0.206 F 
ATOM     88  C   UNL A   1      43.181  21.580  25.214  1.00  0.00     0.059 A 
ATOM     89  C   UNL A   1      42.842  21.317  27.606  1.00  0.00     0.059 A 
ATOM     90  F   UNL A   1      43.228  23.135  29.038  1.00  0.00    -0.206 F 
ATOM     91  C   UNL A   1      42.828  20.795  26.313  1.00  0.00     0.060 A 
BRANCH  91  92
ATOM     92  S   UNL A   1      42.395  19.065  26.032  1.00  0.00     0.124 S 
ATOM     93  O   UNL A   1      42.938  18.429  27.226  1.00  0.00    -0.237 OA
ATOM     94  O   UNL A   1      40.939  19.125  25.946  1.00  0.00    -0.237 OA
ATOM     95  O   UNL A   1      43.077  18.747  24.781  1.00  0.00    -0.744 OA
ENDBRANCH  91  92
ENDBRANCH  59  84
BRANCH  71  96
ATOM     96  C   UNL A   1      49.838  26.555  26.707  1.00  0.00     0.058 A 
ATOM     97  C   UNL A   1      50.341  26.405  25.406  1.00  0.00     0.135 A 
ATOM     98  C   UNL A   1      50.697  26.264  27.780  1.00  0.00     0.135 A 
ATOM     99  F   UNL A   1      49.558  26.659  24.346  1.00  0.00    -0.206 F 
ATOM    100  C   UNL A   1      51.643  25.971  25.175  1.00  0.00     0.059 A 
ATOM    101  C   UNL A   1      52.010  25.853  27.573  1.00  0.00     0.059 A 
ATOM    102  F   UNL A   1      50.267  26.396  29.044  1.00  0.00    -0.206 F 
ATOM    103  C   UNL A   1      52.472  25.700  26.266  1.00  0.00     0.060 A 
BRANCH 103 104
ATOM    104  S   UNL A   1      54.171  25.178  25.949  1.00  0.00     0.124 S 
ATOM    105  O   UNL A   1      54.740  26.378  25.344  1.00  0.00    -0.237 OA
ATOM    106  O   UNL A   1      54.652  24.854  27.288  1.00  0.00    -0.237 OA
ATOM    107  O   UNL A   1      54.015  24.037  25.053  1.00  0.00    -0.744 OA
ENDBRANCH 103 104
ENDBRANCH  71  96
ENDBRANCH  45  46
ENDBRANCH  38  40
ENDBRANCH  37  38
ENDBRANCH  36  37
ENDBRANCH  35  36
ENDBRANCH  34  35
ENDBRANCH  33  34
ENDBRANCH  32  33
ENDBRANCH   1  32
TORSDOF 26
ENDMDL
MODEL 2
REMARK VINA RESULT:     -10.1      4.538      8.780
REMARK SMILES CCOc1ccc2[nH]c(C)c/c(=N\c3cccc(C(=O)OCCOCCOCCOCCOC(=O)c4ccc(-c5c6nc(c(-c7c(F)cc(S(=O)(=O)[O-])cc7F)c7ccc([nH]7)c(-c7c(F)cc(S(=O)(=O)[O-])cc7F)c7nc(c(-c8c(F)cc(S(=O)(=O)[O-])cc8F)c8ccc5[nH]8)C=C7)C=C6)cc4)c3)c2c1
REMARK SMILES IDX 27 1 26 2 25 3 24 4 23 5 22 6 21 7 19 8 20 9 18 10 14 11
REMARK SMILES IDX 15 12 102 13 16 14 17 15 13 16 4 17 5 18 104 19 6 20 103 21
REMARK SMILES IDX 7 22 12 23 8 24 11 25 9 26 10 28 3 29 2 30 1 31 28 32 29 33
REMARK SMILES IDX 30 34 31 35 32 36 33 37 34 38 35 39 36 40 37 41 101 42 38 43
REMARK SMILES IDX 100 44 39 45 40 46 41 47 94 48 42 49 99 50 93 51 95 52 43 53
REMARK SMILES IDX 98 54 92 55 91 56 44 58 78 59 57 60 77 61 58 62 61 63 76 64
REMARK SMILES IDX 96 65 59 66 60 67 75 69 97 70 62 71 45 72 46 73 55 74 47 75
REMARK SMILES IDX 48 76 54 77 56 78 49 79 50 80 51 81 52 82 53 83 79 84 80 85
REMARK SMILES IDX 89 86 81 87 82 88 88 89 90 90 83 91 84 92 85 93 86 94 87 95
REMARK SMILES IDX 63 96 64 97 73 98 65 99 66 100 72 101 74 102 67 103 68 104
REMARK SMILES IDX 69 105 70 106 71 107
REMARK H PARENT 8 27 95 57 61 68
REMARK Flexibility Score: inf
ROOT
ATOM      1  O   UNL A   1      32.667  29.347  24.179  1.00  0.00    -0.377 OA
ENDROOT
BRANCH   1   2
ATOM      2  C   UNL A   1      33.767  28.703  23.559  1.00  0.00     0.188 C 
BRANCH   2   3
ATOM      3  C   UNL A   1      33.810  28.540  22.029  1.00  0.00     0.188 C 
BRANCH   3   4
ATOM      4  O   UNL A   1      33.936  27.202  21.561  1.00  0.00    -0.376 OA
BRANCH   4   5
ATOM      5  C   UNL A   1      33.219  26.217  22.296  1.00  0.00     0.202 C 
BRANCH   5   6
ATOM      6  C   UNL A   1      31.739  26.115  21.911  1.00  0.00     0.261 C 
BRANCH   6   7
ATOM      7  O   UNL A   1      31.040  25.050  22.574  1.00  0.00    -0.460 OA
BRANCH   7   8
ATOM      8  C   UNL A   1      30.419  25.359  23.733  1.00  0.00     0.338 C 
ATOM      9  O   UNL A   1      29.428  26.060  23.862  1.00  0.00    -0.246 OA
BRANCH   8  10
ATOM     10  C   UNL A   1      30.989  24.520  24.815  1.00  0.00     0.062 A 
ATOM     11  C   UNL A   1      32.737  23.103  25.723  1.00  0.00     0.065 A 
ATOM     12  C   UNL A   1      31.922  22.852  26.837  1.00  0.00     0.028 A 
ATOM     13  C   UNL A   1      32.271  23.961  24.725  1.00  0.00     0.044 A 
ATOM     14  C   UNL A   1      30.636  23.389  26.922  1.00  0.00     0.003 A 
ATOM     15  C   UNL A   1      30.169  24.224  25.911  1.00  0.00     0.016 A 
BRANCH  11  16
ATOM     16  N   UNL A   1      34.026  22.563  25.617  1.00  0.00    -0.248 NA
ATOM     17  C   UNL A   1      38.033  21.155  25.381  1.00  0.00     0.120 A 
ATOM     18  C   UNL A   1      38.247  19.802  25.131  1.00  0.00     0.048 A 
ATOM     19  C   UNL A   1      36.738  21.675  25.417  1.00  0.00     0.059 A 
ATOM     20  C   UNL A   1      37.167  18.964  24.861  1.00  0.00     0.030 A 
ATOM     21  C   UNL A   1      35.649  20.831  25.156  1.00  0.00     0.027 A 
ATOM     22  C   UNL A   1      35.863  19.470  24.868  1.00  0.00     0.048 A 
ATOM     23  C   UNL A   1      34.237  21.344  25.209  1.00  0.00     0.075 A 
ATOM     24  N   UNL A   1      34.784  18.616  24.615  1.00  0.00    -0.359 N 
ATOM     25  C   UNL A   1      33.177  20.362  24.794  1.00  0.00     0.050 A 
ATOM     26  C   UNL A   1      33.492  19.078  24.559  1.00  0.00     0.014 A 
ATOM     27  H   UNL A   1      34.955  17.658  24.475  1.00  0.00     0.166 HD
ATOM     28  C   UNL A   1      32.431  18.067  24.224  1.00  0.00     0.064 C 
BRANCH  17  29
ATOM     29  O   UNL A   1      39.088  21.954  25.721  1.00  0.00    -0.494 OA
BRANCH  29  30
ATOM     30  C   UNL A   1      38.673  23.206  26.288  1.00  0.00     0.226 C 
ATOM     31  C   UNL A   1      39.767  23.815  27.155  1.00  0.00     0.049 C 
ENDBRANCH  29  30
ENDBRANCH  17  29
ENDBRANCH  11  16
ENDBRANCH   8  10
ENDBRANCH   7   8
ENDBRANCH   6   7
ENDBRANCH   5   6
ENDBRANCH   4   5
ENDBRANCH   3   4
ENDBRANCH   2   3
ENDBRANCH   1   2
BRANCH   1  32
ATOM     32  C   UNL A   1      31.721  28.579  24.909  1.00  0.00     0.188 C 
BRANCH  32  33
ATOM     33  C   UNL A   1      32.155  27.803  26.168  1.00  0.00     0.188 C 
BRANCH  33  34
ATOM     34  O   UNL A   1      32.570  28.618  27.260  1.00  0.00    -0.376 OA
BRANCH  34  35
ATOM     35  C   UNL A   1      32.090  29.955  27.250  1.00  0.00     0.202 C 
BRANCH  35  36
ATOM     36  C   UNL A   1      33.195  31.017  27.255  1.00  0.00     0.261 C 
BRANCH  36  37
ATOM     37  O   UNL A   1      34.402  30.640  27.935  1.00  0.00    -0.460 OA
BRANCH  37  38
ATOM     38  C   UNL A   1      34.970  31.546  28.762  1.00  0.00     0.338 C 
ATOM     39  O   UNL A   1      34.465  32.563  29.201  1.00  0.00    -0.246 OA
BRANCH  38  40
ATOM     40  C   UNL A   1      36.266  30.982  29.194  1.00  0.00     0.060 A 
ATOM     41  C   UNL A   1      37.460  31.562  28.760  1.00  0.00     0.016 A 
ATOM     42  C   UNL A   1      36.282  29.832  29.992  1.00  0.00     0.016 A 
ATOM     43  C   UNL A   1      38.677  31.002  29.146  1.00  0.00     0.010 A 
ATOM     44  C   UNL A   1      37.503  29.265  30.368  1.00  0.00     0.010 A 
ATOM     45  C   UNL A   1      38.708  29.859  29.965  1.00  0.00    -0.014 A 
BRANCH  45  46
ATOM     46  C   UNL A   1      39.998  29.419  30.544  1.00  0.00     0.031 A 
ATOM     47  C   UNL A   1      40.797  28.296  29.957  1.00  0.00     0.074 A 
ATOM     48  C   UNL A   1      40.449  30.082  31.625  1.00  0.00     0.049 A 
ATOM     49  N   UNL A   1      41.987  27.873  30.303  1.00  0.00    -0.248 NA
ATOM     50  C   UNL A   1      40.190  27.550  28.847  1.00  0.00     0.031 C 
ATOM     51  C   UNL A   1      39.740  31.180  32.287  1.00  0.00     0.029 A 
ATOM     52  N   UNL A   1      41.605  29.947  32.347  1.00  0.00    -0.354 N 
ATOM     53  C   UNL A   1      42.288  26.828  29.440  1.00  0.00     0.074 A 
ATOM     54  C   UNL A   1      41.132  26.651  28.581  1.00  0.00     0.031 C 
ATOM     55  C   UNL A   1      40.488  31.635  33.303  1.00  0.00     0.029 A 
ATOM     56  C   UNL A   1      41.717  30.851  33.376  1.00  0.00     0.049 A 
ATOM     57  H   UNL A   1      42.290  29.268  32.149  1.00  0.00     0.167 HD
ATOM     58  C   UNL A   1      43.430  26.101  29.365  1.00  0.00     0.037 A 
ATOM     59  C   UNL A   1      42.703  31.038  34.273  1.00  0.00     0.037 A 
ATOM     60  C   UNL A   1      44.565  26.275  30.240  1.00  0.00     0.049 A 
ATOM     61  C   UNL A   1      43.937  30.188  34.195  1.00  0.00     0.074 A 
ATOM     62  C   UNL A   1      45.778  25.606  30.218  1.00  0.00     0.029 A 
ATOM     63  N   UNL A   1      44.626  27.169  31.301  1.00  0.00    -0.354 N 
ATOM     64  N   UNL A   1      44.234  29.247  33.330  1.00  0.00    -0.248 NA
ATOM     65  C   UNL A   1      44.973  30.427  35.208  1.00  0.00     0.031 C 
ATOM     66  C   UNL A   1      46.553  26.062  31.292  1.00  0.00     0.029 A 
ATOM     67  C   UNL A   1      45.842  27.049  31.955  1.00  0.00     0.049 A 
ATOM     68  H   UNL A   1      43.909  27.795  31.552  1.00  0.00     0.167 HD
ATOM     69  C   UNL A   1      45.499  28.794  33.683  1.00  0.00     0.074 A 
ATOM     70  C   UNL A   1      45.917  29.575  34.832  1.00  0.00     0.031 C 
ATOM     71  C   UNL A   1      46.247  27.822  33.105  1.00  0.00     0.037 A 
BRANCH  58  72
ATOM     72  C   UNL A   1      43.527  25.051  28.292  1.00  0.00     0.058 A 
ATOM     73  C   UNL A   1      43.982  25.369  27.001  1.00  0.00     0.135 A 
ATOM     74  C   UNL A   1      43.248  23.703  28.573  1.00  0.00     0.135 A 
ATOM     75  F   UNL A   1      44.259  26.641  26.677  1.00  0.00    -0.206 F 
ATOM     76  C   UNL A   1      44.143  24.390  26.025  1.00  0.00     0.059 A 
ATOM     77  C   UNL A   1      43.424  22.705  27.618  1.00  0.00     0.059 A 
ATOM     78  F   UNL A   1      42.816  23.344  29.791  1.00  0.00    -0.206 F 
ATOM     79  C   UNL A   1      43.863  23.060  26.344  1.00  0.00     0.060 A 
BRANCH  79  80
ATOM     80  S   UNL A   1      44.097  21.802  25.069  1.00  0.00     0.124 S 
ATOM     81  O   UNL A   1      45.467  21.374  25.331  1.00  0.00    -0.237 OA
ATOM     82  O   UNL A   1      43.056  20.832  25.395  1.00  0.00    -0.237 OA
ATOM     83  O   UNL A   1      43.897  22.537  23.824  1.00  0.00    -0.744 OA
ENDBRANCH  79  80
ENDBRANCH  58  72
BRANCH  59  84
ATOM     84  C   UNL A   1      42.568  32.111  35.289  1.00  0.00     0.058 A 
ATOM     85  C   UNL A   1      43.086  33.392  35.054  1.00  0.00     0.135 A 
ATOM     86  C   UNL A   1      41.875  31.891  36.490  1.00  0.00     0.135 A 
ATOM     87  F   UNL A   1      43.755  33.646  33.920  1.00  0.00    -0.206 F 
ATOM     88  C   UNL A   1      42.926  34.420  35.976  1.00  0.00     0.059 A 
ATOM     89  C   UNL A   1      41.683  32.910  37.417  1.00  0.00     0.059 A 
ATOM     90  F   UNL A   1      41.346  30.686  36.751  1.00  0.00    -0.206 F 
ATOM     91  C   UNL A   1      42.217  34.170  37.152  1.00  0.00     0.060 A 
BRANCH  91  92
ATOM     92  S   UNL A   1      41.963  35.532  38.310  1.00  0.00     0.124 S 
ATOM     93  O   UNL A   1      41.287  34.858  39.412  1.00  0.00    -0.237 OA
ATOM     94  O   UNL A   1      43.332  35.969  38.571  1.00  0.00    -0.237 OA
ATOM     95  O   UNL A   1      41.147  36.472  37.548  1.00  0.00    -0.744 OA
ENDBRANCH  91  92
ENDBRANCH  59  84
BRANCH  71  96
ATOM     96  C   UNL A   1      47.600  27.545  33.699  1.00  0.00     0.058 A 
ATOM     97  C   UNL A   1      47.809  26.468  34.575  1.00  0.00     0.135 A 
ATOM     98  C   UNL A   1      48.710  28.331  33.348  1.00  0.00     0.135 A 
ATOM     99  F   UNL A   1      46.780  25.693  34.950  1.00  0.00    -0.206 F 
ATOM    100  C   UNL A   1      49.069  26.188  35.093  1.00  0.00     0.059 A 
ATOM    101  C   UNL A   1      49.984  28.053  33.835  1.00  0.00     0.059 A 
ATOM    102  F   UNL A   1      48.565  29.369  32.510  1.00  0.00    -0.206 F 
ATOM    103  C   UNL A   1      50.152  26.985  34.715  1.00  0.00     0.060 A 
BRANCH 103 104
ATOM    104  S   UNL A   1      51.788  26.582  35.364  1.00  0.00     0.124 S 
ATOM    105  O   UNL A   1      51.918  25.178  34.986  1.00  0.00    -0.237 OA
ATOM    106  O   UNL A   1      52.648  27.514  34.643  1.00  0.00    -0.237 OA
ATOM    107  O   UNL A   1      51.659  26.837  36.796  1.00  0.00    -0.744 OA
ENDBRANCH 103 104
ENDBRANCH  71  96
ENDBRANCH  45  46
ENDBRANCH  38  40
ENDBRANCH  37  38
ENDBRANCH  36  37
ENDBRANCH  35  36
ENDBRANCH  34  35
ENDBRANCH  33  34
ENDBRANCH  32  33
ENDBRANCH   1  32
TORSDOF 26
ENDMDL
MODEL 3
REMARK VINA RESULT:      -9.7      5.968     10.215
REMARK SMILES CCOc1ccc2[nH]c(C)c/c(=N\c3cccc(C(=O)OCCOCCOCCOCCOC(=O)c4ccc(-c5c6nc(c(-c7c(F)cc(S(=O)(=O)[O-])cc7F)c7ccc([nH]7)c(-c7c(F)cc(S(=O)(=O)[O-])cc7F)c7nc(c(-c8c(F)cc(S(=O)(=O)[O-])cc8F)c8ccc5[nH]8)C=C7)C=C6)cc4)c3)c2c1
REMARK SMILES IDX 27 1 26 2 25 3 24 4 23 5 22 6 21 7 19 8 20 9 18 10 14 11
REMARK SMILES IDX 15 12 102 13 16 14 17 15 13 16 4 17 5 18 104 19 6 20 103 21
REMARK SMILES IDX 7 22 12 23 8 24 11 25 9 26 10 28 3 29 2 30 1 31 28 32 29 33
REMARK SMILES IDX 30 34 31 35 32 36 33 37 34 38 35 39 36 40 37 41 101 42 38 43
REMARK SMILES IDX 100 44 39 45 40 46 41 47 94 48 42 49 99 50 93 51 95 52 43 53
REMARK SMILES IDX 98 54 92 55 91 56 44 58 78 59 57 60 77 61 58 62 61 63 76 64
REMARK SMILES IDX 96 65 59 66 60 67 75 69 97 70 62 71 45 72 46 73 55 74 47 75
REMARK SMILES IDX 48 76 54 77 56 78 49 79 50 80 51 81 52 82 53 83 79 84 80 85
REMARK SMILES IDX 89 86 81 87 82 88 88 89 90 90 83 91 84 92 85 93 86 94 87 95
REMARK SMILES IDX 63 96 64 97 73 98 65 99 66 100 72 101 74 102 67 103 68 104
REMARK SMILES IDX 69 105 70 106 71 107
REMARK H PARENT 8 27 95 57 61 68
REMARK Flexibility Score: inf
ROOT
ATOM      1  O   UNL A   1      33.020  29.281  24.138  1.00  0.00    -0.377 OA
ENDROOT
BRANCH   1   2
ATOM      2  C   UNL A   1      33.661  28.127  23.622  1.00  0.00     0.188 C 
BRANCH   2   3
ATOM      3  C   UNL A   1      33.644  27.840  22.109  1.00  0.00     0.188 C 
BRANCH   3   4
ATOM      4  O   UNL A   1      33.907  26.492  21.741  1.00  0.00    -0.376 OA
BRANCH   4   5
ATOM      5  C   UNL A   1      32.763  25.669  21.541  1.00  0.00     0.202 C 
BRANCH   5   6
ATOM      6  C   UNL A   1      33.101  24.229  21.138  1.00  0.00     0.261 C 
BRANCH   6   7
ATOM      7  O   UNL A   1      34.015  23.576  22.031  1.00  0.00    -0.460 OA
BRANCH   7   8
ATOM      8  C   UNL A   1      33.481  22.717  22.928  1.00  0.00     0.338 C 
ATOM      9  O   UNL A   1      32.663  21.842  22.697  1.00  0.00    -0.246 OA
BRANCH   8  10
ATOM     10  C   UNL A   1      34.221  22.845  24.206  1.00  0.00     0.062 A 
ATOM     11  C   UNL A   1      36.153  22.412  25.610  1.00  0.00     0.065 A 
ATOM     12  C   UNL A   1      35.480  23.015  26.682  1.00  0.00     0.028 A 
ATOM     13  C   UNL A   1      35.524  22.353  24.364  1.00  0.00     0.044 A 
ATOM     14  C   UNL A   1      34.174  23.487  26.537  1.00  0.00     0.003 A 
ATOM     15  C   UNL A   1      33.544  23.403  25.298  1.00  0.00     0.016 A 
BRANCH  11  16
ATOM     16  N   UNL A   1      37.461  21.923  25.743  1.00  0.00    -0.248 NA
ATOM     17  C   UNL A   1      41.339  20.206  26.055  1.00  0.00     0.120 A 
ATOM     18  C   UNL A   1      42.414  21.044  26.345  1.00  0.00     0.048 A 
ATOM     19  C   UNL A   1      40.040  20.713  25.993  1.00  0.00     0.059 A 
ATOM     20  C   UNL A   1      42.192  22.390  26.628  1.00  0.00     0.030 A 
ATOM     21  C   UNL A   1      39.816  22.070  26.267  1.00  0.00     0.027 A 
ATOM     22  C   UNL A   1      40.895  22.913  26.594  1.00  0.00     0.048 A 
ATOM     23  C   UNL A   1      38.436  22.663  26.186  1.00  0.00     0.075 A 
ATOM     24  N   UNL A   1      40.684  24.270  26.860  1.00  0.00    -0.359 N 
ATOM     25  C   UNL A   1      38.323  24.098  26.618  1.00  0.00     0.050 A 
ATOM     26  C   UNL A   1      39.425  24.816  26.891  1.00  0.00     0.014 A 
ATOM     27  H   UNL A   1      41.461  24.850  27.029  1.00  0.00     0.166 HD
ATOM     28  C   UNL A   1      39.333  26.275  27.244  1.00  0.00     0.064 C 
BRANCH  17  29
ATOM     29  O   UNL A   1      41.572  18.906  25.703  1.00  0.00    -0.494 OA
BRANCH  29  30
ATOM     30  C   UNL A   1      42.909  18.483  26.009  1.00  0.00     0.226 C 
ATOM     31  C   UNL A   1      43.009  17.935  27.427  1.00  0.00     0.049 C 
ENDBRANCH  29  30
ENDBRANCH  17  29
ENDBRANCH  11  16
ENDBRANCH   8  10
ENDBRANCH   7   8
ENDBRANCH   6   7
ENDBRANCH   5   6
ENDBRANCH   4   5
ENDBRANCH   3   4
ENDBRANCH   2   3
ENDBRANCH   1   2
BRANCH   1  32
ATOM     32  C   UNL A   1      31.814  29.146  24.876  1.00  0.00     0.188 C 
BRANCH  32  33
ATOM     33  C   UNL A   1      31.856  28.802  26.378  1.00  0.00     0.188 C 
BRANCH  33  34
ATOM     34  O   UNL A   1      31.833  29.926  27.252  1.00  0.00    -0.376 OA
BRANCH  34  35
ATOM     35  C   UNL A   1      32.446  31.107  26.754  1.00  0.00     0.202 C 
BRANCH  35  36
ATOM     36  C   UNL A   1      33.462  31.737  27.713  1.00  0.00     0.261 C 
BRANCH  36  37
ATOM     37  O   UNL A   1      32.933  32.748  28.585  1.00  0.00    -0.460 OA
BRANCH  37  38
ATOM     38  C   UNL A   1      33.630  33.899  28.713  1.00  0.00     0.338 C 
ATOM     39  O   UNL A   1      33.275  35.017  28.383  1.00  0.00    -0.246 OA
BRANCH  38  40
ATOM     40  C   UNL A   1      34.839  33.587  29.502  1.00  0.00     0.060 A 
ATOM     41  C   UNL A   1      34.774  32.657  30.542  1.00  0.00     0.016 A 
ATOM     42  C   UNL A   1      36.031  34.272  29.233  1.00  0.00     0.016 A 
ATOM     43  C   UNL A   1      35.913  32.394  31.303  1.00  0.00     0.010 A 
ATOM     44  C   UNL A   1      37.168  34.015  30.004  1.00  0.00     0.010 A 
ATOM     45  C   UNL A   1      37.121  33.059  31.030  1.00  0.00    -0.014 A 
BRANCH  45  46
ATOM     46  C   UNL A   1      38.364  32.604  31.695  1.00  0.00     0.031 A 
ATOM     47  C   UNL A   1      39.333  31.675  31.031  1.00  0.00     0.074 A 
ATOM     48  C   UNL A   1      38.613  33.076  32.930  1.00  0.00     0.049 A 
ATOM     49  N   UNL A   1      40.504  31.275  31.457  1.00  0.00    -0.248 NA
ATOM     50  C   UNL A   1      38.942  31.117  29.729  1.00  0.00     0.031 C 
ATOM     51  C   UNL A   1      37.726  33.973  33.675  1.00  0.00     0.029 A 
ATOM     52  N   UNL A   1      39.677  32.884  33.771  1.00  0.00    -0.354 N 
ATOM     53  C   UNL A   1      41.007  30.440  30.469  1.00  0.00     0.074 A 
ATOM     54  C   UNL A   1      39.990  30.354  29.438  1.00  0.00     0.031 C 
ATOM     55  C   UNL A   1      38.295  34.274  34.852  1.00  0.00     0.029 A 
ATOM     56  C   UNL A   1      39.574  33.577  34.952  1.00  0.00     0.049 A 
ATOM     57  H   UNL A   1      40.442  32.304  33.550  1.00  0.00     0.167 HD
ATOM     58  C   UNL A   1      42.213  29.821  30.423  1.00  0.00     0.037 A 
ATOM     59  C   UNL A   1      40.418  33.655  35.998  1.00  0.00     0.037 A 
ATOM     60  C   UNL A   1      43.209  29.900  31.466  1.00  0.00     0.049 A 
ATOM     61  C   UNL A   1      41.727  32.923  35.940  1.00  0.00     0.074 A 
ATOM     62  C   UNL A   1      44.473  29.334  31.493  1.00  0.00     0.029 A 
ATOM     63  N   UNL A   1      43.053  30.574  32.670  1.00  0.00    -0.354 N 
ATOM     64  N   UNL A   1      42.217  32.189  34.969  1.00  0.00    -0.248 NA
ATOM     65  C   UNL A   1      42.601  33.032  37.115  1.00  0.00     0.031 C 
ATOM     66  C   UNL A   1      45.061  29.625  32.729  1.00  0.00     0.029 A 
ATOM     67  C   UNL A   1      44.184  30.414  33.455  1.00  0.00     0.049 A 
ATOM     68  H   UNL A   1      42.255  31.089  32.928  1.00  0.00     0.167 HD
ATOM     69  C   UNL A   1      43.465  31.765  35.407  1.00  0.00     0.074 A 
ATOM     70  C   UNL A   1      43.661  32.335  36.725  1.00  0.00     0.031 C 
ATOM     71  C   UNL A   1      44.367  30.976  34.772  1.00  0.00     0.037 A 
BRANCH  58  72
ATOM     72  C   UNL A   1      42.542  29.008  29.201  1.00  0.00     0.058 A 
ATOM     73  C   UNL A   1      43.071  29.609  28.046  1.00  0.00     0.135 A 
ATOM     74  C   UNL A   1      42.411  27.609  29.208  1.00  0.00     0.135 A 
ATOM     75  F   UNL A   1      43.214  30.942  27.984  1.00  0.00    -0.206 F 
ATOM     76  C   UNL A   1      43.444  28.854  26.939  1.00  0.00     0.059 A 
ATOM     77  C   UNL A   1      42.799  26.832  28.120  1.00  0.00     0.059 A 
ATOM     78  F   UNL A   1      41.916  26.983  30.287  1.00  0.00    -0.206 F 
ATOM     79  C   UNL A   1      43.306  27.465  26.986  1.00  0.00     0.060 A 
BRANCH  79  80
ATOM     80  S   UNL A   1      43.815  26.501  25.546  1.00  0.00     0.124 S 
ATOM     81  O   UNL A   1      44.545  27.499  24.770  1.00  0.00    -0.237 OA
ATOM     82  O   UNL A   1      44.627  25.448  26.147  1.00  0.00    -0.237 OA
ATOM     83  O   UNL A   1      42.550  26.060  24.966  1.00  0.00    -0.744 OA
ENDBRANCH  79  80
ENDBRANCH  58  72
BRANCH  59  84
ATOM     84  C   UNL A   1      40.058  34.499  37.164  1.00  0.00     0.058 A 
ATOM     85  C   UNL A   1      39.241  33.998  38.187  1.00  0.00     0.135 A 
ATOM     86  C   UNL A   1      40.564  35.800  37.304  1.00  0.00     0.135 A 
ATOM     87  F   UNL A   1      38.734  32.759  38.094  1.00  0.00    -0.206 F 
ATOM     88  C   UNL A   1      38.933  34.759  39.308  1.00  0.00     0.059 A 
ATOM     89  C   UNL A   1      40.289  36.572  38.427  1.00  0.00     0.059 A 
ATOM     90  F   UNL A   1      41.366  36.316  36.358  1.00  0.00    -0.206 F 
ATOM     91  C   UNL A   1      39.467  36.044  39.421  1.00  0.00     0.060 A 
BRANCH  91  92
ATOM     92  S   UNL A   1      39.111  36.996  40.913  1.00  0.00     0.124 S 
ATOM     93  O   UNL A   1      40.441  37.144  41.492  1.00  0.00    -0.237 OA
ATOM     94  O   UNL A   1      38.515  38.211  40.364  1.00  0.00    -0.237 OA
ATOM     95  O   UNL A   1      38.192  36.135  41.651  1.00  0.00    -0.744 OA
ENDBRANCH  91  92
ENDBRANCH  59  84
BRANCH  71  96
ATOM     96  C   UNL A   1      45.655  30.684  35.490  1.00  0.00     0.058 A 
ATOM     97  C   UNL A   1      46.736  31.578  35.451  1.00  0.00     0.135 A 
ATOM     98  C   UNL A   1      45.792  29.523  36.270  1.00  0.00     0.135 A 
ATOM     99  F   UNL A   1      46.661  32.696  34.712  1.00  0.00    -0.206 F 
ATOM    100  C   UNL A   1      47.913  31.326  36.148  1.00  0.00     0.059 A 
ATOM    101  C   UNL A   1      46.951  29.264  36.995  1.00  0.00     0.059 A 
ATOM    102  F   UNL A   1      44.786  28.638  36.346  1.00  0.00    -0.206 F 
ATOM    103  C   UNL A   1      48.010  30.167  36.921  1.00  0.00     0.060 A 
BRANCH 103 104
ATOM    104  S   UNL A   1      49.529  29.877  37.853  1.00  0.00     0.124 S 
ATOM    105  O   UNL A   1      50.340  31.025  37.461  1.00  0.00    -0.237 OA
ATOM    106  O   UNL A   1      49.054  29.877  39.232  1.00  0.00    -0.237 OA
ATOM    107  O   UNL A   1      49.991  28.584  37.356  1.00  0.00    -0.744 OA
ENDBRANCH 103 104
ENDBRANCH  71  96
ENDBRANCH  45  46
ENDBRANCH  38  40
ENDBRANCH  37  38
ENDBRANCH  36  37
ENDBRANCH  35  36
ENDBRANCH  34  35
ENDBRANCH  33  34
ENDBRANCH  32  33
ENDBRANCH   1  32
TORSDOF 26
ENDMDL
