MODEL 1
REMARK VINA RESULT:      -9.3      0.000      0.000
REMARK SMILES CCCCCCC(=O)Nc1ccc(Cl)c(C(=O)OCCOCCOCCOCCOC(=O)c2ccc(-c3c4nc(c(-c5c(F)cc(S(=O)(=O)[O-])cc5F)c5ccc([nH]5)c(-c5c(F)cc(S(=O)(=O)[O-])cc5F)c5nc(c(-c6c(F)cc(S(=O)(=O)[O-])cc6F)c6ccc3[nH]6)C=C5)C=C4)cc2)c1
REMARK SMILES IDX 22 1 21 2 20 3 19 4 18 5 16 6 17 7 15 8 10 9 11 10 99 11
REMARK SMILES IDX 12 12 13 13 14 14 9 15 7 16 8 17 6 19 5 20 4 21 3 22 2 23
REMARK SMILES IDX 1 24 23 25 24 26 25 27 26 28 27 29 28 30 29 31 30 32 31 33
REMARK SMILES IDX 32 34 33 35 34 36 98 37 35 38 97 39 36 40 37 41 38 42 91 43
REMARK SMILES IDX 39 44 96 45 90 46 92 47 40 48 95 49 89 50 88 51 41 53 75 54
REMARK SMILES IDX 54 55 74 56 55 57 58 58 73 59 93 60 56 61 57 62 72 64 94 65
REMARK SMILES IDX 59 66 42 67 43 68 52 69 44 70 45 71 51 72 53 73 46 74 47 75
REMARK SMILES IDX 48 76 49 77 50 78 76 79 77 80 86 81 78 82 79 83 85 84 87 85
REMARK SMILES IDX 80 86 81 87 82 88 83 89 84 90 60 91 61 92 70 93 62 94 63 95
REMARK SMILES IDX 69 96 71 97 64 98 65 99 66 100 67 101 68 102
REMARK H PARENT 9 18 92 52 58 63
REMARK Flexibility Score: inf
ROOT
ATOM      1  C   UNL A   1      36.049  23.704  25.476  1.00  0.00     0.188 C 
ENDROOT
BRANCH   1   2
ATOM      2  O   UNL A   1      35.031  22.870  26.001  1.00  0.00    -0.376 OA
BRANCH   2   3
ATOM      3  C   UNL A   1      34.167  23.304  27.047  1.00  0.00     0.202 C 
BRANCH   3   4
ATOM      4  C   UNL A   1      32.929  22.521  27.520  1.00  0.00     0.261 C 
BRANCH   4   5
ATOM      5  O   UNL A   1      31.687  23.168  27.248  1.00  0.00    -0.460 OA
BRANCH   5   6
ATOM      6  C   UNL A   1      30.861  22.607  26.338  1.00  0.00     0.339 C 
ATOM      7  O   UNL A   1      29.746  22.156  26.537  1.00  0.00    -0.246 OA
BRANCH   6   8
ATOM      8  C   UNL A   1      31.386  22.918  24.987  1.00  0.00     0.080 A 
ATOM      9  C   UNL A   1      31.931  24.683  23.411  1.00  0.00     0.042 A 
ATOM     10  C   UNL A   1      32.784  23.810  22.736  1.00  0.00     0.028 A 
ATOM     11  C   UNL A   1      31.262  24.258  24.558  1.00  0.00     0.043 A 
ATOM     12  C   UNL A   1      32.833  22.461  23.100  1.00  0.00     0.023 A 
ATOM     13  C   UNL A   1      32.112  22.000  24.209  1.00  0.00     0.055 A 
ATOM     14  Cl  UNL A   1      32.153  20.303  24.525  1.00  0.00    -0.083 Cl
BRANCH   9  15
ATOM     15  N   UNL A   1      31.864  26.009  22.977  1.00  0.00    -0.326 N 
ATOM     16  C   UNL A   1      32.573  27.071  23.474  1.00  0.00     0.224 C 
ATOM     17  O   UNL A   1      32.147  28.207  23.247  1.00  0.00    -0.275 OA
ATOM     18  H   UNL A   1      31.242  26.201  22.239  1.00  0.00     0.169 HD
BRANCH  16  19
ATOM     19  C   UNL A   1      33.858  26.871  24.258  1.00  0.00     0.100 C 
BRANCH  19  20
ATOM     20  C   UNL A   1      33.709  26.768  25.780  1.00  0.00     0.010 C 
BRANCH  20  21
ATOM     21  C   UNL A   1      33.744  28.065  26.600  1.00  0.00     0.001 C 
BRANCH  21  22
ATOM     22  C   UNL A   1      32.372  28.549  27.075  1.00  0.00    -0.000 C 
BRANCH  22  23
ATOM     23  C   UNL A   1      32.164  30.057  27.079  1.00  0.00    -0.003 C 
ATOM     24  C   UNL A   1      31.519  30.594  25.814  1.00  0.00     0.004 C 
ENDBRANCH  22  23
ENDBRANCH  21  22
ENDBRANCH  20  21
ENDBRANCH  19  20
ENDBRANCH  16  19
ENDBRANCH   9  15
ENDBRANCH   6   8
ENDBRANCH   5   6
ENDBRANCH   4   5
ENDBRANCH   3   4
ENDBRANCH   2   3
ENDBRANCH   1   2
BRANCH   1  25
ATOM     25  C   UNL A   1      37.532  23.418  25.764  1.00  0.00     0.188 C 
BRANCH  25  26
ATOM     26  O   UNL A   1      37.940  22.084  25.575  1.00  0.00    -0.377 OA
BRANCH  26  27
ATOM     27  C   UNL A   1      39.216  21.689  26.067  1.00  0.00     0.188 C 
BRANCH  27  28
ATOM     28  C   UNL A   1      40.066  22.663  26.914  1.00  0.00     0.188 C 
BRANCH  28  29
ATOM     29  O   UNL A   1      41.119  22.066  27.658  1.00  0.00    -0.376 OA
BRANCH  29  30
ATOM     30  C   UNL A   1      42.462  22.340  27.287  1.00  0.00     0.202 C 
BRANCH  30  31
ATOM     31  C   UNL A   1      42.702  23.188  26.027  1.00  0.00     0.261 C 
BRANCH  31  32
ATOM     32  O   UNL A   1      43.105  24.547  26.252  1.00  0.00    -0.460 OA
BRANCH  32  33
ATOM     33  C   UNL A   1      42.172  25.505  26.079  1.00  0.00     0.338 C 
ATOM     34  O   UNL A   1      41.424  25.636  25.122  1.00  0.00    -0.246 OA
BRANCH  33  35
ATOM     35  C   UNL A   1      42.065  26.267  27.338  1.00  0.00     0.060 A 
ATOM     36  C   UNL A   1      40.960  26.045  28.169  1.00  0.00     0.016 A 
ATOM     37  C   UNL A   1      43.048  27.191  27.696  1.00  0.00     0.016 A 
ATOM     38  C   UNL A   1      40.818  26.775  29.348  1.00  0.00     0.010 A 
ATOM     39  C   UNL A   1      42.893  27.938  28.867  1.00  0.00     0.010 A 
ATOM     40  C   UNL A   1      41.761  27.757  29.681  1.00  0.00    -0.014 A 
BRANCH  40  41
ATOM     41  C   UNL A   1      41.467  28.708  30.780  1.00  0.00     0.031 A 
ATOM     42  C   UNL A   1      42.308  28.647  32.027  1.00  0.00     0.074 A 
ATOM     43  C   UNL A   1      40.496  29.631  30.661  1.00  0.00     0.049 A 
ATOM     44  N   UNL A   1      42.222  29.355  33.122  1.00  0.00    -0.248 NA
ATOM     45  C   UNL A   1      43.392  27.650  32.038  1.00  0.00     0.031 C 
ATOM     46  C   UNL A   1      39.642  29.814  29.487  1.00  0.00     0.029 A 
ATOM     47  N   UNL A   1      40.063  30.587  31.544  1.00  0.00    -0.354 N 
ATOM     48  C   UNL A   1      43.233  28.888  33.955  1.00  0.00     0.074 A 
ATOM     49  C   UNL A   1      43.899  27.814  33.251  1.00  0.00     0.031 C 
ATOM     50  C   UNL A   1      38.778  30.815  29.730  1.00  0.00     0.029 A 
ATOM     51  C   UNL A   1      38.995  31.320  31.085  1.00  0.00     0.049 A 
ATOM     52  H   UNL A   1      40.477  30.734  32.426  1.00  0.00     0.167 HD
ATOM     53  C   UNL A   1      43.580  29.323  35.190  1.00  0.00     0.037 A 
ATOM     54  C   UNL A   1      38.263  32.273  31.697  1.00  0.00     0.037 A 
ATOM     55  C   UNL A   1      42.909  30.390  35.885  1.00  0.00     0.049 A 
ATOM     56  C   UNL A   1      38.624  32.691  33.101  1.00  0.00     0.074 A 
ATOM     57  C   UNL A   1      43.197  30.917  37.132  1.00  0.00     0.029 A 
ATOM     58  N   UNL A   1      41.811  31.087  35.401  1.00  0.00    -0.354 N 
ATOM     59  N   UNL A   1      39.599  32.261  33.867  1.00  0.00    -0.248 NA
ATOM     60  C   UNL A   1      37.785  33.725  33.723  1.00  0.00     0.031 C 
ATOM     61  C   UNL A   1      42.234  31.890  37.428  1.00  0.00     0.029 A 
ATOM     62  C   UNL A   1      41.388  32.016  36.338  1.00  0.00     0.049 A 
ATOM     63  H   UNL A   1      41.393  30.942  34.521  1.00  0.00     0.167 HD
ATOM     64  C   UNL A   1      39.508  32.993  35.049  1.00  0.00     0.074 A 
ATOM     65  C   UNL A   1      38.394  33.904  34.887  1.00  0.00     0.031 C 
ATOM     66  C   UNL A   1      40.275  32.918  36.166  1.00  0.00     0.037 A 
BRANCH  53  67
ATOM     67  C   UNL A   1      44.718  28.622  35.883  1.00  0.00     0.058 A 
ATOM     68  C   UNL A   1      44.510  27.506  36.709  1.00  0.00     0.135 A 
ATOM     69  C   UNL A   1      46.041  29.050  35.686  1.00  0.00     0.135 A 
ATOM     70  F   UNL A   1      43.265  27.065  36.950  1.00  0.00    -0.206 F 
ATOM     71  C   UNL A   1      45.570  26.854  37.332  1.00  0.00     0.059 A 
ATOM     72  C   UNL A   1      47.118  28.395  36.273  1.00  0.00     0.059 A 
ATOM     73  F   UNL A   1      46.297  30.116  34.909  1.00  0.00    -0.206 F 
ATOM     74  C   UNL A   1      46.871  27.305  37.105  1.00  0.00     0.060 A 
BRANCH  74  75
ATOM     75  S   UNL A   1      48.236  26.438  37.908  1.00  0.00     0.124 S 
ATOM     76  O   UNL A   1      47.714  25.077  37.981  1.00  0.00    -0.237 OA
ATOM     77  O   UNL A   1      49.332  26.646  36.969  1.00  0.00    -0.237 OA
ATOM     78  O   UNL A   1      48.371  27.127  39.188  1.00  0.00    -0.744 OA
ENDBRANCH  74  75
ENDBRANCH  53  67
BRANCH  54  79
ATOM     79  C   UNL A   1      37.103  32.889  30.996  1.00  0.00     0.058 A 
ATOM     80  C   UNL A   1      35.791  32.452  31.235  1.00  0.00     0.135 A 
ATOM     81  C   UNL A   1      37.284  33.921  30.061  1.00  0.00     0.135 A 
ATOM     82  F   UNL A   1      35.564  31.458  32.108  1.00  0.00    -0.206 F 
ATOM     83  C   UNL A   1      34.704  33.002  30.562  1.00  0.00     0.059 A 
ATOM     84  C   UNL A   1      36.211  34.508  29.399  1.00  0.00     0.059 A 
ATOM     85  F   UNL A   1      38.517  34.382  29.799  1.00  0.00    -0.206 F 
ATOM     86  C   UNL A   1      34.924  34.034  29.649  1.00  0.00     0.060 A 
BRANCH  86  87
ATOM     87  S   UNL A   1      33.501  34.772  28.817  1.00  0.00     0.124 S 
ATOM     88  O   UNL A   1      34.088  35.979  28.245  1.00  0.00    -0.237 OA
ATOM     89  O   UNL A   1      33.130  33.729  27.866  1.00  0.00    -0.237 OA
ATOM     90  O   UNL A   1      32.551  34.987  29.904  1.00  0.00    -0.744 OA
ENDBRANCH  86  87
ENDBRANCH  54  79
BRANCH  66  91
ATOM     91  C   UNL A   1      39.958  33.868  37.291  1.00  0.00     0.058 A 
ATOM     92  C   UNL A   1      39.006  33.561  38.276  1.00  0.00     0.135 A 
ATOM     93  C   UNL A   1      40.645  35.089  37.407  1.00  0.00     0.135 A 
ATOM     94  F   UNL A   1      38.317  32.411  38.214  1.00  0.00    -0.206 F 
ATOM     95  C   UNL A   1      38.717  34.446  39.310  1.00  0.00     0.059 A 
ATOM     96  C   UNL A   1      40.398  35.973  38.452  1.00  0.00     0.059 A 
ATOM     97  F   UNL A   1      41.578  35.428  36.503  1.00  0.00    -0.206 F 
ATOM     98  C   UNL A   1      39.418  35.650  39.390  1.00  0.00     0.060 A 
BRANCH  98  99
ATOM     99  S   UNL A   1      39.043  36.783  40.745  1.00  0.00     0.124 S 
ATOM    100  O   UNL A   1      40.377  37.226  41.135  1.00  0.00    -0.237 OA
ATOM    101  O   UNL A   1      38.208  37.786  40.090  1.00  0.00    -0.237 OA
ATOM    102  O   UNL A   1      38.353  35.938  41.714  1.00  0.00    -0.744 OA
ENDBRANCH  98  99
ENDBRANCH  66  91
ENDBRANCH  40  41
ENDBRANCH  33  35
ENDBRANCH  32  33
ENDBRANCH  31  32
ENDBRANCH  30  31
ENDBRANCH  29  30
ENDBRANCH  28  29
ENDBRANCH  27  28
ENDBRANCH  26  27
ENDBRANCH  25  26
ENDBRANCH   1  25
TORSDOF 29
ENDMDL
MODEL 2
REMARK VINA RESULT:      -8.3      5.913     10.894
REMARK SMILES CCCCCCC(=O)Nc1ccc(Cl)c(C(=O)OCCOCCOCCOCCOC(=O)c2ccc(-c3c4nc(c(-c5c(F)cc(S(=O)(=O)[O-])cc5F)c5ccc([nH]5)c(-c5c(F)cc(S(=O)(=O)[O-])cc5F)c5nc(c(-c6c(F)cc(S(=O)(=O)[O-])cc6F)c6ccc3[nH]6)C=C5)C=C4)cc2)c1
REMARK SMILES IDX 22 1 21 2 20 3 19 4 18 5 16 6 17 7 15 8 10 9 11 10 99 11
REMARK SMILES IDX 12 12 13 13 14 14 9 15 7 16 8 17 6 19 5 20 4 21 3 22 2 23
REMARK SMILES IDX 1 24 23 25 24 26 25 27 26 28 27 29 28 30 29 31 30 32 31 33
REMARK SMILES IDX 32 34 33 35 34 36 98 37 35 38 97 39 36 40 37 41 38 42 91 43
REMARK SMILES IDX 39 44 96 45 90 46 92 47 40 48 95 49 89 50 88 51 41 53 75 54
REMARK SMILES IDX 54 55 74 56 55 57 58 58 73 59 93 60 56 61 57 62 72 64 94 65
REMARK SMILES IDX 59 66 42 67 43 68 52 69 44 70 45 71 51 72 53 73 46 74 47 75
REMARK SMILES IDX 48 76 49 77 50 78 76 79 77 80 86 81 78 82 79 83 85 84 87 85
REMARK SMILES IDX 80 86 81 87 82 88 83 89 84 90 60 91 61 92 70 93 62 94 63 95
REMARK SMILES IDX 69 96 71 97 64 98 65 99 66 100 67 101 68 102
REMARK H PARENT 9 18 92 52 58 63
REMARK Flexibility Score: inf
ROOT
ATOM      1  C   UNL A   1      33.908  24.384  24.586  1.00  0.00     0.188 C 
ENDROOT
BRANCH   1   2
ATOM      2  O   UNL A   1      33.842  25.284  23.493  1.00  0.00    -0.376 OA
BRANCH   2   3
ATOM      3  C   UNL A   1      32.952  25.078  22.400  1.00  0.00     0.202 C 
BRANCH   3   4
ATOM      4  C   UNL A   1      32.193  26.208  21.684  1.00  0.00     0.261 C 
BRANCH   4   5
ATOM      5  O   UNL A   1      30.814  26.304  22.038  1.00  0.00    -0.460 OA
BRANCH   5   6
ATOM      6  C   UNL A   1      30.410  27.380  22.747  1.00  0.00     0.339 C 
ATOM      7  O   UNL A   1      29.701  28.293  22.358  1.00  0.00    -0.246 OA
BRANCH   6   8
ATOM      8  C   UNL A   1      30.695  27.122  24.179  1.00  0.00     0.080 A 
ATOM      9  C   UNL A   1      30.467  25.542  26.009  1.00  0.00     0.042 A 
ATOM     10  C   UNL A   1      31.525  26.165  26.671  1.00  0.00     0.028 A 
ATOM     11  C   UNL A   1      30.074  25.988  24.747  1.00  0.00     0.043 A 
ATOM     12  C   UNL A   1      32.073  27.343  26.157  1.00  0.00     0.023 A 
ATOM     13  C   UNL A   1      31.643  27.846  24.922  1.00  0.00     0.055 A 
ATOM     14  Cl  UNL A   1      32.304  29.357  24.412  1.00  0.00    -0.083 Cl
BRANCH   9  15
ATOM     15  N   UNL A   1      29.904  24.403  26.587  1.00  0.00    -0.326 N 
ATOM     16  C   UNL A   1      30.282  23.103  26.374  1.00  0.00     0.224 C 
ATOM     17  O   UNL A   1      29.476  22.212  26.659  1.00  0.00    -0.275 OA
ATOM     18  H   UNL A   1      29.157  24.548  27.212  1.00  0.00     0.169 HD
BRANCH  16  19
ATOM     19  C   UNL A   1      31.656  22.755  25.831  1.00  0.00     0.100 C 
BRANCH  19  20
ATOM     20  C   UNL A   1      32.597  22.023  26.797  1.00  0.00     0.010 C 
BRANCH  20  21
ATOM     21  C   UNL A   1      33.357  20.796  26.275  1.00  0.00     0.001 C 
BRANCH  21  22
ATOM     22  C   UNL A   1      32.530  19.879  25.370  1.00  0.00    -0.000 C 
BRANCH  22  23
ATOM     23  C   UNL A   1      33.296  19.183  24.253  1.00  0.00    -0.003 C 
ATOM     24  C   UNL A   1      32.500  19.014  22.971  1.00  0.00     0.004 C 
ENDBRANCH  22  23
ENDBRANCH  21  22
ENDBRANCH  20  21
ENDBRANCH  19  20
ENDBRANCH  16  19
ENDBRANCH   9  15
ENDBRANCH   6   8
ENDBRANCH   5   6
ENDBRANCH   4   5
ENDBRANCH   3   4
ENDBRANCH   2   3
ENDBRANCH   1   2
BRANCH   1  25
ATOM     25  C   UNL A   1      35.095  24.413  25.563  1.00  0.00     0.188 C 
BRANCH  25  26
ATOM     26  O   UNL A   1      36.086  23.437  25.343  1.00  0.00    -0.377 OA
BRANCH  26  27
ATOM     27  C   UNL A   1      35.900  22.512  24.277  1.00  0.00     0.188 C 
BRANCH  27  28
ATOM     28  C   UNL A   1      36.514  21.095  24.349  1.00  0.00     0.188 C 
BRANCH  28  29
ATOM     29  O   UNL A   1      37.912  21.047  24.595  1.00  0.00    -0.376 OA
BRANCH  29  30
ATOM     30  C   UNL A   1      38.373  20.528  25.833  1.00  0.00     0.202 C 
BRANCH  30  31
ATOM     31  C   UNL A   1      39.879  20.612  26.133  1.00  0.00     0.261 C 
BRANCH  31  32
ATOM     32  O   UNL A   1      40.646  19.436  25.838  1.00  0.00    -0.460 OA
BRANCH  32  33
ATOM     33  C   UNL A   1      41.973  19.488  26.072  1.00  0.00     0.338 C 
ATOM     34  O   UNL A   1      42.785  18.593  25.894  1.00  0.00    -0.246 OA
BRANCH  33  35
ATOM     35  C   UNL A   1      42.320  20.883  26.402  1.00  0.00     0.060 A 
ATOM     36  C   UNL A   1      42.354  21.831  25.371  1.00  0.00     0.016 A 
ATOM     37  C   UNL A   1      42.609  21.253  27.717  1.00  0.00     0.016 A 
ATOM     38  C   UNL A   1      42.713  23.149  25.650  1.00  0.00     0.010 A 
ATOM     39  C   UNL A   1      42.989  22.570  27.990  1.00  0.00     0.010 A 
ATOM     40  C   UNL A   1      43.074  23.516  26.954  1.00  0.00    -0.014 A 
BRANCH  40  41
ATOM     41  C   UNL A   1      43.709  24.834  27.192  1.00  0.00     0.031 A 
ATOM     42  C   UNL A   1      42.844  25.973  27.664  1.00  0.00     0.074 A 
ATOM     43  C   UNL A   1      45.032  25.011  27.025  1.00  0.00     0.049 A 
ATOM     44  N   UNL A   1      43.169  27.215  27.912  1.00  0.00    -0.248 NA
ATOM     45  C   UNL A   1      41.421  25.667  27.884  1.00  0.00     0.031 C 
ATOM     46  C   UNL A   1      45.977  23.975  26.609  1.00  0.00     0.029 A 
ATOM     47  N   UNL A   1      45.808  26.131  27.182  1.00  0.00    -0.354 N 
ATOM     48  C   UNL A   1      41.993  27.840  28.312  1.00  0.00     0.074 A 
ATOM     49  C   UNL A   1      40.941  26.850  28.241  1.00  0.00     0.031 C 
ATOM     50  C   UNL A   1      47.206  24.513  26.533  1.00  0.00     0.029 A 
ATOM     51  C   UNL A   1      47.130  25.937  26.861  1.00  0.00     0.049 A 
ATOM     52  H   UNL A   1      45.451  26.995  27.494  1.00  0.00     0.167 HD
ATOM     53  C   UNL A   1      41.810  29.121  28.710  1.00  0.00     0.037 A 
ATOM     54  C   UNL A   1      48.155  26.812  26.815  1.00  0.00     0.037 A 
ATOM     55  C   UNL A   1      42.862  30.103  28.773  1.00  0.00     0.049 A 
ATOM     56  C   UNL A   1      47.911  28.252  27.194  1.00  0.00     0.074 A 
ATOM     57  C   UNL A   1      42.782  31.423  29.182  1.00  0.00     0.029 A 
ATOM     58  N   UNL A   1      44.182  29.877  28.409  1.00  0.00    -0.354 N 
ATOM     59  N   UNL A   1      46.801  28.825  27.597  1.00  0.00    -0.248 NA
ATOM     60  C   UNL A   1      49.061  29.164  27.115  1.00  0.00     0.031 C 
ATOM     61  C   UNL A   1      44.040  32.011  29.005  1.00  0.00     0.029 A 
ATOM     62  C   UNL A   1      44.919  31.042  28.552  1.00  0.00     0.049 A 
ATOM     63  H   UNL A   1      44.542  29.016  28.095  1.00  0.00     0.167 HD
ATOM     64  C   UNL A   1      47.126  30.156  27.846  1.00  0.00     0.074 A 
ATOM     65  C   UNL A   1      48.539  30.296  27.566  1.00  0.00     0.031 C 
ATOM     66  C   UNL A   1      46.328  31.169  28.267  1.00  0.00     0.037 A 
BRANCH  53  67
ATOM     67  C   UNL A   1      40.414  29.546  29.078  1.00  0.00     0.058 A 
ATOM     68  C   UNL A   1      40.032  29.770  30.410  1.00  0.00     0.135 A 
ATOM     69  C   UNL A   1      39.453  29.770  28.078  1.00  0.00     0.135 A 
ATOM     70  F   UNL A   1      40.902  29.552  31.410  1.00  0.00    -0.206 F 
ATOM     71  C   UNL A   1      38.744  30.179  30.740  1.00  0.00     0.059 A 
ATOM     72  C   UNL A   1      38.168  30.208  28.381  1.00  0.00     0.059 A 
ATOM     73  F   UNL A   1      39.762  29.565  26.787  1.00  0.00    -0.206 F 
ATOM     74  C   UNL A   1      37.819  30.399  29.717  1.00  0.00     0.060 A 
BRANCH  74  75
ATOM     75  S   UNL A   1      36.156  30.944  30.161  1.00  0.00     0.124 S 
ATOM     76  O   UNL A   1      35.713  29.855  31.025  1.00  0.00    -0.237 OA
ATOM     77  O   UNL A   1      36.414  32.216  30.828  1.00  0.00    -0.237 OA
ATOM     78  O   UNL A   1      35.474  31.041  28.874  1.00  0.00    -0.744 OA
ENDBRANCH  74  75
ENDBRANCH  53  67
BRANCH  54  79
ATOM     79  C   UNL A   1      49.504  26.360  26.377  1.00  0.00     0.058 A 
ATOM     80  C   UNL A   1      49.956  26.578  25.067  1.00  0.00     0.135 A 
ATOM     81  C   UNL A   1      50.366  25.688  27.259  1.00  0.00     0.135 A 
ATOM     82  F   UNL A   1      49.165  27.203  24.180  1.00  0.00    -0.206 F 
ATOM     83  C   UNL A   1      51.204  26.132  24.641  1.00  0.00     0.059 A 
ATOM     84  C   UNL A   1      51.630  25.261  26.866  1.00  0.00     0.059 A 
ATOM     85  F   UNL A   1      49.987  25.460  28.526  1.00  0.00    -0.206 F 
ATOM     86  C   UNL A   1      52.036  25.479  25.551  1.00  0.00     0.060 A 
BRANCH  86  87
ATOM     87  S   UNL A   1      53.672  24.948  25.000  1.00  0.00     0.124 S 
ATOM     88  O   UNL A   1      53.526  23.496  25.001  1.00  0.00    -0.237 OA
ATOM     89  O   UNL A   1      53.771  25.579  23.688  1.00  0.00    -0.237 OA
ATOM     90  O   UNL A   1      54.563  25.493  26.020  1.00  0.00    -0.744 OA
ENDBRANCH  86  87
ENDBRANCH  54  79
BRANCH  66  91
ATOM     91  C   UNL A   1      46.970  32.515  28.483  1.00  0.00     0.058 A 
ATOM     92  C   UNL A   1      47.583  32.858  29.699  1.00  0.00     0.135 A 
ATOM     93  C   UNL A   1      47.007  33.462  27.445  1.00  0.00     0.135 A 
ATOM     94  F   UNL A   1      47.576  31.994  30.727  1.00  0.00    -0.206 F 
ATOM     95  C   UNL A   1      48.171  34.104  29.892  1.00  0.00     0.059 A 
ATOM     96  C   UNL A   1      47.621  34.701  27.604  1.00  0.00     0.059 A 
ATOM     97  F   UNL A   1      46.451  33.182  26.256  1.00  0.00    -0.206 F 
ATOM     98  C   UNL A   1      48.186  35.020  28.838  1.00  0.00     0.060 A 
BRANCH  98  99
ATOM     99  S   UNL A   1      48.964  36.627  29.097  1.00  0.00     0.124 S 
ATOM    100  O   UNL A   1      49.879  36.336  30.195  1.00  0.00    -0.237 OA
ATOM    101  O   UNL A   1      49.589  36.883  27.802  1.00  0.00    -0.237 OA
ATOM    102  O   UNL A   1      47.843  37.500  29.429  1.00  0.00    -0.744 OA
ENDBRANCH  98  99
ENDBRANCH  66  91
ENDBRANCH  40  41
ENDBRANCH  33  35
ENDBRANCH  32  33
ENDBRANCH  31  32
ENDBRANCH  30  31
ENDBRANCH  29  30
ENDBRANCH  28  29
ENDBRANCH  27  28
ENDBRANCH  26  27
ENDBRANCH  25  26
ENDBRANCH   1  25
TORSDOF 29
ENDMDL
MODEL 3
REMARK VINA RESULT:      -8.3      1.396      8.118
REMARK SMILES CCCCCCC(=O)Nc1ccc(Cl)c(C(=O)OCCOCCOCCOCCOC(=O)c2ccc(-c3c4nc(c(-c5c(F)cc(S(=O)(=O)[O-])cc5F)c5ccc([nH]5)c(-c5c(F)cc(S(=O)(=O)[O-])cc5F)c5nc(c(-c6c(F)cc(S(=O)(=O)[O-])cc6F)c6ccc3[nH]6)C=C5)C=C4)cc2)c1
REMARK SMILES IDX 22 1 21 2 20 3 19 4 18 5 16 6 17 7 15 8 10 9 11 10 99 11
REMARK SMILES IDX 12 12 13 13 14 14 9 15 7 16 8 17 6 19 5 20 4 21 3 22 2 23
REMARK SMILES IDX 1 24 23 25 24 26 25 27 26 28 27 29 28 30 29 31 30 32 31 33
REMARK SMILES IDX 32 34 33 35 34 36 98 37 35 38 97 39 36 40 37 41 38 42 91 43
REMARK SMILES IDX 39 44 96 45 90 46 92 47 40 48 95 49 89 50 88 51 41 53 75 54
REMARK SMILES IDX 54 55 74 56 55 57 58 58 73 59 93 60 56 61 57 62 72 64 94 65
REMARK SMILES IDX 59 66 42 67 43 68 52 69 44 70 45 71 51 72 53 73 46 74 47 75
REMARK SMILES IDX 48 76 49 77 50 78 76 79 77 80 86 81 78 82 79 83 85 84 87 85
REMARK SMILES IDX 80 86 81 87 82 88 83 89 84 90 60 91 61 92 70 93 62 94 63 95
REMARK SMILES IDX 69 96 71 97 64 98 65 99 66 100 67 101 68 102
REMARK H PARENT 9 18 92 52 58 63
REMARK Flexibility Score: inf
ROOT
ATOM      1  C   UNL A   1      37.768  21.589  24.846  1.00  0.00     0.188 C 
ENDROOT
BRANCH   1   2
ATOM      2  O   UNL A   1      36.459  22.028  25.168  1.00  0.00    -0.376 OA
BRANCH   2   3
ATOM      3  C   UNL A   1      35.686  21.405  26.189  1.00  0.00     0.202 C 
BRANCH   3   4
ATOM      4  C   UNL A   1      34.397  22.004  26.780  1.00  0.00     0.261 C 
BRANCH   4   5
ATOM      5  O   UNL A   1      33.355  22.205  25.827  1.00  0.00    -0.460 OA
BRANCH   5   6
ATOM      6  C   UNL A   1      32.410  23.131  26.099  1.00  0.00     0.339 C 
ATOM      7  O   UNL A   1      31.784  23.259  27.138  1.00  0.00    -0.246 OA
BRANCH   6   8
ATOM      8  C   UNL A   1      32.477  24.179  25.052  1.00  0.00     0.080 A 
ATOM      9  C   UNL A   1      33.068  26.483  24.565  1.00  0.00     0.042 A 
ATOM     10  C   UNL A   1      33.178  26.163  23.212  1.00  0.00     0.028 A 
ATOM     11  C   UNL A   1      32.759  25.490  25.495  1.00  0.00     0.043 A 
ATOM     12  C   UNL A   1      32.805  24.894  22.763  1.00  0.00     0.023 A 
ATOM     13  C   UNL A   1      32.424  23.901  23.676  1.00  0.00     0.055 A 
ATOM     14  Cl  UNL A   1      31.886  22.396  23.025  1.00  0.00    -0.083 Cl
BRANCH   9  15
ATOM     15  N   UNL A   1      33.390  27.781  24.967  1.00  0.00    -0.326 N 
ATOM     16  C   UNL A   1      32.539  28.853  25.037  1.00  0.00     0.224 C 
ATOM     17  O   UNL A   1      33.033  29.984  25.052  1.00  0.00    -0.275 OA
ATOM     18  H   UNL A   1      34.325  27.944  25.227  1.00  0.00     0.169 HD
BRANCH  16  19
ATOM     19  C   UNL A   1      31.034  28.668  25.120  1.00  0.00     0.100 C 
BRANCH  19  20
ATOM     20  C   UNL A   1      30.365  28.032  23.895  1.00  0.00     0.010 C 
BRANCH  20  21
ATOM     21  C   UNL A   1      30.177  28.899  22.643  1.00  0.00     0.001 C 
BRANCH  21  22
ATOM     22  C   UNL A   1      28.729  29.321  22.378  1.00  0.00    -0.000 C 
BRANCH  22  23
ATOM     23  C   UNL A   1      28.508  30.803  22.108  1.00  0.00    -0.003 C 
ATOM     24  C   UNL A   1      27.977  31.575  23.303  1.00  0.00     0.004 C 
ENDBRANCH  22  23
ENDBRANCH  21  22
ENDBRANCH  20  21
ENDBRANCH  19  20
ENDBRANCH  16  19
ENDBRANCH   9  15
ENDBRANCH   6   8
ENDBRANCH   5   6
ENDBRANCH   4   5
ENDBRANCH   3   4
ENDBRANCH   2   3
ENDBRANCH   1   2
BRANCH   1  25
ATOM     25  C   UNL A   1      38.458  20.490  25.669  1.00  0.00     0.188 C 
BRANCH  25  26
ATOM     26  O   UNL A   1      39.856  20.606  25.785  1.00  0.00    -0.377 OA
BRANCH  26  27
ATOM     27  C   UNL A   1      40.399  21.057  27.021  1.00  0.00     0.188 C 
BRANCH  27  28
ATOM     28  C   UNL A   1      41.110  22.425  27.115  1.00  0.00     0.188 C 
BRANCH  28  29
ATOM     29  O   UNL A   1      42.483  22.377  27.476  1.00  0.00    -0.376 OA
BRANCH  29  30
ATOM     30  C   UNL A   1      43.463  22.641  26.484  1.00  0.00     0.202 C 
BRANCH  30  31
ATOM     31  C   UNL A   1      43.098  23.618  25.353  1.00  0.00     0.261 C 
BRANCH  31  32
ATOM     32  O   UNL A   1      42.798  24.962  25.756  1.00  0.00    -0.460 OA
BRANCH  32  33
ATOM     33  C   UNL A   1      43.786  25.666  26.344  1.00  0.00     0.338 C 
ATOM     34  O   UNL A   1      44.948  25.748  25.976  1.00  0.00    -0.246 OA
BRANCH  33  35
ATOM     35  C   UNL A   1      43.184  26.490  27.410  1.00  0.00     0.060 A 
ATOM     36  C   UNL A   1      43.569  27.832  27.524  1.00  0.00     0.016 A 
ATOM     37  C   UNL A   1      42.245  25.943  28.287  1.00  0.00     0.016 A 
ATOM     38  C   UNL A   1      43.040  28.623  28.543  1.00  0.00     0.010 A 
ATOM     39  C   UNL A   1      41.733  26.732  29.320  1.00  0.00     0.010 A 
ATOM     40  C   UNL A   1      42.152  28.066  29.473  1.00  0.00    -0.014 A 
BRANCH  40  41
ATOM     41  C   UNL A   1      41.808  28.825  30.699  1.00  0.00     0.031 A 
ATOM     42  C   UNL A   1      40.604  29.728  30.670  1.00  0.00     0.074 A 
ATOM     43  C   UNL A   1      42.529  28.691  31.827  1.00  0.00     0.049 A 
ATOM     44  N   UNL A   1      40.126  30.505  31.606  1.00  0.00    -0.248 NA
ATOM     45  C   UNL A   1      39.836  29.757  29.414  1.00  0.00     0.031 C 
ATOM     46  C   UNL A   1      43.692  27.818  31.988  1.00  0.00     0.029 A 
ATOM     47  N   UNL A   1      42.389  29.295  33.051  1.00  0.00    -0.354 N 
ATOM     48  C   UNL A   1      39.008  31.120  31.054  1.00  0.00     0.074 A 
ATOM     49  C   UNL A   1      38.898  30.650  29.690  1.00  0.00     0.031 C 
ATOM     50  C   UNL A   1      44.167  27.953  33.239  1.00  0.00     0.029 A 
ATOM     51  C   UNL A   1      43.364  28.944  33.954  1.00  0.00     0.049 A 
ATOM     52  H   UNL A   1      41.659  29.922  33.262  1.00  0.00     0.167 HD
ATOM     53  C   UNL A   1      38.147  31.989  31.634  1.00  0.00     0.037 A 
ATOM     54  C   UNL A   1      43.594  29.391  35.206  1.00  0.00     0.037 A 
ATOM     55  C   UNL A   1      38.267  32.455  32.991  1.00  0.00     0.049 A 
ATOM     56  C   UNL A   1      42.662  30.414  35.806  1.00  0.00     0.074 A 
ATOM     57  C   UNL A   1      37.435  33.322  33.678  1.00  0.00     0.029 A 
ATOM     58  N   UNL A   1      39.285  32.103  33.865  1.00  0.00    -0.354 N 
ATOM     59  N   UNL A   1      41.593  30.967  35.283  1.00  0.00    -0.248 NA
ATOM     60  C   UNL A   1      42.968  30.872  37.169  1.00  0.00     0.031 C 
ATOM     61  C   UNL A   1      37.986  33.542  34.946  1.00  0.00     0.029 A 
ATOM     62  C   UNL A   1      39.122  32.761  35.074  1.00  0.00     0.049 A 
ATOM     63  H   UNL A   1      40.017  31.478  33.657  1.00  0.00     0.167 HD
ATOM     64  C   UNL A   1      41.083  31.815  36.263  1.00  0.00     0.074 A 
ATOM     65  C   UNL A   1      41.951  31.687  37.414  1.00  0.00     0.031 C 
ATOM     66  C   UNL A   1      39.996  32.627  36.214  1.00  0.00     0.037 A 
BRANCH  53  67
ATOM     67  C   UNL A   1      37.017  32.519  30.793  1.00  0.00     0.058 A 
ATOM     68  C   UNL A   1      35.743  31.931  30.805  1.00  0.00     0.135 A 
ATOM     69  C   UNL A   1      37.202  33.659  29.992  1.00  0.00     0.135 A 
ATOM     70  F   UNL A   1      35.513  30.828  31.535  1.00  0.00    -0.206 F 
ATOM     71  C   UNL A   1      34.699  32.439  30.037  1.00  0.00     0.059 A 
ATOM     72  C   UNL A   1      36.165  34.202  29.241  1.00  0.00     0.059 A 
ATOM     73  F   UNL A   1      38.403  34.259  29.939  1.00  0.00    -0.206 F 
ATOM     74  C   UNL A   1      34.920  33.578  29.260  1.00  0.00     0.060 A 
BRANCH  74  75
ATOM     75  S   UNL A   1      33.551  34.232  28.283  1.00  0.00     0.124 S 
ATOM     76  O   UNL A   1      34.240  35.184  27.417  1.00  0.00    -0.237 OA
ATOM     77  O   UNL A   1      33.038  33.035  27.626  1.00  0.00    -0.237 OA
ATOM     78  O   UNL A   1      32.667  34.821  29.284  1.00  0.00    -0.744 OA
ENDBRANCH  74  75
ENDBRANCH  53  67
BRANCH  54  79
ATOM     79  C   UNL A   1      44.766  28.888  35.974  1.00  0.00     0.058 A 
ATOM     80  C   UNL A   1      46.021  29.509  35.879  1.00  0.00     0.135 A 
ATOM     81  C   UNL A   1      44.658  27.765  36.811  1.00  0.00     0.135 A 
ATOM     82  F   UNL A   1      46.181  30.577  35.081  1.00  0.00    -0.206 F 
ATOM     83  C   UNL A   1      47.129  29.027  36.570  1.00  0.00     0.059 A 
ATOM     84  C   UNL A   1      45.743  27.284  37.536  1.00  0.00     0.059 A 
ATOM     85  F   UNL A   1      43.480  27.137  36.944  1.00  0.00    -0.206 F 
ATOM     86  C   UNL A   1      46.978  27.916  37.401  1.00  0.00     0.060 A 
BRANCH  86  87
ATOM     87  S   UNL A   1      48.411  27.330  38.330  1.00  0.00     0.124 S 
ATOM     88  O   UNL A   1      47.810  26.993  39.616  1.00  0.00    -0.237 OA
ATOM     89  O   UNL A   1      48.858  26.202  37.519  1.00  0.00    -0.237 OA
ATOM     90  O   UNL A   1      49.305  28.484  38.334  1.00  0.00    -0.744 OA
ENDBRANCH  86  87
ENDBRANCH  54  79
BRANCH  66  91
ATOM     91  C   UNL A   1      39.664  33.417  37.453  1.00  0.00     0.058 A 
ATOM     92  C   UNL A   1      38.745  32.950  38.406  1.00  0.00     0.135 A 
ATOM     93  C   UNL A   1      40.302  34.643  37.708  1.00  0.00     0.135 A 
ATOM     94  F   UNL A   1      38.103  31.787  38.213  1.00  0.00    -0.206 F 
ATOM     95  C   UNL A   1      38.441  33.688  39.547  1.00  0.00     0.059 A 
ATOM     96  C   UNL A   1      40.040  35.380  38.859  1.00  0.00     0.059 A 
ATOM     97  F   UNL A   1      41.201  35.131  36.839  1.00  0.00    -0.206 F 
ATOM     98  C   UNL A   1      39.094  34.902  39.764  1.00  0.00     0.060 A 
BRANCH  98  99
ATOM     99  S   UNL A   1      38.700  35.842  41.254  1.00  0.00     0.124 S 
ATOM    100  O   UNL A   1      39.847  35.540  42.104  1.00  0.00    -0.237 OA
ATOM    101  O   UNL A   1      38.628  37.210  40.749  1.00  0.00    -0.237 OA
ATOM    102  O   UNL A   1      37.429  35.273  41.690  1.00  0.00    -0.744 OA
ENDBRANCH  98  99
ENDBRANCH  66  91
ENDBRANCH  40  41
ENDBRANCH  33  35
ENDBRANCH  32  33
ENDBRANCH  31  32
ENDBRANCH  30  31
ENDBRANCH  29  30
ENDBRANCH  28  29
ENDBRANCH  27  28
ENDBRANCH  26  27
ENDBRANCH  25  26
ENDBRANCH   1  25
TORSDOF 29
ENDMDL
