MODEL 1
REMARK VINA RESULT:      -8.8      0.000      0.000
REMARK SMILES CNC(=O)NC(=O)CCSc1csc(C(=O)OCCOCCOCCOCCOC(=O)c2ccc(-c3c4nc(c(-c5c(F)cc(S(=O)(=O)[O-])cc5F)c5ccc([nH]5)c(-c5c(F)cc(S(=O)(=O)[O-])cc5F)c5nc(c(-c6c(F)cc(S(=O)(=O)[O-])cc6F)c6ccc3[nH]6)C=C5)C=C4)cc2)c1
REMARK SMILES IDX 22 1 21 2 20 3 19 4 18 5 17 6 15 7 16 8 14 9 11 10 12 11
REMARK SMILES IDX 98 12 13 13 10 14 9 15 8 16 6 17 1 18 2 19 3 20 4 22 5 23
REMARK SMILES IDX 7 25 23 26 24 27 25 28 26 29 27 30 28 31 29 32 30 33 31 34
REMARK SMILES IDX 32 35 33 36 97 37 34 38 96 39 35 40 36 41 37 42 90 43 38 44
REMARK SMILES IDX 95 45 89 46 91 47 39 48 94 49 88 50 87 51 40 53 74 54 53 55
REMARK SMILES IDX 73 56 54 57 57 58 72 59 92 60 55 61 56 62 71 64 93 65 58 66
REMARK SMILES IDX 41 67 42 68 51 69 43 70 44 71 50 72 52 73 45 74 46 75 47 76
REMARK SMILES IDX 48 77 49 78 75 79 76 80 85 81 77 82 78 83 84 84 86 85 79 86
REMARK SMILES IDX 80 87 81 88 82 89 83 90 59 91 60 92 69 93 61 94 62 95 68 96
REMARK SMILES IDX 70 97 63 98 64 99 65 100 66 101 67 102
REMARK H PARENT 2 21 5 24 91 52 57 63
REMARK Flexibility Score: inf
ROOT
ATOM      1  C   UNL A   1      31.308  26.954  26.276  1.00  0.00     0.188 C 
ENDROOT
BRANCH   1   2
ATOM      2  C   UNL A   1      32.576  27.575  26.886  1.00  0.00     0.188 C 
BRANCH   2   3
ATOM      3  O   UNL A   1      33.649  27.680  25.950  1.00  0.00    -0.376 OA
BRANCH   3   4
ATOM      4  C   UNL A   1      33.324  28.141  24.640  1.00  0.00     0.202 C 
BRANCH   4   5
ATOM      5  C   UNL A   1      33.660  27.224  23.450  1.00  0.00     0.261 C 
BRANCH   5   6
ATOM      6  O   UNL A   1      32.537  26.814  22.655  1.00  0.00    -0.459 OA
BRANCH   6   7
ATOM      7  C   UNL A   1      32.724  25.813  21.756  1.00  0.00     0.348 C 
ATOM      8  O   UNL A   1      33.347  25.929  20.707  1.00  0.00    -0.245 OA
BRANCH   7   9
ATOM      9  C   UNL A   1      32.245  24.579  22.343  1.00  0.00     0.113 A 
ATOM     10  C   UNL A   1      31.986  22.346  22.942  1.00  0.00     0.019 A 
ATOM     11  C   UNL A   1      30.844  22.896  23.471  1.00  0.00     0.080 A 
ATOM     12  C   UNL A   1      32.737  23.292  22.199  1.00  0.00     0.042 A 
ATOM     13  S   UNL A   1      30.806  24.594  23.274  1.00  0.00    -0.136 S 
BRANCH  10  14
ATOM     14  S   UNL A   1      32.515  20.686  23.147  1.00  0.00    -0.125 SA
BRANCH  14  15
ATOM     15  C   UNL A   1      32.280  20.454  24.938  1.00  0.00     0.085 C 
BRANCH  15  16
ATOM     16  C   UNL A   1      33.200  19.457  25.631  1.00  0.00     0.112 C 
BRANCH  16  17
ATOM     17  C   UNL A   1      34.435  19.040  24.879  1.00  0.00     0.228 C 
ATOM     18  C   UNL A   1      32.111  16.381  25.566  1.00  0.00     0.144 C 
ATOM     19  N   UNL A   1      32.704  16.367  24.257  1.00  0.00    -0.341 N 
ATOM     20  C   UNL A   1      33.903  16.778  23.824  1.00  0.00     0.321 C 
ATOM     21  H   UNL A   1      32.127  15.990  23.554  1.00  0.00     0.165 HD
ATOM     22  O   UNL A   1      34.355  16.261  22.799  1.00  0.00    -0.248 OA
ATOM     23  N   UNL A   1      34.642  17.750  24.432  1.00  0.00    -0.278 N 
ATOM     24  H   UNL A   1      35.566  17.453  24.597  1.00  0.00     0.174 HD
ATOM     25  O   UNL A   1      35.321  19.878  24.670  1.00  0.00    -0.275 OA
ENDBRANCH  16  17
ENDBRANCH  15  16
ENDBRANCH  14  15
ENDBRANCH  10  14
ENDBRANCH   7   9
ENDBRANCH   6   7
ENDBRANCH   5   6
ENDBRANCH   4   5
ENDBRANCH   3   4
ENDBRANCH   2   3
ENDBRANCH   1   2
BRANCH   1  26
ATOM     26  O   UNL A   1      31.122  25.611  26.690  1.00  0.00    -0.377 OA
BRANCH  26  27
ATOM     27  C   UNL A   1      32.291  24.888  27.060  1.00  0.00     0.188 C 
BRANCH  27  28
ATOM     28  C   UNL A   1      33.011  24.003  26.020  1.00  0.00     0.188 C 
BRANCH  28  29
ATOM     29  O   UNL A   1      34.366  23.697  26.360  1.00  0.00    -0.376 OA
BRANCH  29  30
ATOM     30  C   UNL A   1      35.052  22.797  25.496  1.00  0.00     0.202 C 
BRANCH  30  31
ATOM     31  C   UNL A   1      36.380  23.342  24.952  1.00  0.00     0.261 C 
BRANCH  31  32
ATOM     32  O   UNL A   1      37.209  24.001  25.922  1.00  0.00    -0.460 OA
BRANCH  32  33
ATOM     33  C   UNL A   1      38.395  23.425  26.216  1.00  0.00     0.338 C 
ATOM     34  O   UNL A   1      38.740  22.286  25.962  1.00  0.00    -0.246 OA
BRANCH  33  35
ATOM     35  C   UNL A   1      39.294  24.474  26.735  1.00  0.00     0.060 A 
ATOM     36  C   UNL A   1      39.368  24.667  28.121  1.00  0.00     0.016 A 
ATOM     37  C   UNL A   1      40.046  25.264  25.863  1.00  0.00     0.016 A 
ATOM     38  C   UNL A   1      40.158  25.695  28.636  1.00  0.00     0.010 A 
ATOM     39  C   UNL A   1      40.820  26.304  26.378  1.00  0.00     0.010 A 
ATOM     40  C   UNL A   1      40.847  26.547  27.762  1.00  0.00    -0.014 A 
BRANCH  40  41
ATOM     41  C   UNL A   1      41.410  27.821  28.265  1.00  0.00     0.031 A 
ATOM     42  C   UNL A   1      42.905  27.982  28.263  1.00  0.00     0.074 A 
ATOM     43  C   UNL A   1      40.617  28.808  28.720  1.00  0.00     0.049 A 
ATOM     44  N   UNL A   1      43.635  28.970  28.707  1.00  0.00    -0.248 NA
ATOM     45  C   UNL A   1      43.681  26.870  27.685  1.00  0.00     0.031 C 
ATOM     46  C   UNL A   1      39.156  28.779  28.744  1.00  0.00     0.029 A 
ATOM     47  N   UNL A   1      40.941  30.025  29.263  1.00  0.00    -0.354 N 
ATOM     48  C   UNL A   1      44.953  28.602  28.464  1.00  0.00     0.074 A 
ATOM     49  C   UNL A   1      44.925  27.288  27.860  1.00  0.00     0.031 C 
ATOM     50  C   UNL A   1      38.708  29.922  29.292  1.00  0.00     0.029 A 
ATOM     51  C   UNL A   1      39.851  30.750  29.680  1.00  0.00     0.049 A 
ATOM     52  H   UNL A   1      41.867  30.350  29.346  1.00  0.00     0.167 HD
ATOM     53  C   UNL A   1      46.086  29.297  28.717  1.00  0.00     0.037 A 
ATOM     54  C   UNL A   1      39.789  31.933  30.321  1.00  0.00     0.037 A 
ATOM     55  C   UNL A   1      46.112  30.597  29.330  1.00  0.00     0.049 A 
ATOM     56  C   UNL A   1      41.066  32.664  30.650  1.00  0.00     0.074 A 
ATOM     57  C   UNL A   1      47.206  31.390  29.623  1.00  0.00     0.029 A 
ATOM     58  N   UNL A   1      44.988  31.292  29.752  1.00  0.00    -0.354 N 
ATOM     59  N   UNL A   1      42.306  32.316  30.395  1.00  0.00    -0.248 NA
ATOM     60  C   UNL A   1      40.937  33.948  31.355  1.00  0.00     0.031 C 
ATOM     61  C   UNL A   1      46.747  32.549  30.259  1.00  0.00     0.029 A 
ATOM     62  C   UNL A   1      45.363  32.496  30.323  1.00  0.00     0.049 A 
ATOM     63  H   UNL A   1      44.060  30.975  29.661  1.00  0.00     0.167 HD
ATOM     64  C   UNL A   1      43.101  33.348  30.884  1.00  0.00     0.074 A 
ATOM     65  C   UNL A   1      42.202  34.336  31.444  1.00  0.00     0.031 C 
ATOM     66  C   UNL A   1      44.451  33.471  30.867  1.00  0.00     0.037 A 
BRANCH  53  67
ATOM     67  C   UNL A   1      47.389  28.645  28.352  1.00  0.00     0.058 A 
ATOM     68  C   UNL A   1      47.930  28.755  27.061  1.00  0.00     0.135 A 
ATOM     69  C   UNL A   1      48.105  27.903  29.304  1.00  0.00     0.135 A 
ATOM     70  F   UNL A   1      47.271  29.435  26.108  1.00  0.00    -0.206 F 
ATOM     71  C   UNL A   1      49.122  28.128  26.718  1.00  0.00     0.059 A 
ATOM     72  C   UNL A   1      49.312  27.286  28.988  1.00  0.00     0.059 A 
ATOM     73  F   UNL A   1      47.626  27.761  30.550  1.00  0.00    -0.206 F 
ATOM     74  C   UNL A   1      49.804  27.391  27.688  1.00  0.00     0.060 A 
BRANCH  74  75
ATOM     75  S   UNL A   1      51.346  26.574  27.228  1.00  0.00     0.124 S 
ATOM     76  O   UNL A   1      52.300  27.235  28.113  1.00  0.00    -0.237 OA
ATOM     77  O   UNL A   1      51.064  25.175  27.533  1.00  0.00    -0.237 OA
ATOM     78  O   UNL A   1      51.485  26.886  25.809  1.00  0.00    -0.744 OA
ENDBRANCH  74  75
ENDBRANCH  53  67
BRANCH  54  79
ATOM     79  C   UNL A   1      38.470  32.502  30.705  1.00  0.00     0.058 A 
ATOM     80  C   UNL A   1      37.828  33.450  29.895  1.00  0.00     0.135 A 
ATOM     81  C   UNL A   1      37.827  32.110  31.889  1.00  0.00     0.135 A 
ATOM     82  F   UNL A   1      38.409  33.866  28.760  1.00  0.00    -0.206 F 
ATOM     83  C   UNL A   1      36.599  33.998  30.250  1.00  0.00     0.059 A 
ATOM     84  C   UNL A   1      36.589  32.628  32.255  1.00  0.00     0.059 A 
ATOM     85  F   UNL A   1      38.399  31.200  32.694  1.00  0.00    -0.206 F 
ATOM     86  C   UNL A   1      35.987  33.579  31.433  1.00  0.00     0.060 A 
BRANCH  86  87
ATOM     87  S   UNL A   1      34.369  34.259  31.863  1.00  0.00     0.124 S 
ATOM     88  O   UNL A   1      34.737  35.545  32.446  1.00  0.00    -0.237 OA
ATOM     89  O   UNL A   1      33.703  34.313  30.566  1.00  0.00    -0.237 OA
ATOM     90  O   UNL A   1      33.830  33.274  32.795  1.00  0.00    -0.744 OA
ENDBRANCH  86  87
ENDBRANCH  54  79
BRANCH  66  91
ATOM     91  C   UNL A   1      45.043  34.728  31.439  1.00  0.00     0.058 A 
ATOM     92  C   UNL A   1      45.386  34.831  32.795  1.00  0.00     0.135 A 
ATOM     93  C   UNL A   1      45.330  35.820  30.603  1.00  0.00     0.135 A 
ATOM     94  F   UNL A   1      45.128  33.817  33.636  1.00  0.00    -0.206 F 
ATOM     95  C   UNL A   1      45.979  35.981  33.308  1.00  0.00     0.059 A 
ATOM     96  C   UNL A   1      45.943  36.970  31.090  1.00  0.00     0.059 A 
ATOM     97  F   UNL A   1      45.032  35.767  29.296  1.00  0.00    -0.206 F 
ATOM     98  C   UNL A   1      46.255  37.044  32.446  1.00  0.00     0.060 A 
BRANCH  98  99
ATOM     99  S   UNL A   1      47.061  38.516  33.114  1.00  0.00     0.124 S 
ATOM    100  O   UNL A   1      46.915  39.458  32.010  1.00  0.00    -0.237 OA
ATOM    101  O   UNL A   1      46.262  38.802  34.301  1.00  0.00    -0.237 OA
ATOM    102  O   UNL A   1      48.424  38.064  33.379  1.00  0.00    -0.744 OA
ENDBRANCH  98  99
ENDBRANCH  66  91
ENDBRANCH  40  41
ENDBRANCH  33  35
ENDBRANCH  32  33
ENDBRANCH  31  32
ENDBRANCH  30  31
ENDBRANCH  29  30
ENDBRANCH  28  29
ENDBRANCH  27  28
ENDBRANCH  26  27
ENDBRANCH   1  26
TORSDOF 27
ENDMDL
MODEL 2
REMARK VINA RESULT:      -7.5      3.787      9.357
REMARK SMILES CNC(=O)NC(=O)CCSc1csc(C(=O)OCCOCCOCCOCCOC(=O)c2ccc(-c3c4nc(c(-c5c(F)cc(S(=O)(=O)[O-])cc5F)c5ccc([nH]5)c(-c5c(F)cc(S(=O)(=O)[O-])cc5F)c5nc(c(-c6c(F)cc(S(=O)(=O)[O-])cc6F)c6ccc3[nH]6)C=C5)C=C4)cc2)c1
REMARK SMILES IDX 22 1 21 2 20 3 19 4 18 5 17 6 15 7 16 8 14 9 11 10 12 11
REMARK SMILES IDX 98 12 13 13 10 14 9 15 8 16 6 17 1 18 2 19 3 20 4 22 5 23
REMARK SMILES IDX 7 25 23 26 24 27 25 28 26 29 27 30 28 31 29 32 30 33 31 34
REMARK SMILES IDX 32 35 33 36 97 37 34 38 96 39 35 40 36 41 37 42 90 43 38 44
REMARK SMILES IDX 95 45 89 46 91 47 39 48 94 49 88 50 87 51 40 53 74 54 53 55
REMARK SMILES IDX 73 56 54 57 57 58 72 59 92 60 55 61 56 62 71 64 93 65 58 66
REMARK SMILES IDX 41 67 42 68 51 69 43 70 44 71 50 72 52 73 45 74 46 75 47 76
REMARK SMILES IDX 48 77 49 78 75 79 76 80 85 81 77 82 78 83 84 84 86 85 79 86
REMARK SMILES IDX 80 87 81 88 82 89 83 90 59 91 60 92 69 93 61 94 62 95 68 96
REMARK SMILES IDX 70 97 63 98 64 99 65 100 66 101 67 102
REMARK H PARENT 2 21 5 24 91 52 57 63
REMARK Flexibility Score: inf
ROOT
ATOM      1  C   UNL A   1      37.824  29.067  28.420  1.00  0.00     0.188 C 
ENDROOT
BRANCH   1   2
ATOM      2  C   UNL A   1      38.490  30.266  29.116  1.00  0.00     0.188 C 
BRANCH   2   3
ATOM      3  O   UNL A   1      37.890  31.515  28.769  1.00  0.00    -0.376 OA
BRANCH   3   4
ATOM      4  C   UNL A   1      36.959  32.066  29.699  1.00  0.00     0.202 C 
BRANCH   4   5
ATOM      5  C   UNL A   1      35.484  32.166  29.267  1.00  0.00     0.261 C 
BRANCH   5   6
ATOM      6  O   UNL A   1      35.134  31.407  28.100  1.00  0.00    -0.459 OA
BRANCH   6   7
ATOM      7  C   UNL A   1      33.868  31.522  27.621  1.00  0.00     0.348 C 
ATOM      8  O   UNL A   1      33.216  32.559  27.625  1.00  0.00    -0.245 OA
BRANCH   7   9
ATOM      9  C   UNL A   1      33.524  30.288  26.944  1.00  0.00     0.113 A 
ATOM     10  C   UNL A   1      32.393  28.625  25.777  1.00  0.00     0.019 A 
ATOM     11  C   UNL A   1      33.539  27.960  26.142  1.00  0.00     0.080 A 
ATOM     12  C   UNL A   1      32.335  29.928  26.332  1.00  0.00     0.042 A 
ATOM     13  S   UNL A   1      34.642  28.989  26.946  1.00  0.00    -0.136 S 
BRANCH  10  14
ATOM     14  S   UNL A   1      31.130  27.995  24.734  1.00  0.00    -0.125 SA
BRANCH  14  15
ATOM     15  C   UNL A   1      30.598  26.523  25.665  1.00  0.00     0.085 C 
BRANCH  15  16
ATOM     16  C   UNL A   1      31.112  25.175  25.175  1.00  0.00     0.112 C 
BRANCH  16  17
ATOM     17  C   UNL A   1      31.838  24.323  26.180  1.00  0.00     0.228 C 
ATOM     18  C   UNL A   1      33.554  24.769  23.050  1.00  0.00     0.144 C 
ATOM     19  N   UNL A   1      34.377  24.835  24.226  1.00  0.00    -0.341 N 
ATOM     20  C   UNL A   1      34.271  24.230  25.416  1.00  0.00     0.321 C 
ATOM     21  H   UNL A   1      35.155  25.432  24.144  1.00  0.00     0.165 HD
ATOM     22  O   UNL A   1      35.299  24.077  26.080  1.00  0.00    -0.248 OA
ATOM     23  N   UNL A   1      33.093  23.795  25.949  1.00  0.00    -0.278 N 
ATOM     24  H   UNL A   1      33.153  22.858  26.246  1.00  0.00     0.174 HD
ATOM     25  O   UNL A   1      31.282  24.056  27.253  1.00  0.00    -0.275 OA
ENDBRANCH  16  17
ENDBRANCH  15  16
ENDBRANCH  14  15
ENDBRANCH  10  14
ENDBRANCH   7   9
ENDBRANCH   6   7
ENDBRANCH   5   6
ENDBRANCH   4   5
ENDBRANCH   3   4
ENDBRANCH   2   3
ENDBRANCH   1   2
BRANCH   1  26
ATOM     26  O   UNL A   1      38.615  27.894  28.510  1.00  0.00    -0.377 OA
BRANCH  26  27
ATOM     27  C   UNL A   1      40.001  28.075  28.779  1.00  0.00     0.188 C 
BRANCH  27  28
ATOM     28  C   UNL A   1      40.958  26.864  28.744  1.00  0.00     0.188 C 
BRANCH  28  29
ATOM     29  O   UNL A   1      40.353  25.663  28.258  1.00  0.00    -0.376 OA
BRANCH  29  30
ATOM     30  C   UNL A   1      40.246  25.530  26.845  1.00  0.00     0.202 C 
BRANCH  30  31
ATOM     31  C   UNL A   1      41.524  25.020  26.165  1.00  0.00     0.261 C 
BRANCH  31  32
ATOM     32  O   UNL A   1      42.150  25.953  25.270  1.00  0.00    -0.460 OA
BRANCH  32  33
ATOM     33  C   UNL A   1      43.462  26.209  25.461  1.00  0.00     0.338 C 
ATOM     34  O   UNL A   1      44.403  25.669  24.910  1.00  0.00    -0.246 OA
BRANCH  33  35
ATOM     35  C   UNL A   1      43.572  27.403  26.322  1.00  0.00     0.060 A 
ATOM     36  C   UNL A   1      42.847  28.549  25.974  1.00  0.00     0.016 A 
ATOM     37  C   UNL A   1      44.391  27.393  27.454  1.00  0.00     0.016 A 
ATOM     38  C   UNL A   1      42.984  29.713  26.731  1.00  0.00     0.010 A 
ATOM     39  C   UNL A   1      44.542  28.563  28.199  1.00  0.00     0.010 A 
ATOM     40  C   UNL A   1      43.870  29.737  27.815  1.00  0.00    -0.014 A 
BRANCH  40  41
ATOM     41  C   UNL A   1      44.271  31.031  28.413  1.00  0.00     0.031 A 
ATOM     42  C   UNL A   1      43.397  31.612  29.490  1.00  0.00     0.074 A 
ATOM     43  C   UNL A   1      45.376  31.679  28.006  1.00  0.00     0.049 A 
ATOM     44  N   UNL A   1      43.501  32.753  30.119  1.00  0.00    -0.248 NA
ATOM     45  C   UNL A   1      42.245  30.794  29.909  1.00  0.00     0.031 C 
ATOM     46  C   UNL A   1      46.315  31.201  26.993  1.00  0.00     0.029 A 
ATOM     47  N   UNL A   1      45.885  32.893  28.394  1.00  0.00    -0.354 N 
ATOM     48  C   UNL A   1      42.431  32.791  31.006  1.00  0.00     0.074 A 
ATOM     49  C   UNL A   1      41.674  31.573  30.815  1.00  0.00     0.031 C 
ATOM     50  C   UNL A   1      47.280  32.123  26.826  1.00  0.00     0.029 A 
ATOM     51  C   UNL A   1      47.011  33.265  27.701  1.00  0.00     0.049 A 
ATOM     52  H   UNL A   1      45.482  33.445  29.102  1.00  0.00     0.167 HD
ATOM     53  C   UNL A   1      42.110  33.752  31.903  1.00  0.00     0.037 A 
ATOM     54  C   UNL A   1      47.727  34.405  27.755  1.00  0.00     0.037 A 
ATOM     55  C   UNL A   1      42.857  34.968  32.080  1.00  0.00     0.049 A 
ATOM     56  C   UNL A   1      47.315  35.491  28.716  1.00  0.00     0.074 A 
ATOM     57  C   UNL A   1      42.620  36.002  32.967  1.00  0.00     0.029 A 
ATOM     58  N   UNL A   1      43.983  35.315  31.350  1.00  0.00    -0.354 N 
ATOM     59  N   UNL A   1      46.315  35.507  29.566  1.00  0.00    -0.248 NA
ATOM     60  C   UNL A   1      48.130  36.716  28.727  1.00  0.00     0.031 C 
ATOM     61  C   UNL A   1      43.581  36.995  32.745  1.00  0.00     0.029 A 
ATOM     62  C   UNL A   1      44.441  36.558  31.750  1.00  0.00     0.049 A 
ATOM     63  H   UNL A   1      44.395  34.760  30.648  1.00  0.00     0.167 HD
ATOM     64  C   UNL A   1      46.396  36.727  30.230  1.00  0.00     0.074 A 
ATOM     65  C   UNL A   1      47.546  37.421  29.686  1.00  0.00     0.031 C 
ATOM     66  C   UNL A   1      45.595  37.228  31.202  1.00  0.00     0.037 A 
BRANCH  53  67
ATOM     67  C   UNL A   1      40.881  33.530  32.737  1.00  0.00     0.058 A 
ATOM     68  C   UNL A   1      40.944  32.880  33.980  1.00  0.00     0.135 A 
ATOM     69  C   UNL A   1      39.628  33.974  32.290  1.00  0.00     0.135 A 
ATOM     70  F   UNL A   1      42.117  32.416  34.441  1.00  0.00    -0.206 F 
ATOM     71  C   UNL A   1      39.801  32.653  34.738  1.00  0.00     0.059 A 
ATOM     72  C   UNL A   1      38.474  33.778  33.043  1.00  0.00     0.059 A 
ATOM     73  F   UNL A   1      39.513  34.594  31.105  1.00  0.00    -0.206 F 
ATOM     74  C   UNL A   1      38.569  33.101  34.258  1.00  0.00     0.060 A 
BRANCH  74  75
ATOM     75  S   UNL A   1      37.091  32.790  35.247  1.00  0.00     0.124 S 
ATOM     76  O   UNL A   1      37.423  31.514  35.871  1.00  0.00    -0.237 OA
ATOM     77  O   UNL A   1      37.063  33.944  36.141  1.00  0.00    -0.237 OA
ATOM     78  O   UNL A   1      36.022  32.746  34.254  1.00  0.00    -0.744 OA
ENDBRANCH  74  75
ENDBRANCH  53  67
BRANCH  54  79
ATOM     79  C   UNL A   1      48.903  34.588  26.863  1.00  0.00     0.058 A 
ATOM     80  C   UNL A   1      50.197  34.269  27.299  1.00  0.00     0.135 A 
ATOM     81  C   UNL A   1      48.755  35.085  25.559  1.00  0.00     0.135 A 
ATOM     82  F   UNL A   1      50.390  33.803  28.542  1.00  0.00    -0.206 F 
ATOM     83  C   UNL A   1      51.306  34.447  26.478  1.00  0.00     0.059 A 
ATOM     84  C   UNL A   1      49.846  35.252  24.712  1.00  0.00     0.059 A 
ATOM     85  F   UNL A   1      47.535  35.398  25.093  1.00  0.00    -0.206 F 
ATOM     86  C   UNL A   1      51.120  34.939  25.185  1.00  0.00     0.060 A 
BRANCH  86  87
ATOM     87  S   UNL A   1      52.559  35.122  24.108  1.00  0.00     0.124 S 
ATOM     88  O   UNL A   1      52.361  34.026  23.165  1.00  0.00    -0.237 OA
ATOM     89  O   UNL A   1      52.373  36.467  23.572  1.00  0.00    -0.237 OA
ATOM     90  O   UNL A   1      53.684  34.971  25.025  1.00  0.00    -0.744 OA
ENDBRANCH  86  87
ENDBRANCH  54  79
BRANCH  66  91
ATOM     91  C   UNL A   1      45.947  38.574  31.770  1.00  0.00     0.058 A 
ATOM     92  C   UNL A   1      45.456  39.762  31.210  1.00  0.00     0.135 A 
ATOM     93  C   UNL A   1      46.734  38.670  32.930  1.00  0.00     0.135 A 
ATOM     94  F   UNL A   1      44.704  39.725  30.098  1.00  0.00    -0.206 F 
ATOM     95  C   UNL A   1      45.747  41.002  31.769  1.00  0.00     0.059 A 
ATOM     96  C   UNL A   1      47.018  39.898  33.519  1.00  0.00     0.059 A 
ATOM     97  F   UNL A   1      47.218  37.561  33.511  1.00  0.00    -0.206 F 
ATOM     98  C   UNL A   1      46.528  41.059  32.926  1.00  0.00     0.060 A 
BRANCH  98  99
ATOM     99  S   UNL A   1      46.865  42.671  33.667  1.00  0.00     0.124 S 
ATOM    100  O   UNL A   1      48.324  42.702  33.653  1.00  0.00    -0.237 OA
ATOM    101  O   UNL A   1      46.203  43.587  32.744  1.00  0.00    -0.237 OA
ATOM    102  O   UNL A   1      46.251  42.571  34.989  1.00  0.00    -0.744 OA
ENDBRANCH  98  99
ENDBRANCH  66  91
ENDBRANCH  40  41
ENDBRANCH  33  35
ENDBRANCH  32  33
ENDBRANCH  31  32
ENDBRANCH  30  31
ENDBRANCH  29  30
ENDBRANCH  28  29
ENDBRANCH  27  28
ENDBRANCH  26  27
ENDBRANCH   1  26
TORSDOF 27
ENDMDL
MODEL 3
REMARK VINA RESULT:      -7.4      6.192      9.704
REMARK SMILES CNC(=O)NC(=O)CCSc1csc(C(=O)OCCOCCOCCOCCOC(=O)c2ccc(-c3c4nc(c(-c5c(F)cc(S(=O)(=O)[O-])cc5F)c5ccc([nH]5)c(-c5c(F)cc(S(=O)(=O)[O-])cc5F)c5nc(c(-c6c(F)cc(S(=O)(=O)[O-])cc6F)c6ccc3[nH]6)C=C5)C=C4)cc2)c1
REMARK SMILES IDX 22 1 21 2 20 3 19 4 18 5 17 6 15 7 16 8 14 9 11 10 12 11
REMARK SMILES IDX 98 12 13 13 10 14 9 15 8 16 6 17 1 18 2 19 3 20 4 22 5 23
REMARK SMILES IDX 7 25 23 26 24 27 25 28 26 29 27 30 28 31 29 32 30 33 31 34
REMARK SMILES IDX 32 35 33 36 97 37 34 38 96 39 35 40 36 41 37 42 90 43 38 44
REMARK SMILES IDX 95 45 89 46 91 47 39 48 94 49 88 50 87 51 40 53 74 54 53 55
REMARK SMILES IDX 73 56 54 57 57 58 72 59 92 60 55 61 56 62 71 64 93 65 58 66
REMARK SMILES IDX 41 67 42 68 51 69 43 70 44 71 50 72 52 73 45 74 46 75 47 76
REMARK SMILES IDX 48 77 49 78 75 79 76 80 85 81 77 82 78 83 84 84 86 85 79 86
REMARK SMILES IDX 80 87 81 88 82 89 83 90 59 91 60 92 69 93 61 94 62 95 68 96
REMARK SMILES IDX 70 97 63 98 64 99 65 100 66 101 67 102
REMARK H PARENT 2 21 5 24 91 52 57 63
REMARK Flexibility Score: inf
ROOT
ATOM      1  C   UNL A   1      41.749  25.465  36.256  1.00  0.00     0.188 C 
ENDROOT
BRANCH   1   2
ATOM      2  C   UNL A   1      42.184  24.250  35.420  1.00  0.00     0.188 C 
BRANCH   2   3
ATOM      3  O   UNL A   1      43.556  24.308  35.028  1.00  0.00    -0.376 OA
BRANCH   3   4
ATOM      4  C   UNL A   1      43.931  23.566  33.869  1.00  0.00     0.202 C 
BRANCH   4   5
ATOM      5  C   UNL A   1      44.411  24.352  32.635  1.00  0.00     0.261 C 
BRANCH   5   6
ATOM      6  O   UNL A   1      43.873  23.910  31.379  1.00  0.00    -0.459 OA
BRANCH   6   7
ATOM      7  C   UNL A   1      44.281  24.547  30.252  1.00  0.00     0.348 C 
ATOM      8  O   UNL A   1      45.384  25.064  30.106  1.00  0.00    -0.245 OA
BRANCH   7   9
ATOM      9  C   UNL A   1      43.288  24.330  29.221  1.00  0.00     0.113 A 
ATOM     10  C   UNL A   1      41.721  23.360  27.801  1.00  0.00     0.019 A 
ATOM     11  C   UNL A   1      41.849  24.609  27.241  1.00  0.00     0.080 A 
ATOM     12  C   UNL A   1      42.629  23.163  28.872  1.00  0.00     0.042 A 
ATOM     13  S   UNL A   1      42.886  25.613  28.158  1.00  0.00    -0.136 S 
BRANCH  10  14
ATOM     14  S   UNL A   1      40.575  22.127  27.307  1.00  0.00    -0.125 SA
BRANCH  14  15
ATOM     15  C   UNL A   1      41.612  20.631  27.366  1.00  0.00     0.085 C 
BRANCH  15  16
ATOM     16  C   UNL A   1      42.707  20.509  26.315  1.00  0.00     0.112 C 
BRANCH  16  17
ATOM     17  C   UNL A   1      42.868  19.164  25.659  1.00  0.00     0.228 C 
ATOM     18  C   UNL A   1      45.701  21.357  25.331  1.00  0.00     0.144 C 
ATOM     19  N   UNL A   1      46.008  19.980  25.602  1.00  0.00    -0.341 N 
ATOM     20  C   UNL A   1      45.370  18.849  25.272  1.00  0.00     0.321 C 
ATOM     21  H   UNL A   1      46.831  19.842  26.124  1.00  0.00     0.165 HD
ATOM     22  O   UNL A   1      46.032  17.810  25.208  1.00  0.00    -0.248 OA
ATOM     23  N   UNL A   1      44.030  18.772  25.026  1.00  0.00    -0.278 N 
ATOM     24  H   UNL A   1      43.844  18.318  24.172  1.00  0.00     0.174 HD
ATOM     25  O   UNL A   1      41.911  18.380  25.658  1.00  0.00    -0.275 OA
ENDBRANCH  16  17
ENDBRANCH  15  16
ENDBRANCH  14  15
ENDBRANCH  10  14
ENDBRANCH   7   9
ENDBRANCH   6   7
ENDBRANCH   5   6
ENDBRANCH   4   5
ENDBRANCH   3   4
ENDBRANCH   2   3
ENDBRANCH   1   2
BRANCH   1  26
ATOM     26  O   UNL A   1      41.172  26.483  35.455  1.00  0.00    -0.377 OA
BRANCH  26  27
ATOM     27  C   UNL A   1      42.061  27.235  34.637  1.00  0.00     0.188 C 
BRANCH  27  28
ATOM     28  C   UNL A   1      41.503  28.111  33.495  1.00  0.00     0.188 C 
BRANCH  28  29
ATOM     29  O   UNL A   1      40.076  28.201  33.479  1.00  0.00    -0.376 OA
BRANCH  29  30
ATOM     30  C   UNL A   1      39.431  27.883  32.251  1.00  0.00     0.202 C 
BRANCH  30  31
ATOM     31  C   UNL A   1      39.627  28.934  31.150  1.00  0.00     0.261 C 
BRANCH  31  32
ATOM     32  O   UNL A   1      38.712  30.040  31.196  1.00  0.00    -0.460 OA
BRANCH  32  33
ATOM     33  C   UNL A   1      38.937  30.991  32.128  1.00  0.00     0.338 C 
ATOM     34  O   UNL A   1      38.428  31.073  33.230  1.00  0.00    -0.246 OA
BRANCH  33  35
ATOM     35  C   UNL A   1      40.061  31.826  31.664  1.00  0.00     0.060 A 
ATOM     36  C   UNL A   1      39.917  32.540  30.467  1.00  0.00     0.016 A 
ATOM     37  C   UNL A   1      41.249  31.894  32.396  1.00  0.00     0.016 A 
ATOM     38  C   UNL A   1      40.987  33.284  29.970  1.00  0.00     0.010 A 
ATOM     39  C   UNL A   1      42.325  32.623  31.889  1.00  0.00     0.010 A 
ATOM     40  C   UNL A   1      42.209  33.286  30.654  1.00  0.00    -0.014 A 
BRANCH  40  41
ATOM     41  C   UNL A   1      43.431  33.788  29.983  1.00  0.00     0.031 A 
ATOM     42  C   UNL A   1      44.377  32.779  29.394  1.00  0.00     0.074 A 
ATOM     43  C   UNL A   1      43.698  35.103  29.904  1.00  0.00     0.049 A 
ATOM     44  N   UNL A   1      45.534  32.963  28.815  1.00  0.00    -0.248 NA
ATOM     45  C   UNL A   1      43.961  31.367  29.476  1.00  0.00     0.031 C 
ATOM     46  C   UNL A   1      42.843  36.174  30.412  1.00  0.00     0.029 A 
ATOM     47  N   UNL A   1      44.782  35.756  29.375  1.00  0.00    -0.354 N 
ATOM     48  C   UNL A   1      45.985  31.696  28.465  1.00  0.00     0.074 A 
ATOM     49  C   UNL A   1      44.992  30.748  28.920  1.00  0.00     0.031 C 
ATOM     50  C   UNL A   1      43.445  37.355  30.183  1.00  0.00     0.029 A 
ATOM     51  C   UNL A   1      44.738  37.119  29.538  1.00  0.00     0.049 A 
ATOM     52  H   UNL A   1      45.522  35.293  28.920  1.00  0.00     0.167 HD
ATOM     53  C   UNL A   1      47.122  31.352  27.816  1.00  0.00     0.037 A 
ATOM     54  C   UNL A   1      45.646  38.062  29.222  1.00  0.00     0.037 A 
ATOM     55  C   UNL A   1      48.114  32.296  27.377  1.00  0.00     0.049 A 
ATOM     56  C   UNL A   1      46.937  37.652  28.557  1.00  0.00     0.074 A 
ATOM     57  C   UNL A   1      49.297  32.051  26.705  1.00  0.00     0.029 A 
ATOM     58  N   UNL A   1      48.039  33.667  27.574  1.00  0.00    -0.354 N 
ATOM     59  N   UNL A   1      47.342  36.453  28.211  1.00  0.00    -0.248 NA
ATOM     60  C   UNL A   1      47.893  38.723  28.241  1.00  0.00     0.031 C 
ATOM     61  C   UNL A   1      49.960  33.271  26.531  1.00  0.00     0.029 A 
ATOM     62  C   UNL A   1      49.167  34.280  27.056  1.00  0.00     0.049 A 
ATOM     63  H   UNL A   1      47.295  34.134  28.019  1.00  0.00     0.167 HD
ATOM     64  C   UNL A   1      48.586  36.628  27.613  1.00  0.00     0.074 A 
ATOM     65  C   UNL A   1      48.865  38.049  27.640  1.00  0.00     0.031 C 
ATOM     66  C   UNL A   1      49.421  35.699  27.085  1.00  0.00     0.037 A 
BRANCH  53  67
ATOM     67  C   UNL A   1      47.358  29.889  27.573  1.00  0.00     0.058 A 
ATOM     68  C   UNL A   1      47.968  29.073  28.539  1.00  0.00     0.135 A 
ATOM     69  C   UNL A   1      46.968  29.297  26.362  1.00  0.00     0.135 A 
ATOM     70  F   UNL A   1      48.381  29.597  29.704  1.00  0.00    -0.206 F 
ATOM     71  C   UNL A   1      48.209  27.725  28.301  1.00  0.00     0.059 A 
ATOM     72  C   UNL A   1      47.179  27.944  26.112  1.00  0.00     0.059 A 
ATOM     73  F   UNL A   1      46.389  30.036  25.403  1.00  0.00    -0.206 F 
ATOM     74  C   UNL A   1      47.816  27.170  27.081  1.00  0.00     0.060 A 
BRANCH  74  75
ATOM     75  S   UNL A   1      48.143  25.420  26.781  1.00  0.00     0.124 S 
ATOM     76  O   UNL A   1      46.856  24.822  27.119  1.00  0.00    -0.237 OA
ATOM     77  O   UNL A   1      48.496  25.405  25.365  1.00  0.00    -0.237 OA
ATOM     78  O   UNL A   1      49.237  25.118  27.698  1.00  0.00    -0.744 OA
ENDBRANCH  74  75
ENDBRANCH  53  67
BRANCH  54  79
ATOM     79  C   UNL A   1      45.378  39.490  29.538  1.00  0.00     0.058 A 
ATOM     80  C   UNL A   1      45.797  40.053  30.753  1.00  0.00     0.135 A 
ATOM     81  C   UNL A   1      44.697  40.319  28.633  1.00  0.00     0.135 A 
ATOM     82  F   UNL A   1      46.439  39.298  31.656  1.00  0.00    -0.206 F 
ATOM     83  C   UNL A   1      45.541  41.385  31.064  1.00  0.00     0.059 A 
ATOM     84  C   UNL A   1      44.448  41.659  28.913  1.00  0.00     0.059 A 
ATOM     85  F   UNL A   1      44.283  39.828  27.454  1.00  0.00    -0.206 F 
ATOM     86  C   UNL A   1      44.866  42.180  30.136  1.00  0.00     0.060 A 
BRANCH  86  87
ATOM     87  S   UNL A   1      44.580  43.921  30.527  1.00  0.00     0.124 S 
ATOM     88  O   UNL A   1      43.126  43.963  30.630  1.00  0.00    -0.237 OA
ATOM     89  O   UNL A   1      45.314  44.079  31.779  1.00  0.00    -0.237 OA
ATOM     90  O   UNL A   1      45.153  44.619  29.381  1.00  0.00    -0.744 OA
ENDBRANCH  86  87
ENDBRANCH  54  79
BRANCH  66  91
ATOM     91  C   UNL A   1      50.699  36.185  26.462  1.00  0.00     0.058 A 
ATOM     92  C   UNL A   1      50.770  36.540  25.106  1.00  0.00     0.135 A 
ATOM     93  C   UNL A   1      51.849  36.360  27.248  1.00  0.00     0.135 A 
ATOM     94  F   UNL A   1      49.700  36.387  24.311  1.00  0.00    -0.206 F 
ATOM     95  C   UNL A   1      51.944  37.035  24.548  1.00  0.00     0.059 A 
ATOM     96  C   UNL A   1      53.026  36.876  26.716  1.00  0.00     0.059 A 
ATOM     97  F   UNL A   1      51.829  36.046  28.554  1.00  0.00    -0.206 F 
ATOM     98  C   UNL A   1      53.066  37.202  25.361  1.00  0.00     0.060 A 
BRANCH  98  99
ATOM     99  S   UNL A   1      54.573  37.884  24.635  1.00  0.00     0.124 S 
ATOM    100  O   UNL A   1      55.384  38.135  25.822  1.00  0.00    -0.237 OA
ATOM    101  O   UNL A   1      55.028  36.797  23.775  1.00  0.00    -0.237 OA
ATOM    102  O   UNL A   1      54.101  39.075  23.934  1.00  0.00    -0.744 OA
ENDBRANCH  98  99
ENDBRANCH  66  91
ENDBRANCH  40  41
ENDBRANCH  33  35
ENDBRANCH  32  33
ENDBRANCH  31  32
ENDBRANCH  30  31
ENDBRANCH  29  30
ENDBRANCH  28  29
ENDBRANCH  27  28
ENDBRANCH  26  27
ENDBRANCH   1  26
TORSDOF 27
ENDMDL
