MODEL 1
REMARK VINA RESULT:      -8.8      0.000      0.000
REMARK SMILES CCN(CC)S(=O)(=O)c1cccc(C(=O)N2C[C@H](O)C[C@H]2C(=O)OCCOCCOCCOCCOC(=O)c2ccc(-c3c4nc(c(-c5c(F)cc(S(=O)(=O)[O-])cc5F)c5ccc([nH]5)c(-c5c(F)cc(S(=O)(=O)[O-])cc5F)c5nc(c(-c6c(F)cc(S(=O)(=O)[O-])cc6F)c6ccc3[nH]6)C=C5)C=C4)cc2)c1
REMARK SMILES IDX 29 1 28 2 27 3 26 4 25 5 24 6 22 7 23 8 21 9 16 10 17 11
REMARK SMILES IDX 18 12 20 13 14 14 15 15 13 16 9 17 10 18 105 19 11 20 12 21
REMARK SMILES IDX 6 22 7 23 8 24 3 25 2 26 1 27 4 28 5 29 19 30 30 32 31 33
REMARK SMILES IDX 32 34 33 35 34 36 35 37 36 38 37 39 38 40 39 41 40 42 104 43
REMARK SMILES IDX 41 44 103 45 42 46 43 47 44 48 97 49 45 50 102 51 96 52
REMARK SMILES IDX 98 53 46 54 101 55 95 56 94 57 47 59 81 60 60 61 80 62 61 63
REMARK SMILES IDX 64 64 79 65 99 66 62 67 63 68 78 70 100 71 65 72 48 73 49 74
REMARK SMILES IDX 58 75 50 76 51 77 57 78 59 79 52 80 53 81 54 82 55 83 56 84
REMARK SMILES IDX 82 85 83 86 92 87 84 88 85 89 91 90 93 91 86 92 87 93 88 94
REMARK SMILES IDX 89 95 90 96 66 97 67 98 76 99 68 100 69 101 75 102 77 103
REMARK SMILES IDX 70 104 71 105 72 106 73 107 74 108
REMARK H PARENT 19 31 98 58 64 69
REMARK Flexibility Score: inf
ROOT
ATOM      1  C   UNL A   1      38.075  23.725  25.807  1.00  0.00     0.188 C 
ENDROOT
BRANCH   1   2
ATOM      2  C   UNL A   1      37.138  22.653  25.252  1.00  0.00     0.188 C 
BRANCH   2   3
ATOM      3  O   UNL A   1      36.003  22.306  26.022  1.00  0.00    -0.376 OA
BRANCH   3   4
ATOM      4  C   UNL A   1      35.309  23.311  26.757  1.00  0.00     0.202 C 
BRANCH   4   5
ATOM      5  C   UNL A   1      34.258  24.230  26.099  1.00  0.00     0.261 C 
BRANCH   5   6
ATOM      6  O   UNL A   1      32.959  24.291  26.749  1.00  0.00    -0.462 OA
BRANCH   6   7
ATOM      7  C   UNL A   1      32.337  23.103  26.914  1.00  0.00     0.329 C 
ATOM      8  O   UNL A   1      31.993  22.680  28.024  1.00  0.00    -0.250 OA
BRANCH   7   9
ATOM      9  C   UNL A   1      31.994  22.252  25.659  1.00  0.00     0.198 C 
ATOM     10  N   UNL A   1      32.129  22.482  24.200  1.00  0.00    -0.322 N 
ATOM     11  C   UNL A   1      33.021  21.520  23.579  1.00  0.00     0.152 C 
ATOM     12  C   UNL A   1      33.021  20.336  24.535  1.00  0.00     0.136 C 
ATOM     13  C   UNL A   1      32.894  21.002  25.887  1.00  0.00     0.071 C 
BRANCH  10  14
ATOM     14  C   UNL A   1      31.412  23.360  23.408  1.00  0.00     0.254 C 
ATOM     15  O   UNL A   1      30.280  23.071  23.025  1.00  0.00    -0.269 OA
BRANCH  14  16
ATOM     16  C   UNL A   1      31.887  24.783  23.196  1.00  0.00     0.041 A 
ATOM     17  C   UNL A   1      32.004  27.162  23.694  1.00  0.00     0.083 A 
ATOM     18  C   UNL A   1      32.730  27.415  22.529  1.00  0.00     0.022 A 
ATOM     19  C   UNL A   1      31.633  25.853  24.060  1.00  0.00     0.035 A 
ATOM     20  C   UNL A   1      32.988  26.363  21.662  1.00  0.00     0.002 A 
ATOM     21  C   UNL A   1      32.542  25.073  21.982  1.00  0.00     0.014 A 
BRANCH  17  22
ATOM     22  S   UNL A   1      31.455  28.539  24.689  1.00  0.00     0.243 S 
ATOM     23  O   UNL A   1      32.356  29.654  24.458  1.00  0.00    -0.207 OA
ATOM     24  O   UNL A   1      31.262  28.028  26.024  1.00  0.00    -0.207 OA
BRANCH  22  25
ATOM     25  N   UNL A   1      29.935  28.920  23.990  1.00  0.00    -0.198 NA
BRANCH  25  26
ATOM     26  C   UNL A   1      29.884  30.141  23.133  1.00  0.00     0.099 C 
ATOM     27  C   UNL A   1      28.935  31.200  23.660  1.00  0.00     0.022 C 
ENDBRANCH  25  26
BRANCH  25  28
ATOM     28  C   UNL A   1      29.136  27.800  23.398  1.00  0.00     0.099 C 
ATOM     29  C   UNL A   1      27.636  28.049  23.358  1.00  0.00     0.022 C 
ENDBRANCH  25  28
ENDBRANCH  22  25
ENDBRANCH  17  22
ENDBRANCH  14  16
ENDBRANCH  10  14
BRANCH  12  30
ATOM     30  O   UNL A   1      31.921  19.461  24.312  1.00  0.00    -0.391 OA
ATOM     31  H   UNL A   1      31.820  18.866  25.072  1.00  0.00     0.211 HD
ENDBRANCH  12  30
ENDBRANCH   7   9
ENDBRANCH   6   7
ENDBRANCH   5   6
ENDBRANCH   4   5
ENDBRANCH   3   4
ENDBRANCH   2   3
ENDBRANCH   1   2
BRANCH   1  32
ATOM     32  O   UNL A   1      39.258  23.267  26.425  1.00  0.00    -0.377 OA
BRANCH  32  33
ATOM     33  C   UNL A   1      39.537  21.869  26.527  1.00  0.00     0.188 C 
BRANCH  33  34
ATOM     34  C   UNL A   1      40.934  21.391  26.130  1.00  0.00     0.188 C 
BRANCH  34  35
ATOM     35  O   UNL A   1      42.000  21.626  27.058  1.00  0.00    -0.376 OA
BRANCH  35  36
ATOM     36  C   UNL A   1      43.083  22.451  26.637  1.00  0.00     0.202 C 
BRANCH  36  37
ATOM     37  C   UNL A   1      42.703  23.538  25.638  1.00  0.00     0.261 C 
BRANCH  37  38
ATOM     38  O   UNL A   1      42.240  24.724  26.298  1.00  0.00    -0.460 OA
BRANCH  38  39
ATOM     39  C   UNL A   1      43.045  25.800  26.143  1.00  0.00     0.338 C 
ATOM     40  O   UNL A   1      43.589  26.170  25.116  1.00  0.00    -0.246 OA
BRANCH  39  41
ATOM     41  C   UNL A   1      43.083  26.584  27.390  1.00  0.00     0.060 A 
ATOM     42  C   UNL A   1      42.330  26.113  28.472  1.00  0.00     0.016 A 
ATOM     43  C   UNL A   1      43.760  27.804  27.470  1.00  0.00     0.016 A 
ATOM     44  C   UNL A   1      42.188  26.893  29.611  1.00  0.00     0.010 A 
ATOM     45  C   UNL A   1      43.612  28.591  28.613  1.00  0.00     0.010 A 
ATOM     46  C   UNL A   1      42.783  28.159  29.664  1.00  0.00    -0.014 A 
BRANCH  46  47
ATOM     47  C   UNL A   1      42.375  29.097  30.732  1.00  0.00     0.031 A 
ATOM     48  C   UNL A   1      43.227  29.195  31.967  1.00  0.00     0.074 A 
ATOM     49  C   UNL A   1      41.297  29.883  30.574  1.00  0.00     0.049 A 
ATOM     50  N   UNL A   1      43.063  29.933  33.033  1.00  0.00    -0.248 NA
ATOM     51  C   UNL A   1      44.429  28.343  32.007  1.00  0.00     0.031 C 
ATOM     52  C   UNL A   1      40.429  29.895  29.396  1.00  0.00     0.029 A 
ATOM     53  N   UNL A   1      40.749  30.822  31.407  1.00  0.00    -0.354 N 
ATOM     54  C   UNL A   1      44.131  29.631  33.870  1.00  0.00     0.074 A 
ATOM     55  C   UNL A   1      44.918  28.615  33.206  1.00  0.00     0.031 C 
ATOM     56  C   UNL A   1      39.449  30.794  29.588  1.00  0.00     0.029 A 
ATOM     57  C   UNL A   1      39.601  31.392  30.912  1.00  0.00     0.049 A 
ATOM     58  H   UNL A   1      41.139  31.065  32.277  1.00  0.00     0.167 HD
ATOM     59  C   UNL A   1      44.432  30.163  35.078  1.00  0.00     0.037 A 
ATOM     60  C   UNL A   1      38.759  32.278  31.479  1.00  0.00     0.037 A 
ATOM     61  C   UNL A   1      43.635  31.173  35.725  1.00  0.00     0.049 A 
ATOM     62  C   UNL A   1      39.079  32.809  32.852  1.00  0.00     0.074 A 
ATOM     63  C   UNL A   1      43.850  31.792  36.943  1.00  0.00     0.029 A 
ATOM     64  N   UNL A   1      42.462  31.707  35.207  1.00  0.00    -0.354 N 
ATOM     65  N   UNL A   1      40.102  32.531  33.628  1.00  0.00    -0.248 NA
ATOM     66  C   UNL A   1      38.138  33.779  33.424  1.00  0.00     0.031 C 
ATOM     67  C   UNL A   1      42.777  32.655  37.190  1.00  0.00     0.029 A 
ATOM     68  C   UNL A   1      41.927  32.627  36.094  1.00  0.00     0.049 A 
ATOM     69  H   UNL A   1      42.068  31.467  34.337  1.00  0.00     0.167 HD
ATOM     70  C   UNL A   1      39.940  33.312  34.767  1.00  0.00     0.074 A 
ATOM     71  C   UNL A   1      38.732  34.087  34.569  1.00  0.00     0.031 C 
ATOM     72  C   UNL A   1      40.719  33.387  35.876  1.00  0.00     0.037 A 
BRANCH  59  73
ATOM     73  C   UNL A   1      45.651  29.641  35.791  1.00  0.00     0.058 A 
ATOM     74  C   UNL A   1      46.918  30.225  35.626  1.00  0.00     0.135 A 
ATOM     75  C   UNL A   1      45.545  28.555  36.676  1.00  0.00     0.135 A 
ATOM     76  F   UNL A   1      47.084  31.253  34.778  1.00  0.00    -0.206 F 
ATOM     77  C   UNL A   1      48.038  29.737  36.292  1.00  0.00     0.059 A 
ATOM     78  C   UNL A   1      46.646  28.069  37.376  1.00  0.00     0.059 A 
ATOM     79  F   UNL A   1      44.362  27.952  36.867  1.00  0.00    -0.206 F 
ATOM     80  C   UNL A   1      47.892  28.659  37.167  1.00  0.00     0.060 A 
BRANCH  80  81
ATOM     81  S   UNL A   1      49.353  28.045  38.032  1.00  0.00     0.124 S 
ATOM     82  O   UNL A   1      50.420  28.783  37.362  1.00  0.00    -0.237 OA
ATOM     83  O   UNL A   1      49.083  28.434  39.413  1.00  0.00    -0.237 OA
ATOM     84  O   UNL A   1      49.326  26.610  37.772  1.00  0.00    -0.744 OA
ENDBRANCH  80  81
ENDBRANCH  59  73
BRANCH  60  85
ATOM     85  C   UNL A   1      37.533  32.704  30.753  1.00  0.00     0.058 A 
ATOM     86  C   UNL A   1      37.550  33.787  29.863  1.00  0.00     0.135 A 
ATOM     87  C   UNL A   1      36.316  32.026  30.932  1.00  0.00     0.135 A 
ATOM     88  F   UNL A   1      38.686  34.474  29.664  1.00  0.00    -0.206 F 
ATOM     89  C   UNL A   1      36.405  34.192  29.185  1.00  0.00     0.059 A 
ATOM     90  C   UNL A   1      35.165  32.392  30.243  1.00  0.00     0.059 A 
ATOM     91  F   UNL A   1      36.247  30.975  31.764  1.00  0.00    -0.206 F 
ATOM     92  C   UNL A   1      35.217  33.483  29.377  1.00  0.00     0.060 A 
BRANCH  92  93
ATOM     93  S   UNL A   1      33.751  33.985  28.453  1.00  0.00     0.124 S 
ATOM     94  O   UNL A   1      34.310  34.950  27.513  1.00  0.00    -0.237 OA
ATOM     95  O   UNL A   1      33.304  32.719  27.880  1.00  0.00    -0.237 OA
ATOM     96  O   UNL A   1      32.877  34.540  29.483  1.00  0.00    -0.744 OA
ENDBRANCH  92  93
ENDBRANCH  60  85
BRANCH  72  97
ATOM     97  C   UNL A   1      40.307  34.364  36.945  1.00  0.00     0.058 A 
ATOM     98  C   UNL A   1      39.362  34.032  37.930  1.00  0.00     0.135 A 
ATOM     99  C   UNL A   1      40.892  35.640  37.003  1.00  0.00     0.135 A 
ATOM    100  F   UNL A   1      38.770  32.827  37.920  1.00  0.00    -0.206 F 
ATOM    101  C   UNL A   1      38.984  34.944  38.910  1.00  0.00     0.059 A 
ATOM    102  C   UNL A   1      40.555  36.555  37.996  1.00  0.00     0.059 A 
ATOM    103  F   UNL A   1      41.811  36.005  36.096  1.00  0.00    -0.206 F 
ATOM    104  C   UNL A   1      39.587  36.203  38.934  1.00  0.00     0.060 A 
BRANCH 104 105
ATOM    105  S   UNL A   1      39.094  37.372  40.218  1.00  0.00     0.124 S 
ATOM    106  O   UNL A   1      38.474  36.487  41.199  1.00  0.00    -0.237 OA
ATOM    107  O   UNL A   1      40.371  37.960  40.611  1.00  0.00    -0.237 OA
ATOM    108  O   UNL A   1      38.182  38.275  39.525  1.00  0.00    -0.744 OA
ENDBRANCH 104 105
ENDBRANCH  72  97
ENDBRANCH  46  47
ENDBRANCH  39  41
ENDBRANCH  38  39
ENDBRANCH  37  38
ENDBRANCH  36  37
ENDBRANCH  35  36
ENDBRANCH  34  35
ENDBRANCH  33  34
ENDBRANCH  32  33
ENDBRANCH   1  32
TORSDOF 30
ENDMDL
MODEL 2
REMARK VINA RESULT:      -8.0      4.033      8.633
REMARK SMILES CCN(CC)S(=O)(=O)c1cccc(C(=O)N2C[C@H](O)C[C@H]2C(=O)OCCOCCOCCOCCOC(=O)c2ccc(-c3c4nc(c(-c5c(F)cc(S(=O)(=O)[O-])cc5F)c5ccc([nH]5)c(-c5c(F)cc(S(=O)(=O)[O-])cc5F)c5nc(c(-c6c(F)cc(S(=O)(=O)[O-])cc6F)c6ccc3[nH]6)C=C5)C=C4)cc2)c1
REMARK SMILES IDX 29 1 28 2 27 3 26 4 25 5 24 6 22 7 23 8 21 9 16 10 17 11
REMARK SMILES IDX 18 12 20 13 14 14 15 15 13 16 9 17 10 18 105 19 11 20 12 21
REMARK SMILES IDX 6 22 7 23 8 24 3 25 2 26 1 27 4 28 5 29 19 30 30 32 31 33
REMARK SMILES IDX 32 34 33 35 34 36 35 37 36 38 37 39 38 40 39 41 40 42 104 43
REMARK SMILES IDX 41 44 103 45 42 46 43 47 44 48 97 49 45 50 102 51 96 52
REMARK SMILES IDX 98 53 46 54 101 55 95 56 94 57 47 59 81 60 60 61 80 62 61 63
REMARK SMILES IDX 64 64 79 65 99 66 62 67 63 68 78 70 100 71 65 72 48 73 49 74
REMARK SMILES IDX 58 75 50 76 51 77 57 78 59 79 52 80 53 81 54 82 55 83 56 84
REMARK SMILES IDX 82 85 83 86 92 87 84 88 85 89 91 90 93 91 86 92 87 93 88 94
REMARK SMILES IDX 89 95 90 96 66 97 67 98 76 99 68 100 69 101 75 102 77 103
REMARK SMILES IDX 70 104 71 105 72 106 73 107 74 108
REMARK H PARENT 19 31 98 58 64 69
REMARK Flexibility Score: inf
ROOT
ATOM      1  C   UNL A   1      36.180  23.136  26.311  1.00  0.00     0.188 C 
ENDROOT
BRANCH   1   2
ATOM      2  C   UNL A   1      35.288  21.903  26.170  1.00  0.00     0.188 C 
BRANCH   2   3
ATOM      3  O   UNL A   1      34.579  21.468  27.314  1.00  0.00    -0.376 OA
BRANCH   3   4
ATOM      4  C   UNL A   1      33.520  22.265  27.839  1.00  0.00     0.202 C 
BRANCH   4   5
ATOM      5  C   UNL A   1      32.649  23.168  26.940  1.00  0.00     0.261 C 
BRANCH   5   6
ATOM      6  O   UNL A   1      31.500  22.536  26.313  1.00  0.00    -0.462 OA
BRANCH   6   7
ATOM      7  C   UNL A   1      31.749  21.911  25.141  1.00  0.00     0.329 C 
ATOM      8  O   UNL A   1      31.869  20.683  25.053  1.00  0.00    -0.250 OA
BRANCH   7   9
ATOM      9  C   UNL A   1      31.841  22.760  23.842  1.00  0.00     0.198 C 
ATOM     10  N   UNL A   1      32.014  24.208  23.577  1.00  0.00    -0.322 N 
ATOM     11  C   UNL A   1      33.240  24.485  22.849  1.00  0.00     0.152 C 
ATOM     12  C   UNL A   1      33.575  23.169  22.163  1.00  0.00     0.136 C 
ATOM     13  C   UNL A   1      33.101  22.142  23.167  1.00  0.00     0.071 C 
BRANCH  10  14
ATOM     14  C   UNL A   1      31.106  25.228  23.797  1.00  0.00     0.254 C 
ATOM     15  O   UNL A   1      30.042  25.258  23.183  1.00  0.00    -0.269 OA
BRANCH  14  16
ATOM     16  C   UNL A   1      31.277  26.184  24.961  1.00  0.00     0.041 A 
ATOM     17  C   UNL A   1      32.345  27.999  26.179  1.00  0.00     0.083 A 
ATOM     18  C   UNL A   1      31.560  27.762  27.308  1.00  0.00     0.022 A 
ATOM     19  C   UNL A   1      32.171  27.259  24.992  1.00  0.00     0.035 A 
ATOM     20  C   UNL A   1      30.669  26.698  27.290  1.00  0.00     0.002 A 
ATOM     21  C   UNL A   1      30.558  25.905  26.140  1.00  0.00     0.014 A 
BRANCH  17  22
ATOM     22  S   UNL A   1      33.660  29.203  26.276  1.00  0.00     0.243 S 
ATOM     23  O   UNL A   1      33.908  29.714  24.940  1.00  0.00    -0.207 OA
ATOM     24  O   UNL A   1      34.727  28.584  27.025  1.00  0.00    -0.207 OA
BRANCH  22  25
ATOM     25  N   UNL A   1      32.949  30.455  27.210  1.00  0.00    -0.198 NA
BRANCH  25  26
ATOM     26  C   UNL A   1      33.791  31.664  27.452  1.00  0.00     0.099 C 
ATOM     27  C   UNL A   1      34.932  31.411  28.420  1.00  0.00     0.022 C 
ENDBRANCH  25  26
BRANCH  25  28
ATOM     28  C   UNL A   1      31.528  30.825  26.918  1.00  0.00     0.099 C 
ATOM     29  C   UNL A   1      31.352  32.199  26.288  1.00  0.00     0.022 C 
ENDBRANCH  25  28
ENDBRANCH  22  25
ENDBRANCH  17  22
ENDBRANCH  14  16
ENDBRANCH  10  14
BRANCH  12  30
ATOM     30  O   UNL A   1      32.880  23.010  20.931  1.00  0.00    -0.391 OA
ATOM     31  H   UNL A   1      32.075  22.488  21.077  1.00  0.00     0.211 HD
ENDBRANCH  12  30
ENDBRANCH   7   9
ENDBRANCH   6   7
ENDBRANCH   5   6
ENDBRANCH   4   5
ENDBRANCH   3   4
ENDBRANCH   2   3
ENDBRANCH   1   2
BRANCH   1  32
ATOM     32  O   UNL A   1      37.540  22.969  25.972  1.00  0.00    -0.377 OA
BRANCH  32  33
ATOM     33  C   UNL A   1      38.060  21.680  25.642  1.00  0.00     0.188 C 
BRANCH  33  34
ATOM     34  C   UNL A   1      39.561  21.449  25.826  1.00  0.00     0.188 C 
BRANCH  34  35
ATOM     35  O   UNL A   1      40.012  21.047  27.125  1.00  0.00    -0.376 OA
BRANCH  35  36
ATOM     36  C   UNL A   1      41.156  20.202  27.204  1.00  0.00     0.202 C 
BRANCH  36  37
ATOM     37  C   UNL A   1      41.982  20.127  25.925  1.00  0.00     0.261 C 
BRANCH  37  38
ATOM     38  O   UNL A   1      43.228  20.823  26.060  1.00  0.00    -0.460 OA
BRANCH  38  39
ATOM     39  C   UNL A   1      43.130  22.169  25.959  1.00  0.00     0.338 C 
ATOM     40  O   UNL A   1      42.655  22.805  25.033  1.00  0.00    -0.246 OA
BRANCH  39  41
ATOM     41  C   UNL A   1      43.566  22.802  27.217  1.00  0.00     0.060 A 
ATOM     42  C   UNL A   1      42.573  23.331  28.050  1.00  0.00     0.016 A 
ATOM     43  C   UNL A   1      44.919  22.964  27.526  1.00  0.00     0.016 A 
ATOM     44  C   UNL A   1      42.929  24.088  29.159  1.00  0.00     0.010 A 
ATOM     45  C   UNL A   1      45.275  23.731  28.637  1.00  0.00     0.010 A 
ATOM     46  C   UNL A   1      44.281  24.336  29.424  1.00  0.00    -0.014 A 
BRANCH  46  47
ATOM     47  C   UNL A   1      44.635  25.385  30.406  1.00  0.00     0.031 A 
ATOM     48  C   UNL A   1      44.719  26.811  29.936  1.00  0.00     0.074 A 
ATOM     49  C   UNL A   1      44.820  25.072  31.699  1.00  0.00     0.049 A 
ATOM     50  N   UNL A   1      45.021  27.889  30.609  1.00  0.00    -0.248 NA
ATOM     51  C   UNL A   1      44.424  27.054  28.513  1.00  0.00     0.031 C 
ATOM     52  C   UNL A   1      44.720  23.726  32.264  1.00  0.00     0.029 A 
ATOM     53  N   UNL A   1      45.133  25.865  32.771  1.00  0.00    -0.354 N 
ATOM     54  C   UNL A   1      44.960  28.935  29.693  1.00  0.00     0.074 A 
ATOM     55  C   UNL A   1      44.629  28.357  28.410  1.00  0.00     0.031 C 
ATOM     56  C   UNL A   1      44.976  23.786  33.581  1.00  0.00     0.029 A 
ATOM     57  C   UNL A   1      45.292  25.167  33.943  1.00  0.00     0.049 A 
ATOM     58  H   UNL A   1      45.235  26.842  32.708  1.00  0.00     0.167 HD
ATOM     59  C   UNL A   1      45.152  30.257  29.910  1.00  0.00     0.037 A 
ATOM     60  C   UNL A   1      45.674  25.594  35.162  1.00  0.00     0.037 A 
ATOM     61  C   UNL A   1      45.484  30.814  31.196  1.00  0.00     0.049 A 
ATOM     62  C   UNL A   1      45.946  27.062  35.365  1.00  0.00     0.074 A 
ATOM     63  C   UNL A   1      45.690  32.139  31.534  1.00  0.00     0.029 A 
ATOM     64  N   UNL A   1      45.666  30.073  32.356  1.00  0.00    -0.354 N 
ATOM     65  N   UNL A   1      45.867  28.045  34.499  1.00  0.00    -0.248 NA
ATOM     66  C   UNL A   1      46.349  27.481  36.713  1.00  0.00     0.031 C 
ATOM     67  C   UNL A   1      46.055  32.194  32.883  1.00  0.00     0.029 A 
ATOM     68  C   UNL A   1      46.009  30.910  33.405  1.00  0.00     0.049 A 
ATOM     69  H   UNL A   1      45.565  29.095  32.423  1.00  0.00     0.167 HD
ATOM     70  C   UNL A   1      46.185  29.201  35.203  1.00  0.00     0.074 A 
ATOM     71  C   UNL A   1      46.438  28.796  36.570  1.00  0.00     0.031 C 
ATOM     72  C   UNL A   1      46.259  30.483  34.761  1.00  0.00     0.037 A 
BRANCH  59  73
ATOM     73  C   UNL A   1      45.043  31.185  28.729  1.00  0.00     0.058 A 
ATOM     74  C   UNL A   1      46.137  31.456  27.891  1.00  0.00     0.135 A 
ATOM     75  C   UNL A   1      43.816  31.792  28.414  1.00  0.00     0.135 A 
ATOM     76  F   UNL A   1      47.340  30.920  28.154  1.00  0.00    -0.206 F 
ATOM     77  C   UNL A   1      46.025  32.313  26.800  1.00  0.00     0.059 A 
ATOM     78  C   UNL A   1      43.673  32.628  27.310  1.00  0.00     0.059 A 
ATOM     79  F   UNL A   1      42.737  31.576  29.183  1.00  0.00    -0.206 F 
ATOM     80  C   UNL A   1      44.788  32.893  26.516  1.00  0.00     0.060 A 
BRANCH  80  81
ATOM     81  S   UNL A   1      44.657  33.993  25.090  1.00  0.00     0.124 S 
ATOM     82  O   UNL A   1      46.020  34.507  24.992  1.00  0.00    -0.237 OA
ATOM     83  O   UNL A   1      44.245  33.079  24.029  1.00  0.00    -0.237 OA
ATOM     84  O   UNL A   1      43.649  34.965  25.501  1.00  0.00    -0.744 OA
ENDBRANCH  80  81
ENDBRANCH  59  73
BRANCH  60  85
ATOM     85  C   UNL A   1      45.832  24.619  36.274  1.00  0.00     0.058 A 
ATOM     86  C   UNL A   1      46.951  23.778  36.355  1.00  0.00     0.135 A 
ATOM     87  C   UNL A   1      44.865  24.516  37.287  1.00  0.00     0.135 A 
ATOM     88  F   UNL A   1      47.900  23.831  35.407  1.00  0.00    -0.206 F 
ATOM     89  C   UNL A   1      47.102  22.862  37.391  1.00  0.00     0.059 A 
ATOM     90  C   UNL A   1      45.007  23.629  38.349  1.00  0.00     0.059 A 
ATOM     91  F   UNL A   1      43.779  25.305  37.264  1.00  0.00    -0.206 F 
ATOM     92  C   UNL A   1      46.125  22.799  38.388  1.00  0.00     0.060 A 
BRANCH  92  93
ATOM     93  S   UNL A   1      46.357  21.644  39.754  1.00  0.00     0.124 S 
ATOM     94  O   UNL A   1      46.026  20.371  39.124  1.00  0.00    -0.237 OA
ATOM     95  O   UNL A   1      47.763  21.846  40.090  1.00  0.00    -0.237 OA
ATOM     96  O   UNL A   1      45.407  22.116  40.758  1.00  0.00    -0.744 OA
ENDBRANCH  92  93
ENDBRANCH  60  85
BRANCH  72  97
ATOM     97  C   UNL A   1      46.595  31.544  35.776  1.00  0.00     0.058 A 
ATOM     98  C   UNL A   1      45.607  32.156  36.564  1.00  0.00     0.135 A 
ATOM     99  C   UNL A   1      47.930  31.927  35.987  1.00  0.00     0.135 A 
ATOM    100  F   UNL A   1      44.315  31.830  36.403  1.00  0.00    -0.206 F 
ATOM    101  C   UNL A   1      45.926  33.139  37.496  1.00  0.00     0.059 A 
ATOM    102  C   UNL A   1      48.276  32.881  36.938  1.00  0.00     0.059 A 
ATOM    103  F   UNL A   1      48.916  31.363  35.272  1.00  0.00    -0.206 F 
ATOM    104  C   UNL A   1      47.265  33.494  37.675  1.00  0.00     0.060 A 
BRANCH 104 105
ATOM    105  S   UNL A   1      47.666  34.761  38.895  1.00  0.00     0.124 S 
ATOM    106  O   UNL A   1      48.987  35.193  38.448  1.00  0.00    -0.237 OA
ATOM    107  O   UNL A   1      46.586  35.726  38.708  1.00  0.00    -0.237 OA
ATOM    108  O   UNL A   1      47.639  34.037  40.161  1.00  0.00    -0.744 OA
ENDBRANCH 104 105
ENDBRANCH  72  97
ENDBRANCH  46  47
ENDBRANCH  39  41
ENDBRANCH  38  39
ENDBRANCH  37  38
ENDBRANCH  36  37
ENDBRANCH  35  36
ENDBRANCH  34  35
ENDBRANCH  33  34
ENDBRANCH  32  33
ENDBRANCH   1  32
TORSDOF 30
ENDMDL
MODEL 3
REMARK VINA RESULT:      -7.8      2.981      9.359
REMARK SMILES CCN(CC)S(=O)(=O)c1cccc(C(=O)N2C[C@H](O)C[C@H]2C(=O)OCCOCCOCCOCCOC(=O)c2ccc(-c3c4nc(c(-c5c(F)cc(S(=O)(=O)[O-])cc5F)c5ccc([nH]5)c(-c5c(F)cc(S(=O)(=O)[O-])cc5F)c5nc(c(-c6c(F)cc(S(=O)(=O)[O-])cc6F)c6ccc3[nH]6)C=C5)C=C4)cc2)c1
REMARK SMILES IDX 29 1 28 2 27 3 26 4 25 5 24 6 22 7 23 8 21 9 16 10 17 11
REMARK SMILES IDX 18 12 20 13 14 14 15 15 13 16 9 17 10 18 105 19 11 20 12 21
REMARK SMILES IDX 6 22 7 23 8 24 3 25 2 26 1 27 4 28 5 29 19 30 30 32 31 33
REMARK SMILES IDX 32 34 33 35 34 36 35 37 36 38 37 39 38 40 39 41 40 42 104 43
REMARK SMILES IDX 41 44 103 45 42 46 43 47 44 48 97 49 45 50 102 51 96 52
REMARK SMILES IDX 98 53 46 54 101 55 95 56 94 57 47 59 81 60 60 61 80 62 61 63
REMARK SMILES IDX 64 64 79 65 99 66 62 67 63 68 78 70 100 71 65 72 48 73 49 74
REMARK SMILES IDX 58 75 50 76 51 77 57 78 59 79 52 80 53 81 54 82 55 83 56 84
REMARK SMILES IDX 82 85 83 86 92 87 84 88 85 89 91 90 93 91 86 92 87 93 88 94
REMARK SMILES IDX 89 95 90 96 66 97 67 98 76 99 68 100 69 101 75 102 77 103
REMARK SMILES IDX 70 104 71 105 72 106 73 107 74 108
REMARK H PARENT 19 31 98 58 64 69
REMARK Flexibility Score: inf
ROOT
ATOM      1  C   UNL A   1      38.346  29.712  28.762  1.00  0.00     0.188 C 
ENDROOT
BRANCH   1   2
ATOM      2  C   UNL A   1      36.998  30.227  28.259  1.00  0.00     0.188 C 
BRANCH   2   3
ATOM      3  O   UNL A   1      36.124  29.299  27.648  1.00  0.00    -0.376 OA
BRANCH   3   4
ATOM      4  C   UNL A   1      34.756  29.642  27.437  1.00  0.00     0.202 C 
BRANCH   4   5
ATOM      5  C   UNL A   1      33.661  28.571  27.249  1.00  0.00     0.261 C 
BRANCH   5   6
ATOM      6  O   UNL A   1      33.130  28.424  25.904  1.00  0.00    -0.462 OA
BRANCH   6   7
ATOM      7  C   UNL A   1      31.847  28.009  25.828  1.00  0.00     0.329 C 
ATOM      8  O   UNL A   1      31.152  27.805  26.831  1.00  0.00    -0.250 OA
BRANCH   7   9
ATOM      9  C   UNL A   1      31.196  27.827  24.428  1.00  0.00     0.198 C 
ATOM     10  N   UNL A   1      29.924  27.224  23.962  1.00  0.00    -0.322 N 
ATOM     11  C   UNL A   1      29.068  28.199  23.310  1.00  0.00     0.152 C 
ATOM     12  C   UNL A   1      30.022  29.297  22.862  1.00  0.00     0.136 C 
ATOM     13  C   UNL A   1      31.056  29.307  23.966  1.00  0.00     0.071 C 
BRANCH  10  14
ATOM     14  C   UNL A   1      29.571  25.887  23.946  1.00  0.00     0.254 C 
ATOM     15  O   UNL A   1      28.704  25.481  23.176  1.00  0.00    -0.269 OA
BRANCH  14  16
ATOM     16  C   UNL A   1      30.400  24.855  24.685  1.00  0.00     0.041 A 
ATOM     17  C   UNL A   1      31.771  22.854  24.866  1.00  0.00     0.083 A 
ATOM     18  C   UNL A   1      31.753  22.914  26.260  1.00  0.00     0.022 A 
ATOM     19  C   UNL A   1      31.152  23.844  24.078  1.00  0.00     0.035 A 
ATOM     20  C   UNL A   1      31.010  23.912  26.875  1.00  0.00     0.002 A 
ATOM     21  C   UNL A   1      30.320  24.847  26.092  1.00  0.00     0.014 A 
BRANCH  17  22
ATOM     22  S   UNL A   1      32.517  21.440  24.070  1.00  0.00     0.243 S 
ATOM     23  O   UNL A   1      32.374  21.599  22.634  1.00  0.00    -0.207 OA
ATOM     24  O   UNL A   1      31.983  20.272  24.727  1.00  0.00    -0.207 OA
BRANCH  22  25
ATOM     25  N   UNL A   1      34.176  21.621  24.470  1.00  0.00    -0.198 NA
BRANCH  25  26
ATOM     26  C   UNL A   1      34.916  20.372  24.819  1.00  0.00     0.099 C 
ATOM     27  C   UNL A   1      36.394  20.605  25.068  1.00  0.00     0.022 C 
ENDBRANCH  25  26
BRANCH  25  28
ATOM     28  C   UNL A   1      35.006  22.531  23.618  1.00  0.00     0.099 C 
ATOM     29  C   UNL A   1      34.970  23.992  24.038  1.00  0.00     0.022 C 
ENDBRANCH  25  28
ENDBRANCH  22  25
ENDBRANCH  17  22
ENDBRANCH  14  16
ENDBRANCH  10  14
BRANCH  12  30
ATOM     30  O   UNL A   1      30.638  29.002  21.613  1.00  0.00    -0.391 OA
ATOM     31  H   UNL A   1      31.592  28.884  21.742  1.00  0.00     0.211 HD
ENDBRANCH  12  30
ENDBRANCH   7   9
ENDBRANCH   6   7
ENDBRANCH   5   6
ENDBRANCH   4   5
ENDBRANCH   3   4
ENDBRANCH   2   3
ENDBRANCH   1   2
BRANCH   1  32
ATOM     32  O   UNL A   1      38.892  28.606  28.076  1.00  0.00    -0.377 OA
BRANCH  32  33
ATOM     33  C   UNL A   1      40.278  28.280  28.197  1.00  0.00     0.188 C 
BRANCH  33  34
ATOM     34  C   UNL A   1      40.732  26.906  27.703  1.00  0.00     0.188 C 
BRANCH  34  35
ATOM     35  O   UNL A   1      41.832  26.291  28.383  1.00  0.00    -0.376 OA
BRANCH  35  36
ATOM     36  C   UNL A   1      42.920  25.811  27.598  1.00  0.00     0.202 C 
BRANCH  36  37
ATOM     37  C   UNL A   1      44.293  26.299  28.048  1.00  0.00     0.261 C 
BRANCH  37  38
ATOM     38  O   UNL A   1      44.198  27.168  29.185  1.00  0.00    -0.460 OA
BRANCH  38  39
ATOM     39  C   UNL A   1      45.385  27.647  29.622  1.00  0.00     0.338 C 
ATOM     40  O   UNL A   1      46.433  27.694  29.001  1.00  0.00    -0.246 OA
BRANCH  39  41
ATOM     41  C   UNL A   1      45.223  28.253  30.956  1.00  0.00     0.060 A 
ATOM     42  C   UNL A   1      44.689  27.448  31.970  1.00  0.00     0.016 A 
ATOM     43  C   UNL A   1      45.492  29.605  31.185  1.00  0.00     0.016 A 
ATOM     44  C   UNL A   1      44.353  28.008  33.195  1.00  0.00     0.010 A 
ATOM     45  C   UNL A   1      45.147  30.168  32.415  1.00  0.00     0.010 A 
ATOM     46  C   UNL A   1      44.529  29.381  33.402  1.00  0.00    -0.014 A 
BRANCH  46  47
ATOM     47  C   UNL A   1      43.888  30.015  34.576  1.00  0.00     0.031 A 
ATOM     48  C   UNL A   1      42.544  30.665  34.397  1.00  0.00     0.074 A 
ATOM     49  C   UNL A   1      44.472  29.957  35.784  1.00  0.00     0.049 A 
ATOM     50  N   UNL A   1      41.801  31.288  35.272  1.00  0.00    -0.248 NA
ATOM     51  C   UNL A   1      41.958  30.606  33.045  1.00  0.00     0.031 C 
ATOM     52  C   UNL A   1      45.754  29.313  36.072  1.00  0.00     0.029 A 
ATOM     53  N   UNL A   1      44.062  30.450  36.995  1.00  0.00    -0.354 N 
ATOM     54  C   UNL A   1      40.667  31.700  34.579  1.00  0.00     0.074 A 
ATOM     55  C   UNL A   1      40.837  31.290  33.203  1.00  0.00     0.031 C 
ATOM     56  C   UNL A   1      46.030  29.459  37.378  1.00  0.00     0.029 A 
ATOM     57  C   UNL A   1      44.964  30.235  38.008  1.00  0.00     0.049 A 
ATOM     58  H   UNL A   1      43.204  30.913  37.127  1.00  0.00     0.167 HD
ATOM     59  C   UNL A   1      39.580  32.352  35.054  1.00  0.00     0.037 A 
ATOM     60  C   UNL A   1      44.939  30.642  39.292  1.00  0.00     0.037 A 
ATOM     61  C   UNL A   1      39.430  32.755  36.429  1.00  0.00     0.049 A 
ATOM     62  C   UNL A   1      43.748  31.422  39.784  1.00  0.00     0.074 A 
ATOM     63  C   UNL A   1      38.367  33.410  37.024  1.00  0.00     0.029 A 
ATOM     64  N   UNL A   1      40.377  32.547  37.423  1.00  0.00    -0.354 N 
ATOM     65  N   UNL A   1      42.672  31.792  39.127  1.00  0.00    -0.248 NA
ATOM     66  C   UNL A   1      43.760  31.835  41.193  1.00  0.00     0.031 C 
ATOM     67  C   UNL A   1      38.696  33.652  38.362  1.00  0.00     0.029 A 
ATOM     68  C   UNL A   1      39.935  33.085  38.620  1.00  0.00     0.049 A 
ATOM     69  H   UNL A   1      41.237  32.083  37.295  1.00  0.00     0.167 HD
ATOM     70  C   UNL A   1      41.870  32.456  40.048  1.00  0.00     0.074 A 
ATOM     71  C   UNL A   1      42.577  32.420  41.312  1.00  0.00     0.031 C 
ATOM     72  C   UNL A   1      40.658  33.040  39.868  1.00  0.00     0.037 A 
BRANCH  59  73
ATOM     73  C   UNL A   1      38.487  32.699  34.078  1.00  0.00     0.058 A 
ATOM     74  C   UNL A   1      37.495  31.775  33.711  1.00  0.00     0.135 A 
ATOM     75  C   UNL A   1      38.415  33.987  33.521  1.00  0.00     0.135 A 
ATOM     76  F   UNL A   1      37.525  30.523  34.195  1.00  0.00    -0.206 F 
ATOM     77  C   UNL A   1      36.488  32.106  32.809  1.00  0.00     0.059 A 
ATOM     78  C   UNL A   1      37.399  34.349  32.642  1.00  0.00     0.059 A 
ATOM     79  F   UNL A   1      39.340  34.909  33.829  1.00  0.00    -0.206 F 
ATOM     80  C   UNL A   1      36.446  33.397  32.282  1.00  0.00     0.060 A 
BRANCH  80  81
ATOM     81  S   UNL A   1      35.126  33.814  31.123  1.00  0.00     0.124 S 
ATOM     82  O   UNL A   1      34.286  32.623  31.197  1.00  0.00    -0.237 OA
ATOM     83  O   UNL A   1      34.565  35.025  31.714  1.00  0.00    -0.237 OA
ATOM     84  O   UNL A   1      35.830  34.006  29.859  1.00  0.00    -0.744 OA
ENDBRANCH  80  81
ENDBRANCH  59  73
BRANCH  60  85
ATOM     85  C   UNL A   1      46.081  30.328  40.193  1.00  0.00     0.058 A 
ATOM     86  C   UNL A   1      46.131  29.130  40.919  1.00  0.00     0.135 A 
ATOM     87  C   UNL A   1      47.154  31.223  40.335  1.00  0.00     0.135 A 
ATOM     88  F   UNL A   1      45.126  28.246  40.824  1.00  0.00    -0.206 F 
ATOM     89  C   UNL A   1      47.195  28.834  41.765  1.00  0.00     0.059 A 
ATOM     90  C   UNL A   1      48.243  30.936  41.151  1.00  0.00     0.059 A 
ATOM     91  F   UNL A   1      47.162  32.379  39.654  1.00  0.00    -0.206 F 
ATOM     92  C   UNL A   1      48.251  29.742  41.870  1.00  0.00     0.060 A 
BRANCH  92  93
ATOM     93  S   UNL A   1      49.650  29.324  42.929  1.00  0.00     0.124 S 
ATOM     94  O   UNL A   1      48.995  29.115  44.215  1.00  0.00    -0.237 OA
ATOM     95  O   UNL A   1      50.179  28.129  42.278  1.00  0.00    -0.237 OA
ATOM     96  O   UNL A   1      50.504  30.506  42.841  1.00  0.00    -0.744 OA
ENDBRANCH  92  93
ENDBRANCH  60  85
BRANCH  72  97
ATOM     97  C   UNL A   1      40.005  33.658  41.077  1.00  0.00     0.058 A 
ATOM     98  C   UNL A   1      40.242  34.991  41.448  1.00  0.00     0.135 A 
ATOM     99  C   UNL A   1      39.102  32.913  41.853  1.00  0.00     0.135 A 
ATOM    100  F   UNL A   1      41.098  35.748  40.743  1.00  0.00    -0.206 F 
ATOM    101  C   UNL A   1      39.638  35.551  42.569  1.00  0.00     0.059 A 
ATOM    102  C   UNL A   1      38.458  33.464  42.957  1.00  0.00     0.059 A 
ATOM    103  F   UNL A   1      38.827  31.638  41.535  1.00  0.00    -0.206 F 
ATOM    104  C   UNL A   1      38.747  34.778  43.317  1.00  0.00     0.060 A 
BRANCH 104 105
ATOM    105  S   UNL A   1      37.962  35.522  44.761  1.00  0.00     0.124 S 
ATOM    106  O   UNL A   1      38.426  34.645  45.832  1.00  0.00    -0.237 OA
ATOM    107  O   UNL A   1      38.519  36.871  44.760  1.00  0.00    -0.237 OA
ATOM    108  O   UNL A   1      36.537  35.438  44.457  1.00  0.00    -0.744 OA
ENDBRANCH 104 105
ENDBRANCH  72  97
ENDBRANCH  46  47
ENDBRANCH  39  41
ENDBRANCH  38  39
ENDBRANCH  37  38
ENDBRANCH  36  37
ENDBRANCH  35  36
ENDBRANCH  34  35
ENDBRANCH  33  34
ENDBRANCH  32  33
ENDBRANCH   1  32
TORSDOF 30
ENDMDL
