MODEL 1
REMARK VINA RESULT:      -6.7      0.000      0.000
REMARK SMILES C[C@H]([NH2+][C@@H](C)Cc1cccs1)[C@@H](C)C(=O)OCCOCCOCCOCCOC(=O)c1ccc(-c2c3nc(c(-c4c(F)cc(S(=O)(=O)[O-])cc4F)c4ccc([nH]4)c(-c4c(F)cc(S(=O)(=O)[O-])cc4F)c4nc(c(-c5c(F)cc(S(=O)(=O)[O-])cc5F)c5ccc2[nH]5)C=C4)C=C3)cc1
REMARK SMILES IDX 21 1 20 2 19 3 18 4 17 5 16 6 14 7 15 8 12 9 13 10 2 11 1 12
REMARK SMILES IDX 3 13 4 16 5 17 6 18 7 19 8 20 11 21 9 22 10 23 22 24 23 25
REMARK SMILES IDX 24 26 25 27 26 28 27 29 28 30 29 31 30 32 31 33 32 34 96 35
REMARK SMILES IDX 33 36 95 37 34 38 35 39 36 40 89 41 37 42 94 43 88 44 90 45
REMARK SMILES IDX 38 46 93 47 87 48 86 49 39 51 73 52 52 53 72 54 53 55 56 56
REMARK SMILES IDX 71 57 91 58 54 59 55 60 70 62 92 63 57 64 40 65 41 66 50 67
REMARK SMILES IDX 42 68 43 69 49 70 51 71 44 72 45 73 46 74 47 75 48 76 74 77
REMARK SMILES IDX 75 78 84 79 76 80 77 81 83 82 85 83 78 84 79 85 80 86 81 87
REMARK SMILES IDX 82 88 58 89 59 90 68 91 60 92 61 93 67 94 69 95 62 96 63 97
REMARK SMILES IDX 64 98 65 99 66 100
REMARK H PARENT 3 14 3 15 90 50 56 61
REMARK Flexibility Score: inf
ROOT
ATOM      1  C   UNL A   1      33.410  23.740  23.303  1.00  0.00     0.188 C 
ENDROOT
BRANCH   1   2
ATOM      2  C   UNL A   1      34.934  23.661  23.226  1.00  0.00     0.188 C 
BRANCH   2   3
ATOM      3  O   UNL A   1      35.552  22.515  23.788  1.00  0.00    -0.376 OA
BRANCH   3   4
ATOM      4  C   UNL A   1      35.738  22.463  25.202  1.00  0.00     0.202 C 
BRANCH   4   5
ATOM      5  C   UNL A   1      37.146  22.609  25.825  1.00  0.00     0.261 C 
BRANCH   5   6
ATOM      6  O   UNL A   1      37.600  23.958  26.150  1.00  0.00    -0.463 OA
BRANCH   6   7
ATOM      7  C   UNL A   1      38.902  24.045  26.496  1.00  0.00     0.314 C 
ATOM      8  O   UNL A   1      39.693  23.123  26.267  1.00  0.00    -0.252 OA
BRANCH   7   9
ATOM      9  C   UNL A   1      39.451  25.343  27.114  1.00  0.00     0.154 C 
ATOM     10  C   UNL A   1      40.505  25.794  26.068  1.00  0.00     0.026 C 
BRANCH   9  11
ATOM     11  C   UNL A   1      40.024  25.623  28.535  1.00  0.00     0.193 C 
ATOM     12  C   UNL A   1      39.476  26.801  29.322  1.00  0.00     0.076 C 
BRANCH  11  13
ATOM     13  N   UNL A   1      41.521  25.662  28.536  1.00  0.00    -0.341 N 
ATOM     14  H   UNL A   1      41.798  25.760  29.512  1.00  0.00     0.346 HD
ATOM     15  H   UNL A   1      41.705  26.416  27.873  1.00  0.00     0.346 HD
BRANCH  13  16
ATOM     16  C   UNL A   1      42.353  24.580  27.986  1.00  0.00     0.184 C 
ATOM     17  C   UNL A   1      43.799  25.089  28.183  1.00  0.00     0.075 C 
BRANCH  16  18
ATOM     18  C   UNL A   1      42.284  23.197  28.696  1.00  0.00     0.111 C 
BRANCH  18  19
ATOM     19  C   UNL A   1      42.289  21.996  27.794  1.00  0.00     0.010 A 
ATOM     20  C   UNL A   1      41.588  20.813  27.923  1.00  0.00     0.015 A 
ATOM     21  S   UNL A   1      43.154  22.041  26.309  1.00  0.00    -0.149 S 
ATOM     22  C   UNL A   1      41.903  19.883  26.888  1.00  0.00     0.012 A 
ATOM     23  C   UNL A   1      42.818  20.395  25.997  1.00  0.00     0.065 A 
ENDBRANCH  18  19
ENDBRANCH  16  18
ENDBRANCH  13  16
ENDBRANCH  11  13
ENDBRANCH   9  11
ENDBRANCH   7   9
ENDBRANCH   6   7
ENDBRANCH   5   6
ENDBRANCH   4   5
ENDBRANCH   3   4
ENDBRANCH   2   3
ENDBRANCH   1   2
BRANCH   1  24
ATOM     24  O   UNL A   1      32.951  24.829  24.077  1.00  0.00    -0.377 OA
BRANCH  24  25
ATOM     25  C   UNL A   1      32.802  26.129  23.523  1.00  0.00     0.188 C 
BRANCH  25  26
ATOM     26  C   UNL A   1      33.620  27.255  24.146  1.00  0.00     0.188 C 
BRANCH  26  27
ATOM     27  O   UNL A   1      32.884  28.293  24.801  1.00  0.00    -0.376 OA
BRANCH  27  28
ATOM     28  C   UNL A   1      33.260  28.655  26.127  1.00  0.00     0.202 C 
BRANCH  28  29
ATOM     29  C   UNL A   1      33.424  30.155  26.384  1.00  0.00     0.261 C 
BRANCH  29  30
ATOM     30  O   UNL A   1      33.870  30.443  27.718  1.00  0.00    -0.460 OA
BRANCH  30  31
ATOM     31  C   UNL A   1      34.466  31.649  27.889  1.00  0.00     0.338 C 
ATOM     32  O   UNL A   1      34.154  32.707  27.380  1.00  0.00    -0.246 OA
BRANCH  31  33
ATOM     33  C   UNL A   1      35.487  31.518  28.946  1.00  0.00     0.060 A 
ATOM     34  C   UNL A   1      36.073  32.678  29.470  1.00  0.00     0.016 A 
ATOM     35  C   UNL A   1      35.892  30.255  29.378  1.00  0.00     0.016 A 
ATOM     36  C   UNL A   1      37.082  32.576  30.427  1.00  0.00     0.010 A 
ATOM     37  C   UNL A   1      36.914  30.155  30.318  1.00  0.00     0.010 A 
ATOM     38  C   UNL A   1      37.527  31.312  30.830  1.00  0.00    -0.014 A 
BRANCH  38  39
ATOM     39  C   UNL A   1      38.727  31.170  31.680  1.00  0.00     0.031 A 
ATOM     40  C   UNL A   1      38.596  31.421  33.154  1.00  0.00     0.074 A 
ATOM     41  C   UNL A   1      39.918  30.867  31.135  1.00  0.00     0.049 A 
ATOM     42  N   UNL A   1      39.525  31.515  34.066  1.00  0.00    -0.248 NA
ATOM     43  C   UNL A   1      37.226  31.599  33.664  1.00  0.00     0.031 C 
ATOM     44  C   UNL A   1      40.146  30.550  29.727  1.00  0.00     0.029 A 
ATOM     45  N   UNL A   1      41.165  30.805  31.702  1.00  0.00    -0.354 N 
ATOM     46  C   UNL A   1      38.858  31.775  35.257  1.00  0.00     0.074 A 
ATOM     47  C   UNL A   1      37.447  31.852  34.944  1.00  0.00     0.031 C 
ATOM     48  C   UNL A   1      41.460  30.347  29.534  1.00  0.00     0.029 A 
ATOM     49  C   UNL A   1      42.167  30.569  30.794  1.00  0.00     0.049 A 
ATOM     50  H   UNL A   1      41.326  30.917  32.667  1.00  0.00     0.167 HD
ATOM     51  C   UNL A   1      39.379  31.932  36.496  1.00  0.00     0.037 A 
ATOM     52  C   UNL A   1      43.506  30.575  30.958  1.00  0.00     0.037 A 
ATOM     53  C   UNL A   1      40.789  31.871  36.780  1.00  0.00     0.049 A 
ATOM     54  C   UNL A   1      44.072  30.865  32.324  1.00  0.00     0.074 A 
ATOM     55  C   UNL A   1      41.430  32.011  37.998  1.00  0.00     0.029 A 
ATOM     56  N   UNL A   1      41.779  31.668  35.828  1.00  0.00    -0.354 N 
ATOM     57  N   UNL A   1      43.436  31.096  33.449  1.00  0.00    -0.248 NA
ATOM     58  C   UNL A   1      45.536  30.907  32.442  1.00  0.00     0.031 C 
ATOM     59  C   UNL A   1      42.809  31.953  37.773  1.00  0.00     0.029 A 
ATOM     60  C   UNL A   1      43.028  31.714  36.426  1.00  0.00     0.049 A 
ATOM     61  H   UNL A   1      41.618  31.514  34.869  1.00  0.00     0.167 HD
ATOM     62  C   UNL A   1      44.422  31.282  34.414  1.00  0.00     0.074 A 
ATOM     63  C   UNL A   1      45.696  31.128  33.740  1.00  0.00     0.031 C 
ATOM     64  C   UNL A   1      44.286  31.553  35.736  1.00  0.00     0.037 A 
BRANCH  51  65
ATOM     65  C   UNL A   1      38.421  32.222  37.620  1.00  0.00     0.058 A 
ATOM     66  C   UNL A   1      38.300  33.505  38.179  1.00  0.00     0.135 A 
ATOM     67  C   UNL A   1      37.609  31.203  38.143  1.00  0.00     0.135 A 
ATOM     68  F   UNL A   1      39.064  34.514  37.730  1.00  0.00    -0.206 F 
ATOM     69  C   UNL A   1      37.439  33.757  39.243  1.00  0.00     0.059 A 
ATOM     70  C   UNL A   1      36.716  31.441  39.185  1.00  0.00     0.059 A 
ATOM     71  F   UNL A   1      37.683  29.957  37.650  1.00  0.00    -0.206 F 
ATOM     72  C   UNL A   1      36.653  32.717  39.740  1.00  0.00     0.060 A 
BRANCH  72  73
ATOM     73  S   UNL A   1      35.556  33.058  41.133  1.00  0.00     0.124 S 
ATOM     74  O   UNL A   1      36.156  34.267  41.687  1.00  0.00    -0.237 OA
ATOM     75  O   UNL A   1      34.266  33.235  40.476  1.00  0.00    -0.237 OA
ATOM     76  O   UNL A   1      35.676  31.863  41.962  1.00  0.00    -0.744 OA
ENDBRANCH  72  73
ENDBRANCH  51  65
BRANCH  52  77
ATOM     77  C   UNL A   1      44.398  30.309  29.798  1.00  0.00     0.058 A 
ATOM     78  C   UNL A   1      44.873  31.363  29.005  1.00  0.00     0.135 A 
ATOM     79  C   UNL A   1      44.807  29.006  29.469  1.00  0.00     0.135 A 
ATOM     80  F   UNL A   1      44.501  32.624  29.271  1.00  0.00    -0.206 F 
ATOM     81  C   UNL A   1      45.719  31.137  27.924  1.00  0.00     0.059 A 
ATOM     82  C   UNL A   1      45.674  28.758  28.410  1.00  0.00     0.059 A 
ATOM     83  F   UNL A   1      44.387  27.963  30.201  1.00  0.00    -0.206 F 
ATOM     84  C   UNL A   1      46.121  29.831  27.638  1.00  0.00     0.060 A 
BRANCH  84  85
ATOM     85  S   UNL A   1      47.269  29.561  26.271  1.00  0.00     0.124 S 
ATOM     86  O   UNL A   1      47.653  28.170  26.480  1.00  0.00    -0.237 OA
ATOM     87  O   UNL A   1      46.424  29.823  25.111  1.00  0.00    -0.237 OA
ATOM     88  O   UNL A   1      48.317  30.548  26.511  1.00  0.00    -0.744 OA
ENDBRANCH  84  85
ENDBRANCH  52  77
BRANCH  64  89
ATOM     89  C   UNL A   1      45.542  31.677  36.556  1.00  0.00     0.058 A 
ATOM     90  C   UNL A   1      46.160  32.918  36.774  1.00  0.00     0.135 A 
ATOM     91  C   UNL A   1      46.079  30.553  37.205  1.00  0.00     0.135 A 
ATOM     92  F   UNL A   1      45.694  34.022  36.169  1.00  0.00    -0.206 F 
ATOM     93  C   UNL A   1      47.273  33.039  37.601  1.00  0.00     0.059 A 
ATOM     94  C   UNL A   1      47.172  30.656  38.060  1.00  0.00     0.059 A 
ATOM     95  F   UNL A   1      45.520  29.344  37.038  1.00  0.00    -0.206 F 
ATOM     96  C   UNL A   1      47.765  31.903  38.248  1.00  0.00     0.060 A 
BRANCH  96  97
ATOM     97  S   UNL A   1      49.164  32.090  39.373  1.00  0.00     0.124 S 
ATOM     98  O   UNL A   1      49.896  30.848  39.144  1.00  0.00    -0.237 OA
ATOM     99  O   UNL A   1      49.802  33.305  38.875  1.00  0.00    -0.237 OA
ATOM    100  O   UNL A   1      48.534  32.214  40.684  1.00  0.00    -0.744 OA
ENDBRANCH  96  97
ENDBRANCH  64  89
ENDBRANCH  38  39
ENDBRANCH  31  33
ENDBRANCH  30  31
ENDBRANCH  29  30
ENDBRANCH  28  29
ENDBRANCH  27  28
ENDBRANCH  26  27
ENDBRANCH  25  26
ENDBRANCH  24  25
ENDBRANCH   1  24
TORSDOF 28
ENDMDL
MODEL 2
REMARK VINA RESULT:      -6.5      7.214     16.915
REMARK SMILES C[C@H]([NH2+][C@@H](C)Cc1cccs1)[C@@H](C)C(=O)OCCOCCOCCOCCOC(=O)c1ccc(-c2c3nc(c(-c4c(F)cc(S(=O)(=O)[O-])cc4F)c4ccc([nH]4)c(-c4c(F)cc(S(=O)(=O)[O-])cc4F)c4nc(c(-c5c(F)cc(S(=O)(=O)[O-])cc5F)c5ccc2[nH]5)C=C4)C=C3)cc1
REMARK SMILES IDX 21 1 20 2 19 3 18 4 17 5 16 6 14 7 15 8 12 9 13 10 2 11 1 12
REMARK SMILES IDX 3 13 4 16 5 17 6 18 7 19 8 20 11 21 9 22 10 23 22 24 23 25
REMARK SMILES IDX 24 26 25 27 26 28 27 29 28 30 29 31 30 32 31 33 32 34 96 35
REMARK SMILES IDX 33 36 95 37 34 38 35 39 36 40 89 41 37 42 94 43 88 44 90 45
REMARK SMILES IDX 38 46 93 47 87 48 86 49 39 51 73 52 52 53 72 54 53 55 56 56
REMARK SMILES IDX 71 57 91 58 54 59 55 60 70 62 92 63 57 64 40 65 41 66 50 67
REMARK SMILES IDX 42 68 43 69 49 70 51 71 44 72 45 73 46 74 47 75 48 76 74 77
REMARK SMILES IDX 75 78 84 79 76 80 77 81 83 82 85 83 78 84 79 85 80 86 81 87
REMARK SMILES IDX 82 88 58 89 59 90 68 91 60 92 61 93 67 94 69 95 62 96 63 97
REMARK SMILES IDX 64 98 65 99 66 100
REMARK H PARENT 3 14 3 15 90 50 56 61
REMARK Flexibility Score: inf
ROOT
ATOM      1  C   UNL A   1      52.366  40.253  34.563  1.00  0.00     0.188 C 
ENDROOT
BRANCH   1   2
ATOM      2  C   UNL A   1      52.268  40.909  33.185  1.00  0.00     0.188 C 
BRANCH   2   3
ATOM      3  O   UNL A   1      51.532  42.119  33.096  1.00  0.00    -0.376 OA
BRANCH   3   4
ATOM      4  C   UNL A   1      50.393  42.164  32.238  1.00  0.00     0.202 C 
BRANCH   4   5
ATOM      5  C   UNL A   1      50.540  41.965  30.711  1.00  0.00     0.261 C 
BRANCH   5   6
ATOM      6  O   UNL A   1      49.437  42.414  29.866  1.00  0.00    -0.463 OA
BRANCH   6   7
ATOM      7  C   UNL A   1      49.817  42.992  28.707  1.00  0.00     0.314 C 
ATOM      8  O   UNL A   1      50.770  42.558  28.051  1.00  0.00    -0.252 OA
BRANCH   7   9
ATOM      9  C   UNL A   1      49.006  44.166  28.129  1.00  0.00     0.154 C 
ATOM     10  C   UNL A   1      49.645  45.393  28.828  1.00  0.00     0.026 C 
BRANCH   9  11
ATOM     11  C   UNL A   1      47.466  44.392  28.058  1.00  0.00     0.193 C 
ATOM     12  C   UNL A   1      46.948  45.686  27.454  1.00  0.00     0.076 C 
BRANCH  11  13
ATOM     13  N   UNL A   1      46.805  44.147  29.379  1.00  0.00    -0.341 N 
ATOM     14  H   UNL A   1      46.442  45.050  29.682  1.00  0.00     0.346 HD
ATOM     15  H   UNL A   1      47.556  43.695  29.901  1.00  0.00     0.346 HD
BRANCH  13  16
ATOM     16  C   UNL A   1      45.704  43.187  29.559  1.00  0.00     0.184 C 
ATOM     17  C   UNL A   1      46.095  42.001  28.649  1.00  0.00     0.075 C 
BRANCH  16  18
ATOM     18  C   UNL A   1      45.504  42.590  30.982  1.00  0.00     0.111 C 
BRANCH  18  19
ATOM     19  C   UNL A   1      45.268  43.583  32.083  1.00  0.00     0.010 A 
ATOM     20  C   UNL A   1      46.057  43.863  33.182  1.00  0.00     0.015 A 
ATOM     21  S   UNL A   1      43.927  44.656  31.998  1.00  0.00    -0.149 S 
ATOM     22  C   UNL A   1      45.464  44.838  34.038  1.00  0.00     0.012 A 
ATOM     23  C   UNL A   1      44.254  45.280  33.556  1.00  0.00     0.065 A 
ENDBRANCH  18  19
ENDBRANCH  16  18
ENDBRANCH  13  16
ENDBRANCH  11  13
ENDBRANCH   9  11
ENDBRANCH   7   9
ENDBRANCH   6   7
ENDBRANCH   5   6
ENDBRANCH   4   5
ENDBRANCH   3   4
ENDBRANCH   2   3
ENDBRANCH   1   2
BRANCH   1  24
ATOM     24  O   UNL A   1      51.230  39.477  34.886  1.00  0.00    -0.377 OA
BRANCH  24  25
ATOM     25  C   UNL A   1      50.524  38.738  33.899  1.00  0.00     0.188 C 
BRANCH  25  26
ATOM     26  C   UNL A   1      49.009  38.643  34.044  1.00  0.00     0.188 C 
BRANCH  26  27
ATOM     27  O   UNL A   1      48.246  38.722  32.836  1.00  0.00    -0.376 OA
BRANCH  27  28
ATOM     28  C   UNL A   1      48.946  38.753  31.595  1.00  0.00     0.202 C 
BRANCH  28  29
ATOM     29  C   UNL A   1      48.085  38.560  30.344  1.00  0.00     0.261 C 
BRANCH  29  30
ATOM     30  O   UNL A   1      47.837  37.177  30.050  1.00  0.00    -0.460 OA
BRANCH  30  31
ATOM     31  C   UNL A   1      47.926  36.831  28.742  1.00  0.00     0.338 C 
ATOM     32  O   UNL A   1      48.299  37.524  27.817  1.00  0.00    -0.246 OA
BRANCH  31  33
ATOM     33  C   UNL A   1      47.647  35.387  28.622  1.00  0.00     0.060 A 
ATOM     34  C   UNL A   1      47.070  34.903  27.440  1.00  0.00     0.016 A 
ATOM     35  C   UNL A   1      47.912  34.531  29.691  1.00  0.00     0.016 A 
ATOM     36  C   UNL A   1      46.744  33.552  27.329  1.00  0.00     0.010 A 
ATOM     37  C   UNL A   1      47.566  33.186  29.585  1.00  0.00     0.010 A 
ATOM     38  C   UNL A   1      46.962  32.696  28.414  1.00  0.00    -0.014 A 
BRANCH  38  39
ATOM     39  C   UNL A   1      46.438  31.314  28.402  1.00  0.00     0.031 A 
ATOM     40  C   UNL A   1      47.347  30.207  27.953  1.00  0.00     0.074 A 
ATOM     41  C   UNL A   1      45.162  31.065  28.743  1.00  0.00     0.049 A 
ATOM     42  N   UNL A   1      47.072  28.956  27.706  1.00  0.00    -0.248 NA
ATOM     43  C   UNL A   1      48.760  30.569  27.746  1.00  0.00     0.031 C 
ATOM     44  C   UNL A   1      44.213  32.055  29.245  1.00  0.00     0.029 A 
ATOM     45  N   UNL A   1      44.441  29.900  28.690  1.00  0.00    -0.354 N 
ATOM     46  C   UNL A   1      48.269  28.379  27.303  1.00  0.00     0.074 A 
ATOM     47  C   UNL A   1      49.268  29.426  27.311  1.00  0.00     0.031 C 
ATOM     48  C   UNL A   1      43.023  31.460  29.435  1.00  0.00     0.029 A 
ATOM     49  C   UNL A   1      43.117  30.062  29.020  1.00  0.00     0.049 A 
ATOM     50  H   UNL A   1      44.833  29.032  28.441  1.00  0.00     0.167 HD
ATOM     51  C   UNL A   1      48.510  27.092  26.961  1.00  0.00     0.037 A 
ATOM     52  C   UNL A   1      42.093  29.188  28.953  1.00  0.00     0.037 A 
ATOM     53  C   UNL A   1      47.496  26.070  26.941  1.00  0.00     0.049 A 
ATOM     54  C   UNL A   1      42.360  27.788  28.460  1.00  0.00     0.074 A 
ATOM     55  C   UNL A   1      47.627  24.732  26.616  1.00  0.00     0.029 A 
ATOM     56  N   UNL A   1      46.158  26.279  27.246  1.00  0.00    -0.354 N 
ATOM     57  N   UNL A   1      43.497  27.245  28.094  1.00  0.00    -0.248 NA
ATOM     58  C   UNL A   1      41.204  26.887  28.360  1.00  0.00     0.031 C 
ATOM     59  C   UNL A   1      46.358  24.146  26.665  1.00  0.00     0.029 A 
ATOM     60  C   UNL A   1      45.445  25.103  27.081  1.00  0.00     0.049 A 
ATOM     61  H   UNL A   1      45.772  27.137  27.535  1.00  0.00     0.167 HD
ATOM     62  C   UNL A   1      43.198  25.930  27.748  1.00  0.00     0.074 A 
ATOM     63  C   UNL A   1      41.774  25.760  27.956  1.00  0.00     0.031 C 
ATOM     64  C   UNL A   1      44.026  24.953  27.300  1.00  0.00     0.037 A 
BRANCH  51  65
ATOM     65  C   UNL A   1      49.912  26.735  26.546  1.00  0.00     0.058 A 
ATOM     66  C   UNL A   1      50.330  26.804  25.207  1.00  0.00     0.135 A 
ATOM     67  C   UNL A   1      50.854  26.321  27.503  1.00  0.00     0.135 A 
ATOM     68  F   UNL A   1      49.467  27.176  24.247  1.00  0.00    -0.206 F 
ATOM     69  C   UNL A   1      51.617  26.438  24.825  1.00  0.00     0.059 A 
ATOM     70  C   UNL A   1      52.157  25.982  27.148  1.00  0.00     0.059 A 
ATOM     71  F   UNL A   1      50.511  26.234  28.797  1.00  0.00    -0.206 F 
ATOM     72  C   UNL A   1      52.522  26.024  25.804  1.00  0.00     0.060 A 
BRANCH  72  73
ATOM     73  S   UNL A   1      54.181  25.534  25.288  1.00  0.00     0.124 S 
ATOM     74  O   UNL A   1      54.875  25.462  26.570  1.00  0.00    -0.237 OA
ATOM     75  O   UNL A   1      53.937  24.256  24.628  1.00  0.00    -0.237 OA
ATOM     76  O   UNL A   1      54.600  26.622  24.409  1.00  0.00    -0.744 OA
ENDBRANCH  72  73
ENDBRANCH  51  65
BRANCH  52  77
ATOM     77  C   UNL A   1      40.725  29.614  29.350  1.00  0.00     0.058 A 
ATOM     78  C   UNL A   1      39.729  29.816  28.385  1.00  0.00     0.135 A 
ATOM     79  C   UNL A   1      40.378  29.809  30.698  1.00  0.00     0.135 A 
ATOM     80  F   UNL A   1      40.014  29.655  27.084  1.00  0.00    -0.206 F 
ATOM     81  C   UNL A   1      38.440  30.202  28.737  1.00  0.00     0.059 A 
ATOM     82  C   UNL A   1      39.089  30.168  31.077  1.00  0.00     0.059 A 
ATOM     83  F   UNL A   1      41.292  29.621  31.662  1.00  0.00    -0.206 F 
ATOM     84  C   UNL A   1      38.127  30.368  30.087  1.00  0.00     0.060 A 
BRANCH  84  85
ATOM     85  S   UNL A   1      36.433  30.807  30.532  1.00  0.00     0.124 S 
ATOM     86  O   UNL A   1      36.120  29.793  31.533  1.00  0.00    -0.237 OA
ATOM     87  O   UNL A   1      36.595  32.169  31.031  1.00  0.00    -0.237 OA
ATOM     88  O   UNL A   1      35.711  30.691  29.268  1.00  0.00    -0.744 OA
ENDBRANCH  84  85
ENDBRANCH  52  77
BRANCH  64  89
ATOM     89  C   UNL A   1      43.426  23.600  27.027  1.00  0.00     0.058 A 
ATOM     90  C   UNL A   1      43.184  23.151  25.720  1.00  0.00     0.135 A 
ATOM     91  C   UNL A   1      43.175  22.709  28.084  1.00  0.00     0.135 A 
ATOM     92  F   UNL A   1      43.396  23.966  24.674  1.00  0.00    -0.206 F 
ATOM     93  C   UNL A   1      42.708  21.868  25.470  1.00  0.00     0.059 A 
ATOM     94  C   UNL A   1      42.727  21.412  27.856  1.00  0.00     0.059 A 
ATOM     95  F   UNL A   1      43.397  23.086  29.353  1.00  0.00    -0.206 F 
ATOM     96  C   UNL A   1      42.493  21.002  26.545  1.00  0.00     0.060 A 
BRANCH  96  97
ATOM     97  S   UNL A   1      41.942  19.318  26.198  1.00  0.00     0.124 S 
ATOM     98  O   UNL A   1      42.766  18.969  25.044  1.00  0.00    -0.237 OA
ATOM     99  O   UNL A   1      42.266  18.624  27.441  1.00  0.00    -0.237 OA
ATOM    100  O   UNL A   1      40.516  19.474  25.928  1.00  0.00    -0.744 OA
ENDBRANCH  96  97
ENDBRANCH  64  89
ENDBRANCH  38  39
ENDBRANCH  31  33
ENDBRANCH  30  31
ENDBRANCH  29  30
ENDBRANCH  28  29
ENDBRANCH  27  28
ENDBRANCH  26  27
ENDBRANCH  25  26
ENDBRANCH  24  25
ENDBRANCH   1  24
TORSDOF 28
ENDMDL
MODEL 3
REMARK VINA RESULT:      -6.3      5.650     11.022
REMARK SMILES C[C@H]([NH2+][C@@H](C)Cc1cccs1)[C@@H](C)C(=O)OCCOCCOCCOCCOC(=O)c1ccc(-c2c3nc(c(-c4c(F)cc(S(=O)(=O)[O-])cc4F)c4ccc([nH]4)c(-c4c(F)cc(S(=O)(=O)[O-])cc4F)c4nc(c(-c5c(F)cc(S(=O)(=O)[O-])cc5F)c5ccc2[nH]5)C=C4)C=C3)cc1
REMARK SMILES IDX 21 1 20 2 19 3 18 4 17 5 16 6 14 7 15 8 12 9 13 10 2 11 1 12
REMARK SMILES IDX 3 13 4 16 5 17 6 18 7 19 8 20 11 21 9 22 10 23 22 24 23 25
REMARK SMILES IDX 24 26 25 27 26 28 27 29 28 30 29 31 30 32 31 33 32 34 96 35
REMARK SMILES IDX 33 36 95 37 34 38 35 39 36 40 89 41 37 42 94 43 88 44 90 45
REMARK SMILES IDX 38 46 93 47 87 48 86 49 39 51 73 52 52 53 72 54 53 55 56 56
REMARK SMILES IDX 71 57 91 58 54 59 55 60 70 62 92 63 57 64 40 65 41 66 50 67
REMARK SMILES IDX 42 68 43 69 49 70 51 71 44 72 45 73 46 74 47 75 48 76 74 77
REMARK SMILES IDX 75 78 84 79 76 80 77 81 83 82 85 83 78 84 79 85 80 86 81 87
REMARK SMILES IDX 82 88 58 89 59 90 68 91 60 92 61 93 67 94 69 95 62 96 63 97
REMARK SMILES IDX 64 98 65 99 66 100
REMARK H PARENT 3 14 3 15 90 50 56 61
REMARK Flexibility Score: inf
ROOT
ATOM      1  C   UNL A   1      46.235  25.792  30.591  1.00  0.00     0.188 C 
ENDROOT
BRANCH   1   2
ATOM      2  C   UNL A   1      46.267  25.559  29.081  1.00  0.00     0.188 C 
BRANCH   2   3
ATOM      3  O   UNL A   1      46.846  26.578  28.282  1.00  0.00    -0.376 OA
BRANCH   3   4
ATOM      4  C   UNL A   1      45.982  27.439  27.541  1.00  0.00     0.202 C 
BRANCH   4   5
ATOM      5  C   UNL A   1      46.384  27.950  26.137  1.00  0.00     0.261 C 
BRANCH   5   6
ATOM      6  O   UNL A   1      45.799  27.273  24.984  1.00  0.00    -0.463 OA
BRANCH   6   7
ATOM      7  C   UNL A   1      46.055  25.949  24.919  1.00  0.00     0.314 C 
ATOM      8  O   UNL A   1      47.137  25.521  24.501  1.00  0.00    -0.252 OA
BRANCH   7   9
ATOM      9  C   UNL A   1      45.025  24.937  25.452  1.00  0.00     0.154 C 
ATOM     10  C   UNL A   1      45.340  23.667  24.620  1.00  0.00     0.026 C 
BRANCH   9  11
ATOM     11  C   UNL A   1      43.479  25.052  25.599  1.00  0.00     0.193 C 
ATOM     12  C   UNL A   1      42.806  26.358  25.211  1.00  0.00     0.076 C 
BRANCH  11  13
ATOM     13  N   UNL A   1      43.013  24.624  26.956  1.00  0.00    -0.341 N 
ATOM     14  H   UNL A   1      42.056  24.965  27.045  1.00  0.00     0.346 HD
ATOM     15  H   UNL A   1      43.749  25.003  27.552  1.00  0.00     0.346 HD
BRANCH  13  16
ATOM     16  C   UNL A   1      42.983  23.218  27.387  1.00  0.00     0.184 C 
ATOM     17  C   UNL A   1      42.477  23.289  28.846  1.00  0.00     0.075 C 
BRANCH  16  18
ATOM     18  C   UNL A   1      42.007  22.263  26.640  1.00  0.00     0.111 C 
BRANCH  18  19
ATOM     19  C   UNL A   1      42.551  20.907  26.297  1.00  0.00     0.010 A 
ATOM     20  C   UNL A   1      43.634  20.583  25.502  1.00  0.00     0.015 A 
ATOM     21  S   UNL A   1      41.888  19.504  27.037  1.00  0.00    -0.149 S 
ATOM     22  C   UNL A   1      43.803  19.172  25.370  1.00  0.00     0.012 A 
ATOM     23  C   UNL A   1      42.857  18.470  26.080  1.00  0.00     0.065 A 
ENDBRANCH  18  19
ENDBRANCH  16  18
ENDBRANCH  13  16
ENDBRANCH  11  13
ENDBRANCH   9  11
ENDBRANCH   7   9
ENDBRANCH   6   7
ENDBRANCH   5   6
ENDBRANCH   4   5
ENDBRANCH   3   4
ENDBRANCH   2   3
ENDBRANCH   1   2
BRANCH   1  24
ATOM     24  O   UNL A   1      44.926  25.947  31.100  1.00  0.00    -0.377 OA
BRANCH  24  25
ATOM     25  C   UNL A   1      44.472  25.217  32.232  1.00  0.00     0.188 C 
BRANCH  25  26
ATOM     26  C   UNL A   1      44.344  23.705  32.087  1.00  0.00     0.188 C 
BRANCH  26  27
ATOM     27  O   UNL A   1      43.903  22.988  33.243  1.00  0.00    -0.376 OA
BRANCH  27  28
ATOM     28  C   UNL A   1      44.147  23.558  34.527  1.00  0.00     0.202 C 
BRANCH  28  29
ATOM     29  C   UNL A   1      42.903  23.988  35.308  1.00  0.00     0.261 C 
BRANCH  29  30
ATOM     30  O   UNL A   1      42.900  25.390  35.617  1.00  0.00    -0.460 OA
BRANCH  30  31
ATOM     31  C   UNL A   1      41.708  26.020  35.472  1.00  0.00     0.338 C 
ATOM     32  O   UNL A   1      40.600  25.555  35.648  1.00  0.00    -0.246 OA
BRANCH  31  33
ATOM     33  C   UNL A   1      41.965  27.450  35.215  1.00  0.00     0.060 A 
ATOM     34  C   UNL A   1      43.222  27.981  35.531  1.00  0.00     0.016 A 
ATOM     35  C   UNL A   1      40.951  28.265  34.709  1.00  0.00     0.016 A 
ATOM     36  C   UNL A   1      43.467  29.342  35.351  1.00  0.00     0.010 A 
ATOM     37  C   UNL A   1      41.192  29.627  34.550  1.00  0.00     0.010 A 
ATOM     38  C   UNL A   1      42.442  30.174  34.890  1.00  0.00    -0.014 A 
BRANCH  38  39
ATOM     39  C   UNL A   1      42.605  31.643  34.888  1.00  0.00     0.031 A 
ATOM     40  C   UNL A   1      42.939  32.325  33.593  1.00  0.00     0.074 A 
ATOM     41  C   UNL A   1      42.500  32.343  36.030  1.00  0.00     0.049 A 
ATOM     42  N   UNL A   1      43.285  33.564  33.373  1.00  0.00    -0.248 NA
ATOM     43  C   UNL A   1      42.883  31.487  32.383  1.00  0.00     0.031 C 
ATOM     44  C   UNL A   1      42.126  31.789  37.329  1.00  0.00     0.029 A 
ATOM     45  N   UNL A   1      42.729  33.672  36.281  1.00  0.00    -0.354 N 
ATOM     46  C   UNL A   1      43.501  33.657  32.004  1.00  0.00     0.074 A 
ATOM     47  C   UNL A   1      43.275  32.339  31.449  1.00  0.00     0.031 C 
ATOM     48  C   UNL A   1      42.171  32.768  38.249  1.00  0.00     0.029 A 
ATOM     49  C   UNL A   1      42.624  34.002  37.611  1.00  0.00     0.049 A 
ATOM     50  H   UNL A   1      42.945  34.326  35.578  1.00  0.00     0.167 HD
ATOM     51  C   UNL A   1      43.853  34.744  31.279  1.00  0.00     0.037 A 
ATOM     52  C   UNL A   1      42.906  35.160  38.241  1.00  0.00     0.037 A 
ATOM     53  C   UNL A   1      44.093  36.042  31.856  1.00  0.00     0.049 A 
ATOM     54  C   UNL A   1      43.407  36.329  37.432  1.00  0.00     0.074 A 
ATOM     55  C   UNL A   1      44.450  37.215  31.218  1.00  0.00     0.029 A 
ATOM     56  N   UNL A   1      44.014  36.331  33.211  1.00  0.00    -0.354 N 
ATOM     57  N   UNL A   1      43.595  36.415  36.136  1.00  0.00    -0.248 NA
ATOM     58  C   UNL A   1      43.745  37.553  38.170  1.00  0.00     0.031 C 
ATOM     59  C   UNL A   1      44.647  38.198  32.193  1.00  0.00     0.029 A 
ATOM     60  C   UNL A   1      44.351  37.655  33.434  1.00  0.00     0.049 A 
ATOM     61  H   UNL A   1      43.758  35.688  33.912  1.00  0.00     0.167 HD
ATOM     62  C   UNL A   1      44.046  37.710  35.900  1.00  0.00     0.074 A 
ATOM     63  C   UNL A   1      44.094  38.373  37.188  1.00  0.00     0.031 C 
ATOM     64  C   UNL A   1      44.388  38.298  34.726  1.00  0.00     0.037 A 
BRANCH  51  65
ATOM     65  C   UNL A   1      44.036  34.561  29.797  1.00  0.00     0.058 A 
ATOM     66  C   UNL A   1      43.050  34.949  28.874  1.00  0.00     0.135 A 
ATOM     67  C   UNL A   1      45.216  33.992  29.289  1.00  0.00     0.135 A 
ATOM     68  F   UNL A   1      41.894  35.482  29.303  1.00  0.00    -0.206 F 
ATOM     69  C   UNL A   1      43.210  34.743  27.507  1.00  0.00     0.059 A 
ATOM     70  C   UNL A   1      45.411  33.808  27.923  1.00  0.00     0.059 A 
ATOM     71  F   UNL A   1      46.191  33.601  30.123  1.00  0.00    -0.206 F 
ATOM     72  C   UNL A   1      44.394  34.168  27.042  1.00  0.00     0.060 A 
BRANCH  72  73
ATOM     73  S   UNL A   1      44.576  33.891  25.268  1.00  0.00     0.124 S 
ATOM     74  O   UNL A   1      43.329  34.450  24.756  1.00  0.00    -0.237 OA
ATOM     75  O   UNL A   1      45.783  34.648  24.957  1.00  0.00    -0.237 OA
ATOM     76  O   UNL A   1      44.703  32.441  25.161  1.00  0.00    -0.744 OA
ENDBRANCH  72  73
ENDBRANCH  51  65
BRANCH  52  77
ATOM     77  C   UNL A   1      42.731  35.265  39.715  1.00  0.00     0.058 A 
ATOM     78  C   UNL A   1      41.516  35.697  40.263  1.00  0.00     0.135 A 
ATOM     79  C   UNL A   1      43.764  34.922  40.603  1.00  0.00     0.135 A 
ATOM     80  F   UNL A   1      40.503  36.048  39.456  1.00  0.00    -0.206 F 
ATOM     81  C   UNL A   1      41.328  35.790  41.638  1.00  0.00     0.059 A 
ATOM     82  C   UNL A   1      43.592  34.980  41.982  1.00  0.00     0.059 A 
ATOM     83  F   UNL A   1      44.945  34.496  40.130  1.00  0.00    -0.206 F 
ATOM     84  C   UNL A   1      42.370  35.421  42.491  1.00  0.00     0.060 A 
BRANCH  84  85
ATOM     85  S   UNL A   1      42.090  35.487  44.273  1.00  0.00     0.124 S 
ATOM     86  O   UNL A   1      42.985  34.439  44.750  1.00  0.00    -0.237 OA
ATOM     87  O   UNL A   1      42.482  36.857  44.590  1.00  0.00    -0.237 OA
ATOM     88  O   UNL A   1      40.664  35.206  44.401  1.00  0.00    -0.744 OA
ENDBRANCH  84  85
ENDBRANCH  52  77
BRANCH  64  89
ATOM     89  C   UNL A   1      44.819  39.739  34.766  1.00  0.00     0.058 A 
ATOM     90  C   UNL A   1      46.144  40.104  35.053  1.00  0.00     0.135 A 
ATOM     91  C   UNL A   1      43.916  40.760  34.426  1.00  0.00     0.135 A 
ATOM     92  F   UNL A   1      47.045  39.169  35.394  1.00  0.00    -0.206 F 
ATOM     93  C   UNL A   1      46.557  41.432  35.007  1.00  0.00     0.059 A 
ATOM     94  C   UNL A   1      44.314  42.091  34.345  1.00  0.00     0.059 A 
ATOM     95  F   UNL A   1      42.639  40.464  34.136  1.00  0.00    -0.206 F 
ATOM     96  C   UNL A   1      45.636  42.417  34.641  1.00  0.00     0.060 A 
BRANCH  96  97
ATOM     97  S   UNL A   1      46.206  44.126  34.517  1.00  0.00     0.124 S 
ATOM     98  O   UNL A   1      46.812  44.331  35.829  1.00  0.00    -0.237 OA
ATOM     99  O   UNL A   1      47.135  44.062  33.392  1.00  0.00    -0.237 OA
ATOM    100  O   UNL A   1      44.980  44.877  34.267  1.00  0.00    -0.744 OA
ENDBRANCH  96  97
ENDBRANCH  64  89
ENDBRANCH  38  39
ENDBRANCH  31  33
ENDBRANCH  30  31
ENDBRANCH  29  30
ENDBRANCH  28  29
ENDBRANCH  27  28
ENDBRANCH  26  27
ENDBRANCH  25  26
ENDBRANCH  24  25
ENDBRANCH   1  24
TORSDOF 28
ENDMDL
