MODEL 1
REMARK VINA RESULT:      -9.7      0.000      0.000
REMARK SMILES COc1cc([C@H]2[NH2+]CCC3=c4ccccc4=N[C@@H]32)ccc1OCC(=O)OCCOCCOCCOCCOC(=O)c1ccc(-c2c3nc(c(-c4c(F)cc(S(=O)(=O)[O-])cc4F)c4ccc([nH]4)c(-c4c(F)cc(S(=O)(=O)[O-])cc4F)c4nc(c(-c5c(F)cc(S(=O)(=O)[O-])cc5F)c5ccc2[nH]5)C=C4)C=C3)cc1
REMARK SMILES IDX 32 1 31 2 30 3 29 4 28 5 27 6 26 7 24 8 25 9 23 10 22 11
REMARK SMILES IDX 21 12 3 13 4 14 5 15 20 16 19 17 2 18 1 19 6 20 7 21 18 22
REMARK SMILES IDX 8 23 10 26 17 27 9 28 11 29 16 30 12 31 15 32 13 33 14 34
REMARK SMILES IDX 33 35 34 36 35 37 36 38 37 39 38 40 39 41 40 42 41 43 42 44
REMARK SMILES IDX 106 45 43 46 105 47 44 48 45 49 46 50 99 51 47 52 104 53
REMARK SMILES IDX 98 54 100 55 48 56 103 57 97 58 96 59 49 61 83 62 62 63
REMARK SMILES IDX 82 64 63 65 66 66 81 67 101 68 64 69 65 70 80 72 102 73
REMARK SMILES IDX 67 74 50 75 51 76 60 77 52 78 53 79 59 80 61 81 54 82 55 83
REMARK SMILES IDX 56 84 57 85 58 86 84 87 85 88 94 89 86 90 87 91 93 92 95 93
REMARK SMILES IDX 88 94 89 95 90 96 91 97 92 98 68 99 69 100 78 101 70 102
REMARK SMILES IDX 71 103 77 104 79 105 72 106 73 107 74 108 75 109 76 110
REMARK H PARENT 7 24 7 25 100 60 66 71
REMARK Flexibility Score: inf
ROOT
ATOM      1  O   UNL A   1      40.082  21.307  26.509  1.00  0.00    -0.377 OA
ENDROOT
BRANCH   1   2
ATOM      2  C   UNL A   1      38.897  21.195  25.736  1.00  0.00     0.188 C 
BRANCH   2   3
ATOM      3  C   UNL A   1      38.498  19.747  25.372  1.00  0.00     0.188 C 
BRANCH   3   4
ATOM      4  O   UNL A   1      37.407  19.479  24.498  1.00  0.00    -0.376 OA
BRANCH   4   5
ATOM      5  C   UNL A   1      36.101  19.668  25.002  1.00  0.00     0.202 C 
BRANCH   5   6
ATOM      6  C   UNL A   1      35.073  18.564  24.704  1.00  0.00     0.261 C 
BRANCH   6   7
ATOM      7  O   UNL A   1      33.689  18.927  24.893  1.00  0.00    -0.461 OA
BRANCH   7   8
ATOM      8  C   UNL A   1      32.877  19.007  23.798  1.00  0.00     0.344 C 
ATOM      9  O   UNL A   1      32.737  18.119  22.964  1.00  0.00    -0.248 OA
BRANCH   8  10
ATOM     10  C   UNL A   1      32.138  20.365  23.741  1.00  0.00     0.352 C 
BRANCH  10  11
ATOM     11  O   UNL A   1      32.315  21.114  24.937  1.00  0.00    -0.478 OA
BRANCH  11  12
ATOM     12  C   UNL A   1      32.421  22.478  25.049  1.00  0.00     0.162 A 
ATOM     13  C   UNL A   1      33.575  23.250  24.803  1.00  0.00     0.161 A 
ATOM     14  C   UNL A   1      33.473  24.571  24.249  1.00  0.00     0.060 A 
ATOM     15  C   UNL A   1      32.241  25.173  23.954  1.00  0.00     0.016 A 
ATOM     16  C   UNL A   1      31.196  23.114  24.871  1.00  0.00     0.051 A 
ATOM     17  C   UNL A   1      31.117  24.431  24.388  1.00  0.00     0.014 A 
BRANCH  13  18
ATOM     18  O   UNL A   1      34.879  22.835  24.877  1.00  0.00    -0.493 OA
ATOM     19  C   UNL A   1      35.470  22.775  26.165  1.00  0.00     0.278 C 
ENDBRANCH  13  18
BRANCH  15  20
ATOM     20  C   UNL A   1      32.090  26.519  23.105  1.00  0.00     0.243 C 
ATOM     21  N   UNL A   1      30.707  26.689  22.627  1.00  0.00    -0.338 N 
ATOM     22  C   UNL A   1      32.427  27.707  24.031  1.00  0.00     0.196 C 
ATOM     23  C   UNL A   1      30.042  27.997  22.535  1.00  0.00     0.265 C 
ATOM     24  H   UNL A   1      30.127  26.121  23.244  1.00  0.00     0.346 HD
ATOM     25  H   UNL A   1      30.802  26.440  21.642  1.00  0.00     0.346 HD
ATOM     26  C   UNL A   1      31.760  29.037  24.126  1.00  0.00    -0.025 C 
ATOM     27  N   UNL A   1      33.860  27.939  24.352  1.00  0.00    -0.270 NA
ATOM     28  C   UNL A   1      30.409  29.156  23.520  1.00  0.00     0.095 C 
ATOM     29  C   UNL A   1      32.345  29.572  25.208  1.00  0.00     0.001 A 
ATOM     30  C   UNL A   1      33.663  28.880  25.235  1.00  0.00     0.066 A 
ATOM     31  C   UNL A   1      31.881  30.271  26.366  1.00  0.00     0.010 A 
ATOM     32  C   UNL A   1      34.590  29.211  26.323  1.00  0.00     0.028 A 
ATOM     33  C   UNL A   1      32.690  30.304  27.444  1.00  0.00     0.001 A 
ATOM     34  C   UNL A   1      34.068  29.826  27.395  1.00  0.00     0.002 A 
ENDBRANCH  15  20
ENDBRANCH  11  12
ENDBRANCH  10  11
ENDBRANCH   8  10
ENDBRANCH   7   8
ENDBRANCH   6   7
ENDBRANCH   5   6
ENDBRANCH   4   5
ENDBRANCH   3   4
ENDBRANCH   2   3
ENDBRANCH   1   2
BRANCH   1  35
ATOM     35  C   UNL A   1      40.916  20.162  26.475  1.00  0.00     0.188 C 
BRANCH  35  36
ATOM     36  C   UNL A   1      42.402  20.506  26.616  1.00  0.00     0.188 C 
BRANCH  36  37
ATOM     37  O   UNL A   1      42.981  21.051  25.440  1.00  0.00    -0.376 OA
BRANCH  37  38
ATOM     38  C   UNL A   1      43.440  22.391  25.455  1.00  0.00     0.202 C 
BRANCH  38  39
ATOM     39  C   UNL A   1      42.377  23.434  25.778  1.00  0.00     0.261 C 
BRANCH  39  40
ATOM     40  O   UNL A   1      42.802  24.568  26.521  1.00  0.00    -0.460 OA
BRANCH  40  41
ATOM     41  C   UNL A   1      42.621  25.799  26.012  1.00  0.00     0.338 C 
ATOM     42  O   UNL A   1      42.537  26.150  24.850  1.00  0.00    -0.246 OA
BRANCH  41  43
ATOM     43  C   UNL A   1      42.304  26.593  27.197  1.00  0.00     0.060 A 
ATOM     44  C   UNL A   1      41.427  26.054  28.140  1.00  0.00     0.016 A 
ATOM     45  C   UNL A   1      43.034  27.763  27.441  1.00  0.00     0.016 A 
ATOM     46  C   UNL A   1      41.277  26.701  29.356  1.00  0.00     0.010 A 
ATOM     47  C   UNL A   1      42.876  28.413  28.651  1.00  0.00     0.010 A 
ATOM     48  C   UNL A   1      41.979  27.892  29.592  1.00  0.00    -0.014 A 
BRANCH  48  49
ATOM     49  C   UNL A   1      41.601  28.710  30.748  1.00  0.00     0.031 A 
ATOM     50  C   UNL A   1      42.428  28.555  31.986  1.00  0.00     0.074 A 
ATOM     51  C   UNL A   1      40.575  29.568  30.657  1.00  0.00     0.049 A 
ATOM     52  N   UNL A   1      42.364  29.210  33.109  1.00  0.00    -0.248 NA
ATOM     53  C   UNL A   1      43.476  27.515  31.951  1.00  0.00     0.031 C 
ATOM     54  C   UNL A   1      39.727  29.752  29.476  1.00  0.00     0.029 A 
ATOM     55  N   UNL A   1      40.076  30.450  31.572  1.00  0.00    -0.354 N 
ATOM     56  C   UNL A   1      43.370  28.680  33.905  1.00  0.00     0.074 A 
ATOM     57  C   UNL A   1      43.998  27.614  33.162  1.00  0.00     0.031 C 
ATOM     58  C   UNL A   1      38.812  30.698  29.743  1.00  0.00     0.029 A 
ATOM     59  C   UNL A   1      39.006  31.175  31.109  1.00  0.00     0.049 A 
ATOM     60  H   UNL A   1      40.448  30.555  32.477  1.00  0.00     0.167 HD
ATOM     61  C   UNL A   1      43.742  29.071  35.142  1.00  0.00     0.037 A 
ATOM     62  C   UNL A   1      38.280  32.120  31.735  1.00  0.00     0.037 A 
ATOM     63  C   UNL A   1      43.072  30.121  35.860  1.00  0.00     0.049 A 
ATOM     64  C   UNL A   1      38.693  32.513  33.130  1.00  0.00     0.074 A 
ATOM     65  C   UNL A   1      43.344  30.618  37.119  1.00  0.00     0.029 A 
ATOM     66  N   UNL A   1      41.980  30.827  35.371  1.00  0.00    -0.354 N 
ATOM     67  N   UNL A   1      39.680  32.044  33.861  1.00  0.00    -0.248 NA
ATOM     68  C   UNL A   1      37.910  33.570  33.779  1.00  0.00     0.031 C 
ATOM     69  C   UNL A   1      42.385  31.594  37.411  1.00  0.00     0.029 A 
ATOM     70  C   UNL A   1      41.548  31.742  36.314  1.00  0.00     0.049 A 
ATOM     71  H   UNL A   1      41.572  30.694  34.486  1.00  0.00     0.167 HD
ATOM     72  C   UNL A   1      39.649  32.763  35.050  1.00  0.00     0.074 A 
ATOM     73  C   UNL A   1      38.556  33.710  34.929  1.00  0.00     0.031 C 
ATOM     74  C   UNL A   1      40.445  32.657  36.145  1.00  0.00     0.037 A 
BRANCH  61  75
ATOM     75  C   UNL A   1      44.890  28.343  35.781  1.00  0.00     0.058 A 
ATOM     76  C   UNL A   1      44.688  27.204  36.580  1.00  0.00     0.135 A 
ATOM     77  C   UNL A   1      46.206  28.794  35.607  1.00  0.00     0.135 A 
ATOM     78  F   UNL A   1      43.446  26.749  36.809  1.00  0.00    -0.206 F 
ATOM     79  C   UNL A   1      45.749  26.554  37.201  1.00  0.00     0.059 A 
ATOM     80  C   UNL A   1      47.286  28.145  36.199  1.00  0.00     0.059 A 
ATOM     81  F   UNL A   1      46.454  29.888  34.870  1.00  0.00    -0.206 F 
ATOM     82  C   UNL A   1      47.046  27.032  37.005  1.00  0.00     0.060 A 
BRANCH  82  83
ATOM     83  S   UNL A   1      48.413  26.176  37.814  1.00  0.00     0.124 S 
ATOM     84  O   UNL A   1      48.686  25.102  36.864  1.00  0.00    -0.237 OA
ATOM     85  O   UNL A   1      49.428  27.220  37.900  1.00  0.00    -0.237 OA
ATOM     86  O   UNL A   1      47.842  25.753  39.089  1.00  0.00    -0.744 OA
ENDBRANCH  82  83
ENDBRANCH  61  75
BRANCH  62  87
ATOM     87  C   UNL A   1      37.131  32.758  31.043  1.00  0.00     0.058 A 
ATOM     88  C   UNL A   1      37.289  33.938  30.303  1.00  0.00     0.135 A 
ATOM     89  C   UNL A   1      35.851  32.179  31.082  1.00  0.00     0.135 A 
ATOM     90  F   UNL A   1      38.490  34.531  30.234  1.00  0.00    -0.206 F 
ATOM     91  C   UNL A   1      36.220  34.531  29.636  1.00  0.00     0.059 A 
ATOM     92  C   UNL A   1      34.773  32.739  30.404  1.00  0.00     0.059 A 
ATOM     93  F   UNL A   1      35.649  31.040  31.762  1.00  0.00    -0.206 F 
ATOM     94  C   UNL A   1      34.965  33.921  29.692  1.00  0.00     0.060 A 
BRANCH  94  95
ATOM     95  S   UNL A   1      33.596  34.670  28.780  1.00  0.00     0.124 S 
ATOM     96  O   UNL A   1      34.247  35.819  28.164  1.00  0.00    -0.237 OA
ATOM     97  O   UNL A   1      33.205  33.594  27.875  1.00  0.00    -0.237 OA
ATOM     98  O   UNL A   1      32.626  34.980  29.827  1.00  0.00    -0.744 OA
ENDBRANCH  94  95
ENDBRANCH  62  87
BRANCH  74  99
ATOM     99  C   UNL A   1      40.161  33.598  37.279  1.00  0.00     0.058 A 
ATOM    100  C   UNL A   1      39.181  33.313  38.240  1.00  0.00     0.135 A 
ATOM    101  C   UNL A   1      40.911  34.777  37.426  1.00  0.00     0.135 A 
ATOM    102  F   UNL A   1      38.438  32.200  38.140  1.00  0.00    -0.206 F 
ATOM    103  C   UNL A   1      38.927  34.184  39.292  1.00  0.00     0.059 A 
ATOM    104  C   UNL A   1      40.695  35.646  38.488  1.00  0.00     0.059 A 
ATOM    105  F   UNL A   1      41.872  35.083  36.541  1.00  0.00    -0.206 F 
ATOM    106  C   UNL A   1      39.688  35.349  39.406  1.00  0.00     0.060 A 
BRANCH 106 107
ATOM    107  S   UNL A   1      39.358  36.465  40.785  1.00  0.00     0.124 S 
ATOM    108  O   UNL A   1      40.635  37.161  40.906  1.00  0.00    -0.237 OA
ATOM    109  O   UNL A   1      38.246  37.264  40.282  1.00  0.00    -0.237 OA
ATOM    110  O   UNL A   1      39.028  35.560  41.882  1.00  0.00    -0.744 OA
ENDBRANCH 106 107
ENDBRANCH  74  99
ENDBRANCH  48  49
ENDBRANCH  41  43
ENDBRANCH  40  41
ENDBRANCH  39  40
ENDBRANCH  38  39
ENDBRANCH  37  38
ENDBRANCH  36  37
ENDBRANCH  35  36
ENDBRANCH   1  35
TORSDOF 27
ENDMDL
MODEL 2
REMARK VINA RESULT:      -8.7      4.976     13.970
REMARK SMILES COc1cc([C@H]2[NH2+]CCC3=c4ccccc4=N[C@@H]32)ccc1OCC(=O)OCCOCCOCCOCCOC(=O)c1ccc(-c2c3nc(c(-c4c(F)cc(S(=O)(=O)[O-])cc4F)c4ccc([nH]4)c(-c4c(F)cc(S(=O)(=O)[O-])cc4F)c4nc(c(-c5c(F)cc(S(=O)(=O)[O-])cc5F)c5ccc2[nH]5)C=C4)C=C3)cc1
REMARK SMILES IDX 32 1 31 2 30 3 29 4 28 5 27 6 26 7 24 8 25 9 23 10 22 11
REMARK SMILES IDX 21 12 3 13 4 14 5 15 20 16 19 17 2 18 1 19 6 20 7 21 18 22
REMARK SMILES IDX 8 23 10 26 17 27 9 28 11 29 16 30 12 31 15 32 13 33 14 34
REMARK SMILES IDX 33 35 34 36 35 37 36 38 37 39 38 40 39 41 40 42 41 43 42 44
REMARK SMILES IDX 106 45 43 46 105 47 44 48 45 49 46 50 99 51 47 52 104 53
REMARK SMILES IDX 98 54 100 55 48 56 103 57 97 58 96 59 49 61 83 62 62 63
REMARK SMILES IDX 82 64 63 65 66 66 81 67 101 68 64 69 65 70 80 72 102 73
REMARK SMILES IDX 67 74 50 75 51 76 60 77 52 78 53 79 59 80 61 81 54 82 55 83
REMARK SMILES IDX 56 84 57 85 58 86 84 87 85 88 94 89 86 90 87 91 93 92 95 93
REMARK SMILES IDX 88 94 89 95 90 96 91 97 92 98 68 99 69 100 78 101 70 102
REMARK SMILES IDX 71 103 77 104 79 105 72 106 73 107 74 108 75 109 76 110
REMARK H PARENT 7 24 7 25 100 60 66 71
REMARK Flexibility Score: inf
ROOT
ATOM      1  O   UNL A   1      32.543  35.863  31.104  1.00  0.00    -0.377 OA
ENDROOT
BRANCH   1   2
ATOM      2  C   UNL A   1      33.092  35.941  32.410  1.00  0.00     0.188 C 
BRANCH   2   3
ATOM      3  C   UNL A   1      34.306  35.016  32.655  1.00  0.00     0.188 C 
BRANCH   3   4
ATOM      4  O   UNL A   1      34.265  33.991  33.641  1.00  0.00    -0.376 OA
BRANCH   4   5
ATOM      5  C   UNL A   1      35.490  33.576  34.209  1.00  0.00     0.202 C 
BRANCH   5   6
ATOM      6  C   UNL A   1      36.310  32.544  33.417  1.00  0.00     0.261 C 
BRANCH   6   7
ATOM      7  O   UNL A   1      37.220  31.735  34.194  1.00  0.00    -0.461 OA
BRANCH   7   8
ATOM      8  C   UNL A   1      38.560  31.845  33.956  1.00  0.00     0.344 C 
ATOM      9  O   UNL A   1      39.078  32.703  33.251  1.00  0.00    -0.248 OA
BRANCH   8  10
ATOM     10  C   UNL A   1      39.356  30.748  34.704  1.00  0.00     0.352 C 
BRANCH  10  11
ATOM     11  O   UNL A   1      39.249  30.886  36.115  1.00  0.00    -0.478 OA
BRANCH  11  12
ATOM     12  C   UNL A   1      39.260  32.055  36.833  1.00  0.00     0.162 A 
ATOM     13  C   UNL A   1      38.397  32.391  37.896  1.00  0.00     0.161 A 
ATOM     14  C   UNL A   1      38.860  33.190  38.997  1.00  0.00     0.060 A 
ATOM     15  C   UNL A   1      40.165  33.699  39.063  1.00  0.00     0.016 A 
ATOM     16  C   UNL A   1      40.514  32.657  36.836  1.00  0.00     0.051 A 
ATOM     17  C   UNL A   1      40.928  33.487  37.890  1.00  0.00     0.014 A 
BRANCH  13  18
ATOM     18  O   UNL A   1      37.136  31.904  38.125  1.00  0.00    -0.493 OA
ATOM     19  C   UNL A   1      36.237  32.737  38.837  1.00  0.00     0.278 C 
ENDBRANCH  13  18
BRANCH  15  20
ATOM     20  C   UNL A   1      40.795  34.363  40.374  1.00  0.00     0.243 C 
ATOM     21  N   UNL A   1      40.282  35.729  40.571  1.00  0.00    -0.338 N 
ATOM     22  C   UNL A   1      40.373  33.511  41.590  1.00  0.00     0.196 C 
ATOM     23  C   UNL A   1      40.001  36.300  41.897  1.00  0.00     0.265 C 
ATOM     24  H   UNL A   1      39.405  35.776  40.054  1.00  0.00     0.346 HD
ATOM     25  H   UNL A   1      41.082  36.290  40.275  1.00  0.00     0.346 HD
ATOM     26  C   UNL A   1      39.948  33.963  42.946  1.00  0.00    -0.025 C 
ATOM     27  N   UNL A   1      41.061  32.208  41.784  1.00  0.00    -0.270 NA
ATOM     28  C   UNL A   1      39.551  35.388  43.086  1.00  0.00     0.095 C 
ATOM     29  C   UNL A   1      39.529  32.820  43.507  1.00  0.00     0.001 A 
ATOM     30  C   UNL A   1      40.315  31.792  42.770  1.00  0.00     0.066 A 
ATOM     31  C   UNL A   1      38.385  32.431  44.275  1.00  0.00     0.010 A 
ATOM     32  C   UNL A   1      40.097  30.383  43.117  1.00  0.00     0.028 A 
ATOM     33  C   UNL A   1      38.083  31.118  44.327  1.00  0.00     0.001 A 
ATOM     34  C   UNL A   1      38.978  30.094  43.798  1.00  0.00     0.002 A 
ENDBRANCH  15  20
ENDBRANCH  11  12
ENDBRANCH  10  11
ENDBRANCH   8  10
ENDBRANCH   7   8
ENDBRANCH   6   7
ENDBRANCH   5   6
ENDBRANCH   4   5
ENDBRANCH   3   4
ENDBRANCH   2   3
ENDBRANCH   1   2
BRANCH   1  35
ATOM     35  C   UNL A   1      33.103  34.848  30.290  1.00  0.00     0.188 C 
BRANCH  35  36
ATOM     36  C   UNL A   1      33.306  35.294  28.839  1.00  0.00     0.188 C 
BRANCH  36  37
ATOM     37  O   UNL A   1      34.669  35.355  28.441  1.00  0.00    -0.376 OA
BRANCH  37  38
ATOM     38  C   UNL A   1      35.442  34.169  28.447  1.00  0.00     0.202 C 
BRANCH  38  39
ATOM     39  C   UNL A   1      34.752  32.944  27.859  1.00  0.00     0.261 C 
BRANCH  39  40
ATOM     40  O   UNL A   1      34.549  31.845  28.736  1.00  0.00    -0.460 OA
BRANCH  40  41
ATOM     41  C   UNL A   1      34.582  30.594  28.247  1.00  0.00     0.338 C 
ATOM     42  O   UNL A   1      33.743  29.994  27.602  1.00  0.00    -0.246 OA
BRANCH  41  43
ATOM     43  C   UNL A   1      35.972  30.199  28.467  1.00  0.00     0.060 A 
ATOM     44  C   UNL A   1      36.327  29.692  29.718  1.00  0.00     0.016 A 
ATOM     45  C   UNL A   1      36.843  30.156  27.371  1.00  0.00     0.016 A 
ATOM     46  C   UNL A   1      37.582  29.128  29.876  1.00  0.00     0.010 A 
ATOM     47  C   UNL A   1      38.099  29.603  27.532  1.00  0.00     0.010 A 
ATOM     48  C   UNL A   1      38.471  29.114  28.791  1.00  0.00    -0.014 A 
BRANCH  48  49
ATOM     49  C   UNL A   1      39.877  28.782  29.042  1.00  0.00     0.031 A 
ATOM     50  C   UNL A   1      40.710  29.830  29.710  1.00  0.00     0.074 A 
ATOM     51  C   UNL A   1      40.352  27.576  28.700  1.00  0.00     0.049 A 
ATOM     52  N   UNL A   1      41.945  29.766  30.118  1.00  0.00    -0.248 NA
ATOM     53  C   UNL A   1      40.059  31.132  29.954  1.00  0.00     0.031 C 
ATOM     54  C   UNL A   1      39.585  26.520  28.035  1.00  0.00     0.029 A 
ATOM     55  N   UNL A   1      41.594  27.035  28.871  1.00  0.00    -0.354 N 
ATOM     56  C   UNL A   1      42.213  31.005  30.683  1.00  0.00     0.074 A 
ATOM     57  C   UNL A   1      41.035  31.822  30.521  1.00  0.00     0.031 C 
ATOM     58  C   UNL A   1      40.381  25.451  27.860  1.00  0.00     0.029 A 
ATOM     59  C   UNL A   1      41.706  25.754  28.391  1.00  0.00     0.049 A 
ATOM     60  H   UNL A   1      42.338  27.518  29.298  1.00  0.00     0.167 HD
ATOM     61  C   UNL A   1      43.344  31.409  31.300  1.00  0.00     0.037 A 
ATOM     62  C   UNL A   1      42.771  24.931  28.394  1.00  0.00     0.037 A 
ATOM     63  C   UNL A   1      44.507  30.572  31.416  1.00  0.00     0.049 A 
ATOM     64  C   UNL A   1      44.033  25.418  29.057  1.00  0.00     0.074 A 
ATOM     65  C   UNL A   1      45.719  30.854  32.014  1.00  0.00     0.029 A 
ATOM     66  N   UNL A   1      44.597  29.283  30.904  1.00  0.00    -0.354 N 
ATOM     67  N   UNL A   1      44.266  26.575  29.637  1.00  0.00    -0.248 NA
ATOM     68  C   UNL A   1      45.170  24.491  29.080  1.00  0.00     0.031 C 
ATOM     69  C   UNL A   1      46.559  29.751  31.823  1.00  0.00     0.029 A 
ATOM     70  C   UNL A   1      45.853  28.762  31.151  1.00  0.00     0.049 A 
ATOM     71  H   UNL A   1      43.873  28.811  30.434  1.00  0.00     0.167 HD
ATOM     72  C   UNL A   1      45.570  26.507  30.113  1.00  0.00     0.074 A 
ATOM     73  C   UNL A   1      46.065  25.187  29.767  1.00  0.00     0.031 C 
ATOM     74  C   UNL A   1      46.298  27.442  30.776  1.00  0.00     0.037 A 
BRANCH  61  75
ATOM     75  C   UNL A   1      43.368  32.804  31.854  1.00  0.00     0.058 A 
ATOM     76  C   UNL A   1      43.884  33.883  31.114  1.00  0.00     0.135 A 
ATOM     77  C   UNL A   1      42.885  33.068  33.144  1.00  0.00     0.135 A 
ATOM     78  F   UNL A   1      44.392  33.682  29.888  1.00  0.00    -0.206 F 
ATOM     79  C   UNL A   1      43.940  35.168  31.645  1.00  0.00     0.059 A 
ATOM     80  C   UNL A   1      42.908  34.350  33.685  1.00  0.00     0.059 A 
ATOM     81  F   UNL A   1      42.400  32.071  33.900  1.00  0.00    -0.206 F 
ATOM     82  C   UNL A   1      43.449  35.391  32.932  1.00  0.00     0.060 A 
BRANCH  82  83
ATOM     83  S   UNL A   1      43.525  37.065  33.605  1.00  0.00     0.124 S 
ATOM     84  O   UNL A   1      44.741  36.999  34.411  1.00  0.00    -0.237 OA
ATOM     85  O   UNL A   1      43.607  37.882  32.400  1.00  0.00    -0.237 OA
ATOM     86  O   UNL A   1      42.281  37.185  34.358  1.00  0.00    -0.744 OA
ENDBRANCH  82  83
ENDBRANCH  61  75
BRANCH  62  87
ATOM     87  C   UNL A   1      42.672  23.580  27.783  1.00  0.00     0.058 A 
ATOM     88  C   UNL A   1      42.396  22.446  28.560  1.00  0.00     0.135 A 
ATOM     89  C   UNL A   1      42.820  23.401  26.397  1.00  0.00     0.135 A 
ATOM     90  F   UNL A   1      42.246  22.562  29.888  1.00  0.00    -0.206 F 
ATOM     91  C   UNL A   1      42.283  21.180  27.990  1.00  0.00     0.059 A 
ATOM     92  C   UNL A   1      42.688  22.151  25.802  1.00  0.00     0.059 A 
ATOM     93  F   UNL A   1      43.068  24.456  25.605  1.00  0.00    -0.206 F 
ATOM     94  C   UNL A   1      42.429  21.044  26.608  1.00  0.00     0.060 A 
BRANCH  94  95
ATOM     95  S   UNL A   1      42.228  19.406  25.872  1.00  0.00     0.124 S 
ATOM     96  O   UNL A   1      40.808  19.403  25.545  1.00  0.00    -0.237 OA
ATOM     97  O   UNL A   1      43.146  19.464  24.739  1.00  0.00    -0.237 OA
ATOM     98  O   UNL A   1      42.630  18.504  26.948  1.00  0.00    -0.744 OA
ENDBRANCH  94  95
ENDBRANCH  62  87
BRANCH  74  99
ATOM     99  C   UNL A   1      47.693  27.055  31.171  1.00  0.00     0.058 A 
ATOM    100  C   UNL A   1      48.779  27.236  30.303  1.00  0.00     0.135 A 
ATOM    101  C   UNL A   1      47.949  26.538  32.452  1.00  0.00     0.135 A 
ATOM    102  F   UNL A   1      48.583  27.725  29.068  1.00  0.00    -0.206 F 
ATOM    103  C   UNL A   1      50.070  26.883  30.676  1.00  0.00     0.059 A 
ATOM    104  C   UNL A   1      49.236  26.208  32.858  1.00  0.00     0.059 A 
ATOM    105  F   UNL A   1      46.944  26.363  33.324  1.00  0.00    -0.206 F 
ATOM    106  C   UNL A   1      50.287  26.367  31.955  1.00  0.00     0.060 A 
BRANCH 106 107
ATOM    107  S   UNL A   1      51.969  25.927  32.435  1.00  0.00     0.124 S 
ATOM    108  O   UNL A   1      52.021  26.427  33.805  1.00  0.00    -0.237 OA
ATOM    109  O   UNL A   1      51.966  24.475  32.289  1.00  0.00    -0.237 OA
ATOM    110  O   UNL A   1      52.796  26.647  31.471  1.00  0.00    -0.744 OA
ENDBRANCH 106 107
ENDBRANCH  74  99
ENDBRANCH  48  49
ENDBRANCH  41  43
ENDBRANCH  40  41
ENDBRANCH  39  40
ENDBRANCH  38  39
ENDBRANCH  37  38
ENDBRANCH  36  37
ENDBRANCH  35  36
ENDBRANCH   1  35
TORSDOF 27
ENDMDL
MODEL 3
REMARK VINA RESULT:      -8.5      5.216     12.664
REMARK SMILES COc1cc([C@H]2[NH2+]CCC3=c4ccccc4=N[C@@H]32)ccc1OCC(=O)OCCOCCOCCOCCOC(=O)c1ccc(-c2c3nc(c(-c4c(F)cc(S(=O)(=O)[O-])cc4F)c4ccc([nH]4)c(-c4c(F)cc(S(=O)(=O)[O-])cc4F)c4nc(c(-c5c(F)cc(S(=O)(=O)[O-])cc5F)c5ccc2[nH]5)C=C4)C=C3)cc1
REMARK SMILES IDX 32 1 31 2 30 3 29 4 28 5 27 6 26 7 24 8 25 9 23 10 22 11
REMARK SMILES IDX 21 12 3 13 4 14 5 15 20 16 19 17 2 18 1 19 6 20 7 21 18 22
REMARK SMILES IDX 8 23 10 26 17 27 9 28 11 29 16 30 12 31 15 32 13 33 14 34
REMARK SMILES IDX 33 35 34 36 35 37 36 38 37 39 38 40 39 41 40 42 41 43 42 44
REMARK SMILES IDX 106 45 43 46 105 47 44 48 45 49 46 50 99 51 47 52 104 53
REMARK SMILES IDX 98 54 100 55 48 56 103 57 97 58 96 59 49 61 83 62 62 63
REMARK SMILES IDX 82 64 63 65 66 66 81 67 101 68 64 69 65 70 80 72 102 73
REMARK SMILES IDX 67 74 50 75 51 76 60 77 52 78 53 79 59 80 61 81 54 82 55 83
REMARK SMILES IDX 56 84 57 85 58 86 84 87 85 88 94 89 86 90 87 91 93 92 95 93
REMARK SMILES IDX 88 94 89 95 90 96 91 97 92 98 68 99 69 100 78 101 70 102
REMARK SMILES IDX 71 103 77 104 79 105 72 106 73 107 74 108 75 109 76 110
REMARK H PARENT 7 24 7 25 100 60 66 71
REMARK Flexibility Score: inf
ROOT
ATOM      1  O   UNL A   1      32.391  36.011  30.811  1.00  0.00    -0.377 OA
ENDROOT
BRANCH   1   2
ATOM      2  C   UNL A   1      32.882  36.608  32.001  1.00  0.00     0.188 C 
BRANCH   2   3
ATOM      3  C   UNL A   1      34.181  35.976  32.551  1.00  0.00     0.188 C 
BRANCH   3   4
ATOM      4  O   UNL A   1      34.144  34.987  33.573  1.00  0.00    -0.376 OA
BRANCH   4   5
ATOM      5  C   UNL A   1      35.259  34.893  34.436  1.00  0.00     0.202 C 
BRANCH   5   6
ATOM      6  C   UNL A   1      36.333  33.854  34.077  1.00  0.00     0.261 C 
BRANCH   6   7
ATOM      7  O   UNL A   1      37.187  33.432  35.161  1.00  0.00    -0.461 OA
BRANCH   7   8
ATOM      8  C   UNL A   1      38.538  33.415  34.962  1.00  0.00     0.344 C 
ATOM      9  O   UNL A   1      39.231  32.404  34.949  1.00  0.00    -0.248 OA
BRANCH   8  10
ATOM     10  C   UNL A   1      39.094  34.843  34.741  1.00  0.00     0.352 C 
BRANCH  10  11
ATOM     11  O   UNL A   1      39.295  35.124  33.362  1.00  0.00    -0.478 OA
BRANCH  11  12
ATOM     12  C   UNL A   1      40.148  34.477  32.504  1.00  0.00     0.162 A 
ATOM     13  C   UNL A   1      39.920  34.215  31.137  1.00  0.00     0.161 A 
ATOM     14  C   UNL A   1      41.004  34.222  30.194  1.00  0.00     0.060 A 
ATOM     15  C   UNL A   1      42.334  34.454  30.576  1.00  0.00     0.016 A 
ATOM     16  C   UNL A   1      41.477  34.587  32.903  1.00  0.00     0.051 A 
ATOM     17  C   UNL A   1      42.529  34.528  31.975  1.00  0.00     0.014 A 
BRANCH  13  18
ATOM     18  O   UNL A   1      38.708  34.100  30.508  1.00  0.00    -0.493 OA
ATOM     19  C   UNL A   1      37.993  32.889  30.690  1.00  0.00     0.278 C 
ENDBRANCH  13  18
BRANCH  15  20
ATOM     20  C   UNL A   1      43.522  34.727  29.540  1.00  0.00     0.243 C 
ATOM     21  N   UNL A   1      43.522  33.723  28.463  1.00  0.00    -0.338 N 
ATOM     22  C   UNL A   1      43.290  36.114  28.904  1.00  0.00     0.196 C 
ATOM     23  C   UNL A   1      43.867  34.038  27.069  1.00  0.00     0.265 C 
ATOM     24  H   UNL A   1      42.578  33.338  28.439  1.00  0.00     0.346 HD
ATOM     25  H   UNL A   1      44.308  33.132  28.737  1.00  0.00     0.346 HD
ATOM     26  C   UNL A   1      43.481  36.536  27.487  1.00  0.00    -0.025 C 
ATOM     27  N   UNL A   1      43.593  37.307  29.737  1.00  0.00    -0.270 NA
ATOM     28  C   UNL A   1      43.584  35.456  26.472  1.00  0.00     0.095 C 
ATOM     29  C   UNL A   1      42.954  37.769  27.484  1.00  0.00     0.001 A 
ATOM     30  C   UNL A   1      43.121  38.193  28.902  1.00  0.00     0.066 A 
ATOM     31  C   UNL A   1      42.062  38.486  26.624  1.00  0.00     0.010 A 
ATOM     32  C   UNL A   1      42.628  39.522  29.284  1.00  0.00     0.028 A 
ATOM     33  C   UNL A   1      41.425  39.558  27.136  1.00  0.00     0.001 A 
ATOM     34  C   UNL A   1      41.759  40.107  28.446  1.00  0.00     0.002 A 
ENDBRANCH  15  20
ENDBRANCH  11  12
ENDBRANCH  10  11
ENDBRANCH   8  10
ENDBRANCH   7   8
ENDBRANCH   6   7
ENDBRANCH   5   6
ENDBRANCH   4   5
ENDBRANCH   3   4
ENDBRANCH   2   3
ENDBRANCH   1   2
BRANCH   1  35
ATOM     35  C   UNL A   1      33.153  34.910  30.348  1.00  0.00     0.188 C 
BRANCH  35  36
ATOM     36  C   UNL A   1      33.224  34.838  28.819  1.00  0.00     0.188 C 
BRANCH  36  37
ATOM     37  O   UNL A   1      34.519  35.082  28.290  1.00  0.00    -0.376 OA
BRANCH  37  38
ATOM     38  C   UNL A   1      35.546  34.134  28.517  1.00  0.00     0.202 C 
BRANCH  38  39
ATOM     39  C   UNL A   1      35.203  32.703  28.120  1.00  0.00     0.261 C 
BRANCH  39  40
ATOM     40  O   UNL A   1      35.347  31.710  29.126  1.00  0.00    -0.460 OA
BRANCH  40  41
ATOM     41  C   UNL A   1      35.400  30.414  28.774  1.00  0.00     0.338 C 
ATOM     42  O   UNL A   1      34.609  29.757  28.123  1.00  0.00    -0.246 OA
BRANCH  41  43
ATOM     43  C   UNL A   1      36.758  30.033  29.155  1.00  0.00     0.060 A 
ATOM     44  C   UNL A   1      36.935  29.304  30.333  1.00  0.00     0.016 A 
ATOM     45  C   UNL A   1      37.799  30.236  28.240  1.00  0.00     0.016 A 
ATOM     46  C   UNL A   1      38.182  28.764  30.600  1.00  0.00     0.010 A 
ATOM     47  C   UNL A   1      39.046  29.705  28.513  1.00  0.00     0.010 A 
ATOM     48  C   UNL A   1      39.237  28.993  29.704  1.00  0.00    -0.014 A 
BRANCH  48  49
ATOM     49  C   UNL A   1      40.601  28.668  30.129  1.00  0.00     0.031 A 
ATOM     50  C   UNL A   1      41.124  29.388  31.333  1.00  0.00     0.074 A 
ATOM     51  C   UNL A   1      41.309  27.743  29.465  1.00  0.00     0.049 A 
ATOM     52  N   UNL A   1      42.253  29.230  31.963  1.00  0.00    -0.248 NA
ATOM     53  C   UNL A   1      40.251  30.431  31.906  1.00  0.00     0.031 C 
ATOM     54  C   UNL A   1      40.851  27.018  28.278  1.00  0.00     0.029 A 
ATOM     55  N   UNL A   1      42.561  27.251  29.700  1.00  0.00    -0.354 N 
ATOM     56  C   UNL A   1      42.218  30.136  33.015  1.00  0.00     0.074 A 
ATOM     57  C   UNL A   1      40.984  30.877  32.912  1.00  0.00     0.031 C 
ATOM     58  C   UNL A   1      41.816  26.166  27.891  1.00  0.00     0.029 A 
ATOM     59  C   UNL A   1      42.954  26.295  28.797  1.00  0.00     0.049 A 
ATOM     60  H   UNL A   1      43.128  27.554  30.446  1.00  0.00     0.167 HD
ATOM     61  C   UNL A   1      43.136  30.310  33.990  1.00  0.00     0.037 A 
ATOM     62  C   UNL A   1      44.109  25.607  28.730  1.00  0.00     0.037 A 
ATOM     63  C   UNL A   1      44.366  29.568  34.041  1.00  0.00     0.049 A 
ATOM     64  C   UNL A   1      45.132  25.846  29.809  1.00  0.00     0.074 A 
ATOM     65  C   UNL A   1      45.384  29.644  34.971  1.00  0.00     0.029 A 
ATOM     66  N   UNL A   1      44.744  28.617  33.102  1.00  0.00    -0.354 N 
ATOM     67  N   UNL A   1      45.073  26.667  30.834  1.00  0.00    -0.248 NA
ATOM     68  C   UNL A   1      46.369  25.060  29.735  1.00  0.00     0.031 C 
ATOM     69  C   UNL A   1      46.400  28.771  34.567  1.00  0.00     0.029 A 
ATOM     70  C   UNL A   1      45.993  28.113  33.415  1.00  0.00     0.049 A 
ATOM     71  H   UNL A   1      44.204  28.343  32.326  1.00  0.00     0.167 HD
ATOM     72  C   UNL A   1      46.256  26.482  31.540  1.00  0.00     0.074 A 
ATOM     73  C   UNL A   1      47.000  25.457  30.832  1.00  0.00     0.031 C 
ATOM     74  C   UNL A   1      46.694  27.096  32.668  1.00  0.00     0.037 A 
BRANCH  61  75
ATOM     75  C   UNL A   1      42.844  31.347  35.036  1.00  0.00     0.058 A 
ATOM     76  C   UNL A   1      41.946  31.100  36.089  1.00  0.00     0.135 A 
ATOM     77  C   UNL A   1      43.455  32.608  34.980  1.00  0.00     0.135 A 
ATOM     78  F   UNL A   1      41.305  29.923  36.171  1.00  0.00    -0.206 F 
ATOM     79  C   UNL A   1      41.648  32.076  37.034  1.00  0.00     0.059 A 
ATOM     80  C   UNL A   1      43.191  33.591  35.929  1.00  0.00     0.059 A 
ATOM     81  F   UNL A   1      44.305  32.903  33.985  1.00  0.00    -0.206 F 
ATOM     82  C   UNL A   1      42.276  33.319  36.946  1.00  0.00     0.060 A 
BRANCH  82  83
ATOM     83  S   UNL A   1      41.882  34.574  38.183  1.00  0.00     0.124 S 
ATOM     84  O   UNL A   1      40.498  34.242  38.503  1.00  0.00    -0.237 OA
ATOM     85  O   UNL A   1      42.859  34.296  39.230  1.00  0.00    -0.237 OA
ATOM     86  O   UNL A   1      42.076  35.830  37.466  1.00  0.00    -0.744 OA
ENDBRANCH  82  83
ENDBRANCH  61  75
BRANCH  62  87
ATOM     87  C   UNL A   1      44.333  24.631  27.632  1.00  0.00     0.058 A 
ATOM     88  C   UNL A   1      44.095  23.260  27.815  1.00  0.00     0.135 A 
ATOM     89  C   UNL A   1      44.760  25.054  26.363  1.00  0.00     0.135 A 
ATOM     90  F   UNL A   1      43.686  22.804  29.008  1.00  0.00    -0.206 F 
ATOM     91  C   UNL A   1      44.285  22.343  26.785  1.00  0.00     0.059 A 
ATOM     92  C   UNL A   1      44.933  24.160  25.311  1.00  0.00     0.059 A 
ATOM     93  F   UNL A   1      44.985  26.357  26.129  1.00  0.00    -0.206 F 
ATOM     94  C   UNL A   1      44.702  22.804  25.535  1.00  0.00     0.060 A 
BRANCH  94  95
ATOM     95  S   UNL A   1      44.895  21.611  24.191  1.00  0.00     0.124 S 
ATOM     96  O   UNL A   1      44.529  22.415  23.031  1.00  0.00    -0.237 OA
ATOM     97  O   UNL A   1      46.304  21.250  24.301  1.00  0.00    -0.237 OA
ATOM     98  O   UNL A   1      43.955  20.551  24.546  1.00  0.00    -0.744 OA
ENDBRANCH  94  95
ENDBRANCH  62  87
BRANCH  74  99
ATOM     99  C   UNL A   1      48.028  26.660  33.199  1.00  0.00     0.058 A 
ATOM    100  C   UNL A   1      49.211  27.329  32.851  1.00  0.00     0.135 A 
ATOM    101  C   UNL A   1      48.115  25.587  34.102  1.00  0.00     0.135 A 
ATOM    102  F   UNL A   1      49.177  28.359  31.990  1.00  0.00    -0.206 F 
ATOM    103  C   UNL A   1      50.443  26.926  33.351  1.00  0.00     0.059 A 
ATOM    104  C   UNL A   1      49.333  25.187  34.638  1.00  0.00     0.059 A 
ATOM    105  F   UNL A   1      47.009  24.928  34.478  1.00  0.00    -0.206 F 
ATOM    106  C   UNL A   1      50.493  25.852  34.242  1.00  0.00     0.060 A 
BRANCH 106 107
ATOM    107  S   UNL A   1      52.097  25.347  34.896  1.00  0.00     0.124 S 
ATOM    108  O   UNL A   1      52.932  25.414  33.701  1.00  0.00    -0.237 OA
ATOM    109  O   UNL A   1      52.356  26.365  35.909  1.00  0.00    -0.237 OA
ATOM    110  O   UNL A   1      51.845  24.005  35.413  1.00  0.00    -0.744 OA
ENDBRANCH 106 107
ENDBRANCH  74  99
ENDBRANCH  48  49
ENDBRANCH  41  43
ENDBRANCH  40  41
ENDBRANCH  39  40
ENDBRANCH  38  39
ENDBRANCH  37  38
ENDBRANCH  36  37
ENDBRANCH  35  36
ENDBRANCH   1  35
TORSDOF 27
ENDMDL
