MODEL 1
REMARK VINA RESULT:      -8.6      0.000      0.000
REMARK SMILES Cn1ncc(C(=O)OCCOCCOCCOCCOC(=O)c2ccc(-c3c4nc(c(-c5c(F)cc(S(=O)(=O)[O-])cc5F)c5ccc([nH]5)c(-c5c(F)cc(S(=O)(=O)[O-])cc5F)c5nc(c(-c6c(F)cc(S(=O)(=O)[O-])cc6F)c6ccc3[nH]6)C=C5)C=C4)cc2)c1NS(=O)(=O)[C@@H]1CCS(=O)(=O)C1
REMARK SMILES IDX 14 1 13 2 12 3 11 4 10 5 9 6 8 7 6 8 7 9 5 10 1 11 2 12 3 13
REMARK SMILES IDX 89 14 4 15 90 16 91 18 92 19 93 20 94 21 95 22 100 23 96 24
REMARK SMILES IDX 97 25 98 26 99 27 15 28 16 29 17 30 18 31 19 32 20 33 21 34
REMARK SMILES IDX 22 35 23 36 24 37 88 38 25 39 87 40 26 41 27 42 28 43 81 44
REMARK SMILES IDX 29 45 86 46 80 47 82 48 30 49 85 50 79 51 78 52 31 54 65 55
REMARK SMILES IDX 44 56 64 57 45 58 48 59 63 60 83 61 46 62 47 63 62 65 84 66
REMARK SMILES IDX 49 67 32 68 33 69 42 70 34 71 35 72 41 73 43 74 36 75 37 76
REMARK SMILES IDX 38 77 39 78 40 79 66 80 67 81 76 82 68 83 69 84 75 85 77 86
REMARK SMILES IDX 70 87 71 88 72 89 73 90 74 91 50 92 51 93 60 94 52 95 53 96
REMARK SMILES IDX 59 97 61 98 54 99 55 100 56 101 57 102 58 103
REMARK H PARENT 90 17 82 53 48 64
REMARK Flexibility Score: inf
ROOT
ATOM      1  O   UNL A   1      34.451  34.131  27.940  1.00  0.00    -0.377 OA
ENDROOT
BRANCH   1   2
ATOM      2  C   UNL A   1      35.690  33.468  28.070  1.00  0.00     0.188 C 
BRANCH   2   3
ATOM      3  C   UNL A   1      35.898  31.956  27.964  1.00  0.00     0.188 C 
BRANCH   3   4
ATOM      4  O   UNL A   1      34.814  31.109  27.633  1.00  0.00    -0.376 OA
BRANCH   4   5
ATOM      5  C   UNL A   1      34.884  29.700  27.816  1.00  0.00     0.202 C 
BRANCH   5   6
ATOM      6  C   UNL A   1      34.488  28.804  26.648  1.00  0.00     0.261 C 
BRANCH   6   7
ATOM      7  O   UNL A   1      33.132  28.365  26.868  1.00  0.00    -0.460 OA
BRANCH   7   8
ATOM      8  C   UNL A   1      32.149  29.055  26.242  1.00  0.00     0.343 C 
ATOM      9  O   UNL A   1      31.710  30.130  26.624  1.00  0.00    -0.246 OA
BRANCH   8  10
ATOM     10  C   UNL A   1      31.875  28.512  24.934  1.00  0.00     0.123 A 
ATOM     11  C   UNL A   1      31.449  26.549  21.923  1.00  0.00     0.176 C 
ATOM     12  N   UNL A   1      31.509  27.478  23.032  1.00  0.00    -0.251 N 
ATOM     13  N   UNL A   1      30.718  28.555  22.959  1.00  0.00    -0.179 NA
ATOM     14  C   UNL A   1      32.297  27.412  24.182  1.00  0.00     0.152 A 
ATOM     15  C   UNL A   1      30.901  29.154  24.125  1.00  0.00     0.153 A 
BRANCH  14  16
ATOM     16  N   UNL A   1      33.190  26.350  24.348  1.00  0.00    -0.267 N 
ATOM     17  H   UNL A   1      34.082  26.572  23.995  1.00  0.00     0.181 HD
BRANCH  16  18
ATOM     18  S   UNL A   1      33.155  24.846  24.968  1.00  0.00     0.237 S 
ATOM     19  O   UNL A   1      33.326  24.956  26.399  1.00  0.00    -0.206 OA
ATOM     20  O   UNL A   1      31.955  24.241  24.432  1.00  0.00    -0.206 OA
BRANCH  18  21
ATOM     21  C   UNL A   1      34.492  23.886  24.373  1.00  0.00     0.145 C 
ATOM     22  C   UNL A   1      34.037  22.600  23.693  1.00  0.00     0.039 C 
ATOM     23  C   UNL A   1      35.513  23.524  25.432  1.00  0.00     0.158 C 
ATOM     24  C   UNL A   1      33.919  21.491  24.717  1.00  0.00     0.138 C 
ATOM     25  S   UNL A   1      35.152  21.869  25.929  1.00  0.00     0.151 S 
ATOM     26  O   UNL A   1      34.503  21.937  27.222  1.00  0.00    -0.229 OA
ATOM     27  O   UNL A   1      36.313  21.067  25.640  1.00  0.00    -0.229 OA
ENDBRANCH  18  21
ENDBRANCH  16  18
ENDBRANCH  14  16
ENDBRANCH   8  10
ENDBRANCH   7   8
ENDBRANCH   6   7
ENDBRANCH   5   6
ENDBRANCH   4   5
ENDBRANCH   3   4
ENDBRANCH   2   3
ENDBRANCH   1   2
BRANCH   1  28
ATOM     28  C   UNL A   1      34.046  35.245  28.706  1.00  0.00     0.188 C 
BRANCH  28  29
ATOM     29  C   UNL A   1      33.364  35.013  30.063  1.00  0.00     0.188 C 
BRANCH  29  30
ATOM     30  O   UNL A   1      34.096  34.752  31.254  1.00  0.00    -0.376 OA
BRANCH  30  31
ATOM     31  C   UNL A   1      34.437  33.424  31.591  1.00  0.00     0.202 C 
BRANCH  31  32
ATOM     32  C   UNL A   1      35.893  33.244  32.051  1.00  0.00     0.261 C 
BRANCH  32  33
ATOM     33  O   UNL A   1      36.759  32.516  31.157  1.00  0.00    -0.460 OA
BRANCH  33  34
ATOM     34  C   UNL A   1      37.236  31.339  31.643  1.00  0.00     0.338 C 
ATOM     35  O   UNL A   1      36.605  30.485  32.241  1.00  0.00    -0.246 OA
BRANCH  34  36
ATOM     36  C   UNL A   1      38.667  31.168  31.296  1.00  0.00     0.060 A 
ATOM     37  C   UNL A   1      39.073  31.392  29.974  1.00  0.00     0.016 A 
ATOM     38  C   UNL A   1      39.575  30.652  32.224  1.00  0.00     0.016 A 
ATOM     39  C   UNL A   1      40.370  31.060  29.565  1.00  0.00     0.010 A 
ATOM     40  C   UNL A   1      40.870  30.304  31.807  1.00  0.00     0.010 A 
ATOM     41  C   UNL A   1      41.265  30.463  30.463  1.00  0.00    -0.014 A 
BRANCH  41  42
ATOM     42  C   UNL A   1      42.534  29.846  29.970  1.00  0.00     0.031 A 
ATOM     43  C   UNL A   1      43.776  30.687  29.908  1.00  0.00     0.074 A 
ATOM     44  C   UNL A   1      42.610  28.556  29.594  1.00  0.00     0.049 A 
ATOM     45  N   UNL A   1      44.961  30.374  29.455  1.00  0.00    -0.248 NA
ATOM     46  C   UNL A   1      43.670  32.057  30.434  1.00  0.00     0.031 C 
ATOM     47  C   UNL A   1      41.506  27.619  29.677  1.00  0.00     0.029 A 
ATOM     48  N   UNL A   1      43.632  27.809  29.059  1.00  0.00    -0.354 N 
ATOM     49  C   UNL A   1      45.746  31.503  29.643  1.00  0.00     0.074 A 
ATOM     50  C   UNL A   1      44.890  32.522  30.213  1.00  0.00     0.031 C 
ATOM     51  C   UNL A   1      41.877  26.433  29.169  1.00  0.00     0.029 A 
ATOM     52  C   UNL A   1      43.256  26.529  28.709  1.00  0.00     0.049 A 
ATOM     53  H   UNL A   1      44.546  28.155  28.938  1.00  0.00     0.167 HD
ATOM     54  C   UNL A   1      47.063  31.667  29.380  1.00  0.00     0.037 A 
ATOM     55  C   UNL A   1      43.933  25.552  28.071  1.00  0.00     0.037 A 
ATOM     56  C   UNL A   1      47.910  30.651  28.809  1.00  0.00     0.049 A 
ATOM     57  C   UNL A   1      45.369  25.793  27.692  1.00  0.00     0.074 A 
ATOM     58  C   UNL A   1      49.261  30.726  28.519  1.00  0.00     0.029 A 
ATOM     59  N   UNL A   1      47.492  29.382  28.432  1.00  0.00    -0.354 N 
ATOM     60  N   UNL A   1      46.103  26.860  27.898  1.00  0.00    -0.248 NA
ATOM     61  C   UNL A   1      46.075  24.700  27.008  1.00  0.00     0.031 C 
ATOM     62  C   UNL A   1      49.645  29.527  27.908  1.00  0.00     0.029 A 
ATOM     63  C   UNL A   1      48.551  28.679  27.880  1.00  0.00     0.049 A 
ATOM     64  H   UNL A   1      46.578  29.034  28.541  1.00  0.00     0.167 HD
ATOM     65  C   UNL A   1      47.366  26.554  27.404  1.00  0.00     0.074 A 
ATOM     66  C   UNL A   1      47.298  25.199  26.897  1.00  0.00     0.031 C 
ATOM     67  C   UNL A   1      48.480  27.328  27.380  1.00  0.00     0.037 A 
BRANCH  54  68
ATOM     68  C   UNL A   1      47.666  33.010  29.680  1.00  0.00     0.058 A 
ATOM     69  C   UNL A   1      48.258  33.294  30.921  1.00  0.00     0.135 A 
ATOM     70  C   UNL A   1      47.678  34.016  28.701  1.00  0.00     0.135 A 
ATOM     71  F   UNL A   1      48.253  32.376  31.900  1.00  0.00    -0.206 F 
ATOM     72  C   UNL A   1      48.821  34.537  31.187  1.00  0.00     0.059 A 
ATOM     73  C   UNL A   1      48.263  35.256  28.935  1.00  0.00     0.059 A 
ATOM     74  F   UNL A   1      47.118  33.797  27.501  1.00  0.00    -0.206 F 
ATOM     75  C   UNL A   1      48.821  35.511  30.186  1.00  0.00     0.060 A 
BRANCH  75  76
ATOM     76  S   UNL A   1      49.565  37.115  30.546  1.00  0.00     0.124 S 
ATOM     77  O   UNL A   1      49.737  37.036  31.994  1.00  0.00    -0.237 OA
ATOM     78  O   UNL A   1      50.793  37.070  29.759  1.00  0.00    -0.237 OA
ATOM     79  O   UNL A   1      48.560  38.067  30.085  1.00  0.00    -0.744 OA
ENDBRANCH  75  76
ENDBRANCH  54  68
BRANCH  55  80
ATOM     80  C   UNL A   1      43.266  24.259  27.740  1.00  0.00     0.058 A 
ATOM     81  C   UNL A   1      43.451  23.116  28.532  1.00  0.00     0.135 A 
ATOM     82  C   UNL A   1      42.444  24.135  26.607  1.00  0.00     0.135 A 
ATOM     83  F   UNL A   1      44.241  23.174  29.616  1.00  0.00    -0.206 F 
ATOM     84  C   UNL A   1      42.863  21.896  28.208  1.00  0.00     0.059 A 
ATOM     85  C   UNL A   1      41.821  22.933  26.279  1.00  0.00     0.059 A 
ATOM     86  F   UNL A   1      42.230  25.194  25.810  1.00  0.00    -0.206 F 
ATOM     87  C   UNL A   1      42.044  21.816  27.081  1.00  0.00     0.060 A 
BRANCH  87  88
ATOM     88  S   UNL A   1      41.241  20.242  26.700  1.00  0.00     0.124 S 
ATOM     89  O   UNL A   1      40.774  19.822  28.016  1.00  0.00    -0.237 OA
ATOM     90  O   UNL A   1      40.208  20.649  25.752  1.00  0.00    -0.237 OA
ATOM     91  O   UNL A   1      42.321  19.443  26.129  1.00  0.00    -0.744 OA
ENDBRANCH  87  88
ENDBRANCH  55  80
BRANCH  67  92
ATOM     92  C   UNL A   1      49.737  26.719  26.817  1.00  0.00     0.058 A 
ATOM     93  C   UNL A   1      50.071  26.834  25.459  1.00  0.00     0.135 A 
ATOM     94  C   UNL A   1      50.644  26.059  27.661  1.00  0.00     0.135 A 
ATOM     95  F   UNL A   1      49.236  27.448  24.606  1.00  0.00    -0.206 F 
ATOM     96  C   UNL A   1      51.252  26.298  24.953  1.00  0.00     0.059 A 
ATOM     97  C   UNL A   1      51.844  25.543  27.184  1.00  0.00     0.059 A 
ATOM     98  F   UNL A   1      50.378  25.926  28.970  1.00  0.00    -0.206 F 
ATOM     99  C   UNL A   1      52.134  25.658  25.825  1.00  0.00     0.060 A 
BRANCH  99 100
ATOM    100  S   UNL A   1      53.680  25.002  25.161  1.00  0.00     0.124 S 
ATOM    101  O   UNL A   1      54.614  25.304  26.241  1.00  0.00    -0.237 OA
ATOM    102  O   UNL A   1      53.361  23.590  24.974  1.00  0.00    -0.237 OA
ATOM    103  O   UNL A   1      53.873  25.764  23.931  1.00  0.00    -0.744 OA
ENDBRANCH  99 100
ENDBRANCH  67  92
ENDBRANCH  41  42
ENDBRANCH  34  36
ENDBRANCH  33  34
ENDBRANCH  32  33
ENDBRANCH  31  32
ENDBRANCH  30  31
ENDBRANCH  29  30
ENDBRANCH  28  29
ENDBRANCH   1  28
TORSDOF 26
ENDMDL
MODEL 2
REMARK VINA RESULT:      -8.0      6.209     12.948
REMARK SMILES Cn1ncc(C(=O)OCCOCCOCCOCCOC(=O)c2ccc(-c3c4nc(c(-c5c(F)cc(S(=O)(=O)[O-])cc5F)c5ccc([nH]5)c(-c5c(F)cc(S(=O)(=O)[O-])cc5F)c5nc(c(-c6c(F)cc(S(=O)(=O)[O-])cc6F)c6ccc3[nH]6)C=C5)C=C4)cc2)c1NS(=O)(=O)[C@@H]1CCS(=O)(=O)C1
REMARK SMILES IDX 14 1 13 2 12 3 11 4 10 5 9 6 8 7 6 8 7 9 5 10 1 11 2 12 3 13
REMARK SMILES IDX 89 14 4 15 90 16 91 18 92 19 93 20 94 21 95 22 100 23 96 24
REMARK SMILES IDX 97 25 98 26 99 27 15 28 16 29 17 30 18 31 19 32 20 33 21 34
REMARK SMILES IDX 22 35 23 36 24 37 88 38 25 39 87 40 26 41 27 42 28 43 81 44
REMARK SMILES IDX 29 45 86 46 80 47 82 48 30 49 85 50 79 51 78 52 31 54 65 55
REMARK SMILES IDX 44 56 64 57 45 58 48 59 63 60 83 61 46 62 47 63 62 65 84 66
REMARK SMILES IDX 49 67 32 68 33 69 42 70 34 71 35 72 41 73 43 74 36 75 37 76
REMARK SMILES IDX 38 77 39 78 40 79 66 80 67 81 76 82 68 83 69 84 75 85 77 86
REMARK SMILES IDX 70 87 71 88 72 89 73 90 74 91 50 92 51 93 60 94 52 95 53 96
REMARK SMILES IDX 59 97 61 98 54 99 55 100 56 101 57 102 58 103
REMARK H PARENT 90 17 82 53 48 64
REMARK Flexibility Score: inf
ROOT
ATOM      1  O   UNL A   1      46.390  21.017  24.926  1.00  0.00    -0.377 OA
ENDROOT
BRANCH   1   2
ATOM      2  C   UNL A   1      46.476  19.742  25.523  1.00  0.00     0.188 C 
BRANCH   2   3
ATOM      3  C   UNL A   1      45.815  18.470  24.988  1.00  0.00     0.188 C 
BRANCH   3   4
ATOM      4  O   UNL A   1      44.607  18.001  25.557  1.00  0.00    -0.376 OA
BRANCH   4   5
ATOM      5  C   UNL A   1      43.387  18.719  25.415  1.00  0.00     0.202 C 
BRANCH   5   6
ATOM      6  C   UNL A   1      42.637  19.114  26.682  1.00  0.00     0.261 C 
BRANCH   6   7
ATOM      7  O   UNL A   1      42.162  20.465  26.512  1.00  0.00    -0.460 OA
BRANCH   7   8
ATOM      8  C   UNL A   1      40.848  20.629  26.232  1.00  0.00     0.343 C 
ATOM      9  O   UNL A   1      40.101  19.729  25.877  1.00  0.00    -0.246 OA
BRANCH   8  10
ATOM     10  C   UNL A   1      40.375  21.922  26.662  1.00  0.00     0.123 A 
ATOM     11  C   UNL A   1      38.574  24.960  27.456  1.00  0.00     0.176 C 
ATOM     12  N   UNL A   1      39.444  23.819  27.257  1.00  0.00    -0.251 N 
ATOM     13  N   UNL A   1      40.527  23.745  28.039  1.00  0.00    -0.179 NA
ATOM     14  C   UNL A   1      39.314  22.774  26.342  1.00  0.00     0.152 A 
ATOM     15  C   UNL A   1      41.063  22.579  27.716  1.00  0.00     0.153 A 
BRANCH  14  16
ATOM     16  N   UNL A   1      38.240  22.767  25.448  1.00  0.00    -0.267 N 
ATOM     17  H   UNL A   1      38.549  22.700  24.516  1.00  0.00     0.181 HD
BRANCH  16  18
ATOM     18  S   UNL A   1      36.616  22.839  25.530  1.00  0.00     0.237 S 
ATOM     19  O   UNL A   1      36.209  22.204  26.763  1.00  0.00    -0.206 OA
ATOM     20  O   UNL A   1      36.285  24.228  25.292  1.00  0.00    -0.206 OA
BRANCH  18  21
ATOM     21  C   UNL A   1      35.877  21.933  24.229  1.00  0.00     0.145 C 
ATOM     22  C   UNL A   1      35.278  22.830  23.152  1.00  0.00     0.039 C 
ATOM     23  C   UNL A   1      34.807  20.961  24.682  1.00  0.00     0.158 C 
ATOM     24  C   UNL A   1      33.844  23.168  23.502  1.00  0.00     0.138 C 
ATOM     25  S   UNL A   1      33.256  21.754  24.389  1.00  0.00     0.151 S 
ATOM     26  O   UNL A   1      32.752  22.205  25.669  1.00  0.00    -0.229 OA
ATOM     27  O   UNL A   1      32.518  20.931  23.465  1.00  0.00    -0.229 OA
ENDBRANCH  18  21
ENDBRANCH  16  18
ENDBRANCH  14  16
ENDBRANCH   8  10
ENDBRANCH   7   8
ENDBRANCH   6   7
ENDBRANCH   5   6
ENDBRANCH   4   5
ENDBRANCH   3   4
ENDBRANCH   2   3
ENDBRANCH   1   2
BRANCH   1  28
ATOM     28  C   UNL A   1      45.409  21.986  25.226  1.00  0.00     0.188 C 
BRANCH  28  29
ATOM     29  C   UNL A   1      44.336  22.315  24.177  1.00  0.00     0.188 C 
BRANCH  29  30
ATOM     30  O   UNL A   1      43.356  23.327  24.374  1.00  0.00    -0.376 OA
BRANCH  30  31
ATOM     31  C   UNL A   1      43.741  24.585  24.888  1.00  0.00     0.202 C 
BRANCH  31  32
ATOM     32  C   UNL A   1      42.678  25.257  25.772  1.00  0.00     0.261 C 
BRANCH  32  33
ATOM     33  O   UNL A   1      43.168  26.163  26.782  1.00  0.00    -0.460 OA
BRANCH  33  34
ATOM     34  C   UNL A   1      42.940  27.481  26.539  1.00  0.00     0.338 C 
ATOM     35  O   UNL A   1      43.147  28.078  25.497  1.00  0.00    -0.246 OA
BRANCH  34  36
ATOM     36  C   UNL A   1      42.325  28.136  27.718  1.00  0.00     0.060 A 
ATOM     37  C   UNL A   1      42.586  29.493  27.948  1.00  0.00     0.016 A 
ATOM     38  C   UNL A   1      41.620  27.392  28.667  1.00  0.00     0.016 A 
ATOM     39  C   UNL A   1      42.183  30.099  29.144  1.00  0.00     0.010 A 
ATOM     40  C   UNL A   1      41.231  27.998  29.872  1.00  0.00     0.010 A 
ATOM     41  C   UNL A   1      41.549  29.344  30.142  1.00  0.00    -0.014 A 
BRANCH  41  42
ATOM     42  C   UNL A   1      41.379  29.901  31.518  1.00  0.00     0.031 A 
ATOM     43  C   UNL A   1      40.204  30.791  31.803  1.00  0.00     0.074 A 
ATOM     44  C   UNL A   1      42.232  29.619  32.520  1.00  0.00     0.049 A 
ATOM     45  N   UNL A   1      39.902  31.430  32.902  1.00  0.00    -0.248 NA
ATOM     46  C   UNL A   1      39.240  30.980  30.708  1.00  0.00     0.031 C 
ATOM     47  C   UNL A   1      43.359  28.716  32.398  1.00  0.00     0.029 A 
ATOM     48  N   UNL A   1      42.307  30.061  33.820  1.00  0.00    -0.354 N 
ATOM     49  C   UNL A   1      38.712  32.094  32.637  1.00  0.00     0.074 A 
ATOM     50  C   UNL A   1      38.370  31.813  31.258  1.00  0.00     0.031 C 
ATOM     51  C   UNL A   1      44.052  28.695  33.548  1.00  0.00     0.029 A 
ATOM     52  C   UNL A   1      43.418  29.602  34.495  1.00  0.00     0.049 A 
ATOM     53  H   UNL A   1      41.631  30.647  34.230  1.00  0.00     0.167 HD
ATOM     54  C   UNL A   1      37.966  32.852  33.473  1.00  0.00     0.037 A 
ATOM     55  C   UNL A   1      43.888  29.894  35.726  1.00  0.00     0.037 A 
ATOM     56  C   UNL A   1      38.311  33.132  34.843  1.00  0.00     0.049 A 
ATOM     57  C   UNL A   1      43.095  30.825  36.603  1.00  0.00     0.074 A 
ATOM     58  C   UNL A   1      37.607  33.883  35.768  1.00  0.00     0.029 A 
ATOM     59  N   UNL A   1      39.459  32.685  35.484  1.00  0.00    -0.354 N 
ATOM     60  N   UNL A   1      41.958  31.426  36.343  1.00  0.00    -0.248 NA
ATOM     61  C   UNL A   1      43.634  31.109  37.940  1.00  0.00     0.031 C 
ATOM     62  C   UNL A   1      38.358  33.943  36.946  1.00  0.00     0.029 A 
ATOM     63  C   UNL A   1      39.498  33.174  36.780  1.00  0.00     0.049 A 
ATOM     64  H   UNL A   1      40.144  32.107  35.077  1.00  0.00     0.167 HD
ATOM     65  C   UNL A   1      41.629  32.128  37.497  1.00  0.00     0.074 A 
ATOM     66  C   UNL A   1      42.681  31.871  38.458  1.00  0.00     0.031 C 
ATOM     67  C   UNL A   1      40.547  32.911  37.735  1.00  0.00     0.037 A 
BRANCH  54  68
ATOM     68  C   UNL A   1      36.710  33.461  32.917  1.00  0.00     0.058 A 
ATOM     69  C   UNL A   1      35.546  32.703  32.715  1.00  0.00     0.135 A 
ATOM     70  C   UNL A   1      36.662  34.831  32.611  1.00  0.00     0.135 A 
ATOM     71  F   UNL A   1      35.544  31.384  32.970  1.00  0.00    -0.206 F 
ATOM     72  C   UNL A   1      34.385  33.276  32.209  1.00  0.00     0.059 A 
ATOM     73  C   UNL A   1      35.502  35.431  32.132  1.00  0.00     0.059 A 
ATOM     74  F   UNL A   1      37.750  35.599  32.779  1.00  0.00    -0.206 F 
ATOM     75  C   UNL A   1      34.373  34.643  31.923  1.00  0.00     0.060 A 
BRANCH  75  76
ATOM     76  S   UNL A   1      32.856  35.373  31.275  1.00  0.00     0.124 S 
ATOM     77  O   UNL A   1      32.698  34.647  30.018  1.00  0.00    -0.237 OA
ATOM     78  O   UNL A   1      31.887  35.050  32.317  1.00  0.00    -0.237 OA
ATOM     79  O   UNL A   1      33.186  36.788  31.144  1.00  0.00    -0.744 OA
ENDBRANCH  75  76
ENDBRANCH  54  68
BRANCH  55  80
ATOM     80  C   UNL A   1      45.175  29.310  36.204  1.00  0.00     0.058 A 
ATOM     81  C   UNL A   1      46.404  29.938  35.946  1.00  0.00     0.135 A 
ATOM     82  C   UNL A   1      45.204  28.097  36.913  1.00  0.00     0.135 A 
ATOM     83  F   UNL A   1      46.436  31.089  35.258  1.00  0.00    -0.206 F 
ATOM     84  C   UNL A   1      47.612  29.380  36.355  1.00  0.00     0.059 A 
ATOM     85  C   UNL A   1      46.398  27.534  37.358  1.00  0.00     0.059 A 
ATOM     86  F   UNL A   1      44.061  27.450  37.188  1.00  0.00    -0.206 F 
ATOM     87  C   UNL A   1      47.598  28.178  37.066  1.00  0.00     0.060 A 
BRANCH  87  88
ATOM     88  S   UNL A   1      49.168  27.492  37.641  1.00  0.00     0.124 S 
ATOM     89  O   UNL A   1      48.745  26.214  38.201  1.00  0.00    -0.237 OA
ATOM     90  O   UNL A   1      49.943  27.426  36.405  1.00  0.00    -0.237 OA
ATOM     91  O   UNL A   1      49.634  28.481  38.608  1.00  0.00    -0.744 OA
ENDBRANCH  87  88
ENDBRANCH  55  80
BRANCH  67  92
ATOM     92  C   UNL A   1      40.420  33.524  39.105  1.00  0.00     0.058 A 
ATOM     93  C   UNL A   1      39.632  32.939  40.108  1.00  0.00     0.135 A 
ATOM     94  C   UNL A   1      41.141  34.685  39.432  1.00  0.00     0.135 A 
ATOM     95  F   UNL A   1      38.916  31.834  39.847  1.00  0.00    -0.206 F 
ATOM     96  C   UNL A   1      39.547  33.494  41.381  1.00  0.00     0.059 A 
ATOM     97  C   UNL A   1      41.096  35.238  40.707  1.00  0.00     0.059 A 
ATOM     98  F   UNL A   1      41.916  35.281  38.512  1.00  0.00    -0.206 F 
ATOM     99  C   UNL A   1      40.287  34.641  41.672  1.00  0.00     0.060 A 
BRANCH  99 100
ATOM    100  S   UNL A   1      40.197  35.327  43.340  1.00  0.00     0.124 S 
ATOM    101  O   UNL A   1      39.163  36.345  43.183  1.00  0.00    -0.237 OA
ATOM    102  O   UNL A   1      39.824  34.160  44.134  1.00  0.00    -0.237 OA
ATOM    103  O   UNL A   1      41.546  35.833  43.574  1.00  0.00    -0.744 OA
ENDBRANCH  99 100
ENDBRANCH  67  92
ENDBRANCH  41  42
ENDBRANCH  34  36
ENDBRANCH  33  34
ENDBRANCH  32  33
ENDBRANCH  31  32
ENDBRANCH  30  31
ENDBRANCH  29  30
ENDBRANCH  28  29
ENDBRANCH   1  28
TORSDOF 26
ENDMDL
MODEL 3
REMARK VINA RESULT:      -7.9      5.850     13.773
REMARK SMILES Cn1ncc(C(=O)OCCOCCOCCOCCOC(=O)c2ccc(-c3c4nc(c(-c5c(F)cc(S(=O)(=O)[O-])cc5F)c5ccc([nH]5)c(-c5c(F)cc(S(=O)(=O)[O-])cc5F)c5nc(c(-c6c(F)cc(S(=O)(=O)[O-])cc6F)c6ccc3[nH]6)C=C5)C=C4)cc2)c1NS(=O)(=O)[C@@H]1CCS(=O)(=O)C1
REMARK SMILES IDX 14 1 13 2 12 3 11 4 10 5 9 6 8 7 6 8 7 9 5 10 1 11 2 12 3 13
REMARK SMILES IDX 89 14 4 15 90 16 91 18 92 19 93 20 94 21 95 22 100 23 96 24
REMARK SMILES IDX 97 25 98 26 99 27 15 28 16 29 17 30 18 31 19 32 20 33 21 34
REMARK SMILES IDX 22 35 23 36 24 37 88 38 25 39 87 40 26 41 27 42 28 43 81 44
REMARK SMILES IDX 29 45 86 46 80 47 82 48 30 49 85 50 79 51 78 52 31 54 65 55
REMARK SMILES IDX 44 56 64 57 45 58 48 59 63 60 83 61 46 62 47 63 62 65 84 66
REMARK SMILES IDX 49 67 32 68 33 69 42 70 34 71 35 72 41 73 43 74 36 75 37 76
REMARK SMILES IDX 38 77 39 78 40 79 66 80 67 81 76 82 68 83 69 84 75 85 77 86
REMARK SMILES IDX 70 87 71 88 72 89 73 90 74 91 50 92 51 93 60 94 52 95 53 96
REMARK SMILES IDX 59 97 61 98 54 99 55 100 56 101 57 102 58 103
REMARK H PARENT 90 17 82 53 48 64
REMARK Flexibility Score: inf
ROOT
ATOM      1  O   UNL A   1      46.304  25.204  24.555  1.00  0.00    -0.377 OA
ENDROOT
BRANCH   1   2
ATOM      2  C   UNL A   1      47.367  26.073  24.877  1.00  0.00     0.188 C 
BRANCH   2   3
ATOM      3  C   UNL A   1      47.395  27.577  24.596  1.00  0.00     0.188 C 
BRANCH   3   4
ATOM      4  O   UNL A   1      48.257  28.424  25.333  1.00  0.00    -0.376 OA
BRANCH   4   5
ATOM      5  C   UNL A   1      47.752  29.408  26.227  1.00  0.00     0.202 C 
BRANCH   5   6
ATOM      6  C   UNL A   1      46.256  29.702  26.200  1.00  0.00     0.261 C 
BRANCH   6   7
ATOM      7  O   UNL A   1      46.083  31.080  25.816  1.00  0.00    -0.460 OA
BRANCH   7   8
ATOM      8  C   UNL A   1      46.245  32.017  26.781  1.00  0.00     0.343 C 
ATOM      9  O   UNL A   1      47.287  32.206  27.390  1.00  0.00    -0.246 OA
BRANCH   8  10
ATOM     10  C   UNL A   1      45.135  32.938  26.811  1.00  0.00     0.123 A 
ATOM     11  C   UNL A   1      42.567  35.379  27.550  1.00  0.00     0.176 C 
ATOM     12  N   UNL A   1      43.529  34.414  27.061  1.00  0.00    -0.251 N 
ATOM     13  N   UNL A   1      43.634  34.288  25.732  1.00  0.00    -0.179 NA
ATOM     14  C   UNL A   1      44.369  33.574  27.792  1.00  0.00     0.152 A 
ATOM     15  C   UNL A   1      44.634  33.436  25.580  1.00  0.00     0.153 A 
BRANCH  14  16
ATOM     16  N   UNL A   1      44.319  33.592  29.188  1.00  0.00    -0.267 N 
ATOM     17  H   UNL A   1      43.991  34.457  29.525  1.00  0.00     0.181 HD
BRANCH  16  18
ATOM     18  S   UNL A   1      44.654  32.570  30.409  1.00  0.00     0.237 S 
ATOM     19  O   UNL A   1      43.900  31.357  30.188  1.00  0.00    -0.206 OA
ATOM     20  O   UNL A   1      46.100  32.517  30.474  1.00  0.00    -0.206 OA
BRANCH  18  21
ATOM     21  C   UNL A   1      44.122  33.221  31.943  1.00  0.00     0.145 C 
ATOM     22  C   UNL A   1      42.604  33.297  32.057  1.00  0.00     0.039 C 
ATOM     23  C   UNL A   1      44.688  34.589  32.265  1.00  0.00     0.158 C 
ATOM     24  C   UNL A   1      42.114  34.624  31.517  1.00  0.00     0.138 C 
ATOM     25  S   UNL A   1      43.429  35.758  31.859  1.00  0.00     0.151 S 
ATOM     26  O   UNL A   1      43.810  36.391  30.614  1.00  0.00    -0.229 OA
ATOM     27  O   UNL A   1      43.093  36.469  33.066  1.00  0.00    -0.229 OA
ENDBRANCH  18  21
ENDBRANCH  16  18
ENDBRANCH  14  16
ENDBRANCH   8  10
ENDBRANCH   7   8
ENDBRANCH   6   7
ENDBRANCH   5   6
ENDBRANCH   4   5
ENDBRANCH   3   4
ENDBRANCH   2   3
ENDBRANCH   1   2
BRANCH   1  28
ATOM     28  C   UNL A   1      46.192  23.867  24.994  1.00  0.00     0.188 C 
BRANCH  28  29
ATOM     29  C   UNL A   1      45.536  23.577  26.352  1.00  0.00     0.188 C 
BRANCH  29  30
ATOM     30  O   UNL A   1      44.722  22.433  26.582  1.00  0.00    -0.376 OA
BRANCH  30  31
ATOM     31  C   UNL A   1      43.329  22.587  26.755  1.00  0.00     0.202 C 
BRANCH  31  32
ATOM     32  C   UNL A   1      42.655  23.471  25.693  1.00  0.00     0.261 C 
BRANCH  32  33
ATOM     33  O   UNL A   1      41.566  24.298  26.149  1.00  0.00    -0.460 OA
BRANCH  33  34
ATOM     34  C   UNL A   1      41.753  25.637  26.002  1.00  0.00     0.338 C 
ATOM     35  O   UNL A   1      41.769  26.262  24.956  1.00  0.00    -0.246 OA
BRANCH  34  36
ATOM     36  C   UNL A   1      41.883  26.299  27.322  1.00  0.00     0.060 A 
ATOM     37  C   UNL A   1      40.996  25.941  28.346  1.00  0.00     0.016 A 
ATOM     38  C   UNL A   1      42.769  27.362  27.509  1.00  0.00     0.016 A 
ATOM     39  C   UNL A   1      40.961  26.671  29.540  1.00  0.00     0.010 A 
ATOM     40  C   UNL A   1      42.720  28.103  28.701  1.00  0.00     0.010 A 
ATOM     41  C   UNL A   1      41.785  27.793  29.709  1.00  0.00    -0.014 A 
BRANCH  41  42
ATOM     42  C   UNL A   1      41.552  28.739  30.843  1.00  0.00     0.031 A 
ATOM     43  C   UNL A   1      40.417  29.716  30.753  1.00  0.00     0.074 A 
ATOM     44  C   UNL A   1      42.314  28.735  31.952  1.00  0.00     0.049 A 
ATOM     45  N   UNL A   1      40.076  30.663  31.587  1.00  0.00    -0.248 NA
ATOM     46  C   UNL A   1      39.545  29.606  29.573  1.00  0.00     0.031 C 
ATOM     47  C   UNL A   1      43.390  27.795  32.196  1.00  0.00     0.029 A 
ATOM     48  N   UNL A   1      42.324  29.540  33.067  1.00  0.00    -0.354 N 
ATOM     49  C   UNL A   1      38.951  31.261  31.039  1.00  0.00     0.074 A 
ATOM     50  C   UNL A   1      38.690  30.597  29.779  1.00  0.00     0.031 C 
ATOM     51  C   UNL A   1      43.998  28.091  33.356  1.00  0.00     0.029 A 
ATOM     52  C   UNL A   1      43.355  29.262  33.939  1.00  0.00     0.049 A 
ATOM     53  H   UNL A   1      41.657  30.246  33.228  1.00  0.00     0.167 HD
ATOM     54  C   UNL A   1      38.195  32.260  31.549  1.00  0.00     0.037 A 
ATOM     55  C   UNL A   1      43.754  29.888  35.066  1.00  0.00     0.037 A 
ATOM     56  C   UNL A   1      38.459  32.921  32.802  1.00  0.00     0.049 A 
ATOM     57  C   UNL A   1      42.959  31.065  35.561  1.00  0.00     0.074 A 
ATOM     58  C   UNL A   1      37.738  33.938  33.403  1.00  0.00     0.029 A 
ATOM     59  N   UNL A   1      39.530  32.643  33.641  1.00  0.00    -0.354 N 
ATOM     60  N   UNL A   1      41.882  31.604  35.041  1.00  0.00    -0.248 NA
ATOM     61  C   UNL A   1      43.419  31.714  36.797  1.00  0.00     0.031 C 
ATOM     62  C   UNL A   1      38.407  34.317  34.572  1.00  0.00     0.029 A 
ATOM     63  C   UNL A   1      39.507  33.492  34.735  1.00  0.00     0.049 A 
ATOM     64  H   UNL A   1      40.205  31.945  33.481  1.00  0.00     0.167 HD
ATOM     65  C   UNL A   1      41.515  32.629  35.905  1.00  0.00     0.074 A 
ATOM     66  C   UNL A   1      42.479  32.630  36.986  1.00  0.00     0.031 C 
ATOM     67  C   UNL A   1      40.468  33.486  35.811  1.00  0.00     0.037 A 
BRANCH  54  68
ATOM     68  C   UNL A   1      37.020  32.723  30.735  1.00  0.00     0.058 A 
ATOM     69  C   UNL A   1      35.734  32.190  30.921  1.00  0.00     0.135 A 
ATOM     70  C   UNL A   1      37.178  33.737  29.777  1.00  0.00     0.135 A 
ATOM     71  F   UNL A   1      35.533  31.202  31.808  1.00  0.00    -0.206 F 
ATOM     72  C   UNL A   1      34.651  32.630  30.168  1.00  0.00     0.059 A 
ATOM     73  C   UNL A   1      36.102  34.214  29.035  1.00  0.00     0.059 A 
ATOM     74  F   UNL A   1      38.387  34.275  29.555  1.00  0.00    -0.206 F 
ATOM     75  C   UNL A   1      34.845  33.645  29.230  1.00  0.00     0.060 A 
BRANCH  75  76
ATOM     76  S   UNL A   1      33.427  34.211  28.269  1.00  0.00     0.124 S 
ATOM     77  O   UNL A   1      32.599  34.823  29.305  1.00  0.00    -0.237 OA
ATOM     78  O   UNL A   1      34.042  35.135  27.323  1.00  0.00    -0.237 OA
ATOM     79  O   UNL A   1      32.896  32.981  27.689  1.00  0.00    -0.744 OA
ENDBRANCH  75  76
ENDBRANCH  54  68
BRANCH  55  80
ATOM     80  C   UNL A   1      44.967  29.425  35.801  1.00  0.00     0.058 A 
ATOM     81  C   UNL A   1      46.241  29.932  35.503  1.00  0.00     0.135 A 
ATOM     82  C   UNL A   1      44.878  28.448  36.807  1.00  0.00     0.135 A 
ATOM     83  F   UNL A   1      46.386  30.854  34.540  1.00  0.00    -0.206 F 
ATOM     84  C   UNL A   1      47.383  29.477  36.159  1.00  0.00     0.059 A 
ATOM     85  C   UNL A   1      46.001  27.998  37.497  1.00  0.00     0.059 A 
ATOM     86  F   UNL A   1      43.686  27.925  37.134  1.00  0.00    -0.206 F 
ATOM     87  C   UNL A   1      47.252  28.512  37.159  1.00  0.00     0.060 A 
BRANCH  87  88
ATOM     88  S   UNL A   1      48.732  27.970  38.042  1.00  0.00     0.124 S 
ATOM     89  O   UNL A   1      49.013  29.124  38.887  1.00  0.00    -0.237 OA
ATOM     90  O   UNL A   1      48.256  26.772  38.728  1.00  0.00    -0.237 OA
ATOM     91  O   UNL A   1      49.692  27.724  36.969  1.00  0.00    -0.744 OA
ENDBRANCH  87  88
ENDBRANCH  55  80
BRANCH  67  92
ATOM     92  C   UNL A   1      40.283  34.482  36.925  1.00  0.00     0.058 A 
ATOM     93  C   UNL A   1      39.453  34.217  38.025  1.00  0.00     0.135 A 
ATOM     94  C   UNL A   1      40.989  35.697  36.915  1.00  0.00     0.135 A 
ATOM     95  F   UNL A   1      38.748  33.075  38.081  1.00  0.00    -0.206 F 
ATOM     96  C   UNL A   1      39.313  35.129  39.067  1.00  0.00     0.059 A 
ATOM     97  C   UNL A   1      40.889  36.609  37.961  1.00  0.00     0.059 A 
ATOM     98  F   UNL A   1      41.802  35.998  35.891  1.00  0.00    -0.206 F 
ATOM     99  C   UNL A   1      40.039  36.320  39.028  1.00  0.00     0.060 A 
BRANCH  99 100
ATOM    100  S   UNL A   1      39.877  37.476  40.405  1.00  0.00     0.124 S 
ATOM    101  O   UNL A   1      40.435  36.699  41.507  1.00  0.00    -0.237 OA
ATOM    102  O   UNL A   1      40.681  38.608  39.955  1.00  0.00    -0.237 OA
ATOM    103  O   UNL A   1      38.440  37.723  40.476  1.00  0.00    -0.744 OA
ENDBRANCH  99 100
ENDBRANCH  67  92
ENDBRANCH  41  42
ENDBRANCH  34  36
ENDBRANCH  33  34
ENDBRANCH  32  33
ENDBRANCH  31  32
ENDBRANCH  30  31
ENDBRANCH  29  30
ENDBRANCH  28  29
ENDBRANCH   1  28
TORSDOF 26
ENDMDL
