MODEL 1
REMARK VINA RESULT:     -13.1      0.000      0.000
REMARK SMILES Cc1ccc(-c2cc(C(=O)OCCOCCOCCOCCOC(=O)c3ccc(-c4c5nc(c(-c6c(F)cc(S(=O)(=O)[O-])cc6F)c6ccc([nH]6)c(-c6c(F)cc(S(=O)(=O)[O-])cc6F)c6nc(c(-c7c(F)cc(S(=O)(=O)[O-])cc7F)c7ccc4[nH]7)C=C6)C=C5)cc3)c3c(-c4cccc([N+](=O)[O-])c4)[nH]nc3n2)cc1
REMARK SMILES IDX 18 1 17 2 16 3 15 4 14 5 13 6 12 7 11 8 9 9 10 10 8 11 6 12
REMARK SMILES IDX 7 13 106 14 105 15 92 16 104 17 93 18 103 19 5 21 1 22 2 23
REMARK SMILES IDX 3 24 108 25 4 26 107 27 94 28 95 29 102 30 96 31 98 32 97 33
REMARK SMILES IDX 99 34 100 35 101 36 19 37 20 38 21 39 22 40 23 41 24 42
REMARK SMILES IDX 25 43 26 44 27 45 91 46 28 47 90 48 29 49 30 50 31 51 84 52
REMARK SMILES IDX 32 53 89 54 83 55 85 56 33 57 88 58 82 59 81 60 34 62 68 63
REMARK SMILES IDX 47 64 67 65 48 66 51 67 66 68 86 69 49 70 50 71 65 73 87 74
REMARK SMILES IDX 52 75 35 76 36 77 45 78 37 79 38 80 44 81 46 82 39 83 40 84
REMARK SMILES IDX 41 85 42 86 43 87 69 88 70 89 79 90 71 91 72 92 78 93 80 94
REMARK SMILES IDX 73 95 74 96 75 97 76 98 77 99 53 100 54 101 63 102 55 103
REMARK SMILES IDX 56 104 62 105 64 106 57 107 58 108 59 109 60 110 61 111
REMARK H PARENT 103 20 85 61 51 72
REMARK Flexibility Score: inf
ROOT
ATOM      1  C   UNL A   1      41.391  20.644  27.440  1.00  0.00     0.188 C 
ENDROOT
BRANCH   1   2
ATOM      2  O   UNL A   1      40.384  20.437  26.463  1.00  0.00    -0.377 OA
BRANCH   2   3
ATOM      3  C   UNL A   1      39.411  21.390  26.045  1.00  0.00     0.188 C 
BRANCH   3   4
ATOM      4  C   UNL A   1      37.859  21.287  25.382  1.00  0.00     0.188 C 
BRANCH   4   5
ATOM      5  O   UNL A   1      36.264  22.172  25.411  1.00  0.00    -0.376 OA
BRANCH   5   6
ATOM      6  C   UNL A   1      35.423  23.237  26.545  1.00  0.00     0.202 C 
BRANCH   6   7
ATOM      7  C   UNL A   1      34.022  22.796  27.723  1.00  0.00     0.261 C 
BRANCH   7   8
ATOM      8  O   UNL A   1      32.255  23.140  27.413  1.00  0.00    -0.460 OA
BRANCH   8   9
ATOM      9  C   UNL A   1      31.157  23.363  26.436  1.00  0.00     0.339 C 
ATOM     10  O   UNL A   1      29.998  22.978  26.595  1.00  0.00    -0.246 OA
BRANCH   9  11
ATOM     11  C   UNL A   1      31.179  24.163  25.080  1.00  0.00     0.075 A 
ATOM     12  C   UNL A   1      30.738  26.167  23.525  1.00  0.00     0.074 A 
ATOM     13  C   UNL A   1      30.576  25.395  24.710  1.00  0.00     0.045 A 
ATOM     14  N   UNL A   1      31.572  25.841  22.528  1.00  0.00    -0.226 NA
ATOM     15  C   UNL A   1      32.173  24.645  22.746  1.00  0.00     0.182 A 
ATOM     16  C   UNL A   1      31.960  23.808  23.931  1.00  0.00     0.061 A 
ATOM     17  N   UNL A   1      33.008  24.093  21.868  1.00  0.00    -0.154 NA
ATOM     18  C   UNL A   1      32.595  22.618  23.567  1.00  0.00     0.076 A 
ATOM     19  N   UNL A   1      33.279  22.908  22.412  1.00  0.00    -0.275 N 
ATOM     20  H   UNL A   1      33.926  22.283  22.013  1.00  0.00     0.190 HD
BRANCH  12  21
ATOM     21  C   UNL A   1      29.948  27.418  23.387  1.00  0.00     0.000 A 
ATOM     22  C   UNL A   1      27.654  31.115  23.349  1.00  0.00     0.044 C 
ATOM     23  C   UNL A   1      28.447  29.840  23.375  1.00  0.00    -0.051 A 
ATOM     24  C   UNL A   1      27.812  28.600  23.231  1.00  0.00     0.004 A 
ATOM     25  C   UNL A   1      29.836  29.867  23.516  1.00  0.00     0.004 A 
ATOM     26  C   UNL A   1      28.553  27.405  23.238  1.00  0.00     0.010 A 
ATOM     27  C   UNL A   1      30.570  28.675  23.522  1.00  0.00     0.010 A 
ENDBRANCH  12  21
BRANCH  18  28
ATOM     28  C   UNL A   1      32.630  21.233  24.025  1.00  0.00     0.007 A 
ATOM     29  C   UNL A   1      32.684  20.934  25.391  1.00  0.00     0.011 A 
ATOM     30  C   UNL A   1      32.710  20.188  23.095  1.00  0.00     0.096 A 
ATOM     31  C   UNL A   1      32.754  19.609  25.830  1.00  0.00     0.008 A 
ATOM     32  C   UNL A   1      32.758  18.859  23.545  1.00  0.00     0.270 A 
ATOM     33  C   UNL A   1      32.776  18.562  24.910  1.00  0.00     0.085 A 
BRANCH  32  34
ATOM     34  N   UNL A   1      32.668  17.766  22.570  1.00  0.00     0.062 N 
ATOM     35  O   UNL A   1      33.264  16.710  22.819  1.00  0.00    -0.258 OA
ATOM     36  O   UNL A   1      31.957  17.947  21.568  1.00  0.00    -0.258 OA
ENDBRANCH  32  34
ENDBRANCH  18  28
ENDBRANCH   9  11
ENDBRANCH   8   9
ENDBRANCH   7   8
ENDBRANCH   6   7
ENDBRANCH   5   6
ENDBRANCH   4   5
ENDBRANCH   3   4
ENDBRANCH   2   3
ENDBRANCH   1   2
BRANCH   1  37
ATOM     37  C   UNL A   1      42.306  21.841  27.332  1.00  0.00     0.188 C 
BRANCH  37  38
ATOM     38  O   UNL A   1      41.676  22.961  27.930  1.00  0.00    -0.376 OA
BRANCH  38  39
ATOM     39  C   UNL A   1      41.752  24.155  27.176  1.00  0.00     0.202 C 
BRANCH  39  40
ATOM     40  C   UNL A   1      41.842  25.406  28.058  1.00  0.00     0.261 C 
BRANCH  40  41
ATOM     41  O   UNL A   1      40.855  26.407  27.710  1.00  0.00    -0.460 OA
BRANCH  41  42
ATOM     42  C   UNL A   1      39.715  26.459  28.471  1.00  0.00     0.338 C 
ATOM     43  O   UNL A   1      39.047  25.462  28.735  1.00  0.00    -0.246 OA
BRANCH  42  44
ATOM     44  C   UNL A   1      39.543  27.806  29.065  1.00  0.00     0.060 A 
ATOM     45  C   UNL A   1      39.974  29.044  28.588  1.00  0.00     0.016 A 
ATOM     46  C   UNL A   1      38.887  27.853  30.244  1.00  0.00     0.016 A 
ATOM     47  C   UNL A   1      40.126  30.209  29.449  1.00  0.00     0.010 A 
ATOM     48  C   UNL A   1      39.046  28.990  31.023  1.00  0.00     0.010 A 
ATOM     49  C   UNL A   1      39.910  30.169  30.835  1.00  0.00    -0.014 A 
BRANCH  49  50
ATOM     50  C   UNL A   1      40.608  31.332  32.135  1.00  0.00     0.031 A 
ATOM     51  C   UNL A   1      42.194  30.878  33.301  1.00  0.00     0.074 A 
ATOM     52  C   UNL A   1      39.688  32.431  32.228  1.00  0.00     0.049 A 
ATOM     53  N   UNL A   1      42.193  30.810  34.671  1.00  0.00    -0.248 NA
ATOM     54  C   UNL A   1      43.461  29.819  33.202  1.00  0.00     0.031 C 
ATOM     55  C   UNL A   1      39.670  33.711  32.955  1.00  0.00     0.029 A 
ATOM     56  N   UNL A   1      38.346  32.529  31.763  1.00  0.00    -0.354 N 
ATOM     57  C   UNL A   1      43.230  30.269  35.374  1.00  0.00     0.074 A 
ATOM     58  C   UNL A   1      43.908  29.497  34.414  1.00  0.00     0.031 C 
ATOM     59  C   UNL A   1      38.556  34.432  32.924  1.00  0.00     0.029 A 
ATOM     60  C   UNL A   1      37.614  33.497  32.492  1.00  0.00     0.049 A 
ATOM     61  H   UNL A   1      37.973  31.991  31.027  1.00  0.00     0.167 HD
ATOM     62  C   UNL A   1      43.466  30.573  36.689  1.00  0.00     0.037 A 
ATOM     63  C   UNL A   1      36.618  33.207  33.364  1.00  0.00     0.037 A 
ATOM     64  C   UNL A   1      42.602  31.667  37.176  1.00  0.00     0.049 A 
ATOM     65  C   UNL A   1      36.984  33.289  34.877  1.00  0.00     0.074 A 
ATOM     66  C   UNL A   1      42.813  33.039  37.202  1.00  0.00     0.029 A 
ATOM     67  N   UNL A   1      41.230  31.511  37.410  1.00  0.00    -0.354 N 
ATOM     68  N   UNL A   1      38.153  32.964  35.418  1.00  0.00    -0.248 NA
ATOM     69  C   UNL A   1      36.111  33.917  35.868  1.00  0.00     0.031 C 
ATOM     70  C   UNL A   1      41.549  33.695  37.202  1.00  0.00     0.029 A 
ATOM     71  C   UNL A   1      40.548  32.738  37.329  1.00  0.00     0.049 A 
ATOM     72  H   UNL A   1      40.798  30.649  37.607  1.00  0.00     0.167 HD
ATOM     73  C   UNL A   1      38.155  33.213  36.789  1.00  0.00     0.074 A 
ATOM     74  C   UNL A   1      36.865  33.871  36.983  1.00  0.00     0.031 C 
ATOM     75  C   UNL A   1      39.138  32.906  37.722  1.00  0.00     0.037 A 
BRANCH  62  76
ATOM     76  C   UNL A   1      44.810  30.146  37.278  1.00  0.00     0.058 A 
ATOM     77  C   UNL A   1      44.990  28.895  37.897  1.00  0.00     0.135 A 
ATOM     78  C   UNL A   1      45.913  31.023  37.391  1.00  0.00     0.135 A 
ATOM     79  F   UNL A   1      44.092  27.912  37.760  1.00  0.00    -0.206 F 
ATOM     80  C   UNL A   1      46.088  28.610  38.720  1.00  0.00     0.059 A 
ATOM     81  C   UNL A   1      46.992  30.789  38.258  1.00  0.00     0.059 A 
ATOM     82  F   UNL A   1      45.952  32.166  36.687  1.00  0.00    -0.206 F 
ATOM     83  C   UNL A   1      47.052  29.586  38.948  1.00  0.00     0.060 A 
BRANCH  83  84
ATOM     84  S   UNL A   1      48.318  29.290  40.203  1.00  0.00     0.124 S 
ATOM     85  O   UNL A   1      49.416  28.747  39.407  1.00  0.00    -0.237 OA
ATOM     86  O   UNL A   1      48.528  30.625  40.751  1.00  0.00    -0.237 OA
ATOM     87  O   UNL A   1      47.685  28.331  41.106  1.00  0.00    -0.744 OA
ENDBRANCH  83  84
ENDBRANCH  62  76
BRANCH  63  88
ATOM     88  C   UNL A   1      35.467  32.759  32.527  1.00  0.00     0.058 A 
ATOM     89  C   UNL A   1      34.757  33.820  31.887  1.00  0.00     0.135 A 
ATOM     90  C   UNL A   1      35.600  31.567  31.802  1.00  0.00     0.135 A 
ATOM     91  F   UNL A   1      34.620  35.002  32.515  1.00  0.00    -0.206 F 
ATOM     92  C   UNL A   1      34.465  33.795  30.525  1.00  0.00     0.059 A 
ATOM     93  C   UNL A   1      35.255  31.504  30.443  1.00  0.00     0.059 A 
ATOM     94  F   UNL A   1      36.271  30.538  32.339  1.00  0.00    -0.206 F 
ATOM     95  C   UNL A   1      34.779  32.651  29.799  1.00  0.00     0.060 A 
BRANCH  95  96
ATOM     96  S   UNL A   1      34.721  32.779  27.991  1.00  0.00     0.124 S 
ATOM     97  O   UNL A   1      34.496  31.417  27.574  1.00  0.00    -0.237 OA
ATOM     98  O   UNL A   1      33.591  33.698  27.811  1.00  0.00    -0.237 OA
ATOM     99  O   UNL A   1      36.041  33.335  27.669  1.00  0.00    -0.744 OA
ENDBRANCH  95  96
ENDBRANCH  63  88
BRANCH  75 100
ATOM    100  C   UNL A   1      38.904  32.831  39.245  1.00  0.00     0.058 A 
ATOM    101  C   UNL A   1      37.990  31.952  39.848  1.00  0.00     0.135 A 
ATOM    102  C   UNL A   1      39.777  33.491  40.161  1.00  0.00     0.135 A 
ATOM    103  F   UNL A   1      37.158  31.197  39.118  1.00  0.00    -0.206 F 
ATOM    104  C   UNL A   1      37.925  31.761  41.231  1.00  0.00     0.059 A 
ATOM    105  C   UNL A   1      39.781  33.254  41.533  1.00  0.00     0.059 A 
ATOM    106  F   UNL A   1      40.692  34.384  39.767  1.00  0.00    -0.206 F 
ATOM    107  C   UNL A   1      38.839  32.397  42.064  1.00  0.00     0.060 A 
BRANCH 107 108
ATOM    108  S   UNL A   1      38.858  32.045  43.829  1.00  0.00     0.124 S 
ATOM    109  O   UNL A   1      38.898  33.390  44.392  1.00  0.00    -0.237 OA
ATOM    110  O   UNL A   1      37.608  31.315  44.024  1.00  0.00    -0.237 OA
ATOM    111  O   UNL A   1      40.069  31.249  43.997  1.00  0.00    -0.744 OA
ENDBRANCH 107 108
ENDBRANCH  75 100
ENDBRANCH  49  50
ENDBRANCH  42  44
ENDBRANCH  41  42
ENDBRANCH  40  41
ENDBRANCH  39  40
ENDBRANCH  38  39
ENDBRANCH  37  38
ENDBRANCH   1  37
TORSDOF 26
ENDMDL
MODEL 2
REMARK VINA RESULT:     -12.7      4.120      9.555
REMARK SMILES Cc1ccc(-c2cc(C(=O)OCCOCCOCCOCCOC(=O)c3ccc(-c4c5nc(c(-c6c(F)cc(S(=O)(=O)[O-])cc6F)c6ccc([nH]6)c(-c6c(F)cc(S(=O)(=O)[O-])cc6F)c6nc(c(-c7c(F)cc(S(=O)(=O)[O-])cc7F)c7ccc4[nH]7)C=C6)C=C5)cc3)c3c(-c4cccc([N+](=O)[O-])c4)[nH]nc3n2)cc1
REMARK SMILES IDX 18 1 17 2 16 3 15 4 14 5 13 6 12 7 11 8 9 9 10 10 8 11 6 12
REMARK SMILES IDX 7 13 106 14 105 15 92 16 104 17 93 18 103 19 5 21 1 22 2 23
REMARK SMILES IDX 3 24 108 25 4 26 107 27 94 28 95 29 102 30 96 31 98 32 97 33
REMARK SMILES IDX 99 34 100 35 101 36 19 37 20 38 21 39 22 40 23 41 24 42
REMARK SMILES IDX 25 43 26 44 27 45 91 46 28 47 90 48 29 49 30 50 31 51 84 52
REMARK SMILES IDX 32 53 89 54 83 55 85 56 33 57 88 58 82 59 81 60 34 62 68 63
REMARK SMILES IDX 47 64 67 65 48 66 51 67 66 68 86 69 49 70 50 71 65 73 87 74
REMARK SMILES IDX 52 75 35 76 36 77 45 78 37 79 38 80 44 81 46 82 39 83 40 84
REMARK SMILES IDX 41 85 42 86 43 87 69 88 70 89 79 90 71 91 72 92 78 93 80 94
REMARK SMILES IDX 73 95 74 96 75 97 76 98 77 99 53 100 54 101 63 102 55 103
REMARK SMILES IDX 56 104 62 105 64 106 57 107 58 108 59 109 60 110 61 111
REMARK H PARENT 103 20 85 61 51 72
REMARK Flexibility Score: inf
ROOT
ATOM      1  C   UNL A   1      32.557  29.621  27.458  1.00  0.00     0.188 C 
ENDROOT
BRANCH   1   2
ATOM      2  O   UNL A   1      33.631  28.695  27.446  1.00  0.00    -0.377 OA
BRANCH   2   3
ATOM      3  C   UNL A   1      34.987  28.986  27.120  1.00  0.00     0.188 C 
BRANCH   3   4
ATOM      4  C   UNL A   1      36.284  29.680  27.954  1.00  0.00     0.188 C 
BRANCH   4   5
ATOM      5  O   UNL A   1      38.012  29.312  28.408  1.00  0.00    -0.376 OA
BRANCH   5   6
ATOM      6  C   UNL A   1      38.822  28.233  29.552  1.00  0.00     0.202 C 
BRANCH   6   7
ATOM      7  C   UNL A   1      40.498  27.396  29.363  1.00  0.00     0.261 C 
BRANCH   7   8
ATOM      8  O   UNL A   1      41.029  26.446  27.897  1.00  0.00    -0.460 OA
BRANCH   8   9
ATOM      9  C   UNL A   1      40.658  25.663  26.688  1.00  0.00     0.339 C 
ATOM     10  O   UNL A   1      41.116  25.866  25.563  1.00  0.00    -0.246 OA
BRANCH   9  11
ATOM     11  C   UNL A   1      39.709  24.413  26.565  1.00  0.00     0.075 A 
ATOM     12  C   UNL A   1      37.498  23.175  26.107  1.00  0.00     0.074 A 
ATOM     13  C   UNL A   1      38.305  24.319  26.365  1.00  0.00     0.045 A 
ATOM     14  N   UNL A   1      37.983  21.933  25.966  1.00  0.00    -0.226 NA
ATOM     15  C   UNL A   1      39.320  21.887  26.186  1.00  0.00     0.182 A 
ATOM     16  C   UNL A   1      40.151  23.048  26.523  1.00  0.00     0.061 A 
ATOM     17  N   UNL A   1      40.013  20.751  26.149  1.00  0.00    -0.154 NA
ATOM     18  C   UNL A   1      41.361  22.450  26.878  1.00  0.00     0.076 A 
ATOM     19  N   UNL A   1      41.236  21.130  26.517  1.00  0.00    -0.275 N 
ATOM     20  H   UNL A   1      41.998  20.508  26.529  1.00  0.00     0.190 HD
BRANCH  12  21
ATOM     21  C   UNL A   1      36.031  23.365  25.971  1.00  0.00     0.000 A 
ATOM     22  C   UNL A   1      31.755  24.163  25.853  1.00  0.00     0.044 C 
ATOM     23  C   UNL A   1      33.233  23.897  25.904  1.00  0.00    -0.051 A 
ATOM     24  C   UNL A   1      33.728  22.722  26.484  1.00  0.00     0.004 A 
ATOM     25  C   UNL A   1      34.139  24.801  25.349  1.00  0.00     0.004 A 
ATOM     26  C   UNL A   1      35.108  22.461  26.518  1.00  0.00     0.010 A 
ATOM     27  C   UNL A   1      35.513  24.538  25.385  1.00  0.00     0.010 A 
ENDBRANCH  12  21
BRANCH  18  28
ATOM     28  C   UNL A   1      42.590  22.831  27.566  1.00  0.00     0.007 A 
ATOM     29  C   UNL A   1      42.585  23.095  28.941  1.00  0.00     0.011 A 
ATOM     30  C   UNL A   1      43.770  23.033  26.839  1.00  0.00     0.096 A 
ATOM     31  C   UNL A   1      43.753  23.495  29.596  1.00  0.00     0.008 A 
ATOM     32  C   UNL A   1      44.944  23.414  27.508  1.00  0.00     0.270 A 
ATOM     33  C   UNL A   1      44.944  23.641  28.887  1.00  0.00     0.085 A 
BRANCH  32  34
ATOM     34  N   UNL A   1      46.211  23.455  26.770  1.00  0.00     0.062 N 
ATOM     35  O   UNL A   1      47.175  24.029  27.295  1.00  0.00    -0.258 OA
ATOM     36  O   UNL A   1      46.258  22.870  25.676  1.00  0.00    -0.258 OA
ENDBRANCH  32  34
ENDBRANCH  18  28
ENDBRANCH   9  11
ENDBRANCH   8   9
ENDBRANCH   7   8
ENDBRANCH   6   7
ENDBRANCH   5   6
ENDBRANCH   4   5
ENDBRANCH   3   4
ENDBRANCH   2   3
ENDBRANCH   1   2
BRANCH   1  37
ATOM     37  C   UNL A   1      32.660  30.899  26.660  1.00  0.00     0.188 C 
BRANCH  37  38
ATOM     38  O   UNL A   1      33.615  31.750  27.271  1.00  0.00    -0.376 OA
BRANCH  38  39
ATOM     39  C   UNL A   1      33.079  32.937  27.823  1.00  0.00     0.202 C 
BRANCH  39  40
ATOM     40  C   UNL A   1      34.164  33.940  28.233  1.00  0.00     0.261 C 
BRANCH  40  41
ATOM     41  O   UNL A   1      35.401  33.297  28.622  1.00  0.00    -0.460 OA
BRANCH  41  42
ATOM     42  C   UNL A   1      35.694  33.252  29.962  1.00  0.00     0.338 C 
ATOM     43  O   UNL A   1      34.991  32.658  30.776  1.00  0.00    -0.246 OA
BRANCH  42  44
ATOM     44  C   UNL A   1      37.034  33.829  30.225  1.00  0.00     0.060 A 
ATOM     45  C   UNL A   1      38.000  34.269  29.320  1.00  0.00     0.016 A 
ATOM     46  C   UNL A   1      37.386  33.937  31.524  1.00  0.00     0.016 A 
ATOM     47  C   UNL A   1      39.407  34.403  29.675  1.00  0.00     0.010 A 
ATOM     48  C   UNL A   1      38.735  34.081  31.813  1.00  0.00     0.010 A 
ATOM     49  C   UNL A   1      39.915  34.044  30.932  1.00  0.00    -0.014 A 
BRANCH  49  50
ATOM     50  C   UNL A   1      41.686  33.583  31.359  1.00  0.00     0.031 A 
ATOM     51  C   UNL A   1      42.849  32.417  30.189  1.00  0.00     0.074 A 
ATOM     52  C   UNL A   1      41.910  34.048  32.700  1.00  0.00     0.049 A 
ATOM     53  N   UNL A   1      43.409  31.218  30.550  1.00  0.00    -0.248 NA
ATOM     54  C   UNL A   1      42.855  31.992  28.590  1.00  0.00     0.031 C 
ATOM     55  C   UNL A   1      43.077  34.106  33.596  1.00  0.00     0.029 A 
ATOM     56  N   UNL A   1      40.968  34.440  33.691  1.00  0.00    -0.354 N 
ATOM     57  C   UNL A   1      43.980  30.377  29.639  1.00  0.00     0.074 A 
ATOM     58  C   UNL A   1      43.445  30.811  28.414  1.00  0.00     0.031 C 
ATOM     59  C   UNL A   1      42.878  34.468  34.858  1.00  0.00     0.029 A 
ATOM     60  C   UNL A   1      41.499  34.304  34.996  1.00  0.00     0.049 A 
ATOM     61  H   UNL A   1      40.059  34.766  33.494  1.00  0.00     0.167 HD
ATOM     62  C   UNL A   1      44.908  29.431  29.991  1.00  0.00     0.037 A 
ATOM     63  C   UNL A   1      41.096  33.371  35.893  1.00  0.00     0.037 A 
ATOM     64  C   UNL A   1      45.337  29.562  31.398  1.00  0.00     0.049 A 
ATOM     65  C   UNL A   1      42.040  32.146  36.080  1.00  0.00     0.074 A 
ATOM     66  C   UNL A   1      46.391  30.272  31.956  1.00  0.00     0.029 A 
ATOM     67  N   UNL A   1      44.516  29.226  32.481  1.00  0.00    -0.354 N 
ATOM     68  N   UNL A   1      42.763  31.562  35.131  1.00  0.00    -0.248 NA
ATOM     69  C   UNL A   1      42.377  31.601  37.395  1.00  0.00     0.031 C 
ATOM     70  C   UNL A   1      46.073  30.568  33.313  1.00  0.00     0.029 A 
ATOM     71  C   UNL A   1      44.892  29.916  33.648  1.00  0.00     0.049 A 
ATOM     72  H   UNL A   1      43.770  28.587  32.431  1.00  0.00     0.167 HD
ATOM     73  C   UNL A   1      43.538  30.529  35.657  1.00  0.00     0.074 A 
ATOM     74  C   UNL A   1      43.292  30.661  37.090  1.00  0.00     0.031 C 
ATOM     75  C   UNL A   1      44.335  29.615  34.979  1.00  0.00     0.037 A 
BRANCH  62  76
ATOM     76  C   UNL A   1      45.687  28.760  28.861  1.00  0.00     0.058 A 
ATOM     77  C   UNL A   1      46.849  29.333  28.312  1.00  0.00     0.135 A 
ATOM     78  C   UNL A   1      45.219  27.612  28.181  1.00  0.00     0.135 A 
ATOM     79  F   UNL A   1      47.488  30.338  28.922  1.00  0.00    -0.206 F 
ATOM     80  C   UNL A   1      47.387  28.921  27.084  1.00  0.00     0.059 A 
ATOM     81  C   UNL A   1      45.698  27.219  26.922  1.00  0.00     0.059 A 
ATOM     82  F   UNL A   1      44.240  26.858  28.708  1.00  0.00    -0.206 F 
ATOM     83  C   UNL A   1      46.767  27.906  26.364  1.00  0.00     0.060 A 
BRANCH  83  84
ATOM     84  S   UNL A   1      47.322  27.565  24.678  1.00  0.00     0.124 S 
ATOM     85  O   UNL A   1      46.599  28.574  23.909  1.00  0.00    -0.237 OA
ATOM     86  O   UNL A   1      48.764  27.758  24.784  1.00  0.00    -0.237 OA
ATOM     87  O   UNL A   1      46.886  26.190  24.447  1.00  0.00    -0.744 OA
ENDBRANCH  83  84
ENDBRANCH  62  76
BRANCH  63  88
ATOM     88  C   UNL A   1      39.738  33.799  36.337  1.00  0.00     0.058 A 
ATOM     89  C   UNL A   1      38.689  32.900  35.971  1.00  0.00     0.135 A 
ATOM     90  C   UNL A   1      39.616  34.431  37.581  1.00  0.00     0.135 A 
ATOM     91  F   UNL A   1      38.759  32.237  34.803  1.00  0.00    -0.206 F 
ATOM     92  C   UNL A   1      37.752  32.445  36.897  1.00  0.00     0.059 A 
ATOM     93  C   UNL A   1      38.640  34.028  38.506  1.00  0.00     0.059 A 
ATOM     94  F   UNL A   1      40.576  35.273  37.992  1.00  0.00    -0.206 F 
ATOM     95  C   UNL A   1      37.780  32.972  38.184  1.00  0.00     0.060 A 
BRANCH  95  96
ATOM     96  S   UNL A   1      36.801  32.116  39.448  1.00  0.00     0.124 S 
ATOM     97  O   UNL A   1      35.442  32.383  39.046  1.00  0.00    -0.237 OA
ATOM     98  O   UNL A   1      37.261  30.733  39.269  1.00  0.00    -0.237 OA
ATOM     99  O   UNL A   1      37.241  32.769  40.687  1.00  0.00    -0.744 OA
ENDBRANCH  95  96
ENDBRANCH  63  88
BRANCH  75 100
ATOM    100  C   UNL A   1      44.820  28.274  35.567  1.00  0.00     0.058 A 
ATOM    101  C   UNL A   1      44.073  27.087  35.511  1.00  0.00     0.135 A 
ATOM    102  C   UNL A   1      46.168  28.101  36.002  1.00  0.00     0.135 A 
ATOM    103  F   UNL A   1      42.817  27.070  35.046  1.00  0.00    -0.206 F 
ATOM    104  C   UNL A   1      44.601  25.844  35.876  1.00  0.00     0.059 A 
ATOM    105  C   UNL A   1      46.735  26.863  36.292  1.00  0.00     0.059 A 
ATOM    106  F   UNL A   1      47.017  29.127  36.142  1.00  0.00    -0.206 F 
ATOM    107  C   UNL A   1      45.938  25.737  36.242  1.00  0.00     0.060 A 
BRANCH 107 108
ATOM    108  S   UNL A   1      46.663  24.124  36.571  1.00  0.00     0.124 S 
ATOM    109  O   UNL A   1      46.533  24.039  38.022  1.00  0.00    -0.237 OA
ATOM    110  O   UNL A   1      45.806  23.223  35.806  1.00  0.00    -0.237 OA
ATOM    111  O   UNL A   1      48.025  24.260  36.062  1.00  0.00    -0.744 OA
ENDBRANCH 107 108
ENDBRANCH  75 100
ENDBRANCH  49  50
ENDBRANCH  42  44
ENDBRANCH  41  42
ENDBRANCH  40  41
ENDBRANCH  39  40
ENDBRANCH  38  39
ENDBRANCH  37  38
ENDBRANCH   1  37
TORSDOF 26
ENDMDL
MODEL 3
REMARK VINA RESULT:     -11.8      7.809     11.389
REMARK SMILES Cc1ccc(-c2cc(C(=O)OCCOCCOCCOCCOC(=O)c3ccc(-c4c5nc(c(-c6c(F)cc(S(=O)(=O)[O-])cc6F)c6ccc([nH]6)c(-c6c(F)cc(S(=O)(=O)[O-])cc6F)c6nc(c(-c7c(F)cc(S(=O)(=O)[O-])cc7F)c7ccc4[nH]7)C=C6)C=C5)cc3)c3c(-c4cccc([N+](=O)[O-])c4)[nH]nc3n2)cc1
REMARK SMILES IDX 18 1 17 2 16 3 15 4 14 5 13 6 12 7 11 8 9 9 10 10 8 11 6 12
REMARK SMILES IDX 7 13 106 14 105 15 92 16 104 17 93 18 103 19 5 21 1 22 2 23
REMARK SMILES IDX 3 24 108 25 4 26 107 27 94 28 95 29 102 30 96 31 98 32 97 33
REMARK SMILES IDX 99 34 100 35 101 36 19 37 20 38 21 39 22 40 23 41 24 42
REMARK SMILES IDX 25 43 26 44 27 45 91 46 28 47 90 48 29 49 30 50 31 51 84 52
REMARK SMILES IDX 32 53 89 54 83 55 85 56 33 57 88 58 82 59 81 60 34 62 68 63
REMARK SMILES IDX 47 64 67 65 48 66 51 67 66 68 86 69 49 70 50 71 65 73 87 74
REMARK SMILES IDX 52 75 35 76 36 77 45 78 37 79 38 80 44 81 46 82 39 83 40 84
REMARK SMILES IDX 41 85 42 86 43 87 69 88 70 89 79 90 71 91 72 92 78 93 80 94
REMARK SMILES IDX 73 95 74 96 75 97 76 98 77 99 53 100 54 101 63 102 55 103
REMARK SMILES IDX 56 104 62 105 64 106 57 107 58 108 59 109 60 110 61 111
REMARK H PARENT 103 20 85 61 51 72
REMARK Flexibility Score: inf
ROOT
ATOM      1  C   UNL A   1      40.970  19.787  26.199  1.00  0.00     0.188 C 
ENDROOT
BRANCH   1   2
ATOM      2  O   UNL A   1      39.799  19.087  25.810  1.00  0.00    -0.377 OA
BRANCH   2   3
ATOM      3  C   UNL A   1      38.786  19.567  24.931  1.00  0.00     0.188 C 
BRANCH   3   4
ATOM      4  C   UNL A   1      37.101  19.680  25.012  1.00  0.00     0.188 C 
BRANCH   4   5
ATOM      5  O   UNL A   1      35.770  20.910  24.807  1.00  0.00    -0.376 OA
BRANCH   5   6
ATOM      6  C   UNL A   1      35.673  22.606  24.316  1.00  0.00     0.202 C 
BRANCH   6   7
ATOM      7  C   UNL A   1      35.328  23.296  22.598  1.00  0.00     0.261 C 
BRANCH   7   8
ATOM      8  O   UNL A   1      34.129  24.623  22.230  1.00  0.00    -0.460 OA
BRANCH   8   9
ATOM      9  C   UNL A   1      33.013  25.490  22.691  1.00  0.00     0.339 C 
ATOM     10  O   UNL A   1      32.174  25.996  21.946  1.00  0.00    -0.246 OA
BRANCH   9  11
ATOM     11  C   UNL A   1      32.604  25.888  24.158  1.00  0.00     0.075 A 
ATOM     12  C   UNL A   1      32.343  27.458  26.182  1.00  0.00     0.074 A 
ATOM     13  C   UNL A   1      32.855  27.066  24.913  1.00  0.00     0.045 A 
ATOM     14  N   UNL A   1      31.456  26.741  26.886  1.00  0.00    -0.226 NA
ATOM     15  C   UNL A   1      31.175  25.559  26.285  1.00  0.00     0.182 A 
ATOM     16  C   UNL A   1      31.750  25.113  25.012  1.00  0.00     0.061 A 
ATOM     17  N   UNL A   1      30.356  24.659  26.825  1.00  0.00    -0.154 NA
ATOM     18  C   UNL A   1      31.344  23.778  24.959  1.00  0.00     0.076 A 
ATOM     19  N   UNL A   1      30.441  23.630  25.984  1.00  0.00    -0.275 N 
ATOM     20  H   UNL A   1      29.894  22.819  26.088  1.00  0.00     0.190 HD
BRANCH  12  21
ATOM     21  C   UNL A   1      32.807  28.747  26.759  1.00  0.00     0.000 A 
ATOM     22  C   UNL A   1      34.219  32.637  28.103  1.00  0.00     0.044 C 
ATOM     23  C   UNL A   1      33.733  31.298  27.626  1.00  0.00    -0.051 A 
ATOM     24  C   UNL A   1      34.564  30.173  27.688  1.00  0.00     0.004 A 
ATOM     25  C   UNL A   1      32.434  31.144  27.139  1.00  0.00     0.004 A 
ATOM     26  C   UNL A   1      34.107  28.914  27.259  1.00  0.00     0.010 A 
ATOM     27  C   UNL A   1      31.983  29.889  26.713  1.00  0.00     0.010 A 
ENDBRANCH  12  21
BRANCH  18  28
ATOM     28  C   UNL A   1      31.687  22.577  24.203  1.00  0.00     0.007 A 
ATOM     29  C   UNL A   1      31.538  22.544  22.812  1.00  0.00     0.011 A 
ATOM     30  C   UNL A   1      32.075  21.412  24.876  1.00  0.00     0.096 A 
ATOM     31  C   UNL A   1      31.831  21.383  22.090  1.00  0.00     0.008 A 
ATOM     32  C   UNL A   1      32.389  20.256  24.141  1.00  0.00     0.270 A 
ATOM     33  C   UNL A   1      32.274  20.237  22.749  1.00  0.00     0.085 A 
BRANCH  32  34
ATOM     34  N   UNL A   1      32.958  19.096  24.835  1.00  0.00     0.062 N 
ATOM     35  O   UNL A   1      33.358  18.144  24.150  1.00  0.00    -0.258 OA
ATOM     36  O   UNL A   1      33.051  19.154  26.071  1.00  0.00    -0.258 OA
ENDBRANCH  32  34
ENDBRANCH  18  28
ENDBRANCH   9  11
ENDBRANCH   8   9
ENDBRANCH   7   8
ENDBRANCH   6   7
ENDBRANCH   5   6
ENDBRANCH   4   5
ENDBRANCH   3   4
ENDBRANCH   2   3
ENDBRANCH   1   2
BRANCH   1  37
ATOM     37  C   UNL A   1      41.041  21.285  26.018  1.00  0.00     0.188 C 
BRANCH  37  38
ATOM     38  O   UNL A   1      40.943  21.909  27.288  1.00  0.00    -0.376 OA
BRANCH  38  39
ATOM     39  C   UNL A   1      41.498  23.208  27.351  1.00  0.00     0.202 C 
BRANCH  39  40
ATOM     40  C   UNL A   1      42.902  23.281  26.739  1.00  0.00     0.261 C 
BRANCH  40  41
ATOM     41  O   UNL A   1      42.900  23.829  25.399  1.00  0.00    -0.460 OA
BRANCH  41  42
ATOM     42  C   UNL A   1      42.865  25.195  25.276  1.00  0.00     0.338 C 
ATOM     43  O   UNL A   1      41.830  25.846  25.396  1.00  0.00    -0.246 OA
BRANCH  42  44
ATOM     44  C   UNL A   1      44.237  25.748  25.187  1.00  0.00     0.060 A 
ATOM     45  C   UNL A   1      45.456  25.077  25.088  1.00  0.00     0.016 A 
ATOM     46  C   UNL A   1      44.335  27.095  25.217  1.00  0.00     0.016 A 
ATOM     47  C   UNL A   1      46.726  25.697  25.439  1.00  0.00     0.010 A 
ATOM     48  C   UNL A   1      45.569  27.641  25.538  1.00  0.00     0.010 A 
ATOM     49  C   UNL A   1      46.824  26.996  25.961  1.00  0.00    -0.014 A 
BRANCH  49  50
ATOM     50  C   UNL A   1      48.220  27.710  26.996  1.00  0.00     0.031 A 
ATOM     51  C   UNL A   1      50.166  27.612  26.464  1.00  0.00     0.074 A 
ATOM     52  C   UNL A   1      47.631  28.115  28.242  1.00  0.00     0.049 A 
ATOM     53  N   UNL A   1      51.167  27.003  27.177  1.00  0.00    -0.248 NA
ATOM     54  C   UNL A   1      50.987  27.400  25.043  1.00  0.00     0.031 C 
ATOM     55  C   UNL A   1      48.117  28.823  29.438  1.00  0.00     0.029 A 
ATOM     56  N   UNL A   1      46.373  27.761  28.805  1.00  0.00    -0.354 N 
ATOM     57  C   UNL A   1      52.402  26.769  26.646  1.00  0.00     0.074 A 
ATOM     58  C   UNL A   1      52.185  26.861  25.261  1.00  0.00     0.031 C 
ATOM     59  C   UNL A   1      47.315  28.890  30.493  1.00  0.00     0.029 A 
ATOM     60  C   UNL A   1      46.379  27.892  30.214  1.00  0.00     0.049 A 
ATOM     61  H   UNL A   1      45.594  27.462  28.280  1.00  0.00     0.167 HD
ATOM     62  C   UNL A   1      53.515  26.586  27.425  1.00  0.00     0.037 A 
ATOM     63  C   UNL A   1      46.342  26.850  31.081  1.00  0.00     0.037 A 
ATOM     64  C   UNL A   1      53.252  26.854  28.853  1.00  0.00     0.049 A 
ATOM     65  C   UNL A   1      47.694  26.472  31.757  1.00  0.00     0.074 A 
ATOM     66  C   UNL A   1      53.380  28.023  29.589  1.00  0.00     0.029 A 
ATOM     67  N   UNL A   1      52.489  26.002  29.662  1.00  0.00    -0.354 N 
ATOM     68  N   UNL A   1      48.896  26.536  31.195  1.00  0.00    -0.248 NA
ATOM     69  C   UNL A   1      47.805  26.164  33.183  1.00  0.00     0.031 C 
ATOM     70  C   UNL A   1      52.500  27.958  30.707  1.00  0.00     0.029 A 
ATOM     71  C   UNL A   1      51.933  26.690  30.756  1.00  0.00     0.049 A 
ATOM     72  H   UNL A   1      52.360  25.043  29.486  1.00  0.00     0.167 HD
ATOM     73  C   UNL A   1      49.891  26.178  32.103  1.00  0.00     0.074 A 
ATOM     74  C   UNL A   1      49.135  26.024  33.342  1.00  0.00     0.031 C 
ATOM     75  C   UNL A   1      51.251  26.012  31.873  1.00  0.00     0.037 A 
BRANCH  62  76
ATOM     76  C   UNL A   1      54.874  26.630  26.727  1.00  0.00     0.058 A 
ATOM     77  C   UNL A   1      55.442  27.836  26.275  1.00  0.00     0.135 A 
ATOM     78  C   UNL A   1      55.579  25.467  26.344  1.00  0.00     0.135 A 
ATOM     79  F   UNL A   1      54.968  29.023  26.670  1.00  0.00    -0.206 F 
ATOM     80  C   UNL A   1      56.504  27.874  25.360  1.00  0.00     0.059 A 
ATOM     81  C   UNL A   1      56.601  25.473  25.382  1.00  0.00     0.059 A 
ATOM     82  F   UNL A   1      55.260  24.271  26.866  1.00  0.00    -0.206 F 
ATOM     83  C   UNL A   1      57.035  26.687  24.868  1.00  0.00     0.060 A 
BRANCH  83  84
ATOM     84  S   UNL A   1      58.223  26.758  23.508  1.00  0.00     0.124 S 
ATOM     85  O   UNL A   1      58.048  25.450  22.882  1.00  0.00    -0.237 OA
ATOM     86  O   UNL A   1      57.745  27.901  22.739  1.00  0.00    -0.237 OA
ATOM     87  O   UNL A   1      59.504  26.945  24.184  1.00  0.00    -0.744 OA
ENDBRANCH  83  84
ENDBRANCH  62  76
BRANCH  63  88
ATOM     88  C   UNL A   1      44.956  26.305  30.995  1.00  0.00     0.058 A 
ATOM     89  C   UNL A   1      43.973  27.090  31.670  1.00  0.00     0.135 A 
ATOM     90  C   UNL A   1      44.558  25.694  29.799  1.00  0.00     0.135 A 
ATOM     91  F   UNL A   1      44.298  27.729  32.809  1.00  0.00    -0.206 F 
ATOM     92  C   UNL A   1      42.785  27.475  31.051  1.00  0.00     0.059 A 
ATOM     93  C   UNL A   1      43.338  26.023  29.189  1.00  0.00     0.059 A 
ATOM     94  F   UNL A   1      45.439  24.958  29.106  1.00  0.00    -0.206 F 
ATOM     95  C   UNL A   1      42.509  26.984  29.780  1.00  0.00     0.060 A 
BRANCH  95  96
ATOM     96  S   UNL A   1      41.156  27.773  28.865  1.00  0.00     0.124 S 
ATOM     97  O   UNL A   1      41.822  28.824  28.137  1.00  0.00    -0.237 OA
ATOM     98  O   UNL A   1      40.668  26.647  28.060  1.00  0.00    -0.237 OA
ATOM     99  O   UNL A   1      40.259  28.212  29.941  1.00  0.00    -0.744 OA
ENDBRANCH  95  96
ENDBRANCH  63  88
BRANCH  75 100
ATOM    100  C   UNL A   1      52.205  25.228  32.799  1.00  0.00     0.058 A 
ATOM    101  C   UNL A   1      52.989  25.831  33.795  1.00  0.00     0.135 A 
ATOM    102  C   UNL A   1      52.176  23.803  32.855  1.00  0.00     0.135 A 
ATOM    103  F   UNL A   1      53.054  27.163  33.926  1.00  0.00    -0.206 F 
ATOM    104  C   UNL A   1      53.701  25.094  34.746  1.00  0.00     0.059 A 
ATOM    105  C   UNL A   1      52.812  23.054  33.842  1.00  0.00     0.059 A 
ATOM    106  F   UNL A   1      51.503  23.060  31.968  1.00  0.00    -0.206 F 
ATOM    107  C   UNL A   1      53.588  23.708  34.778  1.00  0.00     0.060 A 
BRANCH 107 108
ATOM    108  S   UNL A   1      54.382  22.762  36.086  1.00  0.00     0.124 S 
ATOM    109  O   UNL A   1      53.228  22.190  36.771  1.00  0.00    -0.237 OA
ATOM    110  O   UNL A   1      55.208  21.815  35.342  1.00  0.00    -0.237 OA
ATOM    111  O   UNL A   1      55.124  23.776  36.829  1.00  0.00    -0.744 OA
ENDBRANCH 107 108
ENDBRANCH  75 100
ENDBRANCH  49  50
ENDBRANCH  42  44
ENDBRANCH  41  42
ENDBRANCH  40  41
ENDBRANCH  39  40
ENDBRANCH  38  39
ENDBRANCH  37  38
ENDBRANCH   1  37
TORSDOF 26
ENDMDL
