MODEL 1
REMARK VINA RESULT:      -9.8      0.000      0.000
REMARK SMILES Cc1cc(C(=O)OCCOCCOCCOCCOC(=O)c2ccc(-c3c4nc(c(-c5c(F)cc(S(=O)(=O)[O-])cc5F)c5ccc([nH]5)c(-c5c(F)cc(S(=O)(=O)[O-])cc5F)c5nc(c(-c6c(F)cc(S(=O)(=O)[O-])cc6F)c6ccc3[nH]6)C=C5)C=C4)cc2)ccc1NC(=O)c1ccc(=O)n(CCOc2ccccc2)n1
REMARK SMILES IDX 11 1 10 2 9 3 8 4 7 5 5 6 6 7 4 8 1 9 2 10 3 11 90 12 89 13
REMARK SMILES IDX 88 14 91 15 92 16 93 18 94 19 95 20 109 21 96 22 99 23 97 24
REMARK SMILES IDX 98 25 100 26 101 27 102 28 103 29 104 30 108 31 105 32
REMARK SMILES IDX 107 33 106 34 12 35 13 36 14 37 15 38 16 39 17 40 18 41
REMARK SMILES IDX 19 42 20 43 21 44 22 45 23 46 87 47 24 48 86 49 25 50 26 51
REMARK SMILES IDX 27 52 80 53 28 54 85 55 79 56 81 57 29 58 84 59 78 60 77 61
REMARK SMILES IDX 30 63 64 64 43 65 63 66 44 67 47 68 62 69 82 70 45 71 46 72
REMARK SMILES IDX 61 74 83 75 48 76 31 77 32 78 41 79 33 80 34 81 40 82 42 83
REMARK SMILES IDX 35 84 36 85 37 86 38 87 39 88 65 89 66 90 75 91 67 92 68 93
REMARK SMILES IDX 74 94 76 95 69 96 70 97 71 98 72 99 73 100 49 101 50 102
REMARK SMILES IDX 59 103 51 104 52 105 58 106 60 107 53 108 54 109 55 110
REMARK SMILES IDX 56 111 57 112
REMARK H PARENT 91 17 81 62 47 73
REMARK Flexibility Score: inf
ROOT
ATOM      1  C   UNL A   1      40.757  21.591  27.699  1.00  0.00     0.188 C 
ENDROOT
BRANCH   1   2
ATOM      2  O   UNL A   1      40.644  23.009  27.706  1.00  0.00    -0.376 OA
BRANCH   2   3
ATOM      3  C   UNL A   1      39.537  23.524  26.962  1.00  0.00     0.202 C 
BRANCH   3   4
ATOM      4  C   UNL A   1      38.740  22.506  26.143  1.00  0.00     0.261 C 
BRANCH   4   5
ATOM      5  O   UNL A   1      37.581  23.142  25.609  1.00  0.00    -0.460 OA
BRANCH   5   6
ATOM      6  C   UNL A   1      36.773  22.349  24.876  1.00  0.00     0.338 C 
ATOM      7  O   UNL A   1      37.085  21.494  24.073  1.00  0.00    -0.246 OA
BRANCH   6   8
ATOM      8  C   UNL A   1      35.440  22.460  25.493  1.00  0.00     0.060 A 
ATOM      9  C   UNL A   1      32.226  20.576  24.962  1.00  0.00     0.046 C 
ATOM     10  C   UNL A   1      33.157  21.597  25.557  1.00  0.00    -0.027 A 
ATOM     11  C   UNL A   1      34.403  21.731  24.913  1.00  0.00     0.021 A 
ATOM     12  C   UNL A   1      32.933  22.278  26.770  1.00  0.00     0.044 A 
ATOM     13  C   UNL A   1      34.036  22.877  27.379  1.00  0.00     0.027 A 
ATOM     14  C   UNL A   1      35.266  23.011  26.750  1.00  0.00     0.018 A 
BRANCH  12  15
ATOM     15  N   UNL A   1      31.615  22.407  27.277  1.00  0.00    -0.320 N 
ATOM     16  C   UNL A   1      30.565  23.244  26.928  1.00  0.00     0.276 C 
ATOM     17  H   UNL A   1      31.407  21.787  28.012  1.00  0.00     0.170 HD
ATOM     18  O   UNL A   1      29.434  23.072  27.374  1.00  0.00    -0.267 OA
BRANCH  16  19
ATOM     19  C   UNL A   1      30.830  24.481  26.096  1.00  0.00     0.149 A 
ATOM     20  C   UNL A   1      30.537  24.298  24.662  1.00  0.00     0.042 A 
ATOM     21  N   UNL A   1      31.186  25.601  26.656  1.00  0.00    -0.164 NA
ATOM     22  C   UNL A   1      30.249  25.410  23.989  1.00  0.00     0.076 A 
ATOM     23  N   UNL A   1      31.041  26.745  25.861  1.00  0.00    -0.226 N 
ATOM     24  C   UNL A   1      30.342  26.732  24.652  1.00  0.00     0.266 A 
ATOM     25  O   UNL A   1      29.897  27.717  24.076  1.00  0.00    -0.268 OA
BRANCH  23  26
ATOM     26  C   UNL A   1      31.420  28.033  26.450  1.00  0.00     0.190 C 
BRANCH  26  27
ATOM     27  C   UNL A   1      32.933  28.164  26.693  1.00  0.00     0.253 C 
BRANCH  27  28
ATOM     28  O   UNL A   1      33.660  28.593  25.520  1.00  0.00    -0.492 OA
BRANCH  28  29
ATOM     29  C   UNL A   1      33.708  27.615  24.566  1.00  0.00     0.119 A 
ATOM     30  C   UNL A   1      34.080  26.316  24.886  1.00  0.00     0.046 A 
ATOM     31  C   UNL A   1      33.458  27.949  23.242  1.00  0.00     0.046 A 
ATOM     32  C   UNL A   1      34.076  25.335  23.889  1.00  0.00     0.004 A 
ATOM     33  C   UNL A   1      33.373  26.967  22.260  1.00  0.00     0.004 A 
ATOM     34  C   UNL A   1      33.676  25.651  22.588  1.00  0.00     0.000 A 
ENDBRANCH  28  29
ENDBRANCH  27  28
ENDBRANCH  26  27
ENDBRANCH  23  26
ENDBRANCH  16  19
ENDBRANCH  12  15
ENDBRANCH   6   8
ENDBRANCH   5   6
ENDBRANCH   4   5
ENDBRANCH   3   4
ENDBRANCH   2   3
ENDBRANCH   1   2
BRANCH   1  35
ATOM     35  C   UNL A   1      42.031  20.972  27.116  1.00  0.00     0.188 C 
BRANCH  35  36
ATOM     36  O   UNL A   1      42.226  21.079  25.712  1.00  0.00    -0.377 OA
BRANCH  36  37
ATOM     37  C   UNL A   1      42.683  22.332  25.181  1.00  0.00     0.188 C 
BRANCH  37  38
ATOM     38  C   UNL A   1      44.061  22.823  25.621  1.00  0.00     0.188 C 
BRANCH  38  39
ATOM     39  O   UNL A   1      44.462  23.873  24.732  1.00  0.00    -0.376 OA
BRANCH  39  40
ATOM     40  C   UNL A   1      45.557  24.663  25.176  1.00  0.00     0.202 C 
BRANCH  40  41
ATOM     41  C   UNL A   1      46.776  23.855  25.629  1.00  0.00     0.261 C 
BRANCH  41  42
ATOM     42  O   UNL A   1      46.951  23.918  27.060  1.00  0.00    -0.460 OA
BRANCH  42  43
ATOM     43  C   UNL A   1      47.758  24.925  27.502  1.00  0.00     0.338 C 
ATOM     44  O   UNL A   1      48.768  25.284  26.923  1.00  0.00    -0.246 OA
BRANCH  43  45
ATOM     45  C   UNL A   1      47.165  25.602  28.683  1.00  0.00     0.060 A 
ATOM     46  C   UNL A   1      47.887  26.538  29.433  1.00  0.00     0.016 A 
ATOM     47  C   UNL A   1      45.894  25.226  29.098  1.00  0.00     0.016 A 
ATOM     48  C   UNL A   1      47.395  26.986  30.673  1.00  0.00     0.010 A 
ATOM     49  C   UNL A   1      45.443  25.630  30.341  1.00  0.00     0.010 A 
ATOM     50  C   UNL A   1      46.192  26.477  31.172  1.00  0.00    -0.014 A 
BRANCH  50  51
ATOM     51  C   UNL A   1      45.706  26.575  32.569  1.00  0.00     0.031 A 
ATOM     52  C   UNL A   1      44.984  27.807  33.050  1.00  0.00     0.074 A 
ATOM     53  C   UNL A   1      45.533  25.412  33.251  1.00  0.00     0.049 A 
ATOM     54  N   UNL A   1      44.425  27.924  34.211  1.00  0.00    -0.248 NA
ATOM     55  C   UNL A   1      44.821  29.033  32.262  1.00  0.00     0.031 C 
ATOM     56  C   UNL A   1      44.499  25.132  34.253  1.00  0.00     0.029 A 
ATOM     57  N   UNL A   1      46.224  24.202  33.187  1.00  0.00    -0.354 N 
ATOM     58  C   UNL A   1      43.553  28.993  34.174  1.00  0.00     0.074 A 
ATOM     59  C   UNL A   1      43.934  29.723  32.993  1.00  0.00     0.031 C 
ATOM     60  C   UNL A   1      44.685  23.916  34.782  1.00  0.00     0.029 A 
ATOM     61  C   UNL A   1      46.005  23.499  34.377  1.00  0.00     0.049 A 
ATOM     62  H   UNL A   1      46.775  23.894  32.430  1.00  0.00     0.167 HD
ATOM     63  C   UNL A   1      42.510  29.042  35.060  1.00  0.00     0.037 A 
ATOM     64  C   UNL A   1      46.982  23.185  35.278  1.00  0.00     0.037 A 
ATOM     65  C   UNL A   1      42.641  28.019  36.114  1.00  0.00     0.049 A 
ATOM     66  C   UNL A   1      46.747  23.904  36.592  1.00  0.00     0.074 A 
ATOM     67  C   UNL A   1      41.805  27.044  36.627  1.00  0.00     0.029 A 
ATOM     68  N   UNL A   1      43.878  27.821  36.736  1.00  0.00    -0.354 N 
ATOM     69  N   UNL A   1      46.031  25.000  36.674  1.00  0.00    -0.248 NA
ATOM     70  C   UNL A   1      47.182  23.445  37.908  1.00  0.00     0.031 C 
ATOM     71  C   UNL A   1      42.590  26.168  37.432  1.00  0.00     0.029 A 
ATOM     72  C   UNL A   1      43.878  26.679  37.508  1.00  0.00     0.049 A 
ATOM     73  H   UNL A   1      44.651  28.421  36.636  1.00  0.00     0.167 HD
ATOM     74  C   UNL A   1      45.829  25.336  37.979  1.00  0.00     0.074 A 
ATOM     75  C   UNL A   1      46.619  24.365  38.717  1.00  0.00     0.031 C 
ATOM     76  C   UNL A   1      45.011  26.357  38.367  1.00  0.00     0.037 A 
BRANCH  63  77
ATOM     77  C   UNL A   1      41.237  29.882  34.888  1.00  0.00     0.058 A 
ATOM     78  C   UNL A   1      40.190  29.447  34.039  1.00  0.00     0.135 A 
ATOM     79  C   UNL A   1      41.035  31.174  35.428  1.00  0.00     0.135 A 
ATOM     80  F   UNL A   1      40.241  28.246  33.445  1.00  0.00    -0.206 F 
ATOM     81  C   UNL A   1      39.053  30.219  33.752  1.00  0.00     0.059 A 
ATOM     82  C   UNL A   1      39.879  31.939  35.204  1.00  0.00     0.059 A 
ATOM     83  F   UNL A   1      41.977  31.787  36.158  1.00  0.00    -0.206 F 
ATOM     84  C   UNL A   1      38.897  31.465  34.347  1.00  0.00     0.060 A 
BRANCH  84  85
ATOM     85  S   UNL A   1      37.411  32.441  34.017  1.00  0.00     0.124 S 
ATOM     86  O   UNL A   1      36.946  32.761  35.363  1.00  0.00    -0.237 OA
ATOM     87  O   UNL A   1      37.931  33.564  33.242  1.00  0.00    -0.237 OA
ATOM     88  O   UNL A   1      36.560  31.519  33.268  1.00  0.00    -0.744 OA
ENDBRANCH  84  85
ENDBRANCH  63  77
BRANCH  64  89
ATOM     89  C   UNL A   1      48.223  22.631  34.663  1.00  0.00     0.058 A 
ATOM     90  C   UNL A   1      49.353  23.458  34.823  1.00  0.00     0.135 A 
ATOM     91  C   UNL A   1      48.444  21.243  34.656  1.00  0.00     0.135 A 
ATOM     92  F   UNL A   1      49.221  24.790  34.730  1.00  0.00    -0.206 F 
ATOM     93  C   UNL A   1      50.566  22.951  35.281  1.00  0.00     0.059 A 
ATOM     94  C   UNL A   1      49.660  20.711  35.102  1.00  0.00     0.059 A 
ATOM     95  F   UNL A   1      47.417  20.398  34.490  1.00  0.00    -0.206 F 
ATOM     96  C   UNL A   1      50.674  21.582  35.509  1.00  0.00     0.060 A 
BRANCH  96  97
ATOM     97  S   UNL A   1      51.999  21.007  36.608  1.00  0.00     0.124 S 
ATOM     98  O   UNL A   1      53.078  21.937  36.303  1.00  0.00    -0.237 OA
ATOM     99  O   UNL A   1      51.388  21.149  37.928  1.00  0.00    -0.237 OA
ATOM    100  O   UNL A   1      52.206  19.630  36.176  1.00  0.00    -0.744 OA
ENDBRANCH  96  97
ENDBRANCH  64  89
BRANCH  76 101
ATOM    101  C   UNL A   1      45.172  27.138  39.650  1.00  0.00     0.058 A 
ATOM    102  C   UNL A   1      45.627  28.467  39.672  1.00  0.00     0.135 A 
ATOM    103  C   UNL A   1      44.637  26.655  40.871  1.00  0.00     0.135 A 
ATOM    104  F   UNL A   1      46.066  29.077  38.560  1.00  0.00    -0.206 F 
ATOM    105  C   UNL A   1      45.597  29.246  40.826  1.00  0.00     0.059 A 
ATOM    106  C   UNL A   1      44.550  27.433  42.020  1.00  0.00     0.059 A 
ATOM    107  F   UNL A   1      44.148  25.412  40.986  1.00  0.00    -0.206 F 
ATOM    108  C   UNL A   1      45.053  28.723  41.994  1.00  0.00     0.060 A 
BRANCH 108 109
ATOM    109  S   UNL A   1      44.955  29.759  43.461  1.00  0.00     0.124 S 
ATOM    110  O   UNL A   1      44.506  31.024  42.888  1.00  0.00    -0.237 OA
ATOM    111  O   UNL A   1      43.974  29.057  44.284  1.00  0.00    -0.237 OA
ATOM    112  O   UNL A   1      46.320  29.747  43.978  1.00  0.00    -0.744 OA
ENDBRANCH 108 109
ENDBRANCH  76 101
ENDBRANCH  50  51
ENDBRANCH  43  45
ENDBRANCH  42  43
ENDBRANCH  41  42
ENDBRANCH  40  41
ENDBRANCH  39  40
ENDBRANCH  38  39
ENDBRANCH  37  38
ENDBRANCH  36  37
ENDBRANCH  35  36
ENDBRANCH   1  35
TORSDOF 29
ENDMDL
MODEL 2
REMARK VINA RESULT:      -8.7      3.404      5.222
REMARK SMILES Cc1cc(C(=O)OCCOCCOCCOCCOC(=O)c2ccc(-c3c4nc(c(-c5c(F)cc(S(=O)(=O)[O-])cc5F)c5ccc([nH]5)c(-c5c(F)cc(S(=O)(=O)[O-])cc5F)c5nc(c(-c6c(F)cc(S(=O)(=O)[O-])cc6F)c6ccc3[nH]6)C=C5)C=C4)cc2)ccc1NC(=O)c1ccc(=O)n(CCOc2ccccc2)n1
REMARK SMILES IDX 11 1 10 2 9 3 8 4 7 5 5 6 6 7 4 8 1 9 2 10 3 11 90 12 89 13
REMARK SMILES IDX 88 14 91 15 92 16 93 18 94 19 95 20 109 21 96 22 99 23 97 24
REMARK SMILES IDX 98 25 100 26 101 27 102 28 103 29 104 30 108 31 105 32
REMARK SMILES IDX 107 33 106 34 12 35 13 36 14 37 15 38 16 39 17 40 18 41
REMARK SMILES IDX 19 42 20 43 21 44 22 45 23 46 87 47 24 48 86 49 25 50 26 51
REMARK SMILES IDX 27 52 80 53 28 54 85 55 79 56 81 57 29 58 84 59 78 60 77 61
REMARK SMILES IDX 30 63 64 64 43 65 63 66 44 67 47 68 62 69 82 70 45 71 46 72
REMARK SMILES IDX 61 74 83 75 48 76 31 77 32 78 41 79 33 80 34 81 40 82 42 83
REMARK SMILES IDX 35 84 36 85 37 86 38 87 39 88 65 89 66 90 75 91 67 92 68 93
REMARK SMILES IDX 74 94 76 95 69 96 70 97 71 98 72 99 73 100 49 101 50 102
REMARK SMILES IDX 59 103 51 104 52 105 58 106 60 107 53 108 54 109 55 110
REMARK SMILES IDX 56 111 57 112
REMARK H PARENT 91 17 81 62 47 73
REMARK Flexibility Score: inf
ROOT
ATOM      1  C   UNL A   1      40.793  21.942  27.623  1.00  0.00     0.188 C 
ENDROOT
BRANCH   1   2
ATOM      2  O   UNL A   1      40.543  23.341  27.668  1.00  0.00    -0.376 OA
BRANCH   2   3
ATOM      3  C   UNL A   1      39.407  23.770  26.914  1.00  0.00     0.202 C 
BRANCH   3   4
ATOM      4  C   UNL A   1      38.732  22.707  26.044  1.00  0.00     0.261 C 
BRANCH   4   5
ATOM      5  O   UNL A   1      37.622  23.293  25.368  1.00  0.00    -0.460 OA
BRANCH   5   6
ATOM      6  C   UNL A   1      36.825  22.428  24.708  1.00  0.00     0.338 C 
ATOM      7  O   UNL A   1      37.147  21.535  23.953  1.00  0.00    -0.246 OA
BRANCH   6   8
ATOM      8  C   UNL A   1      35.505  22.532  25.353  1.00  0.00     0.060 A 
ATOM      9  C   UNL A   1      32.284  20.643  24.879  1.00  0.00     0.046 C 
ATOM     10  C   UNL A   1      33.225  21.664  25.460  1.00  0.00    -0.027 A 
ATOM     11  C   UNL A   1      34.458  21.804  24.791  1.00  0.00     0.021 A 
ATOM     12  C   UNL A   1      33.024  22.339  26.680  1.00  0.00     0.044 A 
ATOM     13  C   UNL A   1      34.138  22.938  27.269  1.00  0.00     0.027 A 
ATOM     14  C   UNL A   1      35.355  23.078  26.616  1.00  0.00     0.018 A 
BRANCH  12  15
ATOM     15  N   UNL A   1      31.717  22.462  27.214  1.00  0.00    -0.320 N 
ATOM     16  C   UNL A   1      30.650  23.282  26.875  1.00  0.00     0.276 C 
ATOM     17  H   UNL A   1      31.532  21.853  27.965  1.00  0.00     0.170 HD
ATOM     18  O   UNL A   1      29.531  23.105  27.350  1.00  0.00    -0.267 OA
BRANCH  16  19
ATOM     19  C   UNL A   1      30.882  24.507  26.016  1.00  0.00     0.149 A 
ATOM     20  C   UNL A   1      30.571  24.291  24.590  1.00  0.00     0.042 A 
ATOM     21  N   UNL A   1      31.228  25.643  26.550  1.00  0.00    -0.164 NA
ATOM     22  C   UNL A   1      30.255  25.386  23.901  1.00  0.00     0.076 A 
ATOM     23  N   UNL A   1      31.052  26.769  25.735  1.00  0.00    -0.226 N 
ATOM     24  C   UNL A   1      30.335  26.721  24.537  1.00  0.00     0.266 A 
ATOM     25  O   UNL A   1      29.866  27.688  23.950  1.00  0.00    -0.268 OA
BRANCH  23  26
ATOM     26  C   UNL A   1      31.418  28.074  26.294  1.00  0.00     0.190 C 
BRANCH  26  27
ATOM     27  C   UNL A   1      32.939  28.288  26.380  1.00  0.00     0.253 C 
BRANCH  27  28
ATOM     28  O   UNL A   1      33.526  28.699  25.126  1.00  0.00    -0.492 OA
BRANCH  28  29
ATOM     29  C   UNL A   1      33.609  27.661  24.240  1.00  0.00     0.119 A 
ATOM     30  C   UNL A   1      34.015  26.397  24.649  1.00  0.00     0.046 A 
ATOM     31  C   UNL A   1      33.359  27.898  22.895  1.00  0.00     0.046 A 
ATOM     32  C   UNL A   1      34.046  25.352  23.720  1.00  0.00     0.004 A 
ATOM     33  C   UNL A   1      33.310  26.849  21.981  1.00  0.00     0.004 A 
ATOM     34  C   UNL A   1      33.648  25.568  22.398  1.00  0.00     0.000 A 
ENDBRANCH  28  29
ENDBRANCH  27  28
ENDBRANCH  26  27
ENDBRANCH  23  26
ENDBRANCH  16  19
ENDBRANCH  12  15
ENDBRANCH   6   8
ENDBRANCH   5   6
ENDBRANCH   4   5
ENDBRANCH   3   4
ENDBRANCH   2   3
ENDBRANCH   1   2
BRANCH   1  35
ATOM     35  C   UNL A   1      42.146  21.467  27.083  1.00  0.00     0.188 C 
BRANCH  35  36
ATOM     36  O   UNL A   1      42.340  21.514  25.675  1.00  0.00    -0.377 OA
BRANCH  36  37
ATOM     37  C   UNL A   1      42.772  22.749  25.088  1.00  0.00     0.188 C 
BRANCH  37  38
ATOM     38  C   UNL A   1      43.880  23.520  25.805  1.00  0.00     0.188 C 
BRANCH  38  39
ATOM     39  O   UNL A   1      44.603  24.274  24.823  1.00  0.00    -0.376 OA
BRANCH  39  40
ATOM     40  C   UNL A   1      45.326  25.391  25.322  1.00  0.00     0.202 C 
BRANCH  40  41
ATOM     41  C   UNL A   1      46.384  25.042  26.372  1.00  0.00     0.261 C 
BRANCH  41  42
ATOM     42  O   UNL A   1      46.152  25.743  27.612  1.00  0.00    -0.460 OA
BRANCH  42  43
ATOM     43  C   UNL A   1      46.834  26.915  27.751  1.00  0.00     0.338 C 
ATOM     44  O   UNL A   1      47.928  27.123  27.255  1.00  0.00    -0.246 OA
BRANCH  43  45
ATOM     45  C   UNL A   1      46.008  27.931  28.452  1.00  0.00     0.060 A 
ATOM     46  C   UNL A   1      46.590  28.998  29.149  1.00  0.00     0.016 A 
ATOM     47  C   UNL A   1      44.630  27.761  28.487  1.00  0.00     0.016 A 
ATOM     48  C   UNL A   1      45.805  29.804  29.995  1.00  0.00     0.010 A 
ATOM     49  C   UNL A   1      43.878  28.523  29.361  1.00  0.00     0.010 A 
ATOM     50  C   UNL A   1      44.446  29.526  30.161  1.00  0.00    -0.014 A 
BRANCH  50  51
ATOM     51  C   UNL A   1      43.567  30.041  31.238  1.00  0.00     0.031 A 
ATOM     52  C   UNL A   1      42.535  31.100  30.951  1.00  0.00     0.074 A 
ATOM     53  C   UNL A   1      43.407  29.260  32.339  1.00  0.00     0.049 A 
ATOM     54  N   UNL A   1      41.653  31.516  31.801  1.00  0.00    -0.248 NA
ATOM     55  C   UNL A   1      42.399  31.798  29.668  1.00  0.00     0.031 C 
ATOM     56  C   UNL A   1      42.192  29.130  33.151  1.00  0.00     0.029 A 
ATOM     57  N   UNL A   1      44.286  28.379  32.972  1.00  0.00    -0.354 N 
ATOM     58  C   UNL A   1      40.657  32.181  31.114  1.00  0.00     0.074 A 
ATOM     59  C   UNL A   1      41.232  32.443  29.820  1.00  0.00     0.031 C 
ATOM     60  C   UNL A   1      42.424  28.342  34.208  1.00  0.00     0.029 A 
ATOM     61  C   UNL A   1      43.856  28.191  34.290  1.00  0.00     0.049 A 
ATOM     62  H   UNL A   1      45.076  27.960  32.559  1.00  0.00     0.167 HD
ATOM     63  C   UNL A   1      39.411  32.287  31.670  1.00  0.00     0.037 A 
ATOM     64  C   UNL A   1      44.569  28.562  35.394  1.00  0.00     0.037 A 
ATOM     65  C   UNL A   1      39.405  31.865  33.083  1.00  0.00     0.049 A 
ATOM     66  C   UNL A   1      43.843  29.654  36.156  1.00  0.00     0.074 A 
ATOM     67  C   UNL A   1      38.638  30.990  33.830  1.00  0.00     0.029 A 
ATOM     68  N   UNL A   1      40.424  32.297  33.938  1.00  0.00    -0.354 N 
ATOM     69  N   UNL A   1      42.956  30.435  35.587  1.00  0.00    -0.248 NA
ATOM     70  C   UNL A   1      43.950  29.915  37.588  1.00  0.00     0.031 C 
ATOM     71  C   UNL A   1      39.296  30.780  35.076  1.00  0.00     0.029 A 
ATOM     72  C   UNL A   1      40.398  31.621  35.138  1.00  0.00     0.049 A 
ATOM     73  H   UNL A   1      41.077  32.998  33.712  1.00  0.00     0.167 HD
ATOM     74  C   UNL A   1      42.330  31.200  36.524  1.00  0.00     0.074 A 
ATOM     75  C   UNL A   1      43.027  30.882  37.759  1.00  0.00     0.031 C 
ATOM     76  C   UNL A   1      41.271  32.012  36.238  1.00  0.00     0.037 A 
BRANCH  63  77
ATOM     77  C   UNL A   1      38.117  32.584  30.899  1.00  0.00     0.058 A 
ATOM     78  C   UNL A   1      37.878  33.867  30.350  1.00  0.00     0.135 A 
ATOM     79  C   UNL A   1      37.024  31.694  30.771  1.00  0.00     0.135 A 
ATOM     80  F   UNL A   1      38.818  34.822  30.402  1.00  0.00    -0.206 F 
ATOM     81  C   UNL A   1      36.671  34.234  29.733  1.00  0.00     0.059 A 
ATOM     82  C   UNL A   1      35.831  32.020  30.105  1.00  0.00     0.059 A 
ATOM     83  F   UNL A   1      37.034  30.480  31.336  1.00  0.00    -0.206 F 
ATOM     84  C   UNL A   1      35.651  33.300  29.605  1.00  0.00     0.060 A 
BRANCH  84  85
ATOM     85  S   UNL A   1      34.113  33.756  28.768  1.00  0.00     0.124 S 
ATOM     86  O   UNL A   1      33.721  32.500  28.135  1.00  0.00    -0.237 OA
ATOM     87  O   UNL A   1      33.267  34.201  29.872  1.00  0.00    -0.237 OA
ATOM     88  O   UNL A   1      34.529  34.813  27.848  1.00  0.00    -0.744 OA
ENDBRANCH  84  85
ENDBRANCH  63  77
BRANCH  64  89
ATOM     89  C   UNL A   1      46.011  28.184  35.344  1.00  0.00     0.058 A 
ATOM     90  C   UNL A   1      46.881  29.284  35.206  1.00  0.00     0.135 A 
ATOM     91  C   UNL A   1      46.477  27.092  36.096  1.00  0.00     0.135 A 
ATOM     92  F   UNL A   1      46.538  30.309  34.412  1.00  0.00    -0.206 F 
ATOM     93  C   UNL A   1      47.994  29.438  36.028  1.00  0.00     0.059 A 
ATOM     94  C   UNL A   1      47.600  27.220  36.922  1.00  0.00     0.059 A 
ATOM     95  F   UNL A   1      45.708  26.004  36.252  1.00  0.00    -0.206 F 
ATOM     96  C   UNL A   1      48.285  28.438  36.952  1.00  0.00     0.060 A 
BRANCH  96  97
ATOM     97  S   UNL A   1      49.340  28.869  38.365  1.00  0.00     0.124 S 
ATOM     98  O   UNL A   1      50.094  30.006  37.851  1.00  0.00    -0.237 OA
ATOM     99  O   UNL A   1      48.357  29.171  39.403  1.00  0.00    -0.237 OA
ATOM    100  O   UNL A   1      50.104  27.647  38.584  1.00  0.00    -0.744 OA
ENDBRANCH  96  97
ENDBRANCH  64  89
BRANCH  76 101
ATOM    101  C   UNL A   1      40.917  33.258  37.015  1.00  0.00     0.058 A 
ATOM    102  C   UNL A   1      39.778  33.339  37.834  1.00  0.00     0.135 A 
ATOM    103  C   UNL A   1      41.846  34.320  37.153  1.00  0.00     0.135 A 
ATOM    104  F   UNL A   1      38.871  32.351  37.872  1.00  0.00    -0.206 F 
ATOM    105  C   UNL A   1      39.553  34.411  38.694  1.00  0.00     0.059 A 
ATOM    106  C   UNL A   1      41.665  35.373  38.043  1.00  0.00     0.059 A 
ATOM    107  F   UNL A   1      42.986  34.360  36.449  1.00  0.00    -0.206 F 
ATOM    108  C   UNL A   1      40.503  35.422  38.796  1.00  0.00     0.060 A 
BRANCH 108 109
ATOM    109  S   UNL A   1      40.236  36.767  39.958  1.00  0.00     0.124 S 
ATOM    110  O   UNL A   1      40.508  37.929  39.118  1.00  0.00    -0.237 OA
ATOM    111  O   UNL A   1      38.840  36.583  40.347  1.00  0.00    -0.237 OA
ATOM    112  O   UNL A   1      41.211  36.506  41.012  1.00  0.00    -0.744 OA
ENDBRANCH 108 109
ENDBRANCH  76 101
ENDBRANCH  50  51
ENDBRANCH  43  45
ENDBRANCH  42  43
ENDBRANCH  41  42
ENDBRANCH  40  41
ENDBRANCH  39  40
ENDBRANCH  38  39
ENDBRANCH  37  38
ENDBRANCH  36  37
ENDBRANCH  35  36
ENDBRANCH   1  35
TORSDOF 29
ENDMDL
MODEL 3
REMARK VINA RESULT:      -8.5      6.992     10.282
REMARK SMILES Cc1cc(C(=O)OCCOCCOCCOCCOC(=O)c2ccc(-c3c4nc(c(-c5c(F)cc(S(=O)(=O)[O-])cc5F)c5ccc([nH]5)c(-c5c(F)cc(S(=O)(=O)[O-])cc5F)c5nc(c(-c6c(F)cc(S(=O)(=O)[O-])cc6F)c6ccc3[nH]6)C=C5)C=C4)cc2)ccc1NC(=O)c1ccc(=O)n(CCOc2ccccc2)n1
REMARK SMILES IDX 11 1 10 2 9 3 8 4 7 5 5 6 6 7 4 8 1 9 2 10 3 11 90 12 89 13
REMARK SMILES IDX 88 14 91 15 92 16 93 18 94 19 95 20 109 21 96 22 99 23 97 24
REMARK SMILES IDX 98 25 100 26 101 27 102 28 103 29 104 30 108 31 105 32
REMARK SMILES IDX 107 33 106 34 12 35 13 36 14 37 15 38 16 39 17 40 18 41
REMARK SMILES IDX 19 42 20 43 21 44 22 45 23 46 87 47 24 48 86 49 25 50 26 51
REMARK SMILES IDX 27 52 80 53 28 54 85 55 79 56 81 57 29 58 84 59 78 60 77 61
REMARK SMILES IDX 30 63 64 64 43 65 63 66 44 67 47 68 62 69 82 70 45 71 46 72
REMARK SMILES IDX 61 74 83 75 48 76 31 77 32 78 41 79 33 80 34 81 40 82 42 83
REMARK SMILES IDX 35 84 36 85 37 86 38 87 39 88 65 89 66 90 75 91 67 92 68 93
REMARK SMILES IDX 74 94 76 95 69 96 70 97 71 98 72 99 73 100 49 101 50 102
REMARK SMILES IDX 59 103 51 104 52 105 58 106 60 107 53 108 54 109 55 110
REMARK SMILES IDX 56 111 57 112
REMARK H PARENT 91 17 81 62 47 73
REMARK Flexibility Score: inf
ROOT
ATOM      1  C   UNL A   1      39.572  23.708  27.152  1.00  0.00     0.188 C 
ENDROOT
BRANCH   1   2
ATOM      2  O   UNL A   1      38.263  24.161  26.833  1.00  0.00    -0.376 OA
BRANCH   2   3
ATOM      3  C   UNL A   1      37.781  23.746  25.553  1.00  0.00     0.202 C 
BRANCH   3   4
ATOM      4  C   UNL A   1      36.738  22.626  25.554  1.00  0.00     0.261 C 
BRANCH   4   5
ATOM      5  O   UNL A   1      35.740  22.916  24.578  1.00  0.00    -0.460 OA
BRANCH   5   6
ATOM      6  C   UNL A   1      34.781  21.979  24.436  1.00  0.00     0.338 C 
ATOM      7  O   UNL A   1      34.853  20.788  24.658  1.00  0.00    -0.246 OA
BRANCH   6   8
ATOM      8  C   UNL A   1      33.515  22.722  24.306  1.00  0.00     0.060 A 
ATOM      9  C   UNL A   1      32.357  25.377  21.902  1.00  0.00     0.046 C 
ATOM     10  C   UNL A   1      32.278  24.420  23.061  1.00  0.00    -0.027 A 
ATOM     11  C   UNL A   1      33.490  23.795  23.417  1.00  0.00     0.021 A 
ATOM     12  C   UNL A   1      31.082  24.002  23.677  1.00  0.00     0.044 A 
ATOM     13  C   UNL A   1      31.134  22.840  24.448  1.00  0.00     0.027 A 
ATOM     14  C   UNL A   1      32.325  22.220  24.801  1.00  0.00     0.018 A 
BRANCH  12  15
ATOM     15  N   UNL A   1      29.914  24.797  23.569  1.00  0.00    -0.320 N 
ATOM     16  C   UNL A   1      29.644  26.104  23.950  1.00  0.00     0.276 C 
ATOM     17  H   UNL A   1      29.154  24.337  23.145  1.00  0.00     0.170 HD
ATOM     18  O   UNL A   1      28.613  26.672  23.601  1.00  0.00    -0.267 OA
BRANCH  16  19
ATOM     19  C   UNL A   1      30.557  26.808  24.932  1.00  0.00     0.149 A 
ATOM     20  C   UNL A   1      30.855  26.006  26.134  1.00  0.00     0.042 A 
ATOM     21  N   UNL A   1      31.080  27.965  24.648  1.00  0.00    -0.164 NA
ATOM     22  C   UNL A   1      31.994  26.305  26.754  1.00  0.00     0.076 A 
ATOM     23  N   UNL A   1      32.175  28.341  25.436  1.00  0.00    -0.226 N 
ATOM     24  C   UNL A   1      32.818  27.449  26.297  1.00  0.00     0.266 A 
ATOM     25  O   UNL A   1      33.944  27.590  26.758  1.00  0.00    -0.268 OA
BRANCH  23  26
ATOM     26  C   UNL A   1      32.806  29.633  25.150  1.00  0.00     0.190 C 
BRANCH  26  27
ATOM     27  C   UNL A   1      32.370  30.745  26.120  1.00  0.00     0.253 C 
BRANCH  27  28
ATOM     28  O   UNL A   1      32.834  30.532  27.472  1.00  0.00    -0.492 OA
BRANCH  28  29
ATOM     29  C   UNL A   1      33.966  31.250  27.739  1.00  0.00     0.119 A 
ATOM     30  C   UNL A   1      33.908  32.613  27.999  1.00  0.00     0.046 A 
ATOM     31  C   UNL A   1      35.200  30.618  27.670  1.00  0.00     0.046 A 
ATOM     32  C   UNL A   1      35.085  33.303  28.311  1.00  0.00     0.004 A 
ATOM     33  C   UNL A   1      36.363  31.276  28.056  1.00  0.00     0.004 A 
ATOM     34  C   UNL A   1      36.304  32.624  28.385  1.00  0.00     0.000 A 
ENDBRANCH  28  29
ENDBRANCH  27  28
ENDBRANCH  26  27
ENDBRANCH  23  26
ENDBRANCH  16  19
ENDBRANCH  12  15
ENDBRANCH   6   8
ENDBRANCH   5   6
ENDBRANCH   4   5
ENDBRANCH   3   4
ENDBRANCH   2   3
ENDBRANCH   1   2
BRANCH   1  35
ATOM     35  C   UNL A   1      40.762  24.461  26.549  1.00  0.00     0.188 C 
BRANCH  35  36
ATOM     36  O   UNL A   1      40.528  25.779  26.071  1.00  0.00    -0.377 OA
BRANCH  36  37
ATOM     37  C   UNL A   1      41.096  26.878  26.798  1.00  0.00     0.188 C 
BRANCH  37  38
ATOM     38  C   UNL A   1      40.130  27.836  27.495  1.00  0.00     0.188 C 
BRANCH  38  39
ATOM     39  O   UNL A   1      40.721  28.234  28.739  1.00  0.00    -0.376 OA
BRANCH  39  40
ATOM     40  C   UNL A   1      39.936  29.111  29.535  1.00  0.00     0.202 C 
BRANCH  40  41
ATOM     41  C   UNL A   1      39.487  28.519  30.874  1.00  0.00     0.261 C 
BRANCH  41  42
ATOM     42  O   UNL A   1      38.145  28.928  31.211  1.00  0.00    -0.460 OA
BRANCH  42  43
ATOM     43  C   UNL A   1      37.890  29.036  32.546  1.00  0.00     0.338 C 
ATOM     44  O   UNL A   1      37.429  28.132  33.220  1.00  0.00    -0.246 OA
BRANCH  43  45
ATOM     45  C   UNL A   1      38.379  30.333  33.077  1.00  0.00     0.060 A 
ATOM     46  C   UNL A   1      38.137  31.540  32.410  1.00  0.00     0.016 A 
ATOM     47  C   UNL A   1      39.172  30.329  34.218  1.00  0.00     0.016 A 
ATOM     48  C   UNL A   1      38.805  32.715  32.803  1.00  0.00     0.010 A 
ATOM     49  C   UNL A   1      39.864  31.474  34.563  1.00  0.00     0.010 A 
ATOM     50  C   UNL A   1      39.734  32.674  33.846  1.00  0.00    -0.014 A 
BRANCH  50  51
ATOM     51  C   UNL A   1      40.750  33.706  34.162  1.00  0.00     0.031 A 
ATOM     52  C   UNL A   1      40.495  34.738  35.230  1.00  0.00     0.074 A 
ATOM     53  C   UNL A   1      42.035  33.446  33.804  1.00  0.00     0.049 A 
ATOM     54  N   UNL A   1      41.371  35.594  35.649  1.00  0.00    -0.248 NA
ATOM     55  C   UNL A   1      39.219  34.905  35.934  1.00  0.00     0.031 C 
ATOM     56  C   UNL A   1      43.244  33.850  34.529  1.00  0.00     0.029 A 
ATOM     57  N   UNL A   1      42.557  32.735  32.722  1.00  0.00    -0.354 N 
ATOM     58  C   UNL A   1      40.942  36.108  36.856  1.00  0.00     0.074 A 
ATOM     59  C   UNL A   1      39.549  35.751  36.921  1.00  0.00     0.031 C 
ATOM     60  C   UNL A   1      44.336  33.498  33.839  1.00  0.00     0.029 A 
ATOM     61  C   UNL A   1      43.880  33.143  32.518  1.00  0.00     0.049 A 
ATOM     62  H   UNL A   1      42.075  32.060  32.192  1.00  0.00     0.167 HD
ATOM     63  C   UNL A   1      41.859  36.634  37.726  1.00  0.00     0.037 A 
ATOM     64  C   UNL A   1      44.326  33.777  31.394  1.00  0.00     0.037 A 
ATOM     65  C   UNL A   1      43.183  36.793  37.096  1.00  0.00     0.049 A 
ATOM     66  C   UNL A   1      44.782  35.186  31.722  1.00  0.00     0.074 A 
ATOM     67  C   UNL A   1      44.469  36.417  37.437  1.00  0.00     0.029 A 
ATOM     68  N   UNL A   1      43.277  37.334  35.810  1.00  0.00    -0.354 N 
ATOM     69  N   UNL A   1      44.357  35.832  32.781  1.00  0.00    -0.248 NA
ATOM     70  C   UNL A   1      45.789  35.951  30.992  1.00  0.00     0.031 C 
ATOM     71  C   UNL A   1      45.298  36.588  36.291  1.00  0.00     0.029 A 
ATOM     72  C   UNL A   1      44.543  37.183  35.290  1.00  0.00     0.049 A 
ATOM     73  H   UNL A   1      42.532  37.769  35.337  1.00  0.00     0.167 HD
ATOM     74  C   UNL A   1      45.051  36.994  32.936  1.00  0.00     0.074 A 
ATOM     75  C   UNL A   1      45.899  37.055  31.758  1.00  0.00     0.031 C 
ATOM     76  C   UNL A   1      44.912  37.806  34.024  1.00  0.00     0.037 A 
BRANCH  63  77
ATOM     77  C   UNL A   1      41.640  36.835  39.232  1.00  0.00     0.058 A 
ATOM     78  C   UNL A   1      41.969  38.063  39.856  1.00  0.00     0.135 A 
ATOM     79  C   UNL A   1      41.227  35.827  40.136  1.00  0.00     0.135 A 
ATOM     80  F   UNL A   1      42.385  39.111  39.131  1.00  0.00    -0.206 F 
ATOM     81  C   UNL A   1      41.897  38.272  41.243  1.00  0.00     0.059 A 
ATOM     82  C   UNL A   1      41.090  36.031  41.518  1.00  0.00     0.059 A 
ATOM     83  F   UNL A   1      40.990  34.572  39.731  1.00  0.00    -0.206 F 
ATOM     84  C   UNL A   1      41.447  37.252  42.071  1.00  0.00     0.060 A 
BRANCH  84  85
ATOM     85  S   UNL A   1      41.308  37.533  43.853  1.00  0.00     0.124 S 
ATOM     86  O   UNL A   1      40.936  36.212  44.347  1.00  0.00    -0.237 OA
ATOM     87  O   UNL A   1      42.648  37.991  44.210  1.00  0.00    -0.237 OA
ATOM     88  O   UNL A   1      40.265  38.552  43.953  1.00  0.00    -0.744 OA
ENDBRANCH  84  85
ENDBRANCH  63  77
BRANCH  64  89
ATOM     89  C   UNL A   1      43.854  33.163  30.119  1.00  0.00     0.058 A 
ATOM     90  C   UNL A   1      43.199  34.070  29.262  1.00  0.00     0.135 A 
ATOM     91  C   UNL A   1      44.601  32.139  29.514  1.00  0.00     0.135 A 
ATOM     92  F   UNL A   1      42.384  35.003  29.776  1.00  0.00    -0.206 F 
ATOM     93  C   UNL A   1      43.531  34.164  27.913  1.00  0.00     0.059 A 
ATOM     94  C   UNL A   1      44.938  32.207  28.156  1.00  0.00     0.059 A 
ATOM     95  F   UNL A   1      45.235  31.230  30.269  1.00  0.00    -0.206 F 
ATOM     96  C   UNL A   1      44.478  33.285  27.395  1.00  0.00     0.060 A 
BRANCH  96  97
ATOM     97  S   UNL A   1      45.314  33.749  25.852  1.00  0.00     0.124 S 
ATOM     98  O   UNL A   1      46.691  33.355  26.117  1.00  0.00    -0.237 OA
ATOM     99  O   UNL A   1      44.598  32.948  24.861  1.00  0.00    -0.237 OA
ATOM    100  O   UNL A   1      45.068  35.184  25.770  1.00  0.00    -0.744 OA
ENDBRANCH  96  97
ENDBRANCH  64  89
BRANCH  76 101
ATOM    101  C   UNL A   1      45.164  39.295  34.014  1.00  0.00     0.058 A 
ATOM    102  C   UNL A   1      44.249  40.212  33.469  1.00  0.00     0.135 A 
ATOM    103  C   UNL A   1      46.217  39.862  34.776  1.00  0.00     0.135 A 
ATOM    104  F   UNL A   1      43.154  39.802  32.810  1.00  0.00    -0.206 F 
ATOM    105  C   UNL A   1      44.389  41.588  33.627  1.00  0.00     0.059 A 
ATOM    106  C   UNL A   1      46.345  41.230  34.990  1.00  0.00     0.059 A 
ATOM    107  F   UNL A   1      47.147  39.103  35.372  1.00  0.00    -0.206 F 
ATOM    108  C   UNL A   1      45.437  42.089  34.393  1.00  0.00     0.060 A 
BRANCH 108 109
ATOM    109  S   UNL A   1      45.571  43.864  34.649  1.00  0.00     0.124 S 
ATOM    110  O   UNL A   1      46.000  43.920  36.043  1.00  0.00    -0.237 OA
ATOM    111  O   UNL A   1      46.575  44.255  33.663  1.00  0.00    -0.237 OA
ATOM    112  O   UNL A   1      44.221  44.349  34.382  1.00  0.00    -0.744 OA
ENDBRANCH 108 109
ENDBRANCH  76 101
ENDBRANCH  50  51
ENDBRANCH  43  45
ENDBRANCH  42  43
ENDBRANCH  41  42
ENDBRANCH  40  41
ENDBRANCH  39  40
ENDBRANCH  38  39
ENDBRANCH  37  38
ENDBRANCH  36  37
ENDBRANCH  35  36
ENDBRANCH   1  35
TORSDOF 29
ENDMDL
