MODEL 1
REMARK VINA RESULT:      -9.8      0.000      0.000
REMARK SMILES O=C(OCCOCCOCCOCCOC(=O)c1cc(-c2ccsc2)nc2ccccc12)c1ccc(-c2c3nc(c(-c4c(F)cc(S(=O)(=O)[O-])cc4F)c4ccc([nH]4)c(-c4c(F)cc(S(=O)(=O)[O-])cc4F)c4nc(c(-c5c(F)cc(S(=O)(=O)[O-])cc5F)c5ccc2[nH]5)C=C4)C=C3)cc1
REMARK SMILES IDX 8 1 7 2 6 3 5 4 4 5 3 6 2 7 1 8 33 9 34 10 98 11 35 12 97 13
REMARK SMILES IDX 36 14 37 15 38 16 91 17 39 18 96 19 90 20 92 21 40 22 95 23
REMARK SMILES IDX 89 24 88 25 41 27 75 28 54 29 74 30 55 31 58 32 73 33 93 34
REMARK SMILES IDX 56 35 57 36 72 38 94 39 59 40 42 41 43 42 52 43 44 44 45 45
REMARK SMILES IDX 51 46 53 47 46 48 47 49 48 50 49 51 50 52 76 53 77 54 86 55
REMARK SMILES IDX 78 56 79 57 85 58 87 59 80 60 81 61 82 62 83 63 84 64 60 65
REMARK SMILES IDX 61 66 70 67 62 68 63 69 69 70 71 71 64 72 65 73 66 74 67 75
REMARK SMILES IDX 68 76 9 77 10 78 11 79 12 80 13 81 14 82 15 83 16 84 17 85
REMARK SMILES IDX 18 86 19 87 32 88 20 89 27 90 31 91 26 92 28 93 30 94 29 95
REMARK SMILES IDX 21 96 22 97 25 98 23 99 24 100
REMARK H PARENT 92 26 58 37
REMARK Flexibility Score: inf
ROOT
ATOM      1  C   UNL A   1      33.061  35.526  29.185  1.00  0.00     0.188 C 
ENDROOT
BRANCH   1   2
ATOM      2  C   UNL A   1      33.353  35.760  30.671  1.00  0.00     0.188 C 
BRANCH   2   3
ATOM      3  O   UNL A   1      33.480  34.536  31.372  1.00  0.00    -0.376 OA
BRANCH   3   4
ATOM      4  C   UNL A   1      34.718  33.867  31.526  1.00  0.00     0.202 C 
BRANCH   4   5
ATOM      5  C   UNL A   1      34.764  32.360  31.337  1.00  0.00     0.261 C 
BRANCH   5   6
ATOM      6  O   UNL A   1      35.972  31.674  31.725  1.00  0.00    -0.460 OA
BRANCH   6   7
ATOM      7  C   UNL A   1      37.280  32.013  31.763  1.00  0.00     0.338 C 
ATOM      8  O   UNL A   1      37.606  33.025  32.381  1.00  0.00    -0.246 OA
BRANCH   7   9
ATOM      9  C   UNL A   1      38.355  31.219  31.126  1.00  0.00     0.060 A 
ATOM     10  C   UNL A   1      39.195  30.345  31.800  1.00  0.00     0.016 A 
ATOM     11  C   UNL A   1      38.450  31.261  29.730  1.00  0.00     0.016 A 
ATOM     12  C   UNL A   1      40.272  29.746  31.185  1.00  0.00     0.010 A 
ATOM     13  C   UNL A   1      39.452  30.548  29.068  1.00  0.00     0.010 A 
ATOM     14  C   UNL A   1      40.420  29.860  29.812  1.00  0.00    -0.014 A 
BRANCH  14  15
ATOM     15  C   UNL A   1      41.706  29.434  29.236  1.00  0.00     0.031 A 
ATOM     16  C   UNL A   1      42.832  30.425  29.276  1.00  0.00     0.074 A 
ATOM     17  C   UNL A   1      41.891  28.153  28.865  1.00  0.00     0.049 A 
ATOM     18  N   UNL A   1      44.029  30.341  28.770  1.00  0.00    -0.248 NA
ATOM     19  C   UNL A   1      42.573  31.690  29.991  1.00  0.00     0.031 C 
ATOM     20  C   UNL A   1      40.886  27.087  28.961  1.00  0.00     0.029 A 
ATOM     21  N   UNL A   1      42.999  27.516  28.381  1.00  0.00    -0.354 N 
ATOM     22  C   UNL A   1      44.634  31.561  29.042  1.00  0.00     0.074 A 
ATOM     23  C   UNL A   1      43.681  32.372  29.757  1.00  0.00     0.031 C 
ATOM     24  C   UNL A   1      41.440  25.924  28.590  1.00  0.00     0.029 A 
ATOM     25  C   UNL A   1      42.800  26.179  28.134  1.00  0.00     0.049 A 
ATOM     26  H   UNL A   1      43.858  27.972  28.224  1.00  0.00     0.167 HD
ATOM     27  C   UNL A   1      45.881  31.960  28.706  1.00  0.00     0.037 A 
ATOM     28  C   UNL A   1      43.619  25.281  27.557  1.00  0.00     0.037 A 
ATOM     29  C   UNL A   1      46.806  31.097  28.027  1.00  0.00     0.049 A 
ATOM     30  C   UNL A   1      44.970  25.773  27.112  1.00  0.00     0.074 A 
ATOM     31  C   UNL A   1      48.080  31.376  27.576  1.00  0.00     0.029 A 
ATOM     32  N   UNL A   1      46.544  29.769  27.709  1.00  0.00    -0.354 N 
ATOM     33  N   UNL A   1      45.505  26.963  27.272  1.00  0.00    -0.248 NA
ATOM     34  C   UNL A   1      45.819  24.819  26.395  1.00  0.00     0.031 C 
ATOM     35  C   UNL A   1      48.566  30.232  26.935  1.00  0.00     0.029 A 
ATOM     36  C   UNL A   1      47.624  29.219  27.047  1.00  0.00     0.049 A 
ATOM     37  H   UNL A   1      45.710  29.291  27.923  1.00  0.00     0.167 HD
ATOM     38  C   UNL A   1      46.767  26.894  26.699  1.00  0.00     0.074 A 
ATOM     39  C   UNL A   1      46.917  25.537  26.202  1.00  0.00     0.031 C 
ATOM     40  C   UNL A   1      47.721  27.854  26.587  1.00  0.00     0.037 A 
BRANCH  27  41
ATOM     41  C   UNL A   1      46.245  33.392  28.983  1.00  0.00     0.058 A 
ATOM     42  C   UNL A   1      46.768  33.821  30.214  1.00  0.00     0.135 A 
ATOM     43  C   UNL A   1      46.013  34.368  27.999  1.00  0.00     0.135 A 
ATOM     44  F   UNL A   1      46.970  32.940  31.206  1.00  0.00    -0.206 F 
ATOM     45  C   UNL A   1      47.017  35.166  30.470  1.00  0.00     0.059 A 
ATOM     46  C   UNL A   1      46.284  35.714  28.221  1.00  0.00     0.059 A 
ATOM     47  F   UNL A   1      45.494  34.018  26.811  1.00  0.00    -0.206 F 
ATOM     48  C   UNL A   1      46.771  36.106  29.466  1.00  0.00     0.060 A 
BRANCH  48  49
ATOM     49  S   UNL A   1      47.092  37.848  29.813  1.00  0.00     0.124 S 
ATOM     50  O   UNL A   1      48.492  37.971  29.419  1.00  0.00    -0.237 OA
ATOM     51  O   UNL A   1      46.129  38.519  28.945  1.00  0.00    -0.237 OA
ATOM     52  O   UNL A   1      46.830  37.966  31.244  1.00  0.00    -0.744 OA
ENDBRANCH  48  49
ENDBRANCH  27  41
BRANCH  28  53
ATOM     53  C   UNL A   1      43.170  23.881  27.321  1.00  0.00     0.058 A 
ATOM     54  C   UNL A   1      42.747  23.450  26.056  1.00  0.00     0.135 A 
ATOM     55  C   UNL A   1      43.156  22.936  28.364  1.00  0.00     0.135 A 
ATOM     56  F   UNL A   1      42.735  24.309  25.025  1.00  0.00    -0.206 F 
ATOM     57  C   UNL A   1      42.308  22.147  25.834  1.00  0.00     0.059 A 
ATOM     58  C   UNL A   1      42.753  21.620  28.160  1.00  0.00     0.059 A 
ATOM     59  F   UNL A   1      43.561  23.284  29.595  1.00  0.00    -0.206 F 
ATOM     60  C   UNL A   1      42.316  21.238  26.894  1.00  0.00     0.060 A 
BRANCH  60  61
ATOM     61  S   UNL A   1      41.767  19.544  26.592  1.00  0.00     0.124 S 
ATOM     62  O   UNL A   1      40.606  19.450  27.469  1.00  0.00    -0.237 OA
ATOM     63  O   UNL A   1      41.487  19.564  25.160  1.00  0.00    -0.237 OA
ATOM     64  O   UNL A   1      42.921  18.741  26.987  1.00  0.00    -0.744 OA
ENDBRANCH  60  61
ENDBRANCH  28  53
BRANCH  40  65
ATOM     65  C   UNL A   1      49.020  27.443  25.961  1.00  0.00     0.058 A 
ATOM     66  C   UNL A   1      49.193  27.405  24.570  1.00  0.00     0.135 A 
ATOM     67  C   UNL A   1      50.120  27.134  26.776  1.00  0.00     0.135 A 
ATOM     68  F   UNL A   1      48.167  27.689  23.752  1.00  0.00    -0.206 F 
ATOM     69  C   UNL A   1      50.407  27.039  24.006  1.00  0.00     0.059 A 
ATOM     70  C   UNL A   1      51.354  26.802  26.234  1.00  0.00     0.059 A 
ATOM     71  F   UNL A   1      50.004  27.172  28.113  1.00  0.00    -0.206 F 
ATOM     72  C   UNL A   1      51.482  26.742  24.847  1.00  0.00     0.060 A 
BRANCH  72  73
ATOM     73  S   UNL A   1      53.062  26.293  24.102  1.00  0.00     0.124 S 
ATOM     74  O   UNL A   1      53.898  27.425  24.487  1.00  0.00    -0.237 OA
ATOM     75  O   UNL A   1      53.367  25.026  24.760  1.00  0.00    -0.237 OA
ATOM     76  O   UNL A   1      52.751  26.196  22.680  1.00  0.00    -0.744 OA
ENDBRANCH  72  73
ENDBRANCH  40  65
ENDBRANCH  14  15
ENDBRANCH   7   9
ENDBRANCH   6   7
ENDBRANCH   5   6
ENDBRANCH   4   5
ENDBRANCH   3   4
ENDBRANCH   2   3
ENDBRANCH   1   2
BRANCH   1  77
ATOM     77  O   UNL A   1      34.198  35.341  28.344  1.00  0.00    -0.377 OA
BRANCH  77  78
ATOM     78  C   UNL A   1      34.554  33.992  28.044  1.00  0.00     0.188 C 
BRANCH  78  79
ATOM     79  C   UNL A   1      33.441  32.982  27.640  1.00  0.00     0.188 C 
BRANCH  79  80
ATOM     80  O   UNL A   1      33.627  31.682  28.169  1.00  0.00    -0.376 OA
BRANCH  80  81
ATOM     81  C   UNL A   1      34.733  30.923  27.710  1.00  0.00     0.202 C 
BRANCH  81  82
ATOM     82  C   UNL A   1      34.531  29.694  26.799  1.00  0.00     0.261 C 
BRANCH  82  83
ATOM     83  O   UNL A   1      33.305  29.623  26.055  1.00  0.00    -0.460 OA
BRANCH  83  84
ATOM     84  C   UNL A   1      32.599  28.468  26.087  1.00  0.00     0.338 C 
ATOM     85  O   UNL A   1      32.402  27.755  27.046  1.00  0.00    -0.246 OA
BRANCH  84  86
ATOM     86  C   UNL A   1      31.912  28.309  24.780  1.00  0.00     0.071 A 
ATOM     87  C   UNL A   1      30.883  29.216  24.493  1.00  0.00     0.045 A 
ATOM     88  C   UNL A   1      32.302  27.335  23.836  1.00  0.00     0.015 A 
ATOM     89  C   UNL A   1      30.315  29.159  23.236  1.00  0.00     0.073 A 
ATOM     90  C   UNL A   1      31.555  27.296  22.641  1.00  0.00     0.072 A 
ATOM     91  C   UNL A   1      33.358  26.408  24.016  1.00  0.00     0.011 A 
ATOM     92  N   UNL A   1      30.606  28.197  22.336  1.00  0.00    -0.248 NA
ATOM     93  C   UNL A   1      31.805  26.278  21.733  1.00  0.00     0.029 A 
ATOM     94  C   UNL A   1      33.609  25.415  23.073  1.00  0.00     0.001 A 
ATOM     95  C   UNL A   1      32.807  25.328  21.944  1.00  0.00     0.002 A 
BRANCH  89  96
ATOM     96  C   UNL A   1      29.388  30.181  22.778  1.00  0.00     0.011 A 
ATOM     97  C   UNL A   1      28.323  30.767  23.526  1.00  0.00     0.022 A 
ATOM     98  C   UNL A   1      29.418  30.661  21.481  1.00  0.00     0.075 A 
ATOM     99  C   UNL A   1      27.606  31.685  22.791  1.00  0.00     0.065 A 
ATOM    100  S   UNL A   1      28.198  31.832  21.193  1.00  0.00    -0.152 S 
ENDBRANCH  89  96
ENDBRANCH  84  86
ENDBRANCH  83  84
ENDBRANCH  82  83
ENDBRANCH  81  82
ENDBRANCH  80  81
ENDBRANCH  79  80
ENDBRANCH  78  79
ENDBRANCH  77  78
ENDBRANCH   1  77
TORSDOF 24
ENDMDL
MODEL 2
REMARK VINA RESULT:      -9.2      5.790     11.982
REMARK SMILES O=C(OCCOCCOCCOCCOC(=O)c1cc(-c2ccsc2)nc2ccccc12)c1ccc(-c2c3nc(c(-c4c(F)cc(S(=O)(=O)[O-])cc4F)c4ccc([nH]4)c(-c4c(F)cc(S(=O)(=O)[O-])cc4F)c4nc(c(-c5c(F)cc(S(=O)(=O)[O-])cc5F)c5ccc2[nH]5)C=C4)C=C3)cc1
REMARK SMILES IDX 8 1 7 2 6 3 5 4 4 5 3 6 2 7 1 8 33 9 34 10 98 11 35 12 97 13
REMARK SMILES IDX 36 14 37 15 38 16 91 17 39 18 96 19 90 20 92 21 40 22 95 23
REMARK SMILES IDX 89 24 88 25 41 27 75 28 54 29 74 30 55 31 58 32 73 33 93 34
REMARK SMILES IDX 56 35 57 36 72 38 94 39 59 40 42 41 43 42 52 43 44 44 45 45
REMARK SMILES IDX 51 46 53 47 46 48 47 49 48 50 49 51 50 52 76 53 77 54 86 55
REMARK SMILES IDX 78 56 79 57 85 58 87 59 80 60 81 61 82 62 83 63 84 64 60 65
REMARK SMILES IDX 61 66 70 67 62 68 63 69 69 70 71 71 64 72 65 73 66 74 67 75
REMARK SMILES IDX 68 76 9 77 10 78 11 79 12 80 13 81 14 82 15 83 16 84 17 85
REMARK SMILES IDX 18 86 19 87 32 88 20 89 27 90 31 91 26 92 28 93 30 94 29 95
REMARK SMILES IDX 21 96 22 97 25 98 23 99 24 100
REMARK H PARENT 92 26 58 37
REMARK Flexibility Score: inf
ROOT
ATOM      1  C   UNL A   1      48.114  26.177  24.268  1.00  0.00     0.188 C 
ENDROOT
BRANCH   1   2
ATOM      2  C   UNL A   1      48.515  27.561  24.792  1.00  0.00     0.188 C 
BRANCH   2   3
ATOM      3  O   UNL A   1      49.674  27.491  25.603  1.00  0.00    -0.376 OA
BRANCH   3   4
ATOM      4  C   UNL A   1      50.978  27.690  25.091  1.00  0.00     0.202 C 
BRANCH   4   5
ATOM      5  C   UNL A   1      51.832  26.476  24.769  1.00  0.00     0.261 C 
BRANCH   5   6
ATOM      6  O   UNL A   1      52.024  25.497  25.811  1.00  0.00    -0.460 OA
BRANCH   6   7
ATOM      7  C   UNL A   1      52.287  25.567  27.134  1.00  0.00     0.338 C 
ATOM      8  O   UNL A   1      53.452  25.453  27.508  1.00  0.00    -0.246 OA
BRANCH   7   9
ATOM      9  C   UNL A   1      51.252  25.801  28.168  1.00  0.00     0.060 A 
ATOM     10  C   UNL A   1      50.087  25.060  28.300  1.00  0.00     0.016 A 
ATOM     11  C   UNL A   1      51.526  26.757  29.153  1.00  0.00     0.016 A 
ATOM     12  C   UNL A   1      49.091  25.415  29.182  1.00  0.00     0.010 A 
ATOM     13  C   UNL A   1      50.585  27.037  30.147  1.00  0.00     0.010 A 
ATOM     14  C   UNL A   1      49.327  26.423  30.102  1.00  0.00    -0.014 A 
BRANCH  14  15
ATOM     15  C   UNL A   1      48.166  26.943  30.843  1.00  0.00     0.031 A 
ATOM     16  C   UNL A   1      47.327  27.978  30.153  1.00  0.00     0.074 A 
ATOM     17  C   UNL A   1      47.790  26.372  32.003  1.00  0.00     0.049 A 
ATOM     18  N   UNL A   1      46.311  28.656  30.605  1.00  0.00    -0.248 NA
ATOM     19  C   UNL A   1      47.681  28.292  28.755  1.00  0.00     0.031 C 
ATOM     20  C   UNL A   1      48.465  25.239  32.649  1.00  0.00     0.029 A 
ATOM     21  N   UNL A   1      46.725  26.628  32.819  1.00  0.00    -0.354 N 
ATOM     22  C   UNL A   1      45.954  29.520  29.577  1.00  0.00     0.074 A 
ATOM     23  C   UNL A   1      46.857  29.287  28.477  1.00  0.00     0.031 C 
ATOM     24  C   UNL A   1      47.770  24.874  33.736  1.00  0.00     0.029 A 
ATOM     25  C   UNL A   1      46.666  25.807  33.920  1.00  0.00     0.049 A 
ATOM     26  H   UNL A   1      46.063  27.333  32.637  1.00  0.00     0.167 HD
ATOM     27  C   UNL A   1      44.960  30.435  29.571  1.00  0.00     0.037 A 
ATOM     28  C   UNL A   1      45.836  25.847  34.977  1.00  0.00     0.037 A 
ATOM     29  C   UNL A   1      44.063  30.601  30.681  1.00  0.00     0.049 A 
ATOM     30  C   UNL A   1      44.792  26.932  34.988  1.00  0.00     0.074 A 
ATOM     31  C   UNL A   1      43.044  31.518  30.842  1.00  0.00     0.029 A 
ATOM     32  N   UNL A   1      44.084  29.810  31.825  1.00  0.00    -0.354 N 
ATOM     33  N   UNL A   1      44.523  27.823  34.061  1.00  0.00    -0.248 NA
ATOM     34  C   UNL A   1      43.955  27.033  36.186  1.00  0.00     0.031 C 
ATOM     35  C   UNL A   1      42.486  31.317  32.109  1.00  0.00     0.029 A 
ATOM     36  C   UNL A   1      43.109  30.231  32.708  1.00  0.00     0.049 A 
ATOM     37  H   UNL A   1      44.703  29.062  31.982  1.00  0.00     0.167 HD
ATOM     38  C   UNL A   1      43.466  28.577  34.551  1.00  0.00     0.074 A 
ATOM     39  C   UNL A   1      43.139  28.023  35.853  1.00  0.00     0.031 C 
ATOM     40  C   UNL A   1      42.820  29.630  33.988  1.00  0.00     0.037 A 
BRANCH  27  41
ATOM     41  C   UNL A   1      44.878  31.358  28.388  1.00  0.00     0.058 A 
ATOM     42  C   UNL A   1      45.474  32.630  28.372  1.00  0.00     0.135 A 
ATOM     43  C   UNL A   1      44.138  30.972  27.259  1.00  0.00     0.135 A 
ATOM     44  F   UNL A   1      46.158  33.070  29.440  1.00  0.00    -0.206 F 
ATOM     45  C   UNL A   1      45.311  33.497  27.295  1.00  0.00     0.059 A 
ATOM     46  C   UNL A   1      43.987  31.809  26.158  1.00  0.00     0.059 A 
ATOM     47  F   UNL A   1      43.528  29.776  27.227  1.00  0.00    -0.206 F 
ATOM     48  C   UNL A   1      44.565  33.077  26.192  1.00  0.00     0.060 A 
BRANCH  48  49
ATOM     49  S   UNL A   1      44.355  34.212  24.804  1.00  0.00     0.124 S 
ATOM     50  O   UNL A   1      45.666  34.851  24.749  1.00  0.00    -0.237 OA
ATOM     51  O   UNL A   1      44.047  33.303  23.704  1.00  0.00    -0.237 OA
ATOM     52  O   UNL A   1      43.255  35.072  25.230  1.00  0.00    -0.744 OA
ENDBRANCH  48  49
ENDBRANCH  27  41
BRANCH  28  53
ATOM     53  C   UNL A   1      45.993  24.890  36.107  1.00  0.00     0.058 A 
ATOM     54  C   UNL A   1      45.270  23.690  36.157  1.00  0.00     0.135 A 
ATOM     55  C   UNL A   1      46.877  25.156  37.169  1.00  0.00     0.135 A 
ATOM     56  F   UNL A   1      44.409  23.385  35.174  1.00  0.00    -0.206 F 
ATOM     57  C   UNL A   1      45.399  22.799  37.221  1.00  0.00     0.059 A 
ATOM     58  C   UNL A   1      47.047  24.268  38.227  1.00  0.00     0.059 A 
ATOM     59  F   UNL A   1      47.606  26.283  37.174  1.00  0.00    -0.206 F 
ATOM     60  C   UNL A   1      46.292  23.098  38.252  1.00  0.00     0.060 A 
BRANCH  60  61
ATOM     61  S   UNL A   1      46.470  21.927  39.615  1.00  0.00     0.124 S 
ATOM     62  O   UNL A   1      45.480  22.426  40.562  1.00  0.00    -0.237 OA
ATOM     63  O   UNL A   1      46.154  20.656  38.971  1.00  0.00    -0.237 OA
ATOM     64  O   UNL A   1      47.864  22.089  40.018  1.00  0.00    -0.744 OA
ENDBRANCH  60  61
ENDBRANCH  28  53
BRANCH  40  65
ATOM     65  C   UNL A   1      41.663  30.198  34.755  1.00  0.00     0.058 A 
ATOM     66  C   UNL A   1      41.835  31.194  35.726  1.00  0.00     0.135 A 
ATOM     67  C   UNL A   1      40.357  29.767  34.468  1.00  0.00     0.135 A 
ATOM     68  F   UNL A   1      43.065  31.632  36.037  1.00  0.00    -0.206 F 
ATOM     69  C   UNL A   1      40.751  31.721  36.415  1.00  0.00     0.059 A 
ATOM     70  C   UNL A   1      39.257  30.308  35.117  1.00  0.00     0.059 A 
ATOM     71  F   UNL A   1      40.144  28.826  33.534  1.00  0.00    -0.206 F 
ATOM     72  C   UNL A   1      39.466  31.273  36.102  1.00  0.00     0.060 A 
BRANCH  72  73
ATOM     73  S   UNL A   1      38.064  31.984  36.984  1.00  0.00     0.124 S 
ATOM     74  O   UNL A   1      37.242  32.471  35.882  1.00  0.00    -0.237 OA
ATOM     75  O   UNL A   1      37.537  30.832  37.710  1.00  0.00    -0.237 OA
ATOM     76  O   UNL A   1      38.676  33.016  37.816  1.00  0.00    -0.744 OA
ENDBRANCH  72  73
ENDBRANCH  40  65
ENDBRANCH  14  15
ENDBRANCH   7   9
ENDBRANCH   6   7
ENDBRANCH   5   6
ENDBRANCH   4   5
ENDBRANCH   3   4
ENDBRANCH   2   3
ENDBRANCH   1   2
BRANCH   1  77
ATOM     77  O   UNL A   1      48.107  25.121  25.226  1.00  0.00    -0.377 OA
BRANCH  77  78
ATOM     78  C   UNL A   1      46.842  24.523  25.504  1.00  0.00     0.188 C 
BRANCH  78  79
ATOM     79  C   UNL A   1      46.382  24.365  26.982  1.00  0.00     0.188 C 
BRANCH  79  80
ATOM     80  O   UNL A   1      45.584  23.219  27.215  1.00  0.00    -0.376 OA
BRANCH  80  81
ATOM     81  C   UNL A   1      44.697  23.232  28.322  1.00  0.00     0.202 C 
BRANCH  81  82
ATOM     82  C   UNL A   1      44.863  24.258  29.462  1.00  0.00     0.261 C 
BRANCH  82  83
ATOM     83  O   UNL A   1      43.732  25.087  29.769  1.00  0.00    -0.460 OA
BRANCH  83  84
ATOM     84  C   UNL A   1      43.451  26.124  28.944  1.00  0.00     0.338 C 
ATOM     85  O   UNL A   1      44.239  26.881  28.424  1.00  0.00    -0.246 OA
BRANCH  84  86
ATOM     86  C   UNL A   1      42.007  26.066  28.602  1.00  0.00     0.071 A 
ATOM     87  C   UNL A   1      41.585  24.977  27.828  1.00  0.00     0.045 A 
ATOM     88  C   UNL A   1      41.081  27.020  29.073  1.00  0.00     0.015 A 
ATOM     89  C   UNL A   1      40.230  24.842  27.601  1.00  0.00     0.073 A 
ATOM     90  C   UNL A   1      39.744  26.841  28.662  1.00  0.00     0.072 A 
ATOM     91  C   UNL A   1      41.403  28.125  29.898  1.00  0.00     0.011 A 
ATOM     92  N   UNL A   1      39.323  25.771  27.968  1.00  0.00    -0.248 NA
ATOM     93  C   UNL A   1      38.812  27.819  28.985  1.00  0.00     0.029 A 
ATOM     94  C   UNL A   1      40.442  29.075  30.234  1.00  0.00     0.001 A 
ATOM     95  C   UNL A   1      39.150  28.939  29.747  1.00  0.00     0.002 A 
BRANCH  89  96
ATOM     96  C   UNL A   1      39.682  23.646  26.985  1.00  0.00     0.011 A 
ATOM     97  C   UNL A   1      40.305  22.364  26.899  1.00  0.00     0.022 A 
ATOM     98  C   UNL A   1      38.461  23.657  26.334  1.00  0.00     0.075 A 
ATOM     99  C   UNL A   1      39.533  21.446  26.221  1.00  0.00     0.065 A 
ATOM    100  S   UNL A   1      38.064  22.127  25.668  1.00  0.00    -0.152 S 
ENDBRANCH  89  96
ENDBRANCH  84  86
ENDBRANCH  83  84
ENDBRANCH  82  83
ENDBRANCH  81  82
ENDBRANCH  80  81
ENDBRANCH  79  80
ENDBRANCH  78  79
ENDBRANCH  77  78
ENDBRANCH   1  77
TORSDOF 24
ENDMDL
MODEL 3
REMARK VINA RESULT:      -9.0      5.172     12.899
REMARK SMILES O=C(OCCOCCOCCOCCOC(=O)c1cc(-c2ccsc2)nc2ccccc12)c1ccc(-c2c3nc(c(-c4c(F)cc(S(=O)(=O)[O-])cc4F)c4ccc([nH]4)c(-c4c(F)cc(S(=O)(=O)[O-])cc4F)c4nc(c(-c5c(F)cc(S(=O)(=O)[O-])cc5F)c5ccc2[nH]5)C=C4)C=C3)cc1
REMARK SMILES IDX 8 1 7 2 6 3 5 4 4 5 3 6 2 7 1 8 33 9 34 10 98 11 35 12 97 13
REMARK SMILES IDX 36 14 37 15 38 16 91 17 39 18 96 19 90 20 92 21 40 22 95 23
REMARK SMILES IDX 89 24 88 25 41 27 75 28 54 29 74 30 55 31 58 32 73 33 93 34
REMARK SMILES IDX 56 35 57 36 72 38 94 39 59 40 42 41 43 42 52 43 44 44 45 45
REMARK SMILES IDX 51 46 53 47 46 48 47 49 48 50 49 51 50 52 76 53 77 54 86 55
REMARK SMILES IDX 78 56 79 57 85 58 87 59 80 60 81 61 82 62 83 63 84 64 60 65
REMARK SMILES IDX 61 66 70 67 62 68 63 69 69 70 71 71 64 72 65 73 66 74 67 75
REMARK SMILES IDX 68 76 9 77 10 78 11 79 12 80 13 81 14 82 15 83 16 84 17 85
REMARK SMILES IDX 18 86 19 87 32 88 20 89 27 90 31 91 26 92 28 93 30 94 29 95
REMARK SMILES IDX 21 96 22 97 25 98 23 99 24 100
REMARK H PARENT 92 26 58 37
REMARK Flexibility Score: inf
ROOT
ATOM      1  C   UNL A   1      47.053  26.259  25.095  1.00  0.00     0.188 C 
ENDROOT
BRANCH   1   2
ATOM      2  C   UNL A   1      46.765  24.785  25.403  1.00  0.00     0.188 C 
BRANCH   2   3
ATOM      3  O   UNL A   1      46.339  24.089  24.245  1.00  0.00    -0.376 OA
BRANCH   3   4
ATOM      4  C   UNL A   1      46.146  22.687  24.223  1.00  0.00     0.202 C 
BRANCH   4   5
ATOM      5  C   UNL A   1      44.780  22.142  23.844  1.00  0.00     0.261 C 
BRANCH   5   6
ATOM      6  O   UNL A   1      43.622  22.908  24.235  1.00  0.00    -0.460 OA
BRANCH   6   7
ATOM      7  C   UNL A   1      42.732  22.822  25.248  1.00  0.00     0.338 C 
ATOM      8  O   UNL A   1      42.193  21.738  25.466  1.00  0.00    -0.246 OA
BRANCH   7   9
ATOM      9  C   UNL A   1      42.382  23.955  26.136  1.00  0.00     0.060 A 
ATOM     10  C   UNL A   1      42.773  25.269  25.927  1.00  0.00     0.016 A 
ATOM     11  C   UNL A   1      41.497  23.702  27.189  1.00  0.00     0.016 A 
ATOM     12  C   UNL A   1      42.547  26.256  26.861  1.00  0.00     0.010 A 
ATOM     13  C   UNL A   1      41.140  24.724  28.072  1.00  0.00     0.010 A 
ATOM     14  C   UNL A   1      41.742  25.984  27.955  1.00  0.00    -0.014 A 
BRANCH  14  15
ATOM     15  C   UNL A   1      41.737  26.968  29.049  1.00  0.00     0.031 A 
ATOM     16  C   UNL A   1      42.913  26.954  29.982  1.00  0.00     0.074 A 
ATOM     17  C   UNL A   1      40.807  27.941  29.082  1.00  0.00     0.049 A 
ATOM     18  N   UNL A   1      43.119  27.648  31.065  1.00  0.00    -0.248 NA
ATOM     19  C   UNL A   1      44.013  26.030  29.645  1.00  0.00     0.031 C 
ATOM     20  C   UNL A   1      39.729  28.118  28.101  1.00  0.00     0.029 A 
ATOM     21  N   UNL A   1      40.645  28.992  29.940  1.00  0.00    -0.354 N 
ATOM     22  C   UNL A   1      44.330  27.193  31.572  1.00  0.00     0.074 A 
ATOM     23  C   UNL A   1      44.817  26.167  30.685  1.00  0.00     0.031 C 
ATOM     24  C   UNL A   1      39.049  29.237  28.391  1.00  0.00     0.029 A 
ATOM     25  C   UNL A   1      39.573  29.794  29.631  1.00  0.00     0.049 A 
ATOM     26  H   UNL A   1      41.240  29.158  30.707  1.00  0.00     0.167 HD
ATOM     27  C   UNL A   1      44.964  27.602  32.693  1.00  0.00     0.037 A 
ATOM     28  C   UNL A   1      39.054  30.833  30.310  1.00  0.00     0.037 A 
ATOM     29  C   UNL A   1      44.453  28.657  33.522  1.00  0.00     0.049 A 
ATOM     30  C   UNL A   1      39.727  31.212  31.601  1.00  0.00     0.074 A 
ATOM     31  C   UNL A   1      44.955  29.144  34.712  1.00  0.00     0.029 A 
ATOM     32  N   UNL A   1      43.312  29.396  33.229  1.00  0.00    -0.354 N 
ATOM     33  N   UNL A   1      40.815  30.709  32.140  1.00  0.00    -0.248 NA
ATOM     34  C   UNL A   1      39.100  32.278  32.387  1.00  0.00     0.031 C 
ATOM     35  C   UNL A   1      44.084  30.140  35.167  1.00  0.00     0.029 A 
ATOM     36  C   UNL A   1      43.079  30.322  34.227  1.00  0.00     0.049 A 
ATOM     37  H   UNL A   1      42.752  29.276  32.429  1.00  0.00     0.167 HD
ATOM     38  C   UNL A   1      41.020  31.416  33.316  1.00  0.00     0.074 A 
ATOM     39  C   UNL A   1      39.948  32.391  33.399  1.00  0.00     0.031 C 
ATOM     40  C   UNL A   1      41.999  31.280  34.248  1.00  0.00     0.037 A 
BRANCH  27  41
ATOM     41  C   UNL A   1      46.192  26.840  33.108  1.00  0.00     0.058 A 
ATOM     42  C   UNL A   1      46.137  25.679  33.896  1.00  0.00     0.135 A 
ATOM     43  C   UNL A   1      47.460  27.321  32.745  1.00  0.00     0.135 A 
ATOM     44  F   UNL A   1      44.954  25.197  34.309  1.00  0.00    -0.206 F 
ATOM     45  C   UNL A   1      47.295  25.042  34.335  1.00  0.00     0.059 A 
ATOM     46  C   UNL A   1      48.630  26.684  33.146  1.00  0.00     0.059 A 
ATOM     47  F   UNL A   1      47.574  28.440  32.010  1.00  0.00    -0.206 F 
ATOM     48  C   UNL A   1      48.537  25.553  33.955  1.00  0.00     0.060 A 
BRANCH  48  49
ATOM     49  S   UNL A   1      50.031  24.723  34.536  1.00  0.00     0.124 S 
ATOM     50  O   UNL A   1      51.075  25.581  33.985  1.00  0.00    -0.237 OA
ATOM     51  O   UNL A   1      49.869  24.772  35.985  1.00  0.00    -0.237 OA
ATOM     52  O   UNL A   1      49.935  23.393  33.942  1.00  0.00    -0.744 OA
ENDBRANCH  48  49
ENDBRANCH  27  41
BRANCH  28  53
ATOM     53  C   UNL A   1      37.831  31.528  29.821  1.00  0.00     0.058 A 
ATOM     54  C   UNL A   1      36.563  30.938  29.923  1.00  0.00     0.135 A 
ATOM     55  C   UNL A   1      37.903  32.807  29.239  1.00  0.00     0.135 A 
ATOM     56  F   UNL A   1      36.434  29.717  30.466  1.00  0.00    -0.206 F 
ATOM     57  C   UNL A   1      35.418  31.575  29.450  1.00  0.00     0.059 A 
ATOM     58  C   UNL A   1      36.770  33.477  28.788  1.00  0.00     0.059 A 
ATOM     59  F   UNL A   1      39.087  33.429  29.123  1.00  0.00    -0.206 F 
ATOM     60  C   UNL A   1      35.532  32.846  28.885  1.00  0.00     0.060 A 
BRANCH  60  61
ATOM     61  S   UNL A   1      34.039  33.674  28.297  1.00  0.00     0.124 S 
ATOM     62  O   UNL A   1      33.324  32.574  27.661  1.00  0.00    -0.237 OA
ATOM     63  O   UNL A   1      33.461  34.181  29.537  1.00  0.00    -0.237 OA
ATOM     64  O   UNL A   1      34.556  34.697  27.391  1.00  0.00    -0.744 OA
ENDBRANCH  60  61
ENDBRANCH  28  53
BRANCH  40  65
ATOM     65  C   UNL A   1      41.979  32.249  35.392  1.00  0.00     0.058 A 
ATOM     66  C   UNL A   1      41.193  32.033  36.533  1.00  0.00     0.135 A 
ATOM     67  C   UNL A   1      42.803  33.385  35.359  1.00  0.00     0.135 A 
ATOM     68  F   UNL A   1      40.386  30.963  36.607  1.00  0.00    -0.206 F 
ATOM     69  C   UNL A   1      41.199  32.932  37.591  1.00  0.00     0.059 A 
ATOM     70  C   UNL A   1      42.853  34.277  36.420  1.00  0.00     0.059 A 
ATOM     71  F   UNL A   1      43.584  33.624  34.292  1.00  0.00    -0.206 F 
ATOM     72  C   UNL A   1      42.034  34.050  37.526  1.00  0.00     0.060 A 
BRANCH  72  73
ATOM     73  S   UNL A   1      42.052  35.196  38.917  1.00  0.00     0.124 S 
ATOM     74  O   UNL A   1      41.564  34.349  40.000  1.00  0.00    -0.237 OA
ATOM     75  O   UNL A   1      43.462  35.573  38.990  1.00  0.00    -0.237 OA
ATOM     76  O   UNL A   1      41.147  36.259  38.493  1.00  0.00    -0.744 OA
ENDBRANCH  72  73
ENDBRANCH  40  65
ENDBRANCH  14  15
ENDBRANCH   7   9
ENDBRANCH   6   7
ENDBRANCH   5   6
ENDBRANCH   4   5
ENDBRANCH   3   4
ENDBRANCH   2   3
ENDBRANCH   1   2
BRANCH   1  77
ATOM     77  O   UNL A   1      46.672  27.195  26.101  1.00  0.00    -0.377 OA
BRANCH  77  78
ATOM     78  C   UNL A   1      46.166  28.448  25.643  1.00  0.00     0.188 C 
BRANCH  78  79
ATOM     79  C   UNL A   1      45.814  29.553  26.682  1.00  0.00     0.188 C 
BRANCH  79  80
ATOM     80  O   UNL A   1      46.861  29.838  27.592  1.00  0.00    -0.376 OA
BRANCH  80  81
ATOM     81  C   UNL A   1      46.726  29.390  28.931  1.00  0.00     0.202 C 
BRANCH  81  82
ATOM     82  C   UNL A   1      45.743  30.073  29.904  1.00  0.00     0.261 C 
BRANCH  82  83
ATOM     83  O   UNL A   1      45.336  31.414  29.591  1.00  0.00    -0.460 OA
BRANCH  83  84
ATOM     84  C   UNL A   1      44.012  31.673  29.470  1.00  0.00     0.338 C 
ATOM     85  O   UNL A   1      43.092  30.948  29.775  1.00  0.00    -0.246 OA
BRANCH  84  86
ATOM     86  C   UNL A   1      43.853  33.099  29.086  1.00  0.00     0.071 A 
ATOM     87  C   UNL A   1      43.731  34.024  30.131  1.00  0.00     0.045 A 
ATOM     88  C   UNL A   1      43.877  33.526  27.741  1.00  0.00     0.015 A 
ATOM     89  C   UNL A   1      43.703  35.364  29.797  1.00  0.00     0.073 A 
ATOM     90  C   UNL A   1      43.707  34.909  27.527  1.00  0.00     0.072 A 
ATOM     91  C   UNL A   1      44.042  32.673  26.623  1.00  0.00     0.011 A 
ATOM     92  N   UNL A   1      43.647  35.807  28.524  1.00  0.00    -0.248 NA
ATOM     93  C   UNL A   1      43.592  35.371  26.224  1.00  0.00     0.029 A 
ATOM     94  C   UNL A   1      43.954  33.168  25.324  1.00  0.00     0.001 A 
ATOM     95  C   UNL A   1      43.693  34.516  25.124  1.00  0.00     0.002 A 
BRANCH  89  96
ATOM     96  C   UNL A   1      43.781  36.398  30.814  1.00  0.00     0.011 A 
ATOM     97  C   UNL A   1      43.924  37.802  30.598  1.00  0.00     0.022 A 
ATOM     98  C   UNL A   1      43.787  36.093  32.164  1.00  0.00     0.075 A 
ATOM     99  C   UNL A   1      44.001  38.512  31.777  1.00  0.00     0.065 A 
ATOM    100  S   UNL A   1      43.922  37.492  33.147  1.00  0.00    -0.152 S 
ENDBRANCH  89  96
ENDBRANCH  84  86
ENDBRANCH  83  84
ENDBRANCH  82  83
ENDBRANCH  81  82
ENDBRANCH  80  81
ENDBRANCH  79  80
ENDBRANCH  78  79
ENDBRANCH  77  78
ENDBRANCH   1  77
TORSDOF 24
ENDMDL
