MODEL 1
REMARK VINA RESULT:     -10.5      0.000      0.000
REMARK SMILES Cn1ccc(NC(=O)[C@@H]2CCCC[C@@H]2C(=O)OCCOCCOCCOCCOC(=O)c2ccc(-c3c4nc(c(-c5c(F)cc(S(=O)(=O)[O-])cc5F)c5ccc([nH]5)c(-c5c(F)cc(S(=O)(=O)[O-])cc5F)c5nc(c(-c6c(F)cc(S(=O)(=O)[O-])cc6F)c6ccc3[nH]6)C=C5)C=C4)cc2)n1
REMARK SMILES IDX 24 1 23 2 22 3 21 4 20 5 19 6 18 7 17 8 15 9 16 10 14 11
REMARK SMILES IDX 9 12 10 13 11 14 13 15 12 16 7 17 6 18 8 20 5 21 1 22 2 23
REMARK SMILES IDX 3 24 98 25 4 26 25 27 26 28 27 29 28 30 29 31 30 32 31 33
REMARK SMILES IDX 32 34 33 35 97 36 34 37 96 38 35 39 36 40 37 41 90 42 38 43
REMARK SMILES IDX 95 44 89 45 91 46 39 47 94 48 88 49 87 50 40 52 74 53 53 54
REMARK SMILES IDX 73 55 54 56 57 57 72 58 92 59 55 60 56 61 71 63 93 64 58 65
REMARK SMILES IDX 41 66 42 67 51 68 43 69 44 70 50 71 52 72 45 73 46 74 47 75
REMARK SMILES IDX 48 76 49 77 75 78 76 79 85 80 77 81 78 82 84 83 86 84 79 85
REMARK SMILES IDX 80 86 81 87 82 88 83 89 59 90 60 91 69 92 61 93 62 94 68 95
REMARK SMILES IDX 70 96 63 97 64 98 65 99 66 100 67 101
REMARK H PARENT 6 19 91 51 57 62
REMARK Flexibility Score: inf
ROOT
ATOM      1  C   UNL A   1      40.456  21.297  27.237  1.00  0.00     0.188 C 
ENDROOT
BRANCH   1   2
ATOM      2  O   UNL A   1      39.569  22.257  26.688  1.00  0.00    -0.377 OA
BRANCH   2   3
ATOM      3  C   UNL A   1      38.593  21.860  25.753  1.00  0.00     0.188 C 
BRANCH   3   4
ATOM      4  C   UNL A   1      37.340  22.722  25.610  1.00  0.00     0.188 C 
BRANCH   4   5
ATOM      5  O   UNL A   1      36.742  22.874  24.340  1.00  0.00    -0.376 OA
BRANCH   5   6
ATOM      6  C   UNL A   1      35.345  22.635  24.203  1.00  0.00     0.202 C 
BRANCH   6   7
ATOM      7  C   UNL A   1      34.522  23.373  23.127  1.00  0.00     0.261 C 
BRANCH   7   8
ATOM      8  O   UNL A   1      34.053  24.699  23.483  1.00  0.00    -0.463 OA
BRANCH   8   9
ATOM      9  C   UNL A   1      33.223  25.306  22.607  1.00  0.00     0.309 C 
ATOM     10  O   UNL A   1      33.582  25.671  21.487  1.00  0.00    -0.252 OA
BRANCH   9  11
ATOM     11  C   UNL A   1      31.764  25.505  23.053  1.00  0.00     0.111 C 
ATOM     12  C   UNL A   1      31.194  26.771  23.761  1.00  0.00     0.093 C 
ATOM     13  C   UNL A   1      30.848  26.557  25.258  1.00  0.00     0.014 C 
ATOM     14  C   UNL A   1      30.221  25.214  25.611  1.00  0.00     0.001 C 
ATOM     15  C   UNL A   1      31.134  24.177  23.525  1.00  0.00     0.016 C 
ATOM     16  C   UNL A   1      30.956  24.026  25.021  1.00  0.00     0.001 C 
BRANCH  12  17
ATOM     17  C   UNL A   1      31.961  28.110  23.616  1.00  0.00     0.229 C 
ATOM     18  N   UNL A   1      31.422  29.199  22.998  1.00  0.00    -0.309 N 
ATOM     19  H   UNL A   1      32.027  29.968  22.881  1.00  0.00     0.171 HD
ATOM     20  O   UNL A   1      33.094  28.246  24.094  1.00  0.00    -0.274 OA
BRANCH  18  21
ATOM     21  C   UNL A   1      30.150  29.362  22.519  1.00  0.00     0.154 A 
ATOM     22  C   UNL A   1      27.991  31.323  20.694  1.00  0.00     0.173 C 
ATOM     23  N   UNL A   1      28.542  30.250  21.486  1.00  0.00    -0.274 N 
ATOM     24  C   UNL A   1      27.950  29.582  22.513  1.00  0.00     0.110 A 
ATOM     25  N   UNL A   1      29.853  29.989  21.383  1.00  0.00    -0.155 NA
ATOM     26  C   UNL A   1      28.975  28.944  23.181  1.00  0.00     0.068 A 
ENDBRANCH  18  21
ENDBRANCH  12  17
ENDBRANCH   9  11
ENDBRANCH   8   9
ENDBRANCH   7   8
ENDBRANCH   6   7
ENDBRANCH   5   6
ENDBRANCH   4   5
ENDBRANCH   3   4
ENDBRANCH   2   3
ENDBRANCH   1   2
BRANCH   1  27
ATOM     27  C   UNL A   1      41.470  20.658  26.289  1.00  0.00     0.188 C 
BRANCH  27  28
ATOM     28  O   UNL A   1      42.109  21.500  25.324  1.00  0.00    -0.376 OA
BRANCH  28  29
ATOM     29  C   UNL A   1      43.266  22.247  25.709  1.00  0.00     0.202 C 
BRANCH  29  30
ATOM     30  C   UNL A   1      43.154  23.751  25.498  1.00  0.00     0.261 C 
BRANCH  30  31
ATOM     31  O   UNL A   1      42.005  24.266  26.183  1.00  0.00    -0.460 OA
BRANCH  31  32
ATOM     32  C   UNL A   1      41.772  25.583  26.012  1.00  0.00     0.338 C 
ATOM     33  O   UNL A   1      41.444  26.150  24.979  1.00  0.00    -0.246 OA
BRANCH  32  34
ATOM     34  C   UNL A   1      41.795  26.245  27.327  1.00  0.00     0.060 A 
ATOM     35  C   UNL A   1      40.729  26.008  28.203  1.00  0.00     0.016 A 
ATOM     36  C   UNL A   1      42.828  27.120  27.677  1.00  0.00     0.016 A 
ATOM     37  C   UNL A   1      40.654  26.700  29.407  1.00  0.00     0.010 A 
ATOM     38  C   UNL A   1      42.745  27.823  28.876  1.00  0.00     0.010 A 
ATOM     39  C   UNL A   1      41.632  27.650  29.717  1.00  0.00    -0.014 A 
BRANCH  39  40
ATOM     40  C   UNL A   1      41.376  28.624  30.798  1.00  0.00     0.031 A 
ATOM     41  C   UNL A   1      42.230  28.547  32.033  1.00  0.00     0.074 A 
ATOM     42  C   UNL A   1      40.424  29.561  30.668  1.00  0.00     0.049 A 
ATOM     43  N   UNL A   1      42.160  29.242  33.135  1.00  0.00    -0.248 NA
ATOM     44  C   UNL A   1      43.310  27.543  32.023  1.00  0.00     0.031 C 
ATOM     45  C   UNL A   1      39.577  29.747  29.491  1.00  0.00     0.029 A 
ATOM     46  N   UNL A   1      40.003  30.526  31.545  1.00  0.00    -0.354 N 
ATOM     47  C   UNL A   1      43.173  28.755  33.952  1.00  0.00     0.074 A 
ATOM     48  C   UNL A   1      43.825  27.686  33.233  1.00  0.00     0.031 C 
ATOM     49  C   UNL A   1      38.721  30.757  29.728  1.00  0.00     0.029 A 
ATOM     50  C   UNL A   1      38.938  31.259  31.084  1.00  0.00     0.049 A 
ATOM     51  H   UNL A   1      40.424  30.679  32.423  1.00  0.00     0.167 HD
ATOM     52  C   UNL A   1      43.529  29.173  35.190  1.00  0.00     0.037 A 
ATOM     53  C   UNL A   1      38.208  32.207  31.703  1.00  0.00     0.037 A 
ATOM     54  C   UNL A   1      42.861  30.238  35.890  1.00  0.00     0.049 A 
ATOM     55  C   UNL A   1      38.574  32.604  33.111  1.00  0.00     0.074 A 
ATOM     56  C   UNL A   1      43.143  30.753  37.142  1.00  0.00     0.029 A 
ATOM     57  N   UNL A   1      41.770  30.943  35.403  1.00  0.00    -0.354 N 
ATOM     58  N   UNL A   1      39.547  32.154  33.869  1.00  0.00    -0.248 NA
ATOM     59  C   UNL A   1      37.748  33.639  33.745  1.00  0.00     0.031 C 
ATOM     60  C   UNL A   1      42.185  31.727  37.436  1.00  0.00     0.029 A 
ATOM     61  C   UNL A   1      41.348  31.870  36.340  1.00  0.00     0.049 A 
ATOM     62  H   UNL A   1      41.357  30.805  34.519  1.00  0.00     0.167 HD
ATOM     63  C   UNL A   1      39.469  32.873  35.057  1.00  0.00     0.074 A 
ATOM     64  C   UNL A   1      38.362  33.796  34.911  1.00  0.00     0.031 C 
ATOM     65  C   UNL A   1      40.245  32.785  36.167  1.00  0.00     0.037 A 
BRANCH  52  66
ATOM     66  C   UNL A   1      44.661  28.456  35.872  1.00  0.00     0.058 A 
ATOM     67  C   UNL A   1      44.444  27.347  36.707  1.00  0.00     0.135 A 
ATOM     68  C   UNL A   1      45.988  28.868  35.666  1.00  0.00     0.135 A 
ATOM     69  F   UNL A   1      43.197  26.923  36.960  1.00  0.00    -0.206 F 
ATOM     70  C   UNL A   1      45.501  26.689  37.331  1.00  0.00     0.059 A 
ATOM     71  C   UNL A   1      47.061  28.205  36.254  1.00  0.00     0.059 A 
ATOM     72  F   UNL A   1      46.253  29.927  34.885  1.00  0.00    -0.206 F 
ATOM     73  C   UNL A   1      46.805  27.123  37.095  1.00  0.00     0.060 A 
BRANCH  73  74
ATOM     74  S   UNL A   1      48.165  26.247  37.898  1.00  0.00     0.124 S 
ATOM     75  O   UNL A   1      48.416  25.166  36.949  1.00  0.00    -0.237 OA
ATOM     76  O   UNL A   1      49.196  27.278  37.972  1.00  0.00    -0.237 OA
ATOM     77  O   UNL A   1      47.598  25.838  39.178  1.00  0.00    -0.744 OA
ENDBRANCH  73  74
ENDBRANCH  52  66
BRANCH  53  78
ATOM     78  C   UNL A   1      37.052  32.831  31.004  1.00  0.00     0.058 A 
ATOM     79  C   UNL A   1      37.230  33.917  30.135  1.00  0.00     0.135 A 
ATOM     80  C   UNL A   1      35.747  32.348  31.187  1.00  0.00     0.135 A 
ATOM     81  F   UNL A   1      38.456  34.421  29.933  1.00  0.00    -0.206 F 
ATOM     82  C   UNL A   1      36.154  34.513  29.484  1.00  0.00     0.059 A 
ATOM     83  C   UNL A   1      34.659  32.908  30.525  1.00  0.00     0.059 A 
ATOM     84  F   UNL A   1      35.522  31.302  31.999  1.00  0.00    -0.206 F 
ATOM     85  C   UNL A   1      34.872  33.997  29.682  1.00  0.00     0.060 A 
BRANCH  85  86
ATOM     86  S   UNL A   1      33.491  34.744  28.790  1.00  0.00     0.124 S 
ATOM     87  O   UNL A   1      33.103  33.665  27.889  1.00  0.00    -0.237 OA
ATOM     88  O   UNL A   1      32.556  35.042  29.871  1.00  0.00    -0.237 OA
ATOM     89  O   UNL A   1      34.095  35.912  28.155  1.00  0.00    -0.744 OA
ENDBRANCH  85  86
ENDBRANCH  53  78
BRANCH  65  90
ATOM     90  C   UNL A   1      39.955  33.737  37.296  1.00  0.00     0.058 A 
ATOM     91  C   UNL A   1      40.564  34.997  37.381  1.00  0.00     0.135 A 
ATOM     92  C   UNL A   1      39.002  33.403  38.273  1.00  0.00     0.135 A 
ATOM     93  F   UNL A   1      41.486  35.365  36.476  1.00  0.00    -0.206 F 
ATOM     94  C   UNL A   1      40.261  35.883  38.410  1.00  0.00     0.059 A 
ATOM     95  C   UNL A   1      38.657  34.286  39.291  1.00  0.00     0.059 A 
ATOM     96  F   UNL A   1      38.378  32.214  38.233  1.00  0.00    -0.206 F 
ATOM     97  C   UNL A   1      39.303  35.520  39.358  1.00  0.00     0.060 A 
BRANCH  97  98
ATOM     98  S   UNL A   1      38.893  36.694  40.667  1.00  0.00     0.124 S 
ATOM     99  O   UNL A   1      37.992  35.904  41.498  1.00  0.00    -0.237 OA
ATOM    100  O   UNL A   1      40.202  36.982  41.245  1.00  0.00    -0.237 OA
ATOM    101  O   UNL A   1      38.274  37.803  39.949  1.00  0.00    -0.744 OA
ENDBRANCH  97  98
ENDBRANCH  65  90
ENDBRANCH  39  40
ENDBRANCH  32  34
ENDBRANCH  31  32
ENDBRANCH  30  31
ENDBRANCH  29  30
ENDBRANCH  28  29
ENDBRANCH  27  28
ENDBRANCH   1  27
TORSDOF 25
ENDMDL
MODEL 2
REMARK VINA RESULT:     -10.2      1.859      2.306
REMARK SMILES Cn1ccc(NC(=O)[C@@H]2CCCC[C@@H]2C(=O)OCCOCCOCCOCCOC(=O)c2ccc(-c3c4nc(c(-c5c(F)cc(S(=O)(=O)[O-])cc5F)c5ccc([nH]5)c(-c5c(F)cc(S(=O)(=O)[O-])cc5F)c5nc(c(-c6c(F)cc(S(=O)(=O)[O-])cc6F)c6ccc3[nH]6)C=C5)C=C4)cc2)n1
REMARK SMILES IDX 24 1 23 2 22 3 21 4 20 5 19 6 18 7 17 8 15 9 16 10 14 11
REMARK SMILES IDX 9 12 10 13 11 14 13 15 12 16 7 17 6 18 8 20 5 21 1 22 2 23
REMARK SMILES IDX 3 24 98 25 4 26 25 27 26 28 27 29 28 30 29 31 30 32 31 33
REMARK SMILES IDX 32 34 33 35 97 36 34 37 96 38 35 39 36 40 37 41 90 42 38 43
REMARK SMILES IDX 95 44 89 45 91 46 39 47 94 48 88 49 87 50 40 52 74 53 53 54
REMARK SMILES IDX 73 55 54 56 57 57 72 58 92 59 55 60 56 61 71 63 93 64 58 65
REMARK SMILES IDX 41 66 42 67 51 68 43 69 44 70 50 71 52 72 45 73 46 74 47 75
REMARK SMILES IDX 48 76 49 77 75 78 76 79 85 80 77 81 78 82 84 83 86 84 79 85
REMARK SMILES IDX 80 86 81 87 82 88 83 89 59 90 60 91 69 92 61 93 62 94 68 95
REMARK SMILES IDX 70 96 63 97 64 98 65 99 66 100 67 101
REMARK H PARENT 6 19 91 51 57 62
REMARK Flexibility Score: inf
ROOT
ATOM      1  C   UNL A   1      40.422  21.092  26.797  1.00  0.00     0.188 C 
ENDROOT
BRANCH   1   2
ATOM      2  O   UNL A   1      39.729  21.737  25.742  1.00  0.00    -0.377 OA
BRANCH   2   3
ATOM      3  C   UNL A   1      38.336  21.930  25.829  1.00  0.00     0.188 C 
BRANCH   3   4
ATOM      4  C   UNL A   1      37.512  21.807  24.549  1.00  0.00     0.188 C 
BRANCH   4   5
ATOM      5  O   UNL A   1      36.263  21.147  24.588  1.00  0.00    -0.376 OA
BRANCH   5   6
ATOM      6  C   UNL A   1      35.453  21.272  25.752  1.00  0.00     0.202 C 
BRANCH   6   7
ATOM      7  C   UNL A   1      33.944  20.958  25.698  1.00  0.00     0.261 C 
BRANCH   7   8
ATOM      8  O   UNL A   1      33.068  22.087  25.445  1.00  0.00    -0.463 OA
BRANCH   8   9
ATOM      9  C   UNL A   1      33.335  23.226  26.120  1.00  0.00     0.309 C 
ATOM     10  O   UNL A   1      33.422  23.274  27.347  1.00  0.00    -0.252 OA
BRANCH   9  11
ATOM     11  C   UNL A   1      33.565  24.495  25.280  1.00  0.00     0.111 C 
ATOM     12  C   UNL A   1      32.630  25.741  25.241  1.00  0.00     0.093 C 
ATOM     13  C   UNL A   1      31.840  25.898  23.915  1.00  0.00     0.014 C 
ATOM     14  C   UNL A   1      32.600  25.552  22.642  1.00  0.00     0.001 C 
ATOM     15  C   UNL A   1      34.234  24.162  23.930  1.00  0.00     0.016 C 
ATOM     16  C   UNL A   1      33.335  24.227  22.713  1.00  0.00     0.001 C 
BRANCH  12  17
ATOM     17  C   UNL A   1      31.662  25.979  26.427  1.00  0.00     0.229 C 
ATOM     18  N   UNL A   1      31.678  27.123  27.168  1.00  0.00    -0.309 N 
ATOM     19  H   UNL A   1      31.083  27.134  27.953  1.00  0.00     0.171 HD
ATOM     20  O   UNL A   1      30.804  25.137  26.723  1.00  0.00    -0.274 OA
BRANCH  18  21
ATOM     21  C   UNL A   1      32.415  28.258  26.963  1.00  0.00     0.154 A 
ATOM     22  C   UNL A   1      35.114  30.154  27.943  1.00  0.00     0.173 C 
ATOM     23  N   UNL A   1      33.949  29.676  27.237  1.00  0.00    -0.274 N 
ATOM     24  C   UNL A   1      32.902  30.406  26.768  1.00  0.00     0.110 A 
ATOM     25  N   UNL A   1      33.721  28.357  27.203  1.00  0.00    -0.155 NA
ATOM     26  C   UNL A   1      31.893  29.496  26.527  1.00  0.00     0.068 A 
ENDBRANCH  18  21
ENDBRANCH  12  17
ENDBRANCH   9  11
ENDBRANCH   8   9
ENDBRANCH   7   8
ENDBRANCH   6   7
ENDBRANCH   5   6
ENDBRANCH   4   5
ENDBRANCH   3   4
ENDBRANCH   2   3
ENDBRANCH   1   2
BRANCH   1  27
ATOM     27  C   UNL A   1      41.838  20.597  26.505  1.00  0.00     0.188 C 
BRANCH  27  28
ATOM     28  O   UNL A   1      42.566  21.231  25.449  1.00  0.00    -0.376 OA
BRANCH  28  29
ATOM     29  C   UNL A   1      43.474  22.288  25.766  1.00  0.00     0.202 C 
BRANCH  29  30
ATOM     30  C   UNL A   1      43.019  23.675  25.330  1.00  0.00     0.261 C 
BRANCH  30  31
ATOM     31  O   UNL A   1      42.047  24.191  26.249  1.00  0.00    -0.460 OA
BRANCH  31  32
ATOM     32  C   UNL A   1      41.709  25.484  26.066  1.00  0.00     0.338 C 
ATOM     33  O   UNL A   1      41.292  26.004  25.041  1.00  0.00    -0.246 OA
BRANCH  32  34
ATOM     34  C   UNL A   1      41.746  26.174  27.366  1.00  0.00     0.060 A 
ATOM     35  C   UNL A   1      40.685  25.959  28.256  1.00  0.00     0.016 A 
ATOM     36  C   UNL A   1      42.785  27.051  27.690  1.00  0.00     0.016 A 
ATOM     37  C   UNL A   1      40.623  26.676  29.445  1.00  0.00     0.010 A 
ATOM     38  C   UNL A   1      42.714  27.779  28.874  1.00  0.00     0.010 A 
ATOM     39  C   UNL A   1      41.608  27.629  29.728  1.00  0.00    -0.014 A 
BRANCH  39  40
ATOM     40  C   UNL A   1      41.364  28.626  30.790  1.00  0.00     0.031 A 
ATOM     41  C   UNL A   1      42.224  28.568  32.022  1.00  0.00     0.074 A 
ATOM     42  C   UNL A   1      40.417  29.566  30.647  1.00  0.00     0.049 A 
ATOM     43  N   UNL A   1      42.165  29.287  33.110  1.00  0.00    -0.248 NA
ATOM     44  C   UNL A   1      43.297  27.557  32.026  1.00  0.00     0.031 C 
ATOM     45  C   UNL A   1      39.564  29.735  29.470  1.00  0.00     0.029 A 
ATOM     46  N   UNL A   1      40.008  30.552  31.506  1.00  0.00    -0.354 N 
ATOM     47  C   UNL A   1      43.180  28.810  33.931  1.00  0.00     0.074 A 
ATOM     48  C   UNL A   1      43.821  27.721  33.230  1.00  0.00     0.031 C 
ATOM     49  C   UNL A   1      38.717  30.755  29.691  1.00  0.00     0.029 A 
ATOM     50  C   UNL A   1      38.945  31.283  31.035  1.00  0.00     0.049 A 
ATOM     51  H   UNL A   1      40.435  30.720  32.378  1.00  0.00     0.167 HD
ATOM     52  C   UNL A   1      43.544  29.250  35.158  1.00  0.00     0.037 A 
ATOM     53  C   UNL A   1      38.224  32.248  31.639  1.00  0.00     0.037 A 
ATOM     54  C   UNL A   1      42.888  30.334  35.840  1.00  0.00     0.049 A 
ATOM     55  C   UNL A   1      38.601  32.671  33.037  1.00  0.00     0.074 A 
ATOM     56  C   UNL A   1      43.181  30.872  37.080  1.00  0.00     0.029 A 
ATOM     57  N   UNL A   1      41.799  31.036  35.344  1.00  0.00    -0.354 N 
ATOM     58  N   UNL A   1      39.576  32.230  33.798  1.00  0.00    -0.248 NA
ATOM     59  C   UNL A   1      37.786  33.725  33.654  1.00  0.00     0.031 C 
ATOM     60  C   UNL A   1      42.230  31.859  37.359  1.00  0.00     0.029 A 
ATOM     61  C   UNL A   1      41.389  31.985  36.265  1.00  0.00     0.049 A 
ATOM     62  H   UNL A   1      41.380  30.883  34.466  1.00  0.00     0.167 HD
ATOM     63  C   UNL A   1      39.509  32.974  34.972  1.00  0.00     0.074 A 
ATOM     64  C   UNL A   1      38.407  33.901  34.813  1.00  0.00     0.031 C 
ATOM     65  C   UNL A   1      40.290  32.903  36.079  1.00  0.00     0.037 A 
BRANCH  52  66
ATOM     66  C   UNL A   1      44.676  28.539  35.848  1.00  0.00     0.058 A 
ATOM     67  C   UNL A   1      44.455  27.463  36.724  1.00  0.00     0.135 A 
ATOM     68  C   UNL A   1      46.006  28.924  35.610  1.00  0.00     0.135 A 
ATOM     69  F   UNL A   1      43.205  27.067  37.008  1.00  0.00    -0.206 F 
ATOM     70  C   UNL A   1      45.510  26.811  37.355  1.00  0.00     0.059 A 
ATOM     71  C   UNL A   1      47.077  28.265  36.206  1.00  0.00     0.059 A 
ATOM     72  F   UNL A   1      46.275  29.952  34.789  1.00  0.00    -0.206 F 
ATOM     73  C   UNL A   1      46.818  27.217  37.086  1.00  0.00     0.060 A 
BRANCH  73  74
ATOM     74  S   UNL A   1      48.176  26.348  37.900  1.00  0.00     0.124 S 
ATOM     75  O   UNL A   1      49.317  26.769  37.091  1.00  0.00    -0.237 OA
ATOM     76  O   UNL A   1      48.124  26.892  39.253  1.00  0.00    -0.237 OA
ATOM     77  O   UNL A   1      47.805  24.943  37.776  1.00  0.00    -0.744 OA
ENDBRANCH  73  74
ENDBRANCH  52  66
BRANCH  53  78
ATOM     78  C   UNL A   1      37.069  32.865  30.934  1.00  0.00     0.058 A 
ATOM     79  C   UNL A   1      37.257  33.874  29.978  1.00  0.00     0.135 A 
ATOM     80  C   UNL A   1      35.753  32.453  31.198  1.00  0.00     0.135 A 
ATOM     81  F   UNL A   1      38.494  34.310  29.696  1.00  0.00    -0.206 F 
ATOM     82  C   UNL A   1      36.182  34.464  29.320  1.00  0.00     0.059 A 
ATOM     83  C   UNL A   1      34.664  33.007  30.532  1.00  0.00     0.059 A 
ATOM     84  F   UNL A   1      35.518  31.483  32.095  1.00  0.00    -0.206 F 
ATOM     85  C   UNL A   1      34.888  34.018  29.601  1.00  0.00     0.060 A 
BRANCH  85  86
ATOM     86  S   UNL A   1      33.506  34.754  28.701  1.00  0.00     0.124 S 
ATOM     87  O   UNL A   1      33.180  33.700  27.748  1.00  0.00    -0.237 OA
ATOM     88  O   UNL A   1      32.533  34.975  29.767  1.00  0.00    -0.237 OA
ATOM     89  O   UNL A   1      34.085  35.967  28.131  1.00  0.00    -0.744 OA
ENDBRANCH  85  86
ENDBRANCH  53  78
BRANCH  65  90
ATOM     90  C   UNL A   1      40.012  33.880  37.190  1.00  0.00     0.058 A 
ATOM     91  C   UNL A   1      40.498  35.195  37.162  1.00  0.00     0.135 A 
ATOM     92  C   UNL A   1      39.193  33.507  38.269  1.00  0.00     0.135 A 
ATOM     93  F   UNL A   1      41.290  35.603  36.156  1.00  0.00    -0.206 F 
ATOM     94  C   UNL A   1      40.205  36.100  38.178  1.00  0.00     0.059 A 
ATOM     95  C   UNL A   1      38.858  34.405  39.278  1.00  0.00     0.059 A 
ATOM     96  F   UNL A   1      38.691  32.263  38.340  1.00  0.00    -0.206 F 
ATOM     97  C   UNL A   1      39.380  35.696  39.229  1.00  0.00     0.060 A 
BRANCH  97  98
ATOM     98  S   UNL A   1      38.979  36.891  40.521  1.00  0.00     0.124 S 
ATOM     99  O   UNL A   1      38.009  36.148  41.318  1.00  0.00    -0.237 OA
ATOM    100  O   UNL A   1      40.277  37.117  41.149  1.00  0.00    -0.237 OA
ATOM    101  O   UNL A   1      38.443  38.028  39.780  1.00  0.00    -0.744 OA
ENDBRANCH  97  98
ENDBRANCH  65  90
ENDBRANCH  39  40
ENDBRANCH  32  34
ENDBRANCH  31  32
ENDBRANCH  30  31
ENDBRANCH  29  30
ENDBRANCH  28  29
ENDBRANCH  27  28
ENDBRANCH   1  27
TORSDOF 25
ENDMDL
MODEL 3
REMARK VINA RESULT:     -10.0      1.211      8.215
REMARK SMILES Cn1ccc(NC(=O)[C@@H]2CCCC[C@@H]2C(=O)OCCOCCOCCOCCOC(=O)c2ccc(-c3c4nc(c(-c5c(F)cc(S(=O)(=O)[O-])cc5F)c5ccc([nH]5)c(-c5c(F)cc(S(=O)(=O)[O-])cc5F)c5nc(c(-c6c(F)cc(S(=O)(=O)[O-])cc6F)c6ccc3[nH]6)C=C5)C=C4)cc2)n1
REMARK SMILES IDX 24 1 23 2 22 3 21 4 20 5 19 6 18 7 17 8 15 9 16 10 14 11
REMARK SMILES IDX 9 12 10 13 11 14 13 15 12 16 7 17 6 18 8 20 5 21 1 22 2 23
REMARK SMILES IDX 3 24 98 25 4 26 25 27 26 28 27 29 28 30 29 31 30 32 31 33
REMARK SMILES IDX 32 34 33 35 97 36 34 37 96 38 35 39 36 40 37 41 90 42 38 43
REMARK SMILES IDX 95 44 89 45 91 46 39 47 94 48 88 49 87 50 40 52 74 53 53 54
REMARK SMILES IDX 73 55 54 56 57 57 72 58 92 59 55 60 56 61 71 63 93 64 58 65
REMARK SMILES IDX 41 66 42 67 51 68 43 69 44 70 50 71 52 72 45 73 46 74 47 75
REMARK SMILES IDX 48 76 49 77 75 78 76 79 85 80 77 81 78 82 84 83 86 84 79 85
REMARK SMILES IDX 80 86 81 87 82 88 83 89 59 90 60 91 69 92 61 93 62 94 68 95
REMARK SMILES IDX 70 96 63 97 64 98 65 99 66 100 67 101
REMARK H PARENT 6 19 91 51 57 62
REMARK Flexibility Score: inf
ROOT
ATOM      1  C   UNL A   1      36.141  21.324  25.668  1.00  0.00     0.188 C 
ENDROOT
BRANCH   1   2
ATOM      2  O   UNL A   1      35.313  20.404  24.978  1.00  0.00    -0.377 OA
BRANCH   2   3
ATOM      3  C   UNL A   1      33.915  20.451  25.146  1.00  0.00     0.188 C 
BRANCH   3   4
ATOM      4  C   UNL A   1      33.055  20.781  23.927  1.00  0.00     0.188 C 
BRANCH   4   5
ATOM      5  O   UNL A   1      33.059  22.095  23.409  1.00  0.00    -0.376 OA
BRANCH   5   6
ATOM      6  C   UNL A   1      33.690  23.129  24.157  1.00  0.00     0.202 C 
BRANCH   6   7
ATOM      7  C   UNL A   1      33.827  24.551  23.573  1.00  0.00     0.261 C 
BRANCH   7   8
ATOM      8  O   UNL A   1      32.785  25.492  23.937  1.00  0.00    -0.463 OA
BRANCH   8   9
ATOM      9  C   UNL A   1      33.033  26.294  24.996  1.00  0.00     0.309 C 
ATOM     10  O   UNL A   1      34.074  26.235  25.651  1.00  0.00    -0.252 OA
BRANCH   9  11
ATOM     11  C   UNL A   1      31.956  27.334  25.350  1.00  0.00     0.111 C 
ATOM     12  C   UNL A   1      31.748  28.706  24.640  1.00  0.00     0.093 C 
ATOM     13  C   UNL A   1      32.163  29.931  25.496  1.00  0.00     0.014 C 
ATOM     14  C   UNL A   1      31.825  29.852  26.979  1.00  0.00     0.001 C 
ATOM     15  C   UNL A   1      31.672  27.357  26.867  1.00  0.00     0.016 C 
ATOM     16  C   UNL A   1      32.231  28.541  27.626  1.00  0.00     0.001 C 
BRANCH  12  17
ATOM     17  C   UNL A   1      32.307  28.891  23.206  1.00  0.00     0.229 C 
ATOM     18  N   UNL A   1      31.507  29.169  22.138  1.00  0.00    -0.309 N 
ATOM     19  H   UNL A   1      31.953  29.177  21.260  1.00  0.00     0.171 HD
ATOM     20  O   UNL A   1      33.523  28.823  22.987  1.00  0.00    -0.274 OA
BRANCH  18  21
ATOM     21  C   UNL A   1      30.165  29.438  22.129  1.00  0.00     0.154 A 
ATOM     22  C   UNL A   1      27.709  31.843  22.292  1.00  0.00     0.173 C 
ATOM     23  N   UNL A   1      28.392  30.576  22.176  1.00  0.00    -0.274 N 
ATOM     24  C   UNL A   1      28.036  29.384  22.725  1.00  0.00     0.110 A 
ATOM     25  N   UNL A   1      29.630  30.563  21.662  1.00  0.00    -0.155 NA
ATOM     26  C   UNL A   1      29.165  28.594  22.662  1.00  0.00     0.068 A 
ENDBRANCH  18  21
ENDBRANCH  12  17
ENDBRANCH   9  11
ENDBRANCH   8   9
ENDBRANCH   7   8
ENDBRANCH   6   7
ENDBRANCH   5   6
ENDBRANCH   4   5
ENDBRANCH   3   4
ENDBRANCH   2   3
ENDBRANCH   1   2
BRANCH   1  27
ATOM     27  C   UNL A   1      37.555  21.534  25.129  1.00  0.00     0.188 C 
BRANCH  27  28
ATOM     28  O   UNL A   1      38.495  22.223  25.961  1.00  0.00    -0.376 OA
BRANCH  28  29
ATOM     29  C   UNL A   1      39.675  21.541  26.391  1.00  0.00     0.202 C 
BRANCH  29  30
ATOM     30  C   UNL A   1      40.671  22.406  27.152  1.00  0.00     0.261 C 
BRANCH  30  31
ATOM     31  O   UNL A   1      40.433  23.794  26.882  1.00  0.00    -0.460 OA
BRANCH  31  32
ATOM     32  C   UNL A   1      41.517  24.593  26.966  1.00  0.00     0.338 C 
ATOM     33  O   UNL A   1      42.552  24.509  26.321  1.00  0.00    -0.246 OA
BRANCH  32  34
ATOM     34  C   UNL A   1      41.204  25.728  27.850  1.00  0.00     0.060 A 
ATOM     35  C   UNL A   1      42.188  26.706  28.039  1.00  0.00     0.016 A 
ATOM     36  C   UNL A   1      39.977  25.809  28.515  1.00  0.00     0.016 A 
ATOM     37  C   UNL A   1      41.977  27.734  28.952  1.00  0.00     0.010 A 
ATOM     38  C   UNL A   1      39.772  26.830  29.439  1.00  0.00     0.010 A 
ATOM     39  C   UNL A   1      40.792  27.763  29.694  1.00  0.00    -0.014 A 
BRANCH  39  40
ATOM     40  C   UNL A   1      40.711  28.623  30.893  1.00  0.00     0.031 A 
ATOM     41  C   UNL A   1      39.690  29.726  30.902  1.00  0.00     0.074 A 
ATOM     42  C   UNL A   1      41.513  28.408  31.948  1.00  0.00     0.049 A 
ATOM     43  N   UNL A   1      39.469  30.645  31.803  1.00  0.00    -0.248 NA
ATOM     44  C   UNL A   1      38.798  29.804  29.731  1.00  0.00     0.031 C 
ATOM     45  C   UNL A   1      42.502  27.336  32.054  1.00  0.00     0.029 A 
ATOM     46  N   UNL A   1      41.628  29.093  33.129  1.00  0.00    -0.354 N 
ATOM     47  C   UNL A   1      38.425  31.415  31.305  1.00  0.00     0.074 A 
ATOM     48  C   UNL A   1      38.075  30.876  30.010  1.00  0.00     0.031 C 
ATOM     49  C   UNL A   1      43.138  27.447  33.233  1.00  0.00     0.029 A 
ATOM     50  C   UNL A   1      42.626  28.618  33.944  1.00  0.00     0.049 A 
ATOM     51  H   UNL A   1      41.051  29.854  33.370  1.00  0.00     0.167 HD
ATOM     52  C   UNL A   1      37.811  32.473  31.884  1.00  0.00     0.037 A 
ATOM     53  C   UNL A   1      43.087  29.097  35.115  1.00  0.00     0.037 A 
ATOM     54  C   UNL A   1      38.179  32.997  33.173  1.00  0.00     0.049 A 
ATOM     55  C   UNL A   1      42.437  30.323  35.707  1.00  0.00     0.074 A 
ATOM     56  C   UNL A   1      37.619  34.056  33.863  1.00  0.00     0.029 A 
ATOM     57  N   UNL A   1      39.211  32.506  33.961  1.00  0.00    -0.354 N 
ATOM     58  N   UNL A   1      41.437  31.033  35.240  1.00  0.00    -0.248 NA
ATOM     59  C   UNL A   1      42.976  30.809  36.983  1.00  0.00     0.031 C 
ATOM     60  C   UNL A   1      38.351  34.243  35.039  1.00  0.00     0.029 A 
ATOM     61  C   UNL A   1      39.323  33.258  35.117  1.00  0.00     0.049 A 
ATOM     62  H   UNL A   1      39.779  31.735  33.731  1.00  0.00     0.167 HD
ATOM     63  C   UNL A   1      41.205  32.031  36.182  1.00  0.00     0.074 A 
ATOM     64  C   UNL A   1      42.163  31.824  37.249  1.00  0.00     0.031 C 
ATOM     65  C   UNL A   1      40.282  33.025  36.170  1.00  0.00     0.037 A 
BRANCH  52  66
ATOM     66  C   UNL A   1      36.709  33.150  31.116  1.00  0.00     0.058 A 
ATOM     67  C   UNL A   1      36.974  34.015  30.041  1.00  0.00     0.135 A 
ATOM     68  C   UNL A   1      35.365  32.909  31.444  1.00  0.00     0.135 A 
ATOM     69  F   UNL A   1      38.239  34.301  29.698  1.00  0.00    -0.206 F 
ATOM     70  C   UNL A   1      35.945  34.633  29.335  1.00  0.00     0.059 A 
ATOM     71  C   UNL A   1      34.321  33.491  30.731  1.00  0.00     0.059 A 
ATOM     72  F   UNL A   1      35.054  32.098  32.467  1.00  0.00    -0.206 F 
ATOM     73  C   UNL A   1      34.622  34.361  29.685  1.00  0.00     0.060 A 
BRANCH  73  74
ATOM     74  S   UNL A   1      33.301  35.158  28.748  1.00  0.00     0.124 S 
ATOM     75  O   UNL A   1      34.053  36.107  27.932  1.00  0.00    -0.237 OA
ATOM     76  O   UNL A   1      32.711  34.033  28.027  1.00  0.00    -0.237 OA
ATOM     77  O   UNL A   1      32.458  35.750  29.781  1.00  0.00    -0.744 OA
ENDBRANCH  73  74
ENDBRANCH  52  66
BRANCH  53  78
ATOM     78  C   UNL A   1      44.228  28.428  35.795  1.00  0.00     0.058 A 
ATOM     79  C   UNL A   1      45.555  28.766  35.490  1.00  0.00     0.135 A 
ATOM     80  C   UNL A   1      44.015  27.439  36.769  1.00  0.00     0.135 A 
ATOM     81  F   UNL A   1      45.813  29.698  34.560  1.00  0.00    -0.206 F 
ATOM     82  C   UNL A   1      46.629  28.140  36.114  1.00  0.00     0.059 A 
ATOM     83  C   UNL A   1      45.072  26.819  37.427  1.00  0.00     0.059 A 
ATOM     84  F   UNL A   1      42.765  27.085  37.107  1.00  0.00    -0.206 F 
ATOM     85  C   UNL A   1      46.376  27.170  37.087  1.00  0.00     0.060 A 
BRANCH  85  86
ATOM     86  S   UNL A   1      47.778  26.403  37.928  1.00  0.00     0.124 S 
ATOM     87  O   UNL A   1      47.740  27.064  39.227  1.00  0.00    -0.237 OA
ATOM     88  O   UNL A   1      47.403  24.992  37.917  1.00  0.00    -0.237 OA
ATOM     89  O   UNL A   1      48.911  26.748  37.074  1.00  0.00    -0.744 OA
ENDBRANCH  85  86
ENDBRANCH  53  78
BRANCH  65  90
ATOM     90  C   UNL A   1      40.231  33.940  37.364  1.00  0.00     0.058 A 
ATOM     91  C   UNL A   1      41.051  35.073  37.468  1.00  0.00     0.135 A 
ATOM     92  C   UNL A   1      39.299  33.710  38.390  1.00  0.00     0.135 A 
ATOM     93  F   UNL A   1      41.963  35.337  36.518  1.00  0.00    -0.206 F 
ATOM     94  C   UNL A   1      40.971  35.931  38.560  1.00  0.00     0.059 A 
ATOM     95  C   UNL A   1      39.177  34.574  39.474  1.00  0.00     0.059 A 
ATOM     96  F   UNL A   1      38.480  32.647  38.336  1.00  0.00    -0.206 F 
ATOM     97  C   UNL A   1      40.026  35.675  39.556  1.00  0.00     0.060 A 
BRANCH  97  98
ATOM     98  S   UNL A   1      39.908  36.818  40.949  1.00  0.00     0.124 S 
ATOM     99  O   UNL A   1      41.177  36.585  41.629  1.00  0.00    -0.237 OA
ATOM    100  O   UNL A   1      39.772  38.109  40.281  1.00  0.00    -0.237 OA
ATOM    101  O   UNL A   1      38.720  36.361  41.664  1.00  0.00    -0.744 OA
ENDBRANCH  97  98
ENDBRANCH  65  90
ENDBRANCH  39  40
ENDBRANCH  32  34
ENDBRANCH  31  32
ENDBRANCH  30  31
ENDBRANCH  29  30
ENDBRANCH  28  29
ENDBRANCH  27  28
ENDBRANCH   1  27
TORSDOF 25
ENDMDL
