MODEL 1
REMARK VINA RESULT:      -6.9      0.000      0.000
REMARK SMILES C[C@H](C(=O)OCCOCCOCCOCCOC(=O)c1ccc(-c2c3nc(c(-c4c(F)cc(S(=O)(=O)[O-])cc4F)c4ccc([nH]4)c(-c4c(F)cc(S(=O)(=O)[O-])cc4F)c4nc(c(-c5c(F)cc(S(=O)(=O)[O-])cc5F)c5ccc2[nH]5)C=C4)C=C3)cc1)[C@@H](C)[NH2+]Cc1ccc(F)c(F)c1
REMARK SMILES IDX 10 1 9 2 8 3 7 4 6 5 5 6 3 7 4 8 2 9 1 10 86 11 87 12 88 13
REMARK SMILES IDX 89 16 90 17 91 18 97 19 92 20 95 21 93 22 96 23 94 24 11 25
REMARK SMILES IDX 12 26 13 27 14 28 15 29 16 30 17 31 18 32 19 33 20 34 21 35
REMARK SMILES IDX 85 36 22 37 84 38 23 39 24 40 25 41 78 42 26 43 83 44 77 45
REMARK SMILES IDX 79 46 27 47 82 48 76 49 75 50 28 52 62 53 41 54 61 55 42 56
REMARK SMILES IDX 45 57 60 58 80 59 43 60 44 61 59 63 81 64 46 65 29 66 30 67
REMARK SMILES IDX 39 68 31 69 32 70 38 71 40 72 33 73 34 74 35 75 36 76 37 77
REMARK SMILES IDX 63 78 64 79 73 80 65 81 66 82 72 83 74 84 67 85 68 86 69 87
REMARK SMILES IDX 70 88 71 89 47 90 48 91 57 92 49 93 50 94 56 95 58 96 51 97
REMARK SMILES IDX 52 98 53 99 54 100 55 101
REMARK H PARENT 88 14 88 15 79 51 45 62
REMARK Flexibility Score: inf
ROOT
ATOM      1  C   UNL A   1      33.522  36.934  33.396  1.00  0.00     0.188 C 
ENDROOT
BRANCH   1   2
ATOM      2  C   UNL A   1      33.892  37.434  31.995  1.00  0.00     0.188 C 
BRANCH   2   3
ATOM      3  O   UNL A   1      32.906  37.344  30.976  1.00  0.00    -0.376 OA
BRANCH   3   4
ATOM      4  C   UNL A   1      32.597  36.071  30.407  1.00  0.00     0.202 C 
BRANCH   4   5
ATOM      5  C   UNL A   1      33.730  35.226  29.803  1.00  0.00     0.261 C 
BRANCH   5   6
ATOM      6  O   UNL A   1      33.216  34.120  29.039  1.00  0.00    -0.463 OA
BRANCH   6   7
ATOM      7  C   UNL A   1      34.109  33.493  28.228  1.00  0.00     0.314 C 
ATOM      8  O   UNL A   1      34.865  34.089  27.470  1.00  0.00    -0.252 OA
BRANCH   7   9
ATOM      9  C   UNL A   1      34.172  31.984  28.505  1.00  0.00     0.154 C 
ATOM     10  C   UNL A   1      33.454  31.183  27.426  1.00  0.00     0.026 C 
BRANCH   9  11
ATOM     11  C   UNL A   1      35.666  31.601  28.702  1.00  0.00     0.193 C 
ATOM     12  C   UNL A   1      36.196  32.353  29.949  1.00  0.00     0.076 C 
BRANCH  11  13
ATOM     13  N   UNL A   1      35.912  30.146  28.847  1.00  0.00    -0.340 N 
ATOM     14  H   UNL A   1      35.035  29.650  28.684  1.00  0.00     0.346 HD
ATOM     15  H   UNL A   1      36.266  29.985  29.788  1.00  0.00     0.346 HD
BRANCH  13  16
ATOM     16  C   UNL A   1      36.926  29.644  27.892  1.00  0.00     0.297 C 
BRANCH  16  17
ATOM     17  C   UNL A   1      38.229  29.254  28.563  1.00  0.00     0.009 A 
ATOM     18  C   UNL A   1      38.288  29.097  29.959  1.00  0.00     0.013 A 
ATOM     19  C   UNL A   1      39.426  29.260  27.823  1.00  0.00     0.052 A 
ATOM     20  C   UNL A   1      39.524  29.059  30.608  1.00  0.00     0.043 A 
ATOM     21  C   UNL A   1      40.650  29.236  28.481  1.00  0.00     0.159 A 
ATOM     22  C   UNL A   1      40.698  29.158  29.867  1.00  0.00     0.158 A 
ATOM     23  F   UNL A   1      41.781  29.355  27.773  1.00  0.00    -0.204 F 
ATOM     24  F   UNL A   1      41.875  29.213  30.506  1.00  0.00    -0.204 F 
ENDBRANCH  16  17
ENDBRANCH  13  16
ENDBRANCH  11  13
ENDBRANCH   9  11
ENDBRANCH   7   9
ENDBRANCH   6   7
ENDBRANCH   5   6
ENDBRANCH   4   5
ENDBRANCH   3   4
ENDBRANCH   2   3
ENDBRANCH   1   2
BRANCH   1  25
ATOM     25  O   UNL A   1      34.495  36.145  34.067  1.00  0.00    -0.377 OA
BRANCH  25  26
ATOM     26  C   UNL A   1      35.070  35.021  33.401  1.00  0.00     0.188 C 
BRANCH  26  27
ATOM     27  C   UNL A   1      34.965  33.667  34.108  1.00  0.00     0.188 C 
BRANCH  27  28
ATOM     28  O   UNL A   1      36.147  32.860  34.162  1.00  0.00    -0.376 OA
BRANCH  28  29
ATOM     29  C   UNL A   1      36.210  31.686  33.357  1.00  0.00     0.202 C 
BRANCH  29  30
ATOM     30  C   UNL A   1      37.615  31.150  33.088  1.00  0.00     0.261 C 
BRANCH  30  31
ATOM     31  O   UNL A   1      38.553  32.195  32.799  1.00  0.00    -0.460 OA
BRANCH  31  32
ATOM     32  C   UNL A   1      39.702  32.137  33.514  1.00  0.00     0.338 C 
ATOM     33  O   UNL A   1      39.821  31.926  34.706  1.00  0.00    -0.246 OA
BRANCH  32  34
ATOM     34  C   UNL A   1      40.849  32.234  32.594  1.00  0.00     0.060 A 
ATOM     35  C   UNL A   1      42.140  32.163  33.133  1.00  0.00     0.016 A 
ATOM     36  C   UNL A   1      40.654  32.484  31.234  1.00  0.00     0.016 A 
ATOM     37  C   UNL A   1      43.244  32.401  32.321  1.00  0.00     0.010 A 
ATOM     38  C   UNL A   1      41.759  32.736  30.425  1.00  0.00     0.010 A 
ATOM     39  C   UNL A   1      43.051  32.740  30.976  1.00  0.00    -0.014 A 
BRANCH  39  40
ATOM     40  C   UNL A   1      44.175  33.303  30.197  1.00  0.00     0.031 A 
ATOM     41  C   UNL A   1      45.139  32.349  29.549  1.00  0.00     0.074 A 
ATOM     42  C   UNL A   1      44.324  34.632  30.069  1.00  0.00     0.049 A 
ATOM     43  N   UNL A   1      46.243  32.599  28.898  1.00  0.00    -0.248 NA
ATOM     44  C   UNL A   1      44.817  30.915  29.658  1.00  0.00     0.031 C 
ATOM     45  C   UNL A   1      43.420  35.639  30.623  1.00  0.00     0.029 A 
ATOM     46  N   UNL A   1      45.302  35.360  29.444  1.00  0.00    -0.354 N 
ATOM     47  C   UNL A   1      46.752  31.359  28.529  1.00  0.00     0.074 A 
ATOM     48  C   UNL A   1      45.855  30.356  29.058  1.00  0.00     0.031 C 
ATOM     49  C   UNL A   1      43.900  36.860  30.331  1.00  0.00     0.029 A 
ATOM     50  C   UNL A   1      45.161  36.717  29.606  1.00  0.00     0.049 A 
ATOM     51  H   UNL A   1      46.035  34.950  28.931  1.00  0.00     0.167 HD
ATOM     52  C   UNL A   1      47.865  31.087  27.808  1.00  0.00     0.037 A 
ATOM     53  C   UNL A   1      45.978  37.722  29.236  1.00  0.00     0.037 A 
ATOM     54  C   UNL A   1      48.748  32.101  27.294  1.00  0.00     0.049 A 
ATOM     55  C   UNL A   1      47.248  37.393  28.493  1.00  0.00     0.074 A 
ATOM     56  C   UNL A   1      49.898  31.941  26.542  1.00  0.00     0.029 A 
ATOM     57  N   UNL A   1      48.581  33.465  27.487  1.00  0.00    -0.354 N 
ATOM     58  N   UNL A   1      47.715  36.218  28.136  1.00  0.00    -0.248 NA
ATOM     59  C   UNL A   1      48.100  38.522  28.101  1.00  0.00     0.031 C 
ATOM     60  C   UNL A   1      50.456  33.205  26.328  1.00  0.00     0.029 A 
ATOM     61  C   UNL A   1      49.620  34.159  26.890  1.00  0.00     0.049 A 
ATOM     62  H   UNL A   1      47.833  33.879  27.976  1.00  0.00     0.167 HD
ATOM     63  C   UNL A   1      48.899  36.470  27.449  1.00  0.00     0.074 A 
ATOM     64  C   UNL A   1      49.069  37.909  27.433  1.00  0.00     0.031 C 
ATOM     65  C   UNL A   1      49.765  35.594  26.880  1.00  0.00     0.037 A 
BRANCH  52  66
ATOM     66  C   UNL A   1      48.201  29.641  27.559  1.00  0.00     0.058 A 
ATOM     67  C   UNL A   1      49.073  28.926  28.396  1.00  0.00     0.135 A 
ATOM     68  C   UNL A   1      47.622  28.954  26.480  1.00  0.00     0.135 A 
ATOM     69  F   UNL A   1      49.673  29.538  29.429  1.00  0.00    -0.206 F 
ATOM     70  C   UNL A   1      49.378  27.589  28.159  1.00  0.00     0.059 A 
ATOM     71  C   UNL A   1      47.888  27.609  26.241  1.00  0.00     0.059 A 
ATOM     72  F   UNL A   1      46.786  29.589  25.643  1.00  0.00    -0.206 F 
ATOM     73  C   UNL A   1      48.778  26.939  27.079  1.00  0.00     0.060 A 
BRANCH  73  74
ATOM     74  S   UNL A   1      49.177  25.201  26.790  1.00  0.00     0.124 S 
ATOM     75  O   UNL A   1      48.957  25.088  25.352  1.00  0.00    -0.237 OA
ATOM     76  O   UNL A   1      50.567  25.125  27.227  1.00  0.00    -0.237 OA
ATOM     77  O   UNL A   1      48.218  24.488  27.629  1.00  0.00    -0.744 OA
ENDBRANCH  73  74
ENDBRANCH  52  66
BRANCH  53  78
ATOM     78  C   UNL A   1      45.628  39.127  29.576  1.00  0.00     0.058 A 
ATOM     79  C   UNL A   1      44.922  39.938  28.678  1.00  0.00     0.135 A 
ATOM     80  C   UNL A   1      45.988  39.684  30.815  1.00  0.00     0.135 A 
ATOM     81  F   UNL A   1      44.562  39.455  27.478  1.00  0.00    -0.206 F 
ATOM     82  C   UNL A   1      44.596  41.255  28.985  1.00  0.00     0.059 A 
ATOM     83  C   UNL A   1      45.648  40.988  31.158  1.00  0.00     0.059 A 
ATOM     84  F   UNL A   1      46.655  38.945  31.717  1.00  0.00    -0.206 F 
ATOM     85  C   UNL A   1      44.961  41.769  30.231  1.00  0.00     0.060 A 
BRANCH  85  86
ATOM     86  S   UNL A   1      44.490  43.465  30.637  1.00  0.00     0.124 S 
ATOM     87  O   UNL A   1      44.756  44.153  29.379  1.00  0.00    -0.237 OA
ATOM     88  O   UNL A   1      43.085  43.313  30.998  1.00  0.00    -0.237 OA
ATOM     89  O   UNL A   1      45.381  43.804  31.743  1.00  0.00    -0.744 OA
ENDBRANCH  85  86
ENDBRANCH  53  78
BRANCH  65  90
ATOM     90  C   UNL A   1      50.953  36.166  26.154  1.00  0.00     0.058 A 
ATOM     91  C   UNL A   1      52.180  36.385  26.797  1.00  0.00     0.135 A 
ATOM     92  C   UNL A   1      50.875  36.442  24.779  1.00  0.00     0.135 A 
ATOM     93  F   UNL A   1      52.309  36.141  28.111  1.00  0.00    -0.206 F 
ATOM     94  C   UNL A   1      53.282  36.882  26.108  1.00  0.00     0.059 A 
ATOM     95  C   UNL A   1      51.972  36.909  24.064  1.00  0.00     0.059 A 
ATOM     96  F   UNL A   1      49.726  36.238  24.112  1.00  0.00    -0.206 F 
ATOM     97  C   UNL A   1      53.168  37.137  24.740  1.00  0.00     0.060 A 
BRANCH  97  98
ATOM     98  S   UNL A   1      54.616  37.750  23.852  1.00  0.00     0.124 S 
ATOM     99  O   UNL A   1      55.485  38.156  24.951  1.00  0.00    -0.237 OA
ATOM    100  O   UNL A   1      55.046  36.571  23.106  1.00  0.00    -0.237 OA
ATOM    101  O   UNL A   1      54.081  38.839  23.039  1.00  0.00    -0.744 OA
ENDBRANCH  97  98
ENDBRANCH  65  90
ENDBRANCH  39  40
ENDBRANCH  32  34
ENDBRANCH  31  32
ENDBRANCH  30  31
ENDBRANCH  29  30
ENDBRANCH  28  29
ENDBRANCH  27  28
ENDBRANCH  26  27
ENDBRANCH  25  26
ENDBRANCH   1  25
TORSDOF 27
ENDMDL
MODEL 2
REMARK VINA RESULT:      -6.8      6.600     11.937
REMARK SMILES C[C@H](C(=O)OCCOCCOCCOCCOC(=O)c1ccc(-c2c3nc(c(-c4c(F)cc(S(=O)(=O)[O-])cc4F)c4ccc([nH]4)c(-c4c(F)cc(S(=O)(=O)[O-])cc4F)c4nc(c(-c5c(F)cc(S(=O)(=O)[O-])cc5F)c5ccc2[nH]5)C=C4)C=C3)cc1)[C@@H](C)[NH2+]Cc1ccc(F)c(F)c1
REMARK SMILES IDX 10 1 9 2 8 3 7 4 6 5 5 6 3 7 4 8 2 9 1 10 86 11 87 12 88 13
REMARK SMILES IDX 89 16 90 17 91 18 97 19 92 20 95 21 93 22 96 23 94 24 11 25
REMARK SMILES IDX 12 26 13 27 14 28 15 29 16 30 17 31 18 32 19 33 20 34 21 35
REMARK SMILES IDX 85 36 22 37 84 38 23 39 24 40 25 41 78 42 26 43 83 44 77 45
REMARK SMILES IDX 79 46 27 47 82 48 76 49 75 50 28 52 62 53 41 54 61 55 42 56
REMARK SMILES IDX 45 57 60 58 80 59 43 60 44 61 59 63 81 64 46 65 29 66 30 67
REMARK SMILES IDX 39 68 31 69 32 70 38 71 40 72 33 73 34 74 35 75 36 76 37 77
REMARK SMILES IDX 63 78 64 79 73 80 65 81 66 82 72 83 74 84 67 85 68 86 69 87
REMARK SMILES IDX 70 88 71 89 47 90 48 91 57 92 49 93 50 94 56 95 58 96 51 97
REMARK SMILES IDX 52 98 53 99 54 100 55 101
REMARK H PARENT 88 14 88 15 79 51 45 62
REMARK Flexibility Score: inf
ROOT
ATOM      1  C   UNL A   1      39.083  28.197  28.137  1.00  0.00     0.188 C 
ENDROOT
BRANCH   1   2
ATOM      2  C   UNL A   1      37.938  29.204  27.985  1.00  0.00     0.188 C 
BRANCH   2   3
ATOM      3  O   UNL A   1      38.232  30.579  28.182  1.00  0.00    -0.376 OA
BRANCH   3   4
ATOM      4  C   UNL A   1      38.255  31.111  29.507  1.00  0.00     0.202 C 
BRANCH   4   5
ATOM      5  C   UNL A   1      36.940  31.216  30.296  1.00  0.00     0.261 C 
BRANCH   5   6
ATOM      6  O   UNL A   1      37.116  31.939  31.527  1.00  0.00    -0.463 OA
BRANCH   6   7
ATOM      7  C   UNL A   1      36.989  31.211  32.667  1.00  0.00     0.314 C 
ATOM      8  O   UNL A   1      36.578  30.057  32.688  1.00  0.00    -0.252 OA
BRANCH   7   9
ATOM      9  C   UNL A   1      37.582  31.942  33.881  1.00  0.00     0.154 C 
ATOM     10  C   UNL A   1      38.901  32.622  33.539  1.00  0.00     0.026 C 
BRANCH   9  11
ATOM     11  C   UNL A   1      36.490  32.900  34.436  1.00  0.00     0.193 C 
ATOM     12  C   UNL A   1      37.046  33.576  35.715  1.00  0.00     0.076 C 
BRANCH  11  13
ATOM     13  N   UNL A   1      36.036  33.933  33.475  1.00  0.00    -0.340 N 
ATOM     14  H   UNL A   1      36.622  33.884  32.642  1.00  0.00     0.346 HD
ATOM     15  H   UNL A   1      36.113  34.839  33.936  1.00  0.00     0.346 HD
BRANCH  13  16
ATOM     16  C   UNL A   1      34.622  33.752  33.073  1.00  0.00     0.297 C 
BRANCH  16  17
ATOM     17  C   UNL A   1      34.241  34.576  31.859  1.00  0.00     0.009 A 
ATOM     18  C   UNL A   1      33.453  35.731  32.005  1.00  0.00     0.013 A 
ATOM     19  C   UNL A   1      34.488  34.074  30.567  1.00  0.00     0.052 A 
ATOM     20  C   UNL A   1      32.837  36.305  30.891  1.00  0.00     0.043 A 
ATOM     21  C   UNL A   1      33.858  34.644  29.467  1.00  0.00     0.159 A 
ATOM     22  C   UNL A   1      33.019  35.739  29.632  1.00  0.00     0.158 A 
ATOM     23  F   UNL A   1      34.012  34.089  28.258  1.00  0.00    -0.204 F 
ATOM     24  F   UNL A   1      32.350  36.241  28.584  1.00  0.00    -0.204 F 
ENDBRANCH  16  17
ENDBRANCH  13  16
ENDBRANCH  11  13
ENDBRANCH   9  11
ENDBRANCH   7   9
ENDBRANCH   6   7
ENDBRANCH   5   6
ENDBRANCH   4   5
ENDBRANCH   3   4
ENDBRANCH   2   3
ENDBRANCH   1   2
BRANCH   1  25
ATOM     25  O   UNL A   1      40.231  28.412  27.328  1.00  0.00    -0.377 OA
BRANCH  25  26
ATOM     26  C   UNL A   1      40.877  27.297  26.712  1.00  0.00     0.188 C 
BRANCH  26  27
ATOM     27  C   UNL A   1      42.112  27.596  25.858  1.00  0.00     0.188 C 
BRANCH  27  28
ATOM     28  O   UNL A   1      42.453  26.648  24.841  1.00  0.00    -0.376 OA
BRANCH  28  29
ATOM     29  C   UNL A   1      43.218  25.502  25.203  1.00  0.00     0.202 C 
BRANCH  29  30
ATOM     30  C   UNL A   1      42.542  24.156  24.949  1.00  0.00     0.261 C 
BRANCH  30  31
ATOM     31  O   UNL A   1      43.445  23.053  25.102  1.00  0.00    -0.460 OA
BRANCH  31  32
ATOM     32  C   UNL A   1      43.159  22.229  26.139  1.00  0.00     0.338 C 
ATOM     33  O   UNL A   1      42.721  21.096  26.085  1.00  0.00    -0.246 OA
BRANCH  32  34
ATOM     34  C   UNL A   1      43.593  22.867  27.395  1.00  0.00     0.060 A 
ATOM     35  C   UNL A   1      42.611  23.255  28.316  1.00  0.00     0.016 A 
ATOM     36  C   UNL A   1      44.940  23.159  27.619  1.00  0.00     0.016 A 
ATOM     37  C   UNL A   1      42.969  23.992  29.441  1.00  0.00     0.010 A 
ATOM     38  C   UNL A   1      45.295  23.909  28.738  1.00  0.00     0.010 A 
ATOM     39  C   UNL A   1      44.305  24.365  29.625  1.00  0.00    -0.014 A 
BRANCH  39  40
ATOM     40  C   UNL A   1      44.642  25.404  30.622  1.00  0.00     0.031 A 
ATOM     41  C   UNL A   1      44.761  26.827  30.153  1.00  0.00     0.074 A 
ATOM     42  C   UNL A   1      44.832  25.081  31.912  1.00  0.00     0.049 A 
ATOM     43  N   UNL A   1      45.132  27.890  30.815  1.00  0.00    -0.248 NA
ATOM     44  C   UNL A   1      44.421  27.084  28.743  1.00  0.00     0.031 C 
ATOM     45  C   UNL A   1      44.699  23.738  32.473  1.00  0.00     0.029 A 
ATOM     46  N   UNL A   1      45.193  25.861  32.979  1.00  0.00    -0.354 N 
ATOM     47  C   UNL A   1      45.081  28.938  29.903  1.00  0.00     0.074 A 
ATOM     48  C   UNL A   1      44.676  28.378  28.633  1.00  0.00     0.031 C 
ATOM     49  C   UNL A   1      44.998  23.783  33.783  1.00  0.00     0.029 A 
ATOM     50  C   UNL A   1      45.380  25.149  34.139  1.00  0.00     0.049 A 
ATOM     51  H   UNL A   1      45.310  26.836  32.919  1.00  0.00     0.167 HD
ATOM     52  C   UNL A   1      45.343  30.250  30.112  1.00  0.00     0.037 A 
ATOM     53  C   UNL A   1      45.837  25.554  35.339  1.00  0.00     0.037 A 
ATOM     54  C   UNL A   1      45.749  30.787  31.384  1.00  0.00     0.049 A 
ATOM     55  C   UNL A   1      46.189  27.007  35.532  1.00  0.00     0.074 A 
ATOM     56  C   UNL A   1      46.031  32.100  31.714  1.00  0.00     0.029 A 
ATOM     57  N   UNL A   1      45.939  30.035  32.535  1.00  0.00    -0.354 N 
ATOM     58  N   UNL A   1      46.124  27.995  34.668  1.00  0.00    -0.248 NA
ATOM     59  C   UNL A   1      46.672  27.404  36.861  1.00  0.00     0.031 C 
ATOM     60  C   UNL A   1      46.445  32.134  33.049  1.00  0.00     0.029 A 
ATOM     61  C   UNL A   1      46.359  30.852  33.570  1.00  0.00     0.049 A 
ATOM     62  H   UNL A   1      45.797  29.063  32.604  1.00  0.00     0.167 HD
ATOM     63  C   UNL A   1      46.528  29.133  35.358  1.00  0.00     0.074 A 
ATOM     64  C   UNL A   1      46.824  28.713  36.713  1.00  0.00     0.031 C 
ATOM     65  C   UNL A   1      46.641  30.411  34.915  1.00  0.00     0.037 A 
BRANCH  52  66
ATOM     66  C   UNL A   1      45.224  31.183  28.937  1.00  0.00     0.058 A 
ATOM     67  C   UNL A   1      44.054  31.918  28.687  1.00  0.00     0.135 A 
ATOM     68  C   UNL A   1      46.307  31.363  28.061  1.00  0.00     0.135 A 
ATOM     69  F   UNL A   1      42.979  31.769  29.478  1.00  0.00    -0.206 F 
ATOM     70  C   UNL A   1      43.953  32.779  27.599  1.00  0.00     0.059 A 
ATOM     71  C   UNL A   1      46.239  32.242  26.984  1.00  0.00     0.059 A 
ATOM     72  F   UNL A   1      47.449  30.681  28.247  1.00  0.00    -0.206 F 
ATOM     73  C   UNL A   1      45.052  32.935  26.753  1.00  0.00     0.060 A 
BRANCH  73  74
ATOM     74  S   UNL A   1      44.908  34.064  25.352  1.00  0.00     0.124 S 
ATOM     75  O   UNL A   1      43.942  35.034  25.857  1.00  0.00    -0.237 OA
ATOM     76  O   UNL A   1      46.276  34.551  25.204  1.00  0.00    -0.237 OA
ATOM     77  O   UNL A   1      44.429  33.207  24.271  1.00  0.00    -0.744 OA
ENDBRANCH  73  74
ENDBRANCH  52  66
BRANCH  53  78
ATOM     78  C   UNL A   1      46.004  24.570  36.441  1.00  0.00     0.058 A 
ATOM     79  C   UNL A   1      44.980  24.340  37.371  1.00  0.00     0.135 A 
ATOM     80  C   UNL A   1      47.190  23.830  36.580  1.00  0.00     0.135 A 
ATOM     81  F   UNL A   1      43.830  25.027  37.286  1.00  0.00    -0.206 F 
ATOM     82  C   UNL A   1      45.130  23.426  38.409  1.00  0.00     0.059 A 
ATOM     83  C   UNL A   1      47.353  22.890  37.592  1.00  0.00     0.059 A 
ATOM     84  F   UNL A   1      48.197  24.003  35.709  1.00  0.00    -0.206 F 
ATOM     85  C   UNL A   1      46.320  22.702  38.508  1.00  0.00     0.060 A 
BRANCH  85  86
ATOM     86  S   UNL A   1      46.483  21.484  39.831  1.00  0.00     0.124 S 
ATOM     87  O   UNL A   1      47.905  21.575  40.140  1.00  0.00    -0.237 OA
ATOM     88  O   UNL A   1      45.573  22.010  40.843  1.00  0.00    -0.237 OA
ATOM     89  O   UNL A   1      46.053  20.241  39.197  1.00  0.00    -0.744 OA
ENDBRANCH  85  86
ENDBRANCH  53  78
BRANCH  65  90
ATOM     90  C   UNL A   1      47.062  31.457  35.912  1.00  0.00     0.058 A 
ATOM     91  C   UNL A   1      46.130  32.142  36.707  1.00  0.00     0.135 A 
ATOM     92  C   UNL A   1      48.425  31.732  36.115  1.00  0.00     0.135 A 
ATOM     93  F   UNL A   1      44.816  31.920  36.551  1.00  0.00    -0.206 F 
ATOM     94  C   UNL A   1      46.533  33.084  37.649  1.00  0.00     0.059 A 
ATOM     95  C   UNL A   1      48.851  32.645  37.073  1.00  0.00     0.059 A 
ATOM     96  F   UNL A   1      49.359  31.095  35.390  1.00  0.00    -0.206 F 
ATOM     97  C   UNL A   1      47.897  33.325  37.827  1.00  0.00     0.060 A 
BRANCH  97  98
ATOM     98  S   UNL A   1      48.406  34.523  39.078  1.00  0.00     0.124 S 
ATOM     99  O   UNL A   1      49.676  34.992  38.535  1.00  0.00    -0.237 OA
ATOM    100  O   UNL A   1      47.310  35.487  39.049  1.00  0.00    -0.237 OA
ATOM    101  O   UNL A   1      48.501  33.725  40.296  1.00  0.00    -0.744 OA
ENDBRANCH  97  98
ENDBRANCH  65  90
ENDBRANCH  39  40
ENDBRANCH  32  34
ENDBRANCH  31  32
ENDBRANCH  30  31
ENDBRANCH  29  30
ENDBRANCH  28  29
ENDBRANCH  27  28
ENDBRANCH  26  27
ENDBRANCH  25  26
ENDBRANCH   1  25
TORSDOF 27
ENDMDL
MODEL 3
REMARK VINA RESULT:      -6.7      6.619     11.834
REMARK SMILES C[C@H](C(=O)OCCOCCOCCOCCOC(=O)c1ccc(-c2c3nc(c(-c4c(F)cc(S(=O)(=O)[O-])cc4F)c4ccc([nH]4)c(-c4c(F)cc(S(=O)(=O)[O-])cc4F)c4nc(c(-c5c(F)cc(S(=O)(=O)[O-])cc5F)c5ccc2[nH]5)C=C4)C=C3)cc1)[C@@H](C)[NH2+]Cc1ccc(F)c(F)c1
REMARK SMILES IDX 10 1 9 2 8 3 7 4 6 5 5 6 3 7 4 8 2 9 1 10 86 11 87 12 88 13
REMARK SMILES IDX 89 16 90 17 91 18 97 19 92 20 95 21 93 22 96 23 94 24 11 25
REMARK SMILES IDX 12 26 13 27 14 28 15 29 16 30 17 31 18 32 19 33 20 34 21 35
REMARK SMILES IDX 85 36 22 37 84 38 23 39 24 40 25 41 78 42 26 43 83 44 77 45
REMARK SMILES IDX 79 46 27 47 82 48 76 49 75 50 28 52 62 53 41 54 61 55 42 56
REMARK SMILES IDX 45 57 60 58 80 59 43 60 44 61 59 63 81 64 46 65 29 66 30 67
REMARK SMILES IDX 39 68 31 69 32 70 38 71 40 72 33 73 34 74 35 75 36 76 37 77
REMARK SMILES IDX 63 78 64 79 73 80 65 81 66 82 72 83 74 84 67 85 68 86 69 87
REMARK SMILES IDX 70 88 71 89 47 90 48 91 57 92 49 93 50 94 56 95 58 96 51 97
REMARK SMILES IDX 52 98 53 99 54 100 55 101
REMARK H PARENT 88 14 88 15 79 51 45 62
REMARK Flexibility Score: inf
ROOT
ATOM      1  C   UNL A   1      39.022  28.232  28.338  1.00  0.00     0.188 C 
ENDROOT
BRANCH   1   2
ATOM      2  C   UNL A   1      37.957  29.334  28.327  1.00  0.00     0.188 C 
BRANCH   2   3
ATOM      3  O   UNL A   1      38.274  30.570  28.950  1.00  0.00    -0.376 OA
BRANCH   3   4
ATOM      4  C   UNL A   1      38.261  30.663  30.375  1.00  0.00     0.202 C 
BRANCH   4   5
ATOM      5  C   UNL A   1      36.916  30.620  31.118  1.00  0.00     0.261 C 
BRANCH   5   6
ATOM      6  O   UNL A   1      35.969  31.544  30.554  1.00  0.00    -0.463 OA
BRANCH   6   7
ATOM      7  C   UNL A   1      35.716  32.658  31.291  1.00  0.00     0.314 C 
ATOM      8  O   UNL A   1      35.588  32.646  32.509  1.00  0.00    -0.252 OA
BRANCH   7   9
ATOM      9  C   UNL A   1      35.783  33.935  30.439  1.00  0.00     0.154 C 
ATOM     10  C   UNL A   1      36.997  33.934  29.519  1.00  0.00     0.026 C 
BRANCH   9  11
ATOM     11  C   UNL A   1      34.421  34.086  29.704  1.00  0.00     0.193 C 
ATOM     12  C   UNL A   1      34.647  34.956  28.442  1.00  0.00     0.076 C 
BRANCH  11  13
ATOM     13  N   UNL A   1      33.784  32.802  29.325  1.00  0.00    -0.340 N 
ATOM     14  H   UNL A   1      32.797  32.841  29.580  1.00  0.00     0.346 HD
ATOM     15  H   UNL A   1      34.270  32.057  29.821  1.00  0.00     0.346 HD
BRANCH  13  16
ATOM     16  C   UNL A   1      33.890  32.522  27.875  1.00  0.00     0.297 C 
BRANCH  16  17
ATOM     17  C   UNL A   1      33.617  31.071  27.530  1.00  0.00     0.009 A 
ATOM     18  C   UNL A   1      34.620  30.101  27.703  1.00  0.00     0.013 A 
ATOM     19  C   UNL A   1      32.441  30.726  26.837  1.00  0.00     0.052 A 
ATOM     20  C   UNL A   1      34.494  28.848  27.098  1.00  0.00     0.043 A 
ATOM     21  C   UNL A   1      32.334  29.481  26.228  1.00  0.00     0.159 A 
ATOM     22  C   UNL A   1      33.364  28.556  26.340  1.00  0.00     0.158 A 
ATOM     23  F   UNL A   1      31.258  29.205  25.478  1.00  0.00    -0.204 F 
ATOM     24  F   UNL A   1      33.295  27.386  25.689  1.00  0.00    -0.204 F 
ENDBRANCH  16  17
ENDBRANCH  13  16
ENDBRANCH  11  13
ENDBRANCH   9  11
ENDBRANCH   7   9
ENDBRANCH   6   7
ENDBRANCH   5   6
ENDBRANCH   4   5
ENDBRANCH   3   4
ENDBRANCH   2   3
ENDBRANCH   1   2
BRANCH   1  25
ATOM     25  O   UNL A   1      40.208  28.487  27.600  1.00  0.00    -0.377 OA
BRANCH  25  26
ATOM     26  C   UNL A   1      40.876  27.409  26.944  1.00  0.00     0.188 C 
BRANCH  26  27
ATOM     27  C   UNL A   1      42.122  27.759  26.127  1.00  0.00     0.188 C 
BRANCH  27  28
ATOM     28  O   UNL A   1      42.411  26.942  24.987  1.00  0.00    -0.376 OA
BRANCH  28  29
ATOM     29  C   UNL A   1      43.291  25.833  25.146  1.00  0.00     0.202 C 
BRANCH  29  30
ATOM     30  C   UNL A   1      42.632  24.457  25.072  1.00  0.00     0.261 C 
BRANCH  30  31
ATOM     31  O   UNL A   1      43.588  23.389  25.109  1.00  0.00    -0.460 OA
BRANCH  31  32
ATOM     32  C   UNL A   1      43.383  22.481  26.093  1.00  0.00     0.338 C 
ATOM     33  O   UNL A   1      43.035  21.322  25.969  1.00  0.00    -0.246 OA
BRANCH  32  34
ATOM     34  C   UNL A   1      43.783  23.069  27.384  1.00  0.00     0.060 A 
ATOM     35  C   UNL A   1      42.776  23.448  28.281  1.00  0.00     0.016 A 
ATOM     36  C   UNL A   1      45.126  23.327  27.665  1.00  0.00     0.016 A 
ATOM     37  C   UNL A   1      43.107  24.142  29.441  1.00  0.00     0.010 A 
ATOM     38  C   UNL A   1      45.455  24.033  28.819  1.00  0.00     0.010 A 
ATOM     39  C   UNL A   1      44.442  24.482  29.685  1.00  0.00    -0.014 A 
BRANCH  39  40
ATOM     40  C   UNL A   1      44.763  25.481  30.726  1.00  0.00     0.031 A 
ATOM     41  C   UNL A   1      44.897  26.920  30.313  1.00  0.00     0.074 A 
ATOM     42  C   UNL A   1      44.924  25.110  32.008  1.00  0.00     0.049 A 
ATOM     43  N   UNL A   1      45.260  27.956  31.021  1.00  0.00    -0.248 NA
ATOM     44  C   UNL A   1      44.588  27.230  28.906  1.00  0.00     0.031 C 
ATOM     45  C   UNL A   1      44.772  23.747  32.516  1.00  0.00     0.029 A 
ATOM     46  N   UNL A   1      45.266  25.848  33.110  1.00  0.00    -0.354 N 
ATOM     47  C   UNL A   1      45.232  29.037  30.148  1.00  0.00     0.074 A 
ATOM     48  C   UNL A   1      44.852  28.526  28.849  1.00  0.00     0.031 C 
ATOM     49  C   UNL A   1      45.044  23.743  33.832  1.00  0.00     0.029 A 
ATOM     50  C   UNL A   1      45.424  25.093  34.246  1.00  0.00     0.049 A 
ATOM     51  H   UNL A   1      45.388  26.824  33.088  1.00  0.00     0.167 HD
ATOM     52  C   UNL A   1      45.495  30.339  30.410  1.00  0.00     0.037 A 
ATOM     53  C   UNL A   1      45.858  25.451  35.470  1.00  0.00     0.037 A 
ATOM     54  C   UNL A   1      45.877  30.827  31.710  1.00  0.00     0.049 A 
ATOM     55  C   UNL A   1      46.212  26.894  35.724  1.00  0.00     0.074 A 
ATOM     56  C   UNL A   1      46.158  32.125  32.094  1.00  0.00     0.029 A 
ATOM     57  N   UNL A   1      46.039  30.031  32.836  1.00  0.00    -0.354 N 
ATOM     58  N   UNL A   1      46.170  27.913  34.895  1.00  0.00    -0.248 NA
ATOM     59  C   UNL A   1      46.669  27.239  37.076  1.00  0.00     0.031 C 
ATOM     60  C   UNL A   1      46.544  32.107  33.438  1.00  0.00     0.029 A 
ATOM     61  C   UNL A   1      46.441  30.807  33.909  1.00  0.00     0.049 A 
ATOM     62  H   UNL A   1      45.891  29.058  32.866  1.00  0.00     0.167 HD
ATOM     63  C   UNL A   1      46.564  29.023  35.636  1.00  0.00     0.074 A 
ATOM     64  C   UNL A   1      46.830  28.552  36.980  1.00  0.00     0.031 C 
ATOM     65  C   UNL A   1      46.692  30.316  35.243  1.00  0.00     0.037 A 
BRANCH  52  66
ATOM     66  C   UNL A   1      45.406  31.315  29.269  1.00  0.00     0.058 A 
ATOM     67  C   UNL A   1      46.508  31.600  28.445  1.00  0.00     0.135 A 
ATOM     68  C   UNL A   1      44.192  31.958  28.978  1.00  0.00     0.135 A 
ATOM     69  F   UNL A   1      47.699  31.032  28.690  1.00  0.00    -0.206 F 
ATOM     70  C   UNL A   1      46.416  32.503  27.392  1.00  0.00     0.059 A 
ATOM     71  C   UNL A   1      44.068  32.842  27.910  1.00  0.00     0.059 A 
ATOM     72  F   UNL A   1      43.106  31.729  29.735  1.00  0.00    -0.206 F 
ATOM     73  C   UNL A   1      45.191  33.119  27.131  1.00  0.00     0.060 A 
BRANCH  73  74
ATOM     74  S   UNL A   1      45.086  34.281  25.754  1.00  0.00     0.124 S 
ATOM     75  O   UNL A   1      44.831  35.537  26.452  1.00  0.00    -0.237 OA
ATOM     76  O   UNL A   1      46.403  34.154  25.139  1.00  0.00    -0.237 OA
ATOM     77  O   UNL A   1      43.974  33.769  24.959  1.00  0.00    -0.744 OA
ENDBRANCH  73  74
ENDBRANCH  52  66
BRANCH  53  78
ATOM     78  C   UNL A   1      45.997  24.426  36.538  1.00  0.00     0.058 A 
ATOM     79  C   UNL A   1      45.068  24.336  37.584  1.00  0.00     0.135 A 
ATOM     80  C   UNL A   1      47.060  23.507  36.528  1.00  0.00     0.135 A 
ATOM     81  F   UNL A   1      44.038  25.196  37.643  1.00  0.00    -0.206 F 
ATOM     82  C   UNL A   1      45.193  23.384  38.591  1.00  0.00     0.059 A 
ATOM     83  C   UNL A   1      47.191  22.528  37.507  1.00  0.00     0.059 A 
ATOM     84  F   UNL A   1      47.970  23.543  35.542  1.00  0.00    -0.206 F 
ATOM     85  C   UNL A   1      46.257  22.482  38.541  1.00  0.00     0.060 A 
BRANCH  85  86
ATOM     86  S   UNL A   1      46.382  21.221  39.827  1.00  0.00     0.124 S 
ATOM     87  O   UNL A   1      46.141  20.000  39.067  1.00  0.00    -0.237 OA
ATOM     88  O   UNL A   1      47.744  21.414  40.312  1.00  0.00    -0.237 OA
ATOM     89  O   UNL A   1      45.330  21.596  40.768  1.00  0.00    -0.744 OA
ENDBRANCH  85  86
ENDBRANCH  53  78
BRANCH  65  90
ATOM     90  C   UNL A   1      47.096  31.322  36.287  1.00  0.00     0.058 A 
ATOM     91  C   UNL A   1      48.439  31.662  36.509  1.00  0.00     0.135 A 
ATOM     92  C   UNL A   1      46.117  31.998  37.034  1.00  0.00     0.135 A 
ATOM     93  F   UNL A   1      49.415  31.044  35.826  1.00  0.00    -0.206 F 
ATOM     94  C   UNL A   1      48.799  32.617  37.454  1.00  0.00     0.059 A 
ATOM     95  C   UNL A   1      46.452  32.979  37.960  1.00  0.00     0.059 A 
ATOM     96  F   UNL A   1      44.815  31.719  36.852  1.00  0.00    -0.206 F 
ATOM     97  C   UNL A   1      47.797  33.274  38.172  1.00  0.00     0.060 A 
BRANCH  97  98
ATOM     98  S   UNL A   1      48.277  34.536  39.369  1.00  0.00     0.124 S 
ATOM     99  O   UNL A   1      47.036  35.288  39.518  1.00  0.00    -0.237 OA
ATOM    100  O   UNL A   1      48.675  33.735  40.523  1.00  0.00    -0.237 OA
ATOM    101  O   UNL A   1      49.364  35.244  38.701  1.00  0.00    -0.744 OA
ENDBRANCH  97  98
ENDBRANCH  65  90
ENDBRANCH  39  40
ENDBRANCH  32  34
ENDBRANCH  31  32
ENDBRANCH  30  31
ENDBRANCH  29  30
ENDBRANCH  28  29
ENDBRANCH  27  28
ENDBRANCH  26  27
ENDBRANCH  25  26
ENDBRANCH   1  25
TORSDOF 27
ENDMDL
