MODEL 1
REMARK VINA RESULT:      -9.4      0.000      0.000
REMARK SMILES Cc1ccsc1[C@@H]1[NH2+][C@@H](C(=O)OCCOCCOCCOCCOC(=O)c2ccc(-c3c4nc(c(-c5c(F)cc(S(=O)(=O)[O-])cc5F)c5ccc([nH]5)c(-c5c(F)cc(S(=O)(=O)[O-])cc5F)c5nc(c(-c6c(F)cc(S(=O)(=O)[O-])cc6F)c6ccc3[nH]6)C=C5)C=C4)cc2)CS1
REMARK SMILES IDX 19 1 18 2 17 3 16 4 15 5 14 6 13 7 12 8 10 9 11 10 9 11 7 12
REMARK SMILES IDX 8 13 94 14 93 17 6 18 1 19 2 20 3 21 4 22 5 23 20 24 21 25
REMARK SMILES IDX 22 26 23 27 24 28 25 29 26 30 27 31 28 32 92 33 29 34 91 35
REMARK SMILES IDX 30 36 31 37 32 38 85 39 33 40 90 41 84 42 86 43 34 44 89 45
REMARK SMILES IDX 83 46 82 47 35 49 69 50 48 51 68 52 49 53 52 54 67 55 87 56
REMARK SMILES IDX 50 57 51 58 66 60 88 61 53 62 36 63 37 64 46 65 38 66 39 67
REMARK SMILES IDX 45 68 47 69 40 70 41 71 42 72 43 73 44 74 70 75 71 76 80 77
REMARK SMILES IDX 72 78 73 79 79 80 81 81 74 82 75 83 76 84 77 85 78 86 54 87
REMARK SMILES IDX 55 88 64 89 56 90 57 91 63 92 65 93 58 94 59 95 60 96 61 97
REMARK SMILES IDX 62 98
REMARK H PARENT 8 15 8 16 86 48 52 59
REMARK Flexibility Score: inf
ROOT
ATOM      1  C   UNL A   1      33.452  28.730  24.364  1.00  0.00     0.188 C 
ENDROOT
BRANCH   1   2
ATOM      2  O   UNL A   1      32.987  27.616  23.616  1.00  0.00    -0.377 OA
BRANCH   2   3
ATOM      3  C   UNL A   1      32.428  27.896  22.346  1.00  0.00     0.188 C 
BRANCH   3   4
ATOM      4  C   UNL A   1      31.257  28.891  22.410  1.00  0.00     0.188 C 
BRANCH   4   5
ATOM      5  O   UNL A   1      29.971  28.345  22.203  1.00  0.00    -0.376 OA
BRANCH   5   6
ATOM      6  C   UNL A   1      29.191  27.943  23.321  1.00  0.00     0.202 C 
BRANCH   6   7
ATOM      7  C   UNL A   1      29.099  26.501  23.900  1.00  0.00     0.261 C 
BRANCH   7   8
ATOM      8  O   UNL A   1      30.311  25.729  24.070  1.00  0.00    -0.459 OA
BRANCH   8   9
ATOM      9  C   UNL A   1      30.672  25.391  25.329  1.00  0.00     0.365 C 
ATOM     10  O   UNL A   1      29.945  25.554  26.306  1.00  0.00    -0.245 OA
BRANCH   9  11
ATOM     11  C   UNL A   1      32.037  24.672  25.449  1.00  0.00     0.304 C 
ATOM     12  C   UNL A   1      32.818  22.604  24.383  1.00  0.00     0.284 C 
ATOM     13  N   UNL A   1      32.637  24.057  24.220  1.00  0.00    -0.318 N 
ATOM     14  S   UNL A   1      31.825  22.052  25.797  1.00  0.00    -0.087 SA
ATOM     15  H   UNL A   1      32.019  24.228  23.427  1.00  0.00     0.348 HD
ATOM     16  H   UNL A   1      33.553  24.479  24.063  1.00  0.00     0.348 HD
ATOM     17  C   UNL A   1      31.924  23.668  26.592  1.00  0.00     0.153 C 
BRANCH  12  18
ATOM     18  C   UNL A   1      34.260  22.116  24.525  1.00  0.00     0.075 A 
ATOM     19  C   UNL A   1      33.973  19.540  24.645  1.00  0.00     0.046 C 
ATOM     20  C   UNL A   1      34.735  20.822  24.757  1.00  0.00    -0.030 A 
ATOM     21  C   UNL A   1      36.095  20.843  25.229  1.00  0.00     0.015 A 
ATOM     22  C   UNL A   1      36.641  22.102  25.229  1.00  0.00     0.065 A 
ATOM     23  S   UNL A   1      35.586  23.234  24.528  1.00  0.00    -0.141 S 
ENDBRANCH  12  18
ENDBRANCH   9  11
ENDBRANCH   8   9
ENDBRANCH   7   8
ENDBRANCH   6   7
ENDBRANCH   5   6
ENDBRANCH   4   5
ENDBRANCH   3   4
ENDBRANCH   2   3
ENDBRANCH   1   2
BRANCH   1  24
ATOM     24  C   UNL A   1      33.015  28.897  25.834  1.00  0.00     0.188 C 
BRANCH  24  25
ATOM     25  O   UNL A   1      34.033  29.387  26.701  1.00  0.00    -0.376 OA
BRANCH  25  26
ATOM     26  C   UNL A   1      33.888  30.682  27.265  1.00  0.00     0.202 C 
BRANCH  26  27
ATOM     27  C   UNL A   1      34.873  31.068  28.379  1.00  0.00     0.261 C 
BRANCH  27  28
ATOM     28  O   UNL A   1      35.750  30.030  28.838  1.00  0.00    -0.460 OA
BRANCH  28  29
ATOM     29  C   UNL A   1      36.490  30.284  29.944  1.00  0.00     0.338 C 
ATOM     30  O   UNL A   1      36.079  30.475  31.068  1.00  0.00    -0.246 OA
BRANCH  29  31
ATOM     31  C   UNL A   1      37.911  30.075  29.586  1.00  0.00     0.060 A 
ATOM     32  C   UNL A   1      38.245  29.876  28.240  1.00  0.00     0.016 A 
ATOM     33  C   UNL A   1      38.909  30.110  30.564  1.00  0.00     0.016 A 
ATOM     34  C   UNL A   1      39.575  29.675  27.870  1.00  0.00     0.010 A 
ATOM     35  C   UNL A   1      40.238  29.883  30.196  1.00  0.00     0.010 A 
ATOM     36  C   UNL A   1      40.572  29.630  28.854  1.00  0.00    -0.014 A 
BRANCH  36  37
ATOM     37  C   UNL A   1      41.915  29.100  28.513  1.00  0.00     0.031 A 
ATOM     38  C   UNL A   1      43.073  30.062  28.515  1.00  0.00     0.074 A 
ATOM     39  C   UNL A   1      42.113  27.800  28.231  1.00  0.00     0.049 A 
ATOM     40  N   UNL A   1      44.326  29.858  28.207  1.00  0.00    -0.248 NA
ATOM     41  C   UNL A   1      42.769  31.445  28.918  1.00  0.00     0.031 C 
ATOM     42  C   UNL A   1      41.085  26.762  28.251  1.00  0.00     0.029 A 
ATOM     43  N   UNL A   1      43.257  27.134  27.867  1.00  0.00    -0.354 N 
ATOM     44  C   UNL A   1      44.958  31.085  28.371  1.00  0.00     0.074 A 
ATOM     45  C   UNL A   1      43.945  32.036  28.771  1.00  0.00     0.031 C 
ATOM     46  C   UNL A   1      41.646  25.589  27.906  1.00  0.00     0.029 A 
ATOM     47  C   UNL A   1      43.062  25.799  27.605  1.00  0.00     0.049 A 
ATOM     48  H   UNL A   1      44.137  27.573  27.798  1.00  0.00     0.167 HD
ATOM     49  C   UNL A   1      46.268  31.392  28.209  1.00  0.00     0.037 A 
ATOM     50  C   UNL A   1      43.922  24.864  27.155  1.00  0.00     0.037 A 
ATOM     51  C   UNL A   1      47.269  30.443  27.800  1.00  0.00     0.049 A 
ATOM     52  C   UNL A   1      45.357  25.252  26.887  1.00  0.00     0.074 A 
ATOM     53  C   UNL A   1      48.625  30.649  27.616  1.00  0.00     0.029 A 
ATOM     54  N   UNL A   1      47.022  29.112  27.495  1.00  0.00    -0.354 N 
ATOM     55  N   UNL A   1      45.951  26.409  27.065  1.00  0.00    -0.248 NA
ATOM     56  C   UNL A   1      46.241  24.204  26.353  1.00  0.00     0.031 C 
ATOM     57  C   UNL A   1      49.186  29.458  27.142  1.00  0.00     0.029 A 
ATOM     58  C   UNL A   1      48.193  28.493  27.092  1.00  0.00     0.049 A 
ATOM     59  H   UNL A   1      46.143  28.673  27.556  1.00  0.00     0.167 HD
ATOM     60  C   UNL A   1      47.281  26.219  26.700  1.00  0.00     0.074 A 
ATOM     61  C   UNL A   1      47.406  24.833  26.297  1.00  0.00     0.031 C 
ATOM     62  C   UNL A   1      48.305  27.108  26.701  1.00  0.00     0.037 A 
BRANCH  49  63
ATOM     63  C   UNL A   1      46.676  32.822  28.437  1.00  0.00     0.058 A 
ATOM     64  C   UNL A   1      47.105  33.281  29.693  1.00  0.00     0.135 A 
ATOM     65  C   UNL A   1      46.638  33.747  27.381  1.00  0.00     0.135 A 
ATOM     66  F   UNL A   1      47.141  32.446  30.744  1.00  0.00    -0.206 F 
ATOM     67  C   UNL A   1      47.443  34.615  29.903  1.00  0.00     0.059 A 
ATOM     68  C   UNL A   1      47.004  35.077  27.561  1.00  0.00     0.059 A 
ATOM     69  F   UNL A   1      46.234  33.364  26.161  1.00  0.00    -0.206 F 
ATOM     70  C   UNL A   1      47.387  35.506  28.830  1.00  0.00     0.060 A 
BRANCH  70  71
ATOM     71  S   UNL A   1      47.811  37.236  29.123  1.00  0.00     0.124 S 
ATOM     72  O   UNL A   1      47.593  37.348  30.563  1.00  0.00    -0.237 OA
ATOM     73  O   UNL A   1      49.202  37.294  28.686  1.00  0.00    -0.237 OA
ATOM     74  O   UNL A   1      46.862  37.965  28.288  1.00  0.00    -0.744 OA
ENDBRANCH  70  71
ENDBRANCH  49  63
BRANCH  50  75
ATOM     75  C   UNL A   1      43.459  23.469  26.921  1.00  0.00     0.058 A 
ATOM     76  C   UNL A   1      43.372  22.551  27.978  1.00  0.00     0.135 A 
ATOM     77  C   UNL A   1      43.105  23.022  25.639  1.00  0.00     0.135 A 
ATOM     78  F   UNL A   1      43.714  22.923  29.220  1.00  0.00    -0.206 F 
ATOM     79  C   UNL A   1      42.959  21.238  27.773  1.00  0.00     0.059 A 
ATOM     80  C   UNL A   1      42.663  21.722  25.413  1.00  0.00     0.059 A 
ATOM     81  F   UNL A   1      43.167  23.860  24.592  1.00  0.00    -0.206 F 
ATOM     82  C   UNL A   1      42.602  20.834  26.485  1.00  0.00     0.060 A 
BRANCH  82  83
ATOM     83  S   UNL A   1      42.016  19.142  26.241  1.00  0.00     0.124 S 
ATOM     84  O   UNL A   1      42.951  18.649  25.237  1.00  0.00    -0.237 OA
ATOM     85  O   UNL A   1      42.157  18.577  27.580  1.00  0.00    -0.237 OA
ATOM     86  O   UNL A   1      40.641  19.326  25.788  1.00  0.00    -0.744 OA
ENDBRANCH  82  83
ENDBRANCH  50  75
BRANCH  62  87
ATOM     87  C   UNL A   1      49.666  26.607  26.292  1.00  0.00     0.058 A 
ATOM     88  C   UNL A   1      50.146  26.746  24.981  1.00  0.00     0.135 A 
ATOM     89  C   UNL A   1      50.526  26.035  27.245  1.00  0.00     0.135 A 
ATOM     90  F   UNL A   1      49.365  27.280  24.028  1.00  0.00    -0.206 F 
ATOM     91  C   UNL A   1      51.420  26.314  24.622  1.00  0.00     0.059 A 
ATOM     92  C   UNL A   1      51.815  25.626  26.917  1.00  0.00     0.059 A 
ATOM     93  F   UNL A   1      50.125  25.890  28.518  1.00  0.00    -0.206 F 
ATOM     94  C   UNL A   1      52.248  25.759  25.599  1.00  0.00     0.060 A 
BRANCH  94  95
ATOM     95  S   UNL A   1      53.913  25.238  25.128  1.00  0.00     0.124 S 
ATOM     96  O   UNL A   1      54.158  26.065  23.951  1.00  0.00    -0.237 OA
ATOM     97  O   UNL A   1      54.691  25.575  26.315  1.00  0.00    -0.237 OA
ATOM     98  O   UNL A   1      53.761  23.809  24.869  1.00  0.00    -0.744 OA
ENDBRANCH  94  95
ENDBRANCH  62  87
ENDBRANCH  36  37
ENDBRANCH  29  31
ENDBRANCH  28  29
ENDBRANCH  27  28
ENDBRANCH  26  27
ENDBRANCH  25  26
ENDBRANCH  24  25
ENDBRANCH   1  24
TORSDOF 24
ENDMDL
MODEL 2
REMARK VINA RESULT:      -9.2      4.927      6.310
REMARK SMILES Cc1ccsc1[C@@H]1[NH2+][C@@H](C(=O)OCCOCCOCCOCCOC(=O)c2ccc(-c3c4nc(c(-c5c(F)cc(S(=O)(=O)[O-])cc5F)c5ccc([nH]5)c(-c5c(F)cc(S(=O)(=O)[O-])cc5F)c5nc(c(-c6c(F)cc(S(=O)(=O)[O-])cc6F)c6ccc3[nH]6)C=C5)C=C4)cc2)CS1
REMARK SMILES IDX 19 1 18 2 17 3 16 4 15 5 14 6 13 7 12 8 10 9 11 10 9 11 7 12
REMARK SMILES IDX 8 13 94 14 93 17 6 18 1 19 2 20 3 21 4 22 5 23 20 24 21 25
REMARK SMILES IDX 22 26 23 27 24 28 25 29 26 30 27 31 28 32 92 33 29 34 91 35
REMARK SMILES IDX 30 36 31 37 32 38 85 39 33 40 90 41 84 42 86 43 34 44 89 45
REMARK SMILES IDX 83 46 82 47 35 49 69 50 48 51 68 52 49 53 52 54 67 55 87 56
REMARK SMILES IDX 50 57 51 58 66 60 88 61 53 62 36 63 37 64 46 65 38 66 39 67
REMARK SMILES IDX 45 68 47 69 40 70 41 71 42 72 43 73 44 74 70 75 71 76 80 77
REMARK SMILES IDX 72 78 73 79 79 80 81 81 74 82 75 83 76 84 77 85 78 86 54 87
REMARK SMILES IDX 55 88 64 89 56 90 57 91 63 92 65 93 58 94 59 95 60 96 61 97
REMARK SMILES IDX 62 98
REMARK H PARENT 8 15 8 16 86 48 52 59
REMARK Flexibility Score: inf
ROOT
ATOM      1  C   UNL A   1      32.588  28.377  23.151  1.00  0.00     0.188 C 
ENDROOT
BRANCH   1   2
ATOM      2  O   UNL A   1      31.271  28.197  22.655  1.00  0.00    -0.377 OA
BRANCH   2   3
ATOM      3  C   UNL A   1      30.214  28.434  23.566  1.00  0.00     0.188 C 
BRANCH   3   4
ATOM      4  C   UNL A   1      29.161  27.312  23.570  1.00  0.00     0.188 C 
BRANCH   4   5
ATOM      5  O   UNL A   1      29.654  26.003  23.377  1.00  0.00    -0.376 OA
BRANCH   5   6
ATOM      6  C   UNL A   1      30.450  25.397  24.386  1.00  0.00     0.202 C 
BRANCH   6   7
ATOM      7  C   UNL A   1      30.255  25.557  25.923  1.00  0.00     0.261 C 
BRANCH   7   8
ATOM      8  O   UNL A   1      30.165  24.373  26.750  1.00  0.00    -0.459 OA
BRANCH   8   9
ATOM      9  C   UNL A   1      30.851  23.276  26.356  1.00  0.00     0.365 C 
ATOM     10  O   UNL A   1      30.309  22.231  26.004  1.00  0.00    -0.245 OA
BRANCH   9  11
ATOM     11  C   UNL A   1      32.385  23.460  26.267  1.00  0.00     0.304 C 
ATOM     12  C   UNL A   1      34.109  21.895  25.493  1.00  0.00     0.284 C 
ATOM     13  N   UNL A   1      33.111  22.896  25.082  1.00  0.00    -0.318 N 
ATOM     14  S   UNL A   1      33.754  21.390  27.199  1.00  0.00    -0.087 SA
ATOM     15  H   UNL A   1      32.435  22.455  24.458  1.00  0.00     0.348 HD
ATOM     16  H   UNL A   1      33.596  23.658  24.608  1.00  0.00     0.348 HD
ATOM     17  C   UNL A   1      32.980  22.972  27.584  1.00  0.00     0.153 C 
BRANCH  12  18
ATOM     18  C   UNL A   1      35.574  22.308  25.356  1.00  0.00     0.075 A 
ATOM     19  C   UNL A   1      36.763  20.042  24.933  1.00  0.00     0.046 C 
ATOM     20  C   UNL A   1      36.712  21.504  25.239  1.00  0.00    -0.030 A 
ATOM     21  C   UNL A   1      37.908  22.245  25.545  1.00  0.00     0.015 A 
ATOM     22  C   UNL A   1      37.670  23.579  25.762  1.00  0.00     0.065 A 
ATOM     23  S   UNL A   1      36.046  23.975  25.456  1.00  0.00    -0.141 S 
ENDBRANCH  12  18
ENDBRANCH   9  11
ENDBRANCH   8   9
ENDBRANCH   7   8
ENDBRANCH   6   7
ENDBRANCH   5   6
ENDBRANCH   4   5
ENDBRANCH   3   4
ENDBRANCH   2   3
ENDBRANCH   1   2
BRANCH   1  24
ATOM     24  C   UNL A   1      32.815  29.222  24.422  1.00  0.00     0.188 C 
BRANCH  24  25
ATOM     25  O   UNL A   1      32.882  28.467  25.629  1.00  0.00    -0.376 OA
BRANCH  25  26
ATOM     26  C   UNL A   1      32.287  28.999  26.803  1.00  0.00     0.202 C 
BRANCH  26  27
ATOM     27  C   UNL A   1      32.605  30.464  27.138  1.00  0.00     0.261 C 
BRANCH  27  28
ATOM     28  O   UNL A   1      33.976  30.864  27.003  1.00  0.00    -0.460 OA
BRANCH  28  29
ATOM     29  C   UNL A   1      34.497  31.645  27.979  1.00  0.00     0.338 C 
ATOM     30  O   UNL A   1      33.943  32.554  28.558  1.00  0.00    -0.246 OA
BRANCH  29  31
ATOM     31  C   UNL A   1      35.798  31.058  28.374  1.00  0.00     0.060 A 
ATOM     32  C   UNL A   1      35.831  29.727  28.813  1.00  0.00     0.016 A 
ATOM     33  C   UNL A   1      36.977  31.801  28.279  1.00  0.00     0.016 A 
ATOM     34  C   UNL A   1      37.040  29.146  29.193  1.00  0.00     0.010 A 
ATOM     35  C   UNL A   1      38.185  31.225  28.684  1.00  0.00     0.010 A 
ATOM     36  C   UNL A   1      38.216  29.908  29.175  1.00  0.00    -0.014 A 
BRANCH  36  37
ATOM     37  C   UNL A   1      39.424  29.408  29.876  1.00  0.00     0.031 A 
ATOM     38  C   UNL A   1      39.821  30.081  31.162  1.00  0.00     0.074 A 
ATOM     39  C   UNL A   1      40.142  28.373  29.401  1.00  0.00     0.049 A 
ATOM     40  N   UNL A   1      40.855  29.864  31.932  1.00  0.00    -0.248 NA
ATOM     41  C   UNL A   1      38.926  31.147  31.642  1.00  0.00     0.031 C 
ATOM     42  C   UNL A   1      39.829  27.606  28.198  1.00  0.00     0.029 A 
ATOM     43  N   UNL A   1      41.291  27.795  29.881  1.00  0.00    -0.354 N 
ATOM     44  C   UNL A   1      40.739  30.769  32.981  1.00  0.00     0.074 A 
ATOM     45  C   UNL A   1      39.555  31.561  32.731  1.00  0.00     0.031 C 
ATOM     46  C   UNL A   1      40.770  26.659  28.030  1.00  0.00     0.029 A 
ATOM     47  C   UNL A   1      41.770  26.778  29.091  1.00  0.00     0.049 A 
ATOM     48  H   UNL A   1      41.731  28.083  30.714  1.00  0.00     0.167 HD
ATOM     49  C   UNL A   1      41.543  30.923  34.060  1.00  0.00     0.037 A 
ATOM     50  C   UNL A   1      42.896  26.045  29.202  1.00  0.00     0.037 A 
ATOM     51  C   UNL A   1      42.726  30.139  34.296  1.00  0.00     0.049 A 
ATOM     52  C   UNL A   1      43.830  26.300  30.361  1.00  0.00     0.074 A 
ATOM     53  C   UNL A   1      43.605  30.208  35.363  1.00  0.00     0.029 A 
ATOM     54  N   UNL A   1      43.206  29.152  33.446  1.00  0.00    -0.354 N 
ATOM     55  N   UNL A   1      43.702  27.143  31.359  1.00  0.00    -0.248 NA
ATOM     56  C   UNL A   1      45.066  25.504  30.407  1.00  0.00     0.031 C 
ATOM     57  C   UNL A   1      44.648  29.306  35.127  1.00  0.00     0.029 A 
ATOM     58  C   UNL A   1      44.386  28.629  33.947  1.00  0.00     0.049 A 
ATOM     59  H   UNL A   1      42.772  28.867  32.610  1.00  0.00     0.167 HD
ATOM     60  C   UNL A   1      44.820  26.955  32.167  1.00  0.00     0.074 A 
ATOM     61  C   UNL A   1      45.610  25.912  31.545  1.00  0.00     0.031 C 
ATOM     62  C   UNL A   1      45.160  27.584  33.320  1.00  0.00     0.037 A 
BRANCH  49  63
ATOM     63  C   UNL A   1      41.187  32.009  35.039  1.00  0.00     0.058 A 
ATOM     64  C   UNL A   1      40.255  31.802  36.070  1.00  0.00     0.135 A 
ATOM     65  C   UNL A   1      41.787  33.274  34.944  1.00  0.00     0.135 A 
ATOM     66  F   UNL A   1      39.635  30.619  36.196  1.00  0.00    -0.206 F 
ATOM     67  C   UNL A   1      39.903  32.824  36.947  1.00  0.00     0.059 A 
ATOM     68  C   UNL A   1      41.474  34.300  35.830  1.00  0.00     0.059 A 
ATOM     69  F   UNL A   1      42.680  33.528  33.976  1.00  0.00    -0.206 F 
ATOM     70  C   UNL A   1      40.517  34.071  36.816  1.00  0.00     0.060 A 
BRANCH  70  71
ATOM     71  S   UNL A   1      40.036  35.392  37.949  1.00  0.00     0.124 S 
ATOM     72  O   UNL A   1      41.224  35.498  38.792  1.00  0.00    -0.237 OA
ATOM     73  O   UNL A   1      39.800  36.510  37.042  1.00  0.00    -0.237 OA
ATOM     74  O   UNL A   1      38.847  34.859  38.607  1.00  0.00    -0.744 OA
ENDBRANCH  70  71
ENDBRANCH  49  63
BRANCH  50  75
ATOM     75  C   UNL A   1      43.214  25.001  28.190  1.00  0.00     0.058 A 
ATOM     76  C   UNL A   1      43.850  25.334  26.984  1.00  0.00     0.135 A 
ATOM     77  C   UNL A   1      42.882  23.654  28.401  1.00  0.00     0.135 A 
ATOM     78  F   UNL A   1      44.175  26.609  26.727  1.00  0.00    -0.206 F 
ATOM     79  C   UNL A   1      44.137  24.372  26.020  1.00  0.00     0.059 A 
ATOM     80  C   UNL A   1      43.183  22.669  27.464  1.00  0.00     0.059 A 
ATOM     81  F   UNL A   1      42.275  23.280  29.538  1.00  0.00    -0.206 F 
ATOM     82  C   UNL A   1      43.803  23.040  26.272  1.00  0.00     0.060 A 
BRANCH  82  83
ATOM     83  S   UNL A   1      44.229  21.794  25.035  1.00  0.00     0.124 S 
ATOM     84  O   UNL A   1      43.261  20.744  25.330  1.00  0.00    -0.237 OA
ATOM     85  O   UNL A   1      44.023  22.522  23.787  1.00  0.00    -0.237 OA
ATOM     86  O   UNL A   1      45.620  21.476  25.345  1.00  0.00    -0.744 OA
ENDBRANCH  82  83
ENDBRANCH  50  75
BRANCH  62  87
ATOM     87  C   UNL A   1      46.421  27.138  34.014  1.00  0.00     0.058 A 
ATOM     88  C   UNL A   1      46.449  26.015  34.854  1.00  0.00     0.135 A 
ATOM     89  C   UNL A   1      47.632  27.813  33.784  1.00  0.00     0.135 A 
ATOM     90  F   UNL A   1      45.320  25.335  35.114  1.00  0.00    -0.206 F 
ATOM     91  C   UNL A   1      47.628  25.589  35.461  1.00  0.00     0.059 A 
ATOM     92  C   UNL A   1      48.828  27.386  34.354  1.00  0.00     0.059 A 
ATOM     93  F   UNL A   1      47.667  28.887  32.979  1.00  0.00    -0.206 F 
ATOM     94  C   UNL A   1      48.812  26.279  35.201  1.00  0.00     0.060 A 
BRANCH  94  95
ATOM     95  S   UNL A   1      50.341  25.693  35.965  1.00  0.00     0.124 S 
ATOM     96  O   UNL A   1      49.896  24.459  36.605  1.00  0.00    -0.237 OA
ATOM     97  O   UNL A   1      51.221  25.529  34.812  1.00  0.00    -0.237 OA
ATOM     98  O   UNL A   1      50.704  26.776  36.875  1.00  0.00    -0.744 OA
ENDBRANCH  94  95
ENDBRANCH  62  87
ENDBRANCH  36  37
ENDBRANCH  29  31
ENDBRANCH  28  29
ENDBRANCH  27  28
ENDBRANCH  26  27
ENDBRANCH  25  26
ENDBRANCH  24  25
ENDBRANCH   1  24
TORSDOF 24
ENDMDL
MODEL 3
REMARK VINA RESULT:      -8.5      2.812      3.922
REMARK SMILES Cc1ccsc1[C@@H]1[NH2+][C@@H](C(=O)OCCOCCOCCOCCOC(=O)c2ccc(-c3c4nc(c(-c5c(F)cc(S(=O)(=O)[O-])cc5F)c5ccc([nH]5)c(-c5c(F)cc(S(=O)(=O)[O-])cc5F)c5nc(c(-c6c(F)cc(S(=O)(=O)[O-])cc6F)c6ccc3[nH]6)C=C5)C=C4)cc2)CS1
REMARK SMILES IDX 19 1 18 2 17 3 16 4 15 5 14 6 13 7 12 8 10 9 11 10 9 11 7 12
REMARK SMILES IDX 8 13 94 14 93 17 6 18 1 19 2 20 3 21 4 22 5 23 20 24 21 25
REMARK SMILES IDX 22 26 23 27 24 28 25 29 26 30 27 31 28 32 92 33 29 34 91 35
REMARK SMILES IDX 30 36 31 37 32 38 85 39 33 40 90 41 84 42 86 43 34 44 89 45
REMARK SMILES IDX 83 46 82 47 35 49 69 50 48 51 68 52 49 53 52 54 67 55 87 56
REMARK SMILES IDX 50 57 51 58 66 60 88 61 53 62 36 63 37 64 46 65 38 66 39 67
REMARK SMILES IDX 45 68 47 69 40 70 41 71 42 72 43 73 44 74 70 75 71 76 80 77
REMARK SMILES IDX 72 78 73 79 79 80 81 81 74 82 75 83 76 84 77 85 78 86 54 87
REMARK SMILES IDX 55 88 64 89 56 90 57 91 63 92 65 93 58 94 59 95 60 96 61 97
REMARK SMILES IDX 62 98
REMARK H PARENT 8 15 8 16 86 48 52 59
REMARK Flexibility Score: inf
ROOT
ATOM      1  C   UNL A   1      31.334  28.178  22.771  1.00  0.00     0.188 C 
ENDROOT
BRANCH   1   2
ATOM      2  O   UNL A   1      30.388  28.257  23.825  1.00  0.00    -0.377 OA
BRANCH   2   3
ATOM      3  C   UNL A   1      30.361  27.173  24.735  1.00  0.00     0.188 C 
BRANCH   3   4
ATOM      4  C   UNL A   1      29.414  26.042  24.295  1.00  0.00     0.188 C 
BRANCH   4   5
ATOM      5  O   UNL A   1      30.036  24.891  23.762  1.00  0.00    -0.376 OA
BRANCH   5   6
ATOM      6  C   UNL A   1      31.118  24.291  24.461  1.00  0.00     0.202 C 
BRANCH   6   7
ATOM      7  C   UNL A   1      31.542  24.598  25.927  1.00  0.00     0.261 C 
BRANCH   7   8
ATOM      8  O   UNL A   1      31.678  23.505  26.866  1.00  0.00    -0.459 OA
BRANCH   8   9
ATOM      9  C   UNL A   1      32.789  22.737  26.780  1.00  0.00     0.365 C 
ATOM     10  O   UNL A   1      33.750  22.854  27.537  1.00  0.00    -0.245 OA
BRANCH   9  11
ATOM     11  C   UNL A   1      32.725  21.608  25.724  1.00  0.00     0.304 C 
ATOM     12  C   UNL A   1      33.909  19.460  25.652  1.00  0.00     0.284 C 
ATOM     13  N   UNL A   1      32.745  20.183  26.192  1.00  0.00    -0.318 N 
ATOM     14  S   UNL A   1      35.106  20.672  25.030  1.00  0.00    -0.087 SA
ATOM     15  H   UNL A   1      32.787  20.168  27.210  1.00  0.00     0.348 HD
ATOM     16  H   UNL A   1      31.897  19.722  25.858  1.00  0.00     0.348 HD
ATOM     17  C   UNL A   1      33.814  21.885  24.693  1.00  0.00     0.153 C 
BRANCH  12  18
ATOM     18  C   UNL A   1      33.613  18.408  24.583  1.00  0.00     0.075 A 
ATOM     19  C   UNL A   1      35.256  16.498  25.200  1.00  0.00     0.046 C 
ATOM     20  C   UNL A   1      34.273  17.203  24.322  1.00  0.00    -0.030 A 
ATOM     21  C   UNL A   1      33.962  16.713  23.006  1.00  0.00     0.015 A 
ATOM     22  C   UNL A   1      33.012  17.468  22.364  1.00  0.00     0.065 A 
ATOM     23  S   UNL A   1      32.385  18.671  23.386  1.00  0.00    -0.141 S 
ENDBRANCH  12  18
ENDBRANCH   9  11
ENDBRANCH   8   9
ENDBRANCH   7   8
ENDBRANCH   6   7
ENDBRANCH   5   6
ENDBRANCH   4   5
ENDBRANCH   3   4
ENDBRANCH   2   3
ENDBRANCH   1   2
BRANCH   1  24
ATOM     24  C   UNL A   1      32.428  29.260  22.646  1.00  0.00     0.188 C 
BRANCH  24  25
ATOM     25  O   UNL A   1      33.715  28.855  23.103  1.00  0.00    -0.376 OA
BRANCH  25  26
ATOM     26  C   UNL A   1      33.916  28.656  24.494  1.00  0.00     0.202 C 
BRANCH  26  27
ATOM     27  C   UNL A   1      33.337  29.722  25.438  1.00  0.00     0.261 C 
BRANCH  27  28
ATOM     28  O   UNL A   1      34.240  30.266  26.411  1.00  0.00    -0.460 OA
BRANCH  28  29
ATOM     29  C   UNL A   1      34.299  29.653  27.617  1.00  0.00     0.338 C 
ATOM     30  O   UNL A   1      33.387  29.117  28.208  1.00  0.00    -0.246 OA
BRANCH  29  31
ATOM     31  C   UNL A   1      35.727  29.560  27.999  1.00  0.00     0.060 A 
ATOM     32  C   UNL A   1      36.703  29.766  27.014  1.00  0.00     0.016 A 
ATOM     33  C   UNL A   1      36.100  29.305  29.321  1.00  0.00     0.016 A 
ATOM     34  C   UNL A   1      38.056  29.684  27.342  1.00  0.00     0.010 A 
ATOM     35  C   UNL A   1      37.456  29.197  29.643  1.00  0.00     0.010 A 
ATOM     36  C   UNL A   1      38.438  29.351  28.649  1.00  0.00    -0.014 A 
BRANCH  36  37
ATOM     37  C   UNL A   1      39.838  28.946  28.923  1.00  0.00     0.031 A 
ATOM     38  C   UNL A   1      40.755  29.961  29.551  1.00  0.00     0.074 A 
ATOM     39  C   UNL A   1      40.284  27.707  28.647  1.00  0.00     0.049 A 
ATOM     40  N   UNL A   1      42.026  29.868  29.843  1.00  0.00    -0.248 NA
ATOM     41  C   UNL A   1      40.151  31.260  29.892  1.00  0.00     0.031 C 
ATOM     42  C   UNL A   1      39.480  26.621  28.092  1.00  0.00     0.029 A 
ATOM     43  N   UNL A   1      41.534  27.159  28.796  1.00  0.00    -0.354 N 
ATOM     44  C   UNL A   1      42.375  31.096  30.394  1.00  0.00     0.074 A 
ATOM     45  C   UNL A   1      41.192  31.928  30.363  1.00  0.00     0.031 C 
ATOM     46  C   UNL A   1      40.262  25.536  27.940  1.00  0.00     0.029 A 
ATOM     47  C   UNL A   1      41.627  25.862  28.352  1.00  0.00     0.049 A 
ATOM     48  H   UNL A   1      42.295  27.651  29.184  1.00  0.00     0.167 HD
ATOM     49  C   UNL A   1      43.572  31.493  30.888  1.00  0.00     0.037 A 
ATOM     50  C   UNL A   1      42.695  25.044  28.269  1.00  0.00     0.037 A 
ATOM     51  C   UNL A   1      44.747  30.663  30.904  1.00  0.00     0.049 A 
ATOM     52  C   UNL A   1      44.043  25.541  28.734  1.00  0.00     0.074 A 
ATOM     53  C   UNL A   1      46.007  30.966  31.391  1.00  0.00     0.029 A 
ATOM     54  N   UNL A   1      44.814  29.372  30.398  1.00  0.00    -0.354 N 
ATOM     55  N   UNL A   1      44.359  26.695  29.274  1.00  0.00    -0.248 NA
ATOM     56  C   UNL A   1      45.181  24.623  28.578  1.00  0.00     0.031 C 
ATOM     57  C   UNL A   1      46.849  29.881  31.124  1.00  0.00     0.029 A 
ATOM     58  C   UNL A   1      46.100  28.877  30.530  1.00  0.00     0.049 A 
ATOM     59  H   UNL A   1      44.058  28.882  30.004  1.00  0.00     0.167 HD
ATOM     60  C   UNL A   1      45.722  26.629  29.551  1.00  0.00     0.074 A 
ATOM     61  C   UNL A   1      46.168  25.318  29.128  1.00  0.00     0.031 C 
ATOM     62  C   UNL A   1      46.529  27.565  30.110  1.00  0.00     0.037 A 
BRANCH  49  63
ATOM     63  C   UNL A   1      43.672  32.901  31.409  1.00  0.00     0.058 A 
ATOM     64  C   UNL A   1      43.342  33.227  32.735  1.00  0.00     0.135 A 
ATOM     65  C   UNL A   1      44.106  33.939  30.569  1.00  0.00     0.135 A 
ATOM     66  F   UNL A   1      42.902  32.278  33.577  1.00  0.00    -0.206 F 
ATOM     67  C   UNL A   1      43.401  34.539  33.198  1.00  0.00     0.059 A 
ATOM     68  C   UNL A   1      44.204  35.252  31.020  1.00  0.00     0.059 A 
ATOM     69  F   UNL A   1      44.431  33.685  29.293  1.00  0.00    -0.206 F 
ATOM     70  C   UNL A   1      43.831  35.544  32.330  1.00  0.00     0.060 A 
BRANCH  70  71
ATOM     71  S   UNL A   1      43.884  37.243  32.940  1.00  0.00     0.124 S 
ATOM     72  O   UNL A   1      42.727  37.267  33.831  1.00  0.00    -0.237 OA
ATOM     73  O   UNL A   1      45.188  37.299  33.593  1.00  0.00    -0.237 OA
ATOM     74  O   UNL A   1      43.757  38.044  31.727  1.00  0.00    -0.744 OA
ENDBRANCH  70  71
ENDBRANCH  49  63
BRANCH  50  75
ATOM     75  C   UNL A   1      42.545  23.669  27.719  1.00  0.00     0.058 A 
ATOM     76  C   UNL A   1      42.566  23.437  26.335  1.00  0.00     0.135 A 
ATOM     77  C   UNL A   1      42.369  22.560  28.562  1.00  0.00     0.135 A 
ATOM     78  F   UNL A   1      42.715  24.464  25.486  1.00  0.00    -0.206 F 
ATOM     79  C   UNL A   1      42.407  22.160  25.806  1.00  0.00     0.059 A 
ATOM     80  C   UNL A   1      42.237  21.269  28.058  1.00  0.00     0.059 A 
ATOM     81  F   UNL A   1      42.345  22.724  29.894  1.00  0.00    -0.206 F 
ATOM     82  C   UNL A   1      42.248  21.081  26.677  1.00  0.00     0.060 A 
BRANCH  82  83
ATOM     83  S   UNL A   1      42.097  19.422  25.978  1.00  0.00     0.124 S 
ATOM     84  O   UNL A   1      40.662  19.330  25.743  1.00  0.00    -0.237 OA
ATOM     85  O   UNL A   1      42.936  19.517  24.788  1.00  0.00    -0.237 OA
ATOM     86  O   UNL A   1      42.620  18.563  27.037  1.00  0.00    -0.744 OA
ENDBRANCH  82  83
ENDBRANCH  50  75
BRANCH  62  87
ATOM     87  C   UNL A   1      47.973  27.198  30.336  1.00  0.00     0.058 A 
ATOM     88  C   UNL A   1      48.965  27.466  29.381  1.00  0.00     0.135 A 
ATOM     89  C   UNL A   1      48.376  26.626  31.554  1.00  0.00     0.135 A 
ATOM     90  F   UNL A   1      48.637  28.007  28.196  1.00  0.00    -0.206 F 
ATOM     91  C   UNL A   1      50.303  27.157  29.614  1.00  0.00     0.059 A 
ATOM     92  C   UNL A   1      49.711  26.339  31.822  1.00  0.00     0.059 A 
ATOM     93  F   UNL A   1      47.471  26.360  32.510  1.00  0.00    -0.206 F 
ATOM     94  C   UNL A   1      50.666  26.598  30.841  1.00  0.00     0.060 A 
BRANCH  94  95
ATOM     95  S   UNL A   1      52.410  26.238  31.145  1.00  0.00     0.124 S 
ATOM     96  O   UNL A   1      52.816  27.394  31.937  1.00  0.00    -0.237 OA
ATOM     97  O   UNL A   1      52.344  24.969  31.862  1.00  0.00    -0.237 OA
ATOM     98  O   UNL A   1      52.982  26.165  29.803  1.00  0.00    -0.744 OA
ENDBRANCH  94  95
ENDBRANCH  62  87
ENDBRANCH  36  37
ENDBRANCH  29  31
ENDBRANCH  28  29
ENDBRANCH  27  28
ENDBRANCH  26  27
ENDBRANCH  25  26
ENDBRANCH  24  25
ENDBRANCH   1  24
TORSDOF 24
ENDMDL
