MODEL 1
REMARK VINA RESULT:      -8.3      0.000      0.000
REMARK SMILES C[C@H](NC(=O)c1ccncc1/C=C/C(=O)OCCOCCOCCOCCOC(=O)c1ccc(-c2c3nc(c(-c4c(F)cc(S(=O)(=O)[O-])cc4F)c4ccc([nH]4)c(-c4c(F)cc(S(=O)(=O)[O-])cc4F)c4nc(c(-c5c(F)cc(S(=O)(=O)[O-])cc5F)c5ccc2[nH]5)C=C4)C=C3)cc1)c1ccco1
REMARK SMILES IDX 21 1 20 2 19 3 18 4 17 5 16 6 14 7 15 8 13 9 12 10 11 11
REMARK SMILES IDX 6 12 7 13 8 14 10 15 9 16 4 17 3 18 5 20 2 21 1 22 97 23
REMARK SMILES IDX 98 24 101 25 99 26 100 27 22 28 23 29 24 30 25 31 26 32
REMARK SMILES IDX 27 33 28 34 29 35 30 36 31 37 32 38 96 39 33 40 95 41 34 42
REMARK SMILES IDX 35 43 36 44 89 45 37 46 94 47 88 48 90 49 38 50 93 51 87 52
REMARK SMILES IDX 86 53 39 55 73 56 52 57 72 58 53 59 56 60 71 61 91 62 54 63
REMARK SMILES IDX 55 64 70 66 92 67 57 68 40 69 41 70 50 71 42 72 43 73 49 74
REMARK SMILES IDX 51 75 44 76 45 77 46 78 47 79 48 80 74 81 75 82 84 83 76 84
REMARK SMILES IDX 77 85 83 86 85 87 78 88 79 89 80 90 81 91 82 92 58 93 59 94
REMARK SMILES IDX 68 95 60 96 61 97 67 98 69 99 62 100 63 101 64 102 65 103
REMARK SMILES IDX 66 104
REMARK H PARENT 3 19 90 54 56 65
REMARK Flexibility Score: inf
ROOT
ATOM      1  C   UNL A   1      37.102  31.412  28.871  1.00  0.00     0.188 C 
ENDROOT
BRANCH   1   2
ATOM      2  C   UNL A   1      36.828  30.290  27.850  1.00  0.00     0.188 C 
BRANCH   2   3
ATOM      3  O   UNL A   1      35.536  30.339  27.278  1.00  0.00    -0.376 OA
BRANCH   3   4
ATOM      4  C   UNL A   1      34.713  29.188  27.285  1.00  0.00     0.202 C 
BRANCH   4   5
ATOM      5  C   UNL A   1      33.185  29.300  27.149  1.00  0.00     0.261 C 
BRANCH   5   6
ATOM      6  O   UNL A   1      32.569  28.482  26.151  1.00  0.00    -0.460 OA
BRANCH   6   7
ATOM      7  C   UNL A   1      32.378  27.187  26.463  1.00  0.00     0.330 C 
ATOM      8  O   UNL A   1      31.443  26.726  27.101  1.00  0.00    -0.247 OA
BRANCH   7   9
ATOM      9  C   UNL A   1      33.367  26.320  25.784  1.00  0.00     0.094 C 
ATOM     10  C   UNL A   1      33.318  24.977  25.685  1.00  0.00     0.018 C 
BRANCH  10  11
ATOM     11  C   UNL A   1      34.362  24.218  24.968  1.00  0.00     0.006 A 
ATOM     12  C   UNL A   1      34.147  23.478  23.797  1.00  0.00     0.050 A 
ATOM     13  C   UNL A   1      35.238  23.017  23.050  1.00  0.00     0.034 A 
ATOM     14  C   UNL A   1      36.501  23.131  23.589  1.00  0.00     0.112 A 
ATOM     15  C   UNL A   1      35.677  24.215  25.440  1.00  0.00     0.119 A 
ATOM     16  N   UNL A   1      36.740  23.677  24.794  1.00  0.00    -0.264 NA
BRANCH  12  17
ATOM     17  C   UNL A   1      32.792  23.176  23.282  1.00  0.00     0.252 C 
ATOM     18  N   UNL A   1      32.123  24.125  22.543  1.00  0.00    -0.342 N 
ATOM     19  H   UNL A   1      31.184  23.909  22.342  1.00  0.00     0.164 HD
ATOM     20  O   UNL A   1      32.276  22.092  23.528  1.00  0.00    -0.269 OA
BRANCH  18  21
ATOM     21  C   UNL A   1      32.587  25.403  22.008  1.00  0.00     0.145 C 
ATOM     22  C   UNL A   1      32.609  25.412  20.486  1.00  0.00     0.039 C 
BRANCH  21  23
ATOM     23  C   UNL A   1      31.736  26.499  22.562  1.00  0.00     0.125 A 
ATOM     24  C   UNL A   1      30.554  26.498  23.277  1.00  0.00     0.048 A 
ATOM     25  O   UNL A   1      32.154  27.783  22.361  1.00  0.00    -0.467 OA
ATOM     26  C   UNL A   1      30.239  27.854  23.533  1.00  0.00     0.042 A 
ATOM     27  C   UNL A   1      31.242  28.596  22.955  1.00  0.00     0.195 A 
ENDBRANCH  21  23
ENDBRANCH  18  21
ENDBRANCH  12  17
ENDBRANCH  10  11
ENDBRANCH   7   9
ENDBRANCH   6   7
ENDBRANCH   5   6
ENDBRANCH   4   5
ENDBRANCH   3   4
ENDBRANCH   2   3
ENDBRANCH   1   2
BRANCH   1  28
ATOM     28  O   UNL A   1      36.900  32.756  28.467  1.00  0.00    -0.377 OA
BRANCH  28  29
ATOM     29  C   UNL A   1      35.595  33.332  28.515  1.00  0.00     0.188 C 
BRANCH  29  30
ATOM     30  C   UNL A   1      34.461  32.752  29.395  1.00  0.00     0.188 C 
BRANCH  30  31
ATOM     31  O   UNL A   1      34.870  32.295  30.673  1.00  0.00    -0.376 OA
BRANCH  31  32
ATOM     32  C   UNL A   1      35.472  33.239  31.540  1.00  0.00     0.202 C 
BRANCH  32  33
ATOM     33  C   UNL A   1      36.328  32.674  32.682  1.00  0.00     0.261 C 
BRANCH  33  34
ATOM     34  O   UNL A   1      37.676  32.316  32.344  1.00  0.00    -0.460 OA
BRANCH  34  35
ATOM     35  C   UNL A   1      38.510  32.019  33.370  1.00  0.00     0.338 C 
ATOM     36  O   UNL A   1      38.223  31.939  34.544  1.00  0.00    -0.246 OA
BRANCH  35  37
ATOM     37  C   UNL A   1      39.809  31.623  32.782  1.00  0.00     0.060 A 
ATOM     38  C   UNL A   1      40.086  31.951  31.448  1.00  0.00     0.016 A 
ATOM     39  C   UNL A   1      40.750  30.936  33.553  1.00  0.00     0.016 A 
ATOM     40  C   UNL A   1      41.297  31.561  30.872  1.00  0.00     0.010 A 
ATOM     41  C   UNL A   1      41.953  30.531  32.967  1.00  0.00     0.010 A 
ATOM     42  C   UNL A   1      42.219  30.813  31.615  1.00  0.00    -0.014 A 
BRANCH  42  43
ATOM     43  C   UNL A   1      43.367  30.159  30.938  1.00  0.00     0.031 A 
ATOM     44  C   UNL A   1      44.680  30.897  30.893  1.00  0.00     0.074 A 
ATOM     45  C   UNL A   1      43.253  28.941  30.378  1.00  0.00     0.049 A 
ATOM     46  N   UNL A   1      45.798  30.566  30.304  1.00  0.00    -0.248 NA
ATOM     47  C   UNL A   1      44.734  32.186  31.606  1.00  0.00     0.031 C 
ATOM     48  C   UNL A   1      42.048  28.112  30.389  1.00  0.00     0.029 A 
ATOM     49  N   UNL A   1      44.167  28.192  29.677  1.00  0.00    -0.354 N 
ATOM     50  C   UNL A   1      46.681  31.611  30.555  1.00  0.00     0.074 A 
ATOM     51  C   UNL A   1      45.966  32.595  31.336  1.00  0.00     0.031 C 
ATOM     52  C   UNL A   1      42.294  26.974  29.714  1.00  0.00     0.029 A 
ATOM     53  C   UNL A   1      43.658  27.010  29.190  1.00  0.00     0.049 A 
ATOM     54  H   UNL A   1      45.099  28.476  29.535  1.00  0.00     0.167 HD
ATOM     55  C   UNL A   1      47.971  31.736  30.168  1.00  0.00     0.037 A 
ATOM     56  C   UNL A   1      44.224  26.081  28.391  1.00  0.00     0.037 A 
ATOM     57  C   UNL A   1      48.683  30.744  29.406  1.00  0.00     0.049 A 
ATOM     58  C   UNL A   1      45.647  26.278  27.925  1.00  0.00     0.074 A 
ATOM     59  C   UNL A   1      50.008  30.758  29.008  1.00  0.00     0.029 A 
ATOM     60  N   UNL A   1      48.130  29.570  28.918  1.00  0.00    -0.354 N 
ATOM     61  N   UNL A   1      46.486  27.248  28.210  1.00  0.00    -0.248 NA
ATOM     62  C   UNL A   1      46.204  25.254  27.028  1.00  0.00     0.031 C 
ATOM     63  C   UNL A   1      50.238  29.626  28.221  1.00  0.00     0.029 A 
ATOM     64  C   UNL A   1      49.078  28.871  28.190  1.00  0.00     0.049 A 
ATOM     65  H   UNL A   1      47.201  29.278  29.066  1.00  0.00     0.167 HD
ATOM     66  C   UNL A   1      47.677  26.925  27.562  1.00  0.00     0.074 A 
ATOM     67  C   UNL A   1      47.454  25.669  26.880  1.00  0.00     0.031 C 
ATOM     68  C   UNL A   1      48.850  27.607  27.536  1.00  0.00     0.037 A 
BRANCH  55  69
ATOM     69  C   UNL A   1      48.703  33.000  30.529  1.00  0.00     0.058 A 
ATOM     70  C   UNL A   1      49.462  33.113  31.703  1.00  0.00     0.135 A 
ATOM     71  C   UNL A   1      48.710  34.084  29.636  1.00  0.00     0.135 A 
ATOM     72  F   UNL A   1      49.472  32.115  32.601  1.00  0.00    -0.206 F 
ATOM     73  C   UNL A   1      50.203  34.258  31.980  1.00  0.00     0.059 A 
ATOM     74  C   UNL A   1      49.465  35.227  29.878  1.00  0.00     0.059 A 
ATOM     75  F   UNL A   1      47.993  34.031  28.502  1.00  0.00    -0.206 F 
ATOM     76  C   UNL A   1      50.206  35.305  31.057  1.00  0.00     0.060 A 
BRANCH  76  77
ATOM     77  S   UNL A   1      51.218  36.759  31.405  1.00  0.00     0.124 S 
ATOM     78  O   UNL A   1      52.564  36.194  31.364  1.00  0.00    -0.237 OA
ATOM     79  O   UNL A   1      50.871  37.649  30.301  1.00  0.00    -0.237 OA
ATOM     80  O   UNL A   1      50.758  37.188  32.722  1.00  0.00    -0.744 OA
ENDBRANCH  76  77
ENDBRANCH  55  69
BRANCH  56  81
ATOM     81  C   UNL A   1      43.452  24.885  27.948  1.00  0.00     0.058 A 
ATOM     82  C   UNL A   1      42.556  24.957  26.870  1.00  0.00     0.135 A 
ATOM     83  C   UNL A   1      43.544  23.662  28.633  1.00  0.00     0.135 A 
ATOM     84  F   UNL A   1      42.420  26.105  26.188  1.00  0.00    -0.206 F 
ATOM     85  C   UNL A   1      41.752  23.879  26.513  1.00  0.00     0.059 A 
ATOM     86  C   UNL A   1      42.776  22.559  28.274  1.00  0.00     0.059 A 
ATOM     87  F   UNL A   1      44.390  23.534  29.669  1.00  0.00    -0.206 F 
ATOM     88  C   UNL A   1      41.866  22.685  27.226  1.00  0.00     0.060 A 
BRANCH  88  89
ATOM     89  S   UNL A   1      40.811  21.294  26.758  1.00  0.00     0.124 S 
ATOM     90  O   UNL A   1      41.613  20.658  25.719  1.00  0.00    -0.237 OA
ATOM     91  O   UNL A   1      40.697  20.561  28.015  1.00  0.00    -0.237 OA
ATOM     92  O   UNL A   1      39.585  21.941  26.302  1.00  0.00    -0.744 OA
ENDBRANCH  88  89
ENDBRANCH  56  81
BRANCH  68  93
ATOM     93  C   UNL A   1      50.007  26.986  26.798  1.00  0.00     0.058 A 
ATOM     94  C   UNL A   1      50.226  27.212  25.430  1.00  0.00     0.135 A 
ATOM     95  C   UNL A   1      50.945  26.201  27.489  1.00  0.00     0.135 A 
ATOM     96  F   UNL A   1      49.359  27.951  24.719  1.00  0.00    -0.206 F 
ATOM     97  C   UNL A   1      51.318  26.659  24.769  1.00  0.00     0.059 A 
ATOM     98  C   UNL A   1      52.063  25.668  26.856  1.00  0.00     0.059 A 
ATOM     99  F   UNL A   1      50.793  25.964  28.803  1.00  0.00    -0.206 F 
ATOM    100  C   UNL A   1      52.234  25.891  25.491  1.00  0.00     0.060 A 
BRANCH 100 101
ATOM    101  S   UNL A   1      53.665  25.209  24.627  1.00  0.00     0.124 S 
ATOM    102  O   UNL A   1      54.770  25.785  25.387  1.00  0.00    -0.237 OA
ATOM    103  O   UNL A   1      53.468  23.772  24.786  1.00  0.00    -0.237 OA
ATOM    104  O   UNL A   1      53.512  25.710  23.265  1.00  0.00    -0.744 OA
ENDBRANCH 100 101
ENDBRANCH  68  93
ENDBRANCH  42  43
ENDBRANCH  35  37
ENDBRANCH  34  35
ENDBRANCH  33  34
ENDBRANCH  32  33
ENDBRANCH  31  32
ENDBRANCH  30  31
ENDBRANCH  29  30
ENDBRANCH  28  29
ENDBRANCH   1  28
TORSDOF 27
ENDMDL
MODEL 2
REMARK VINA RESULT:      -7.5      4.060     11.079
REMARK SMILES C[C@H](NC(=O)c1ccncc1/C=C/C(=O)OCCOCCOCCOCCOC(=O)c1ccc(-c2c3nc(c(-c4c(F)cc(S(=O)(=O)[O-])cc4F)c4ccc([nH]4)c(-c4c(F)cc(S(=O)(=O)[O-])cc4F)c4nc(c(-c5c(F)cc(S(=O)(=O)[O-])cc5F)c5ccc2[nH]5)C=C4)C=C3)cc1)c1ccco1
REMARK SMILES IDX 21 1 20 2 19 3 18 4 17 5 16 6 14 7 15 8 13 9 12 10 11 11
REMARK SMILES IDX 6 12 7 13 8 14 10 15 9 16 4 17 3 18 5 20 2 21 1 22 97 23
REMARK SMILES IDX 98 24 101 25 99 26 100 27 22 28 23 29 24 30 25 31 26 32
REMARK SMILES IDX 27 33 28 34 29 35 30 36 31 37 32 38 96 39 33 40 95 41 34 42
REMARK SMILES IDX 35 43 36 44 89 45 37 46 94 47 88 48 90 49 38 50 93 51 87 52
REMARK SMILES IDX 86 53 39 55 73 56 52 57 72 58 53 59 56 60 71 61 91 62 54 63
REMARK SMILES IDX 55 64 70 66 92 67 57 68 40 69 41 70 50 71 42 72 43 73 49 74
REMARK SMILES IDX 51 75 44 76 45 77 46 78 47 79 48 80 74 81 75 82 84 83 76 84
REMARK SMILES IDX 77 85 83 86 85 87 78 88 79 89 80 90 81 91 82 92 58 93 59 94
REMARK SMILES IDX 68 95 60 96 61 97 67 98 69 99 62 100 63 101 64 102 65 103
REMARK SMILES IDX 66 104
REMARK H PARENT 3 19 90 54 56 65
REMARK Flexibility Score: inf
ROOT
ATOM      1  C   UNL A   1      40.420  24.541  26.512  1.00  0.00     0.188 C 
ENDROOT
BRANCH   1   2
ATOM      2  C   UNL A   1      39.276  23.618  26.977  1.00  0.00     0.188 C 
BRANCH   2   3
ATOM      3  O   UNL A   1      38.868  22.677  26.003  1.00  0.00    -0.376 OA
BRANCH   3   4
ATOM      4  C   UNL A   1      37.515  22.623  25.593  1.00  0.00     0.202 C 
BRANCH   4   5
ATOM      5  C   UNL A   1      36.527  23.745  25.957  1.00  0.00     0.261 C 
BRANCH   5   6
ATOM      6  O   UNL A   1      35.642  24.180  24.921  1.00  0.00    -0.460 OA
BRANCH   6   7
ATOM      7  C   UNL A   1      34.325  24.011  25.140  1.00  0.00     0.330 C 
ATOM      8  O   UNL A   1      33.732  22.944  25.203  1.00  0.00    -0.247 OA
BRANCH   7   9
ATOM      9  C   UNL A   1      33.668  25.294  25.479  1.00  0.00     0.094 C 
ATOM     10  C   UNL A   1      34.092  26.525  25.131  1.00  0.00     0.018 C 
BRANCH  10  11
ATOM     11  C   UNL A   1      33.343  27.737  25.519  1.00  0.00     0.006 A 
ATOM     12  C   UNL A   1      32.701  28.599  24.619  1.00  0.00     0.050 A 
ATOM     13  C   UNL A   1      31.802  29.562  25.093  1.00  0.00     0.034 A 
ATOM     14  C   UNL A   1      31.718  29.772  26.452  1.00  0.00     0.112 A 
ATOM     15  C   UNL A   1      33.224  28.087  26.865  1.00  0.00     0.119 A 
ATOM     16  N   UNL A   1      32.448  29.088  27.349  1.00  0.00    -0.264 NA
BRANCH  12  17
ATOM     17  C   UNL A   1      32.910  28.523  23.155  1.00  0.00     0.252 C 
ATOM     18  N   UNL A   1      31.971  27.890  22.371  1.00  0.00    -0.342 N 
ATOM     19  H   UNL A   1      32.233  27.765  21.431  1.00  0.00     0.164 HD
ATOM     20  O   UNL A   1      33.917  29.013  22.658  1.00  0.00    -0.269 OA
BRANCH  18  21
ATOM     21  C   UNL A   1      30.648  27.375  22.716  1.00  0.00     0.145 C 
ATOM     22  C   UNL A   1      30.630  26.719  24.090  1.00  0.00     0.039 C 
BRANCH  21  23
ATOM     23  C   UNL A   1      29.653  28.485  22.612  1.00  0.00     0.125 A 
ATOM     24  C   UNL A   1      29.739  29.779  22.138  1.00  0.00     0.048 A 
ATOM     25  O   UNL A   1      28.385  28.236  23.052  1.00  0.00    -0.467 OA
ATOM     26  C   UNL A   1      28.451  30.347  22.289  1.00  0.00     0.042 A 
ATOM     27  C   UNL A   1      27.665  29.370  22.851  1.00  0.00     0.195 A 
ENDBRANCH  21  23
ENDBRANCH  18  21
ENDBRANCH  12  17
ENDBRANCH  10  11
ENDBRANCH   7   9
ENDBRANCH   6   7
ENDBRANCH   5   6
ENDBRANCH   4   5
ENDBRANCH   3   4
ENDBRANCH   2   3
ENDBRANCH   1   2
BRANCH   1  28
ATOM     28  O   UNL A   1      40.662  25.734  27.239  1.00  0.00    -0.377 OA
BRANCH  28  29
ATOM     29  C   UNL A   1      41.993  26.091  27.611  1.00  0.00     0.188 C 
BRANCH  29  30
ATOM     30  C   UNL A   1      42.681  25.534  28.881  1.00  0.00     0.188 C 
BRANCH  30  31
ATOM     31  O   UNL A   1      42.535  24.137  29.076  1.00  0.00    -0.376 OA
BRANCH  31  32
ATOM     32  C   UNL A   1      43.718  23.361  29.132  1.00  0.00     0.202 C 
BRANCH  32  33
ATOM     33  C   UNL A   1      44.543  23.274  27.841  1.00  0.00     0.261 C 
BRANCH  33  34
ATOM     34  O   UNL A   1      45.953  23.505  27.975  1.00  0.00    -0.460 OA
BRANCH  34  35
ATOM     35  C   UNL A   1      46.583  24.093  26.929  1.00  0.00     0.338 C 
ATOM     36  O   UNL A   1      46.923  23.567  25.892  1.00  0.00    -0.246 OA
BRANCH  35  37
ATOM     37  C   UNL A   1      46.620  25.548  27.197  1.00  0.00     0.060 A 
ATOM     38  C   UNL A   1      47.259  26.015  28.354  1.00  0.00     0.016 A 
ATOM     39  C   UNL A   1      46.031  26.444  26.303  1.00  0.00     0.016 A 
ATOM     40  C   UNL A   1      47.280  27.383  28.634  1.00  0.00     0.010 A 
ATOM     41  C   UNL A   1      46.037  27.810  26.596  1.00  0.00     0.010 A 
ATOM     42  C   UNL A   1      46.633  28.284  27.779  1.00  0.00    -0.014 A 
BRANCH  42  43
ATOM     43  C   UNL A   1      46.408  29.688  28.207  1.00  0.00     0.031 A 
ATOM     44  C   UNL A   1      45.187  29.992  29.035  1.00  0.00     0.074 A 
ATOM     45  C   UNL A   1      47.266  30.670  27.874  1.00  0.00     0.049 A 
ATOM     46  N   UNL A   1      44.743  31.142  29.467  1.00  0.00    -0.248 NA
ATOM     47  C   UNL A   1      44.352  28.841  29.422  1.00  0.00     0.031 C 
ATOM     48  C   UNL A   1      48.501  30.495  27.110  1.00  0.00     0.029 A 
ATOM     49  N   UNL A   1      47.219  32.019  28.129  1.00  0.00    -0.354 N 
ATOM     50  C   UNL A   1      43.569  30.859  30.156  1.00  0.00     0.074 A 
ATOM     51  C   UNL A   1      43.360  29.431  30.073  1.00  0.00     0.031 C 
ATOM     52  C   UNL A   1      49.088  31.696  26.948  1.00  0.00     0.029 A 
ATOM     53  C   UNL A   1      48.252  32.727  27.560  1.00  0.00     0.049 A 
ATOM     54  H   UNL A   1      46.511  32.441  28.667  1.00  0.00     0.167 HD
ATOM     55  C   UNL A   1      42.742  31.714  30.800  1.00  0.00     0.037 A 
ATOM     56  C   UNL A   1      48.479  34.057  27.518  1.00  0.00     0.037 A 
ATOM     57  C   UNL A   1      42.966  33.133  30.895  1.00  0.00     0.049 A 
ATOM     58  C   UNL A   1      47.505  34.993  28.194  1.00  0.00     0.074 A 
ATOM     59  C   UNL A   1      42.210  34.077  31.569  1.00  0.00     0.029 A 
ATOM     60  N   UNL A   1      44.013  33.814  30.292  1.00  0.00    -0.354 N 
ATOM     61  N   UNL A   1      46.425  34.707  28.884  1.00  0.00    -0.248 NA
ATOM     62  C   UNL A   1      47.779  36.433  28.088  1.00  0.00     0.031 C 
ATOM     63  C   UNL A   1      42.761  35.336  31.317  1.00  0.00     0.029 A 
ATOM     64  C   UNL A   1      43.900  35.170  30.548  1.00  0.00     0.049 A 
ATOM     65  H   UNL A   1      44.729  33.394  29.762  1.00  0.00     0.167 HD
ATOM     66  C   UNL A   1      45.920  35.927  29.327  1.00  0.00     0.074 A 
ATOM     67  C   UNL A   1      46.816  36.952  28.836  1.00  0.00     0.031 C 
ATOM     68  C   UNL A   1      44.815  36.178  30.073  1.00  0.00     0.037 A 
BRANCH  55  69
ATOM     69  C   UNL A   1      41.496  31.158  31.433  1.00  0.00     0.058 A 
ATOM     70  C   UNL A   1      41.493  30.620  32.729  1.00  0.00     0.135 A 
ATOM     71  C   UNL A   1      40.267  31.248  30.757  1.00  0.00     0.135 A 
ATOM     72  F   UNL A   1      42.643  30.490  33.409  1.00  0.00    -0.206 F 
ATOM     73  C   UNL A   1      40.316  30.189  33.332  1.00  0.00     0.059 A 
ATOM     74  C   UNL A   1      39.075  30.850  31.352  1.00  0.00     0.059 A 
ATOM     75  F   UNL A   1      40.216  31.748  29.513  1.00  0.00    -0.206 F 
ATOM     76  C   UNL A   1      39.111  30.317  32.640  1.00  0.00     0.060 A 
BRANCH  76  77
ATOM     77  S   UNL A   1      37.586  29.806  33.460  1.00  0.00     0.124 S 
ATOM     78  O   UNL A   1      37.493  28.406  33.055  1.00  0.00    -0.237 OA
ATOM     79  O   UNL A   1      37.898  30.039  34.867  1.00  0.00    -0.237 OA
ATOM     80  O   UNL A   1      36.577  30.692  32.889  1.00  0.00    -0.744 OA
ENDBRANCH  76  77
ENDBRANCH  55  69
BRANCH  56  81
ATOM     81  C   UNL A   1      49.660  34.606  26.792  1.00  0.00     0.058 A 
ATOM     82  C   UNL A   1      50.892  34.785  27.439  1.00  0.00     0.135 A 
ATOM     83  C   UNL A   1      49.564  35.025  25.454  1.00  0.00     0.135 A 
ATOM     84  F   UNL A   1      51.036  34.413  28.721  1.00  0.00    -0.206 F 
ATOM     85  C   UNL A   1      51.972  35.393  26.806  1.00  0.00     0.059 A 
ATOM     86  C   UNL A   1      50.639  35.604  24.787  1.00  0.00     0.059 A 
ATOM     87  F   UNL A   1      48.412  34.872  24.783  1.00  0.00    -0.206 F 
ATOM     88  C   UNL A   1      51.832  35.805  25.480  1.00  0.00     0.060 A 
BRANCH  88  89
ATOM     89  S   UNL A   1      53.238  36.600  24.669  1.00  0.00     0.124 S 
ATOM     90  O   UNL A   1      53.144  36.053  23.320  1.00  0.00    -0.237 OA
ATOM     91  O   UNL A   1      52.910  38.015  24.808  1.00  0.00    -0.237 OA
ATOM     92  O   UNL A   1      54.380  36.146  25.456  1.00  0.00    -0.744 OA
ENDBRANCH  88  89
ENDBRANCH  56  81
BRANCH  68  93
ATOM     93  C   UNL A   1      44.539  37.607  30.463  1.00  0.00     0.058 A 
ATOM     94  C   UNL A   1      45.116  38.193  31.600  1.00  0.00     0.135 A 
ATOM     95  C   UNL A   1      43.731  38.418  29.649  1.00  0.00     0.135 A 
ATOM     96  F   UNL A   1      45.893  37.463  32.417  1.00  0.00    -0.206 F 
ATOM     97  C   UNL A   1      44.880  39.524  31.931  1.00  0.00     0.059 A 
ATOM     98  C   UNL A   1      43.511  39.760  29.940  1.00  0.00     0.059 A 
ATOM     99  F   UNL A   1      43.165  37.913  28.540  1.00  0.00    -0.206 F 
ATOM    100  C   UNL A   1      44.079  40.301  31.092  1.00  0.00     0.060 A 
BRANCH 100 101
ATOM    101  S   UNL A   1      43.810  42.036  31.514  1.00  0.00     0.124 S 
ATOM    102  O   UNL A   1      42.420  42.019  31.957  1.00  0.00    -0.237 OA
ATOM    103  O   UNL A   1      44.805  42.260  32.557  1.00  0.00    -0.237 OA
ATOM    104  O   UNL A   1      44.059  42.736  30.257  1.00  0.00    -0.744 OA
ENDBRANCH 100 101
ENDBRANCH  68  93
ENDBRANCH  42  43
ENDBRANCH  35  37
ENDBRANCH  34  35
ENDBRANCH  33  34
ENDBRANCH  32  33
ENDBRANCH  31  32
ENDBRANCH  30  31
ENDBRANCH  29  30
ENDBRANCH  28  29
ENDBRANCH   1  28
TORSDOF 27
ENDMDL
MODEL 3
REMARK VINA RESULT:      -7.4      5.965     11.701
REMARK SMILES C[C@H](NC(=O)c1ccncc1/C=C/C(=O)OCCOCCOCCOCCOC(=O)c1ccc(-c2c3nc(c(-c4c(F)cc(S(=O)(=O)[O-])cc4F)c4ccc([nH]4)c(-c4c(F)cc(S(=O)(=O)[O-])cc4F)c4nc(c(-c5c(F)cc(S(=O)(=O)[O-])cc5F)c5ccc2[nH]5)C=C4)C=C3)cc1)c1ccco1
REMARK SMILES IDX 21 1 20 2 19 3 18 4 17 5 16 6 14 7 15 8 13 9 12 10 11 11
REMARK SMILES IDX 6 12 7 13 8 14 10 15 9 16 4 17 3 18 5 20 2 21 1 22 97 23
REMARK SMILES IDX 98 24 101 25 99 26 100 27 22 28 23 29 24 30 25 31 26 32
REMARK SMILES IDX 27 33 28 34 29 35 30 36 31 37 32 38 96 39 33 40 95 41 34 42
REMARK SMILES IDX 35 43 36 44 89 45 37 46 94 47 88 48 90 49 38 50 93 51 87 52
REMARK SMILES IDX 86 53 39 55 73 56 52 57 72 58 53 59 56 60 71 61 91 62 54 63
REMARK SMILES IDX 55 64 70 66 92 67 57 68 40 69 41 70 50 71 42 72 43 73 49 74
REMARK SMILES IDX 51 75 44 76 45 77 46 78 47 79 48 80 74 81 75 82 84 83 76 84
REMARK SMILES IDX 77 85 83 86 85 87 78 88 79 89 80 90 81 91 82 92 58 93 59 94
REMARK SMILES IDX 68 95 60 96 61 97 67 98 69 99 62 100 63 101 64 102 65 103
REMARK SMILES IDX 66 104
REMARK H PARENT 3 19 90 54 56 65
REMARK Flexibility Score: inf
ROOT
ATOM      1  C   UNL A   1      43.147  23.235  27.142  1.00  0.00     0.188 C 
ENDROOT
BRANCH   1   2
ATOM      2  C   UNL A   1      42.919  22.931  25.648  1.00  0.00     0.188 C 
BRANCH   2   3
ATOM      3  O   UNL A   1      42.081  21.817  25.410  1.00  0.00    -0.376 OA
BRANCH   3   4
ATOM      4  C   UNL A   1      41.327  21.258  26.469  1.00  0.00     0.202 C 
BRANCH   4   5
ATOM      5  C   UNL A   1      39.827  21.563  26.626  1.00  0.00     0.261 C 
BRANCH   5   6
ATOM      6  O   UNL A   1      39.016  21.409  25.459  1.00  0.00    -0.460 OA
BRANCH   6   7
ATOM      7  C   UNL A   1      38.508  20.183  25.233  1.00  0.00     0.330 C 
ATOM      8  O   UNL A   1      39.100  19.121  25.352  1.00  0.00    -0.247 OA
BRANCH   7   9
ATOM      9  C   UNL A   1      37.050  20.246  24.979  1.00  0.00     0.094 C 
ATOM     10  C   UNL A   1      36.272  21.343  25.054  1.00  0.00     0.018 C 
BRANCH  10  11
ATOM     11  C   UNL A   1      34.826  21.283  24.765  1.00  0.00     0.006 A 
ATOM     12  C   UNL A   1      34.155  22.135  23.876  1.00  0.00     0.050 A 
ATOM     13  C   UNL A   1      32.850  21.835  23.469  1.00  0.00     0.034 A 
ATOM     14  C   UNL A   1      32.180  20.813  24.105  1.00  0.00     0.112 A 
ATOM     15  C   UNL A   1      34.025  20.321  25.383  1.00  0.00     0.119 A 
ATOM     16  N   UNL A   1      32.723  20.079  25.092  1.00  0.00    -0.264 NA
BRANCH  12  17
ATOM     17  C   UNL A   1      34.783  23.351  23.310  1.00  0.00     0.252 C 
ATOM     18  N   UNL A   1      34.274  24.588  23.636  1.00  0.00    -0.342 N 
ATOM     19  H   UNL A   1      34.655  25.340  23.128  1.00  0.00     0.164 HD
ATOM     20  O   UNL A   1      35.738  23.244  22.550  1.00  0.00    -0.269 OA
BRANCH  18  21
ATOM     21  C   UNL A   1      33.259  24.960  24.618  1.00  0.00     0.145 C 
ATOM     22  C   UNL A   1      33.873  25.550  25.881  1.00  0.00     0.039 C 
BRANCH  21  23
ATOM     23  C   UNL A   1      32.286  25.897  23.979  1.00  0.00     0.125 A 
ATOM     24  C   UNL A   1      31.409  26.832  24.493  1.00  0.00     0.048 A 
ATOM     25  O   UNL A   1      32.199  25.880  22.617  1.00  0.00    -0.467 OA
ATOM     26  C   UNL A   1      30.759  27.424  23.384  1.00  0.00     0.042 A 
ATOM     27  C   UNL A   1      31.272  26.809  22.266  1.00  0.00     0.195 A 
ENDBRANCH  21  23
ENDBRANCH  18  21
ENDBRANCH  12  17
ENDBRANCH  10  11
ENDBRANCH   7   9
ENDBRANCH   6   7
ENDBRANCH   5   6
ENDBRANCH   4   5
ENDBRANCH   3   4
ENDBRANCH   2   3
ENDBRANCH   1   2
BRANCH   1  28
ATOM     28  O   UNL A   1      42.678  24.469  27.659  1.00  0.00    -0.377 OA
BRANCH  28  29
ATOM     29  C   UNL A   1      41.708  25.228  26.937  1.00  0.00     0.188 C 
BRANCH  29  30
ATOM     30  C   UNL A   1      41.330  26.678  27.324  1.00  0.00     0.188 C 
BRANCH  30  31
ATOM     31  O   UNL A   1      39.939  26.916  27.462  1.00  0.00    -0.376 OA
BRANCH  31  32
ATOM     32  C   UNL A   1      39.326  26.511  28.671  1.00  0.00     0.202 C 
BRANCH  32  33
ATOM     33  C   UNL A   1      39.630  27.359  29.914  1.00  0.00     0.261 C 
BRANCH  33  34
ATOM     34  O   UNL A   1      38.513  28.039  30.504  1.00  0.00    -0.460 OA
BRANCH  34  35
ATOM     35  C   UNL A   1      38.190  29.252  29.994  1.00  0.00     0.338 C 
ATOM     36  O   UNL A   1      37.456  29.478  29.057  1.00  0.00    -0.246 OA
BRANCH  35  37
ATOM     37  C   UNL A   1      38.749  30.277  30.903  1.00  0.00     0.060 A 
ATOM     38  C   UNL A   1      38.224  31.576  30.878  1.00  0.00     0.016 A 
ATOM     39  C   UNL A   1      39.786  29.949  31.780  1.00  0.00     0.016 A 
ATOM     40  C   UNL A   1      38.758  32.560  31.712  1.00  0.00     0.010 A 
ATOM     41  C   UNL A   1      40.331  30.942  32.599  1.00  0.00     0.010 A 
ATOM     42  C   UNL A   1      39.843  32.260  32.546  1.00  0.00    -0.014 A 
BRANCH  42  43
ATOM     43  C   UNL A   1      40.591  33.352  33.218  1.00  0.00     0.031 A 
ATOM     44  C   UNL A   1      41.675  34.053  32.441  1.00  0.00     0.074 A 
ATOM     45  C   UNL A   1      40.317  33.717  34.484  1.00  0.00     0.049 A 
ATOM     46  N   UNL A   1      42.505  34.984  32.831  1.00  0.00    -0.248 NA
ATOM     47  C   UNL A   1      41.846  33.645  31.036  1.00  0.00     0.031 C 
ATOM     48  C   UNL A   1      39.269  33.140  35.325  1.00  0.00     0.029 A 
ATOM     49  N   UNL A   1      40.912  34.657  35.290  1.00  0.00    -0.354 N 
ATOM     50  C   UNL A   1      43.310  35.256  31.730  1.00  0.00     0.074 A 
ATOM     51  C   UNL A   1      42.880  34.384  30.661  1.00  0.00     0.031 C 
ATOM     52  C   UNL A   1      39.304  33.731  36.534  1.00  0.00     0.029 A 
ATOM     53  C   UNL A   1      40.400  34.698  36.566  1.00  0.00     0.049 A 
ATOM     54  H   UNL A   1      41.640  35.246  34.983  1.00  0.00     0.167 HD
ATOM     55  C   UNL A   1      44.316  36.155  31.623  1.00  0.00     0.037 A 
ATOM     56  C   UNL A   1      40.791  35.415  37.640  1.00  0.00     0.037 A 
ATOM     57  C   UNL A   1      44.727  37.034  32.686  1.00  0.00     0.049 A 
ATOM     58  C   UNL A   1      41.958  36.366  37.506  1.00  0.00     0.074 A 
ATOM     59  C   UNL A   1      45.705  38.013  32.658  1.00  0.00     0.029 A 
ATOM     60  N   UNL A   1      44.196  37.034  33.966  1.00  0.00    -0.354 N 
ATOM     61  N   UNL A   1      42.678  36.650  36.445  1.00  0.00    -0.248 NA
ATOM     62  C   UNL A   1      42.365  37.097  38.715  1.00  0.00     0.031 C 
ATOM     63  C   UNL A   1      45.811  38.558  33.940  1.00  0.00     0.029 A 
ATOM     64  C   UNL A   1      44.852  37.970  34.747  1.00  0.00     0.049 A 
ATOM     65  H   UNL A   1      43.462  36.454  34.274  1.00  0.00     0.167 HD
ATOM     66  C   UNL A   1      43.592  37.619  36.852  1.00  0.00     0.074 A 
ATOM     67  C   UNL A   1      43.328  37.881  38.251  1.00  0.00     0.031 C 
ATOM     68  C   UNL A   1      44.562  38.239  36.133  1.00  0.00     0.037 A 
BRANCH  55  69
ATOM     69  C   UNL A   1      45.074  36.223  30.325  1.00  0.00     0.058 A 
ATOM     70  C   UNL A   1      46.282  35.537  30.129  1.00  0.00     0.135 A 
ATOM     71  C   UNL A   1      44.531  36.920  29.233  1.00  0.00     0.135 A 
ATOM     72  F   UNL A   1      46.856  34.874  31.146  1.00  0.00    -0.206 F 
ATOM     73  C   UNL A   1      46.926  35.540  28.896  1.00  0.00     0.059 A 
ATOM     74  C   UNL A   1      45.143  36.914  27.984  1.00  0.00     0.059 A 
ATOM     75  F   UNL A   1      43.382  37.600  29.370  1.00  0.00    -0.206 F 
ATOM     76  C   UNL A   1      46.343  36.224  27.827  1.00  0.00     0.060 A 
BRANCH  76  77
ATOM     77  S   UNL A   1      47.163  36.170  26.219  1.00  0.00     0.124 S 
ATOM     78  O   UNL A   1      46.250  35.324  25.455  1.00  0.00    -0.237 OA
ATOM     79  O   UNL A   1      47.190  37.579  25.839  1.00  0.00    -0.237 OA
ATOM     80  O   UNL A   1      48.463  35.578  26.518  1.00  0.00    -0.744 OA
ENDBRANCH  76  77
ENDBRANCH  55  69
BRANCH  56  81
ATOM     81  C   UNL A   1      40.103  35.258  38.953  1.00  0.00     0.058 A 
ATOM     82  C   UNL A   1      40.296  34.113  39.742  1.00  0.00     0.135 A 
ATOM     83  C   UNL A   1      39.188  36.217  39.416  1.00  0.00     0.135 A 
ATOM     84  F   UNL A   1      41.151  33.160  39.341  1.00  0.00    -0.206 F 
ATOM     85  C   UNL A   1      39.582  33.905  40.918  1.00  0.00     0.059 A 
ATOM     86  C   UNL A   1      38.485  36.049  40.606  1.00  0.00     0.059 A 
ATOM     87  F   UNL A   1      38.967  37.335  38.706  1.00  0.00    -0.206 F 
ATOM     88  C   UNL A   1      38.673  34.877  41.338  1.00  0.00     0.060 A 
BRANCH  88  89
ATOM     89  S   UNL A   1      37.745  34.592  42.862  1.00  0.00     0.124 S 
ATOM     90  O   UNL A   1      36.403  34.348  42.344  1.00  0.00    -0.237 OA
ATOM     91  O   UNL A   1      38.431  33.435  43.426  1.00  0.00    -0.237 OA
ATOM     92  O   UNL A   1      37.919  35.839  43.599  1.00  0.00    -0.744 OA
ENDBRANCH  88  89
ENDBRANCH  56  81
BRANCH  68  93
ATOM     93  C   UNL A   1      45.372  39.306  36.820  1.00  0.00     0.058 A 
ATOM     94  C   UNL A   1      46.534  39.006  37.550  1.00  0.00     0.135 A 
ATOM     95  C   UNL A   1      45.012  40.659  36.693  1.00  0.00     0.135 A 
ATOM     96  F   UNL A   1      46.923  37.730  37.708  1.00  0.00    -0.206 F 
ATOM     97  C   UNL A   1      47.292  40.005  38.152  1.00  0.00     0.059 A 
ATOM     98  C   UNL A   1      45.775  41.676  37.256  1.00  0.00     0.059 A 
ATOM     99  F   UNL A   1      43.918  41.004  35.994  1.00  0.00    -0.206 F 
ATOM    100  C   UNL A   1      46.907  41.339  37.996  1.00  0.00     0.060 A 
BRANCH 100 101
ATOM    101  S   UNL A   1      47.920  42.628  38.752  1.00  0.00     0.124 S 
ATOM    102  O   UNL A   1      49.120  42.583  37.923  1.00  0.00    -0.237 OA
ATOM    103  O   UNL A   1      47.083  43.813  38.594  1.00  0.00    -0.237 OA
ATOM    104  O   UNL A   1      48.089  42.167  40.127  1.00  0.00    -0.744 OA
ENDBRANCH 100 101
ENDBRANCH  68  93
ENDBRANCH  42  43
ENDBRANCH  35  37
ENDBRANCH  34  35
ENDBRANCH  33  34
ENDBRANCH  32  33
ENDBRANCH  31  32
ENDBRANCH  30  31
ENDBRANCH  29  30
ENDBRANCH  28  29
ENDBRANCH   1  28
TORSDOF 27
ENDMDL
