MODEL 1
REMARK VINA RESULT:      -9.9      0.000      0.000
REMARK SMILES Cc1nc(CN(CC(=O)OCCOCCOCCOCCOC(=O)c2ccc(-c3c4nc(c(-c5c(F)cc(S(=O)(=O)[O-])cc5F)c5ccc([nH]5)c(-c5c(F)cc(S(=O)(=O)[O-])cc5F)c5nc(c(-c6c(F)cc(S(=O)(=O)[O-])cc6F)c6ccc3[nH]6)C=C5)C=C4)cc2)c2cccc(Cl)c2)sc1C
REMARK SMILES IDX 16 1 15 2 14 3 13 4 12 5 11 6 10 7 8 8 9 9 7 10 6 11 5 12
REMARK SMILES IDX 4 13 1 14 2 15 3 16 99 17 98 18 100 19 91 20 92 21 97 22
REMARK SMILES IDX 93 23 95 24 94 25 96 26 17 27 18 28 19 29 20 30 21 31 22 32
REMARK SMILES IDX 23 33 24 34 25 35 26 36 90 37 27 38 89 39 28 40 29 41 30 42
REMARK SMILES IDX 83 43 31 44 88 45 82 46 84 47 32 48 87 49 81 50 80 51 33 53
REMARK SMILES IDX 67 54 46 55 66 56 47 57 50 58 65 59 85 60 48 61 49 62 64 64
REMARK SMILES IDX 86 65 51 66 34 67 35 68 44 69 36 70 37 71 43 72 45 73 38 74
REMARK SMILES IDX 39 75 40 76 41 77 42 78 68 79 69 80 78 81 70 82 71 83 77 84
REMARK SMILES IDX 79 85 72 86 73 87 74 88 75 89 76 90 52 91 53 92 62 93 54 94
REMARK SMILES IDX 55 95 61 96 63 97 56 98 57 99 58 100 59 101 60 102
REMARK H PARENT 84 52 50 63
REMARK Flexibility Score: inf
ROOT
ATOM      1  O   UNL A   1      36.589  22.629  25.983  1.00  0.00    -0.377 OA
ENDROOT
BRANCH   1   2
ATOM      2  C   UNL A   1      36.343  21.337  25.460  1.00  0.00     0.188 C 
BRANCH   2   3
ATOM      3  C   UNL A   1      34.981  21.011  24.806  1.00  0.00     0.188 C 
BRANCH   3   4
ATOM      4  O   UNL A   1      34.489  22.064  24.003  1.00  0.00    -0.376 OA
BRANCH   4   5
ATOM      5  C   UNL A   1      33.184  21.977  23.464  1.00  0.00     0.202 C 
BRANCH   5   6
ATOM      6  C   UNL A   1      32.669  22.937  22.369  1.00  0.00     0.261 C 
BRANCH   6   7
ATOM      7  O   UNL A   1      33.445  24.119  22.074  1.00  0.00    -0.462 OA
BRANCH   7   8
ATOM      8  C   UNL A   1      32.823  25.207  21.557  1.00  0.00     0.325 C 
ATOM      9  O   UNL A   1      33.275  25.853  20.617  1.00  0.00    -0.250 OA
BRANCH   8  10
ATOM     10  C   UNL A   1      31.514  25.589  22.283  1.00  0.00     0.239 C 
BRANCH  10  11
ATOM     11  N   UNL A   1      31.618  26.428  23.513  1.00  0.00    -0.354 N 
BRANCH  11  12
ATOM     12  C   UNL A   1      32.782  26.098  24.396  1.00  0.00     0.184 C 
BRANCH  12  13
ATOM     13  C   UNL A   1      32.453  25.208  25.589  1.00  0.00     0.112 A 
ATOM     14  C   UNL A   1      30.010  22.963  26.938  1.00  0.00     0.068 C 
ATOM     15  C   UNL A   1      31.292  23.657  26.658  1.00  0.00     0.051 A 
ATOM     16  N   UNL A   1      31.234  24.828  25.921  1.00  0.00    -0.244 NA
ATOM     17  C   UNL A   1      32.571  23.229  26.972  1.00  0.00     0.025 A 
ATOM     18  S   UNL A   1      33.712  24.403  26.451  1.00  0.00    -0.122 S 
ATOM     19  C   UNL A   1      33.011  21.963  27.620  1.00  0.00     0.058 C 
ENDBRANCH  12  13
ENDBRANCH  11  12
BRANCH  11  20
ATOM     20  C   UNL A   1      30.988  27.677  23.637  1.00  0.00     0.039 A 
ATOM     21  C   UNL A   1      31.390  28.637  24.584  1.00  0.00     0.026 A 
ATOM     22  C   UNL A   1      29.977  28.113  22.750  1.00  0.00     0.046 A 
ATOM     23  C   UNL A   1      30.843  29.935  24.623  1.00  0.00     0.004 A 
ATOM     24  C   UNL A   1      29.383  29.378  22.824  1.00  0.00     0.043 A 
ATOM     25  C   UNL A   1      29.827  30.304  23.749  1.00  0.00     0.020 A 
ATOM     26  Cl  UNL A   1      28.105  29.788  21.743  1.00  0.00    -0.084 Cl
ENDBRANCH  11  20
ENDBRANCH  10  11
ENDBRANCH   8  10
ENDBRANCH   7   8
ENDBRANCH   6   7
ENDBRANCH   5   6
ENDBRANCH   4   5
ENDBRANCH   3   4
ENDBRANCH   2   3
ENDBRANCH   1   2
BRANCH   1  27
ATOM     27  C   UNL A   1      37.911  23.088  25.883  1.00  0.00     0.188 C 
BRANCH  27  28
ATOM     28  C   UNL A   1      38.922  21.934  25.869  1.00  0.00     0.188 C 
BRANCH  28  29
ATOM     29  O   UNL A   1      39.986  21.873  26.806  1.00  0.00    -0.376 OA
BRANCH  29  30
ATOM     30  C   UNL A   1      41.324  22.259  26.520  1.00  0.00     0.202 C 
BRANCH  30  31
ATOM     31  C   UNL A   1      41.875  23.685  26.340  1.00  0.00     0.261 C 
BRANCH  31  32
ATOM     32  O   UNL A   1      40.948  24.755  26.278  1.00  0.00    -0.460 OA
BRANCH  32  33
ATOM     33  C   UNL A   1      41.484  25.972  26.071  1.00  0.00     0.338 C 
ATOM     34  O   UNL A   1      41.717  26.513  25.002  1.00  0.00    -0.246 OA
BRANCH  33  35
ATOM     35  C   UNL A   1      41.542  26.640  27.379  1.00  0.00     0.060 A 
ATOM     36  C   UNL A   1      40.512  26.377  28.290  1.00  0.00     0.016 A 
ATOM     37  C   UNL A   1      42.616  27.467  27.718  1.00  0.00     0.016 A 
ATOM     38  C   UNL A   1      40.555  26.938  29.556  1.00  0.00     0.010 A 
ATOM     39  C   UNL A   1      42.631  28.075  28.971  1.00  0.00     0.010 A 
ATOM     40  C   UNL A   1      41.585  27.828  29.875  1.00  0.00    -0.014 A 
BRANCH  40  41
ATOM     41  C   UNL A   1      41.399  28.695  31.052  1.00  0.00     0.031 A 
ATOM     42  C   UNL A   1      40.275  29.686  31.001  1.00  0.00     0.074 A 
ATOM     43  C   UNL A   1      42.166  28.553  32.143  1.00  0.00     0.049 A 
ATOM     44  N   UNL A   1      39.881  30.539  31.906  1.00  0.00    -0.248 NA
ATOM     45  C   UNL A   1      39.487  29.713  29.757  1.00  0.00     0.031 C 
ATOM     46  C   UNL A   1      43.250  27.585  32.292  1.00  0.00     0.029 A 
ATOM     47  N   UNL A   1      42.146  29.233  33.331  1.00  0.00    -0.354 N 
ATOM     48  C   UNL A   1      38.801  31.207  31.340  1.00  0.00     0.074 A 
ATOM     49  C   UNL A   1      38.623  30.684  30.005  1.00  0.00     0.031 C 
ATOM     50  C   UNL A   1      43.811  27.749  33.503  1.00  0.00     0.029 A 
ATOM     51  C   UNL A   1      43.141  28.849  34.195  1.00  0.00     0.049 A 
ATOM     52  H   UNL A   1      41.483  29.927  33.545  1.00  0.00     0.167 HD
ATOM     53  C   UNL A   1      38.028  32.170  31.892  1.00  0.00     0.037 A 
ATOM     54  C   UNL A   1      43.480  29.355  35.397  1.00  0.00     0.037 A 
ATOM     55  C   UNL A   1      38.248  32.694  33.213  1.00  0.00     0.049 A 
ATOM     56  C   UNL A   1      42.651  30.472  35.971  1.00  0.00     0.074 A 
ATOM     57  C   UNL A   1      37.529  33.663  33.886  1.00  0.00     0.029 A 
ATOM     58  N   UNL A   1      39.284  32.305  34.053  1.00  0.00    -0.354 N 
ATOM     59  N   UNL A   1      41.609  31.077  35.449  1.00  0.00    -0.248 NA
ATOM     60  C   UNL A   1      43.034  30.972  37.297  1.00  0.00     0.031 C 
ATOM     61  C   UNL A   1      38.170  33.907  35.105  1.00  0.00     0.029 A 
ATOM     62  C   UNL A   1      39.246  33.040  35.225  1.00  0.00     0.049 A 
ATOM     63  H   UNL A   1      39.947  31.608  33.845  1.00  0.00     0.167 HD
ATOM     64  C   UNL A   1      41.197  32.017  36.389  1.00  0.00     0.074 A 
ATOM     65  C   UNL A   1      42.100  31.888  37.517  1.00  0.00     0.031 C 
ATOM     66  C   UNL A   1      40.168  32.899  36.329  1.00  0.00     0.037 A 
BRANCH  53  67
ATOM     67  C   UNL A   1      36.937  32.747  31.033  1.00  0.00     0.058 A 
ATOM     68  C   UNL A   1      37.190  33.735  30.065  1.00  0.00     0.135 A 
ATOM     69  C   UNL A   1      35.607  32.338  31.214  1.00  0.00     0.135 A 
ATOM     70  F   UNL A   1      38.441  34.183  29.866  1.00  0.00    -0.206 F 
ATOM     71  C   UNL A   1      36.159  34.332  29.347  1.00  0.00     0.059 A 
ATOM     72  C   UNL A   1      34.563  32.896  30.482  1.00  0.00     0.059 A 
ATOM     73  F   UNL A   1      35.305  31.403  32.128  1.00  0.00    -0.206 F 
ATOM     74  C   UNL A   1      34.846  33.911  29.569  1.00  0.00     0.060 A 
BRANCH  74  75
ATOM     75  S   UNL A   1      33.513  34.721  28.661  1.00  0.00     0.124 S 
ATOM     76  O   UNL A   1      32.563  35.006  29.732  1.00  0.00    -0.237 OA
ATOM     77  O   UNL A   1      34.187  35.881  28.087  1.00  0.00    -0.237 OA
ATOM     78  O   UNL A   1      33.090  33.706  27.701  1.00  0.00    -0.744 OA
ENDBRANCH  74  75
ENDBRANCH  53  67
BRANCH  54  79
ATOM     79  C   UNL A   1      44.665  28.805  36.106  1.00  0.00     0.058 A 
ATOM     80  C   UNL A   1      45.935  29.379  35.964  1.00  0.00     0.135 A 
ATOM     81  C   UNL A   1      44.529  27.731  37.001  1.00  0.00     0.135 A 
ATOM     82  F   UNL A   1      46.120  30.400  35.113  1.00  0.00    -0.206 F 
ATOM     83  C   UNL A   1      47.027  28.919  36.695  1.00  0.00     0.059 A 
ATOM     84  C   UNL A   1      45.598  27.270  37.761  1.00  0.00     0.059 A 
ATOM     85  F   UNL A   1      43.331  27.152  37.180  1.00  0.00    -0.206 F 
ATOM     86  C   UNL A   1      46.844  27.874  37.603  1.00  0.00     0.060 A 
BRANCH  86  87
ATOM     87  S   UNL A   1      48.240  27.363  38.631  1.00  0.00     0.124 S 
ATOM     88  O   UNL A   1      47.795  27.772  39.958  1.00  0.00    -0.237 OA
ATOM     89  O   UNL A   1      48.285  25.925  38.387  1.00  0.00    -0.237 OA
ATOM     90  O   UNL A   1      49.359  28.120  38.078  1.00  0.00    -0.744 OA
ENDBRANCH  86  87
ENDBRANCH  54  79
BRANCH  66  91
ATOM     91  C   UNL A   1      39.944  33.783  37.526  1.00  0.00     0.058 A 
ATOM     92  C   UNL A   1      40.586  35.023  37.661  1.00  0.00     0.135 A 
ATOM     93  C   UNL A   1      39.019  33.412  38.516  1.00  0.00     0.135 A 
ATOM     94  F   UNL A   1      41.484  35.424  36.745  1.00  0.00    -0.206 F 
ATOM     95  C   UNL A   1      40.337  35.854  38.748  1.00  0.00     0.059 A 
ATOM     96  C   UNL A   1      38.730  34.243  39.593  1.00  0.00     0.059 A 
ATOM     97  F   UNL A   1      38.366  32.243  38.429  1.00  0.00    -0.206 F 
ATOM     98  C   UNL A   1      39.404  35.457  39.707  1.00  0.00     0.060 A 
BRANCH  98  99
ATOM     99  S   UNL A   1      39.064  36.562  41.093  1.00  0.00     0.124 S 
ATOM    100  O   UNL A   1      38.026  35.825  41.807  1.00  0.00    -0.237 OA
ATOM    101  O   UNL A   1      40.362  36.635  41.758  1.00  0.00    -0.237 OA
ATOM    102  O   UNL A   1      38.626  37.796  40.447  1.00  0.00    -0.744 OA
ENDBRANCH  98  99
ENDBRANCH  66  91
ENDBRANCH  40  41
ENDBRANCH  33  35
ENDBRANCH  32  33
ENDBRANCH  31  32
ENDBRANCH  30  31
ENDBRANCH  29  30
ENDBRANCH  28  29
ENDBRANCH  27  28
ENDBRANCH   1  27
TORSDOF 27
ENDMDL
MODEL 2
REMARK VINA RESULT:      -9.8      6.144     11.751
REMARK SMILES Cc1nc(CN(CC(=O)OCCOCCOCCOCCOC(=O)c2ccc(-c3c4nc(c(-c5c(F)cc(S(=O)(=O)[O-])cc5F)c5ccc([nH]5)c(-c5c(F)cc(S(=O)(=O)[O-])cc5F)c5nc(c(-c6c(F)cc(S(=O)(=O)[O-])cc6F)c6ccc3[nH]6)C=C5)C=C4)cc2)c2cccc(Cl)c2)sc1C
REMARK SMILES IDX 16 1 15 2 14 3 13 4 12 5 11 6 10 7 8 8 9 9 7 10 6 11 5 12
REMARK SMILES IDX 4 13 1 14 2 15 3 16 99 17 98 18 100 19 91 20 92 21 97 22
REMARK SMILES IDX 93 23 95 24 94 25 96 26 17 27 18 28 19 29 20 30 21 31 22 32
REMARK SMILES IDX 23 33 24 34 25 35 26 36 90 37 27 38 89 39 28 40 29 41 30 42
REMARK SMILES IDX 83 43 31 44 88 45 82 46 84 47 32 48 87 49 81 50 80 51 33 53
REMARK SMILES IDX 67 54 46 55 66 56 47 57 50 58 65 59 85 60 48 61 49 62 64 64
REMARK SMILES IDX 86 65 51 66 34 67 35 68 44 69 36 70 37 71 43 72 45 73 38 74
REMARK SMILES IDX 39 75 40 76 41 77 42 78 68 79 69 80 78 81 70 82 71 83 77 84
REMARK SMILES IDX 79 85 72 86 73 87 74 88 75 89 76 90 52 91 53 92 62 93 54 94
REMARK SMILES IDX 55 95 61 96 63 97 56 98 57 99 58 100 59 101 60 102
REMARK H PARENT 84 52 50 63
REMARK Flexibility Score: inf
ROOT
ATOM      1  O   UNL A   1      34.112  35.254  29.896  1.00  0.00    -0.377 OA
ENDROOT
BRANCH   1   2
ATOM      2  C   UNL A   1      33.475  34.538  28.854  1.00  0.00     0.188 C 
BRANCH   2   3
ATOM      3  C   UNL A   1      33.916  33.095  28.521  1.00  0.00     0.188 C 
BRANCH   3   4
ATOM      4  O   UNL A   1      33.074  32.464  27.578  1.00  0.00    -0.376 OA
BRANCH   4   5
ATOM      5  C   UNL A   1      33.299  31.109  27.240  1.00  0.00     0.202 C 
BRANCH   5   6
ATOM      6  C   UNL A   1      32.278  30.269  26.442  1.00  0.00     0.261 C 
BRANCH   6   7
ATOM      7  O   UNL A   1      32.674  29.750  25.153  1.00  0.00    -0.462 OA
BRANCH   7   8
ATOM      8  C   UNL A   1      32.364  28.471  24.832  1.00  0.00     0.325 C 
ATOM      9  O   UNL A   1      31.948  27.656  25.650  1.00  0.00    -0.250 OA
BRANCH   8  10
ATOM     10  C   UNL A   1      32.617  28.113  23.351  1.00  0.00     0.239 C 
BRANCH  10  11
ATOM     11  N   UNL A   1      31.437  27.764  22.505  1.00  0.00    -0.354 N 
BRANCH  11  12
ATOM     12  C   UNL A   1      31.421  26.350  22.012  1.00  0.00     0.184 C 
BRANCH  12  13
ATOM     13  C   UNL A   1      31.987  25.322  22.984  1.00  0.00     0.112 A 
ATOM     14  C   UNL A   1      34.747  24.602  25.150  1.00  0.00     0.068 C 
ATOM     15  C   UNL A   1      33.395  24.611  24.534  1.00  0.00     0.051 A 
ATOM     16  N   UNL A   1      33.264  25.218  23.297  1.00  0.00    -0.244 NA
ATOM     17  C   UNL A   1      32.211  24.156  25.089  1.00  0.00     0.025 A 
ATOM     18  S   UNL A   1      30.932  24.373  23.963  1.00  0.00    -0.122 S 
ATOM     19  C   UNL A   1      31.958  23.590  26.442  1.00  0.00     0.058 C 
ENDBRANCH  12  13
ENDBRANCH  11  12
BRANCH  11  20
ATOM     20  C   UNL A   1      30.244  28.504  22.523  1.00  0.00     0.039 A 
ATOM     21  C   UNL A   1      30.131  29.773  21.926  1.00  0.00     0.026 A 
ATOM     22  C   UNL A   1      29.034  27.989  23.043  1.00  0.00     0.046 A 
ATOM     23  C   UNL A   1      28.903  30.459  21.833  1.00  0.00     0.004 A 
ATOM     24  C   UNL A   1      27.824  28.692  23.013  1.00  0.00     0.043 A 
ATOM     25  C   UNL A   1      27.748  29.923  22.389  1.00  0.00     0.020 A 
ATOM     26  Cl  UNL A   1      26.419  28.009  23.740  1.00  0.00    -0.084 Cl
ENDBRANCH  11  20
ENDBRANCH  10  11
ENDBRANCH   8  10
ENDBRANCH   7   8
ENDBRANCH   6   7
ENDBRANCH   5   6
ENDBRANCH   4   5
ENDBRANCH   3   4
ENDBRANCH   2   3
ENDBRANCH   1   2
BRANCH   1  27
ATOM     27  C   UNL A   1      33.324  35.521  31.026  1.00  0.00     0.188 C 
BRANCH  27  28
ATOM     28  C   UNL A   1      33.793  34.730  32.254  1.00  0.00     0.188 C 
BRANCH  28  29
ATOM     29  O   UNL A   1      34.014  33.330  32.191  1.00  0.00    -0.376 OA
BRANCH  29  30
ATOM     30  C   UNL A   1      35.295  32.720  32.287  1.00  0.00     0.202 C 
BRANCH  30  31
ATOM     31  C   UNL A   1      36.150  32.141  31.146  1.00  0.00     0.261 C 
BRANCH  31  32
ATOM     32  O   UNL A   1      36.557  30.786  31.239  1.00  0.00    -0.460 OA
BRANCH  32  33
ATOM     33  C   UNL A   1      36.613  30.120  30.071  1.00  0.00     0.338 C 
ATOM     34  O   UNL A   1      35.690  29.853  29.318  1.00  0.00    -0.246 OA
BRANCH  33  35
ATOM     35  C   UNL A   1      38.036  29.955  29.743  1.00  0.00     0.060 A 
ATOM     36  C   UNL A   1      38.384  29.839  28.391  1.00  0.00     0.016 A 
ATOM     37  C   UNL A   1      39.012  29.966  30.743  1.00  0.00     0.016 A 
ATOM     38  C   UNL A   1      39.718  29.741  28.031  1.00  0.00     0.010 A 
ATOM     39  C   UNL A   1      40.349  29.812  30.385  1.00  0.00     0.010 A 
ATOM     40  C   UNL A   1      40.694  29.673  29.031  1.00  0.00    -0.014 A 
BRANCH  40  41
ATOM     41  C   UNL A   1      42.030  29.182  28.649  1.00  0.00     0.031 A 
ATOM     42  C   UNL A   1      43.145  30.183  28.622  1.00  0.00     0.074 A 
ATOM     43  C   UNL A   1      42.242  27.881  28.402  1.00  0.00     0.049 A 
ATOM     44  N   UNL A   1      44.409  30.008  28.352  1.00  0.00    -0.248 NA
ATOM     45  C   UNL A   1      42.782  31.572  28.952  1.00  0.00     0.031 C 
ATOM     46  C   UNL A   1      41.223  26.835  28.449  1.00  0.00     0.029 A 
ATOM     47  N   UNL A   1      43.392  27.224  28.055  1.00  0.00    -0.354 N 
ATOM     48  C   UNL A   1      44.992  31.264  28.473  1.00  0.00     0.074 A 
ATOM     49  C   UNL A   1      43.940  32.195  28.811  1.00  0.00     0.031 C 
ATOM     50  C   UNL A   1      41.792  25.663  28.119  1.00  0.00     0.029 A 
ATOM     51  C   UNL A   1      43.204  25.887  27.813  1.00  0.00     0.049 A 
ATOM     52  H   UNL A   1      44.268  27.667  27.988  1.00  0.00     0.167 HD
ATOM     53  C   UNL A   1      46.292  31.603  28.319  1.00  0.00     0.037 A 
ATOM     54  C   UNL A   1      44.076  24.961  27.368  1.00  0.00     0.037 A 
ATOM     55  C   UNL A   1      47.313  30.660  27.952  1.00  0.00     0.049 A 
ATOM     56  C   UNL A   1      45.507  25.369  27.135  1.00  0.00     0.074 A 
ATOM     57  C   UNL A   1      48.665  30.881  27.773  1.00  0.00     0.029 A 
ATOM     58  N   UNL A   1      47.085  29.316  27.684  1.00  0.00    -0.354 N 
ATOM     59  N   UNL A   1      46.062  26.549  27.286  1.00  0.00    -0.248 NA
ATOM     60  C   UNL A   1      46.431  24.323  26.682  1.00  0.00     0.031 C 
ATOM     61  C   UNL A   1      49.243  29.685  27.332  1.00  0.00     0.029 A 
ATOM     62  C   UNL A   1      48.265  28.700  27.306  1.00  0.00     0.049 A 
ATOM     63  H   UNL A   1      46.212  28.867  27.753  1.00  0.00     0.167 HD
ATOM     64  C   UNL A   1      47.405  26.387  26.965  1.00  0.00     0.074 A 
ATOM     65  C   UNL A   1      47.578  24.987  26.624  1.00  0.00     0.031 C 
ATOM     66  C   UNL A   1      48.405  27.304  26.958  1.00  0.00     0.037 A 
BRANCH  53  67
ATOM     67  C   UNL A   1      46.642  33.057  28.479  1.00  0.00     0.058 A 
ATOM     68  C   UNL A   1      46.609  33.958  27.400  1.00  0.00     0.135 A 
ATOM     69  C   UNL A   1      47.064  33.548  29.724  1.00  0.00     0.135 A 
ATOM     70  F   UNL A   1      46.237  33.539  26.179  1.00  0.00    -0.206 F 
ATOM     71  C   UNL A   1      47.031  35.276  27.539  1.00  0.00     0.059 A 
ATOM     72  C   UNL A   1      47.458  34.871  29.894  1.00  0.00     0.059 A 
ATOM     73  F   UNL A   1      47.122  32.732  30.788  1.00  0.00    -0.206 F 
ATOM     74  C   UNL A   1      47.462  35.721  28.790  1.00  0.00     0.060 A 
BRANCH  74  75
ATOM     75  S   UNL A   1      48.045  37.422  28.948  1.00  0.00     0.124 S 
ATOM     76  O   UNL A   1      48.286  37.515  30.386  1.00  0.00    -0.237 OA
ATOM     77  O   UNL A   1      49.237  37.423  28.106  1.00  0.00    -0.237 OA
ATOM     78  O   UNL A   1      46.926  38.214  28.447  1.00  0.00    -0.744 OA
ENDBRANCH  74  75
ENDBRANCH  53  67
BRANCH  54  79
ATOM     79  C   UNL A   1      43.596  23.579  27.107  1.00  0.00     0.058 A 
ATOM     80  C   UNL A   1      43.346  22.680  28.152  1.00  0.00     0.135 A 
ATOM     81  C   UNL A   1      43.308  23.157  25.798  1.00  0.00     0.135 A 
ATOM     82  F   UNL A   1      43.615  23.031  29.419  1.00  0.00    -0.206 F 
ATOM     83  C   UNL A   1      42.813  21.417  27.912  1.00  0.00     0.059 A 
ATOM     84  C   UNL A   1      42.753  21.910  25.535  1.00  0.00     0.059 A 
ATOM     85  F   UNL A   1      43.522  23.984  24.762  1.00  0.00    -0.206 F 
ATOM     86  C   UNL A   1      42.504  21.048  26.601  1.00  0.00     0.060 A 
BRANCH  86  87
ATOM     87  S   UNL A   1      41.706  19.452  26.314  1.00  0.00     0.124 S 
ATOM     88  O   UNL A   1      42.363  19.008  25.091  1.00  0.00    -0.237 OA
ATOM     89  O   UNL A   1      42.051  18.718  27.528  1.00  0.00    -0.237 OA
ATOM     90  O   UNL A   1      40.295  19.801  26.184  1.00  0.00    -0.744 OA
ENDBRANCH  86  87
ENDBRANCH  54  79
BRANCH  66  91
ATOM     91  C   UNL A   1      49.783  26.824  26.591  1.00  0.00     0.058 A 
ATOM     92  C   UNL A   1      50.706  26.408  27.563  1.00  0.00     0.135 A 
ATOM     93  C   UNL A   1      50.157  26.714  25.241  1.00  0.00     0.135 A 
ATOM     94  F   UNL A   1      50.402  26.497  28.868  1.00  0.00    -0.206 F 
ATOM     95  C   UNL A   1      51.961  25.922  27.210  1.00  0.00     0.059 A 
ATOM     96  C   UNL A   1      51.392  26.199  24.865  1.00  0.00     0.059 A 
ATOM     97  F   UNL A   1      49.306  27.085  24.271  1.00  0.00    -0.206 F 
ATOM     98  C   UNL A   1      52.293  25.817  25.858  1.00  0.00     0.060 A 
BRANCH  98  99
ATOM     99  S   UNL A   1      53.910  25.150  25.413  1.00  0.00     0.124 S 
ATOM    100  O   UNL A   1      53.655  23.714  25.450  1.00  0.00    -0.237 OA
ATOM    101  O   UNL A   1      54.128  25.722  24.087  1.00  0.00    -0.237 OA
ATOM    102  O   UNL A   1      54.789  25.660  26.461  1.00  0.00    -0.744 OA
ENDBRANCH  98  99
ENDBRANCH  66  91
ENDBRANCH  40  41
ENDBRANCH  33  35
ENDBRANCH  32  33
ENDBRANCH  31  32
ENDBRANCH  30  31
ENDBRANCH  29  30
ENDBRANCH  28  29
ENDBRANCH  27  28
ENDBRANCH   1  27
TORSDOF 27
ENDMDL
MODEL 3
REMARK VINA RESULT:      -9.6      5.250     10.685
REMARK SMILES Cc1nc(CN(CC(=O)OCCOCCOCCOCCOC(=O)c2ccc(-c3c4nc(c(-c5c(F)cc(S(=O)(=O)[O-])cc5F)c5ccc([nH]5)c(-c5c(F)cc(S(=O)(=O)[O-])cc5F)c5nc(c(-c6c(F)cc(S(=O)(=O)[O-])cc6F)c6ccc3[nH]6)C=C5)C=C4)cc2)c2cccc(Cl)c2)sc1C
REMARK SMILES IDX 16 1 15 2 14 3 13 4 12 5 11 6 10 7 8 8 9 9 7 10 6 11 5 12
REMARK SMILES IDX 4 13 1 14 2 15 3 16 99 17 98 18 100 19 91 20 92 21 97 22
REMARK SMILES IDX 93 23 95 24 94 25 96 26 17 27 18 28 19 29 20 30 21 31 22 32
REMARK SMILES IDX 23 33 24 34 25 35 26 36 90 37 27 38 89 39 28 40 29 41 30 42
REMARK SMILES IDX 83 43 31 44 88 45 82 46 84 47 32 48 87 49 81 50 80 51 33 53
REMARK SMILES IDX 67 54 46 55 66 56 47 57 50 58 65 59 85 60 48 61 49 62 64 64
REMARK SMILES IDX 86 65 51 66 34 67 35 68 44 69 36 70 37 71 43 72 45 73 38 74
REMARK SMILES IDX 39 75 40 76 41 77 42 78 68 79 69 80 78 81 70 82 71 83 77 84
REMARK SMILES IDX 79 85 72 86 73 87 74 88 75 89 76 90 52 91 53 92 62 93 54 94
REMARK SMILES IDX 55 95 61 96 63 97 56 98 57 99 58 100 59 101 60 102
REMARK H PARENT 84 52 50 63
REMARK Flexibility Score: inf
ROOT
ATOM      1  O   UNL A   1      32.997  34.985  30.256  1.00  0.00    -0.377 OA
ENDROOT
BRANCH   1   2
ATOM      2  C   UNL A   1      33.653  34.868  29.008  1.00  0.00     0.188 C 
BRANCH   2   3
ATOM      3  C   UNL A   1      33.234  33.764  28.011  1.00  0.00     0.188 C 
BRANCH   3   4
ATOM      4  O   UNL A   1      33.766  32.496  28.337  1.00  0.00    -0.376 OA
BRANCH   4   5
ATOM      5  C   UNL A   1      33.811  31.485  27.347  1.00  0.00     0.202 C 
BRANCH   5   6
ATOM      6  C   UNL A   1      34.757  30.268  27.444  1.00  0.00     0.261 C 
BRANCH   6   7
ATOM      7  O   UNL A   1      34.175  28.963  27.659  1.00  0.00    -0.462 OA
BRANCH   7   8
ATOM      8  C   UNL A   1      33.633  28.299  26.610  1.00  0.00     0.325 C 
ATOM      9  O   UNL A   1      34.130  28.301  25.487  1.00  0.00    -0.250 OA
BRANCH   8  10
ATOM     10  C   UNL A   1      32.311  27.572  26.937  1.00  0.00     0.239 C 
BRANCH  10  11
ATOM     11  N   UNL A   1      31.789  26.591  25.941  1.00  0.00    -0.354 N 
BRANCH  11  12
ATOM     12  C   UNL A   1      32.010  25.155  26.305  1.00  0.00     0.184 C 
BRANCH  12  13
ATOM     13  C   UNL A   1      33.360  24.586  25.888  1.00  0.00     0.112 A 
ATOM     14  C   UNL A   1      35.556  21.780  26.255  1.00  0.00     0.068 C 
ATOM     15  C   UNL A   1      34.883  22.990  25.718  1.00  0.00     0.051 A 
ATOM     16  N   UNL A   1      34.023  23.668  26.565  1.00  0.00    -0.244 NA
ATOM     17  C   UNL A   1      34.943  23.488  24.427  1.00  0.00     0.025 A 
ATOM     18  S   UNL A   1      34.003  24.922  24.323  1.00  0.00    -0.122 S 
ATOM     19  C   UNL A   1      35.640  22.935  23.233  1.00  0.00     0.058 C 
ENDBRANCH  12  13
ENDBRANCH  11  12
BRANCH  11  20
ATOM     20  C   UNL A   1      30.807  26.920  24.992  1.00  0.00     0.039 A 
ATOM     21  C   UNL A   1      29.641  26.154  24.811  1.00  0.00     0.026 A 
ATOM     22  C   UNL A   1      30.857  28.105  24.223  1.00  0.00     0.046 A 
ATOM     23  C   UNL A   1      28.600  26.554  23.950  1.00  0.00     0.004 A 
ATOM     24  C   UNL A   1      29.856  28.477  23.317  1.00  0.00     0.043 A 
ATOM     25  C   UNL A   1      28.711  27.713  23.190  1.00  0.00     0.020 A 
ATOM     26  Cl  UNL A   1      30.045  29.905  22.371  1.00  0.00    -0.084 Cl
ENDBRANCH  11  20
ENDBRANCH  10  11
ENDBRANCH   8  10
ENDBRANCH   7   8
ENDBRANCH   6   7
ENDBRANCH   5   6
ENDBRANCH   4   5
ENDBRANCH   3   4
ENDBRANCH   2   3
ENDBRANCH   1   2
BRANCH   1  27
ATOM     27  C   UNL A   1      32.798  36.293  30.723  1.00  0.00     0.188 C 
BRANCH  27  28
ATOM     28  C   UNL A   1      32.938  36.387  32.248  1.00  0.00     0.188 C 
BRANCH  28  29
ATOM     29  O   UNL A   1      34.211  36.402  32.874  1.00  0.00    -0.376 OA
BRANCH  29  30
ATOM     30  C   UNL A   1      34.760  35.303  33.590  1.00  0.00     0.202 C 
BRANCH  30  31
ATOM     31  C   UNL A   1      35.783  34.268  33.088  1.00  0.00     0.261 C 
BRANCH  31  32
ATOM     32  O   UNL A   1      35.445  32.895  33.187  1.00  0.00    -0.460 OA
BRANCH  32  33
ATOM     33  C   UNL A   1      35.120  32.296  32.025  1.00  0.00     0.338 C 
ATOM     34  O   UNL A   1      34.057  32.352  31.428  1.00  0.00    -0.246 OA
BRANCH  33  35
ATOM     35  C   UNL A   1      36.360  31.728  31.478  1.00  0.00     0.060 A 
ATOM     36  C   UNL A   1      37.159  30.960  32.335  1.00  0.00     0.016 A 
ATOM     37  C   UNL A   1      36.703  31.907  30.135  1.00  0.00     0.016 A 
ATOM     38  C   UNL A   1      38.307  30.357  31.847  1.00  0.00     0.010 A 
ATOM     39  C   UNL A   1      37.885  31.346  29.659  1.00  0.00     0.010 A 
ATOM     40  C   UNL A   1      38.697  30.596  30.526  1.00  0.00    -0.014 A 
BRANCH  40  41
ATOM     41  C   UNL A   1      40.087  30.279  30.156  1.00  0.00     0.031 A 
ATOM     42  C   UNL A   1      41.106  31.365  30.325  1.00  0.00     0.074 A 
ATOM     43  C   UNL A   1      40.429  29.048  29.747  1.00  0.00     0.049 A 
ATOM     44  N   UNL A   1      42.391  31.339  30.102  1.00  0.00    -0.248 NA
ATOM     45  C   UNL A   1      40.602  32.659  30.817  1.00  0.00     0.031 C 
ATOM     46  C   UNL A   1      39.510  27.922  29.598  1.00  0.00     0.029 A 
ATOM     47  N   UNL A   1      41.649  28.547  29.379  1.00  0.00    -0.354 N 
ATOM     48  C   UNL A   1      42.849  32.612  30.424  1.00  0.00     0.074 A 
ATOM     49  C   UNL A   1      41.702  33.393  30.825  1.00  0.00     0.031 C 
ATOM     50  C   UNL A   1      40.199  26.860  29.145  1.00  0.00     0.029 A 
ATOM     51  C   UNL A   1      41.596  27.245  28.950  1.00  0.00     0.049 A 
ATOM     52  H   UNL A   1      42.482  29.068  29.420  1.00  0.00     0.167 HD
ATOM     53  C   UNL A   1      44.117  33.079  30.387  1.00  0.00     0.037 A 
ATOM     54  C   UNL A   1      42.568  26.468  28.433  1.00  0.00     0.037 A 
ATOM     55  C   UNL A   1      45.236  32.287  29.954  1.00  0.00     0.049 A 
ATOM     56  C   UNL A   1      43.964  27.025  28.336  1.00  0.00     0.074 A 
ATOM     57  C   UNL A   1      46.568  32.646  29.881  1.00  0.00     0.029 A 
ATOM     58  N   UNL A   1      45.145  30.979  29.496  1.00  0.00    -0.354 N 
ATOM     59  N   UNL A   1      44.400  28.217  28.674  1.00  0.00    -0.248 NA
ATOM     60  C   UNL A   1      44.999  26.136  27.797  1.00  0.00     0.031 C 
ATOM     61  C   UNL A   1      47.273  31.577  29.316  1.00  0.00     0.029 A 
ATOM     62  C   UNL A   1      46.392  30.526  29.103  1.00  0.00     0.049 A 
ATOM     63  H   UNL A   1      44.315  30.452  29.456  1.00  0.00     0.167 HD
ATOM     64  C   UNL A   1      45.766  28.216  28.408  1.00  0.00     0.074 A 
ATOM     65  C   UNL A   1      46.081  26.898  27.892  1.00  0.00     0.031 C 
ATOM     66  C   UNL A   1      46.675  29.209  28.580  1.00  0.00     0.037 A 
BRANCH  53  67
ATOM     67  C   UNL A   1      44.324  34.522  30.760  1.00  0.00     0.058 A 
ATOM     68  C   UNL A   1      44.583  34.923  32.083  1.00  0.00     0.135 A 
ATOM     69  C   UNL A   1      44.214  35.525  29.785  1.00  0.00     0.135 A 
ATOM     70  F   UNL A   1      44.674  34.009  33.062  1.00  0.00    -0.206 F 
ATOM     71  C   UNL A   1      44.673  36.267  32.431  1.00  0.00     0.059 A 
ATOM     72  C   UNL A   1      44.335  36.873  30.105  1.00  0.00     0.059 A 
ATOM     73  F   UNL A   1      43.962  35.201  28.507  1.00  0.00    -0.206 F 
ATOM     74  C   UNL A   1      44.539  37.236  31.435  1.00  0.00     0.060 A 
BRANCH  74  75
ATOM     75  S   UNL A   1      44.617  38.976  31.906  1.00  0.00     0.124 S 
ATOM     76  O   UNL A   1      45.958  39.340  31.456  1.00  0.00    -0.237 OA
ATOM     77  O   UNL A   1      43.515  39.556  31.145  1.00  0.00    -0.237 OA
ATOM     78  O   UNL A   1      44.428  38.946  33.353  1.00  0.00    -0.744 OA
ENDBRANCH  74  75
ENDBRANCH  53  67
BRANCH  54  79
ATOM     79  C   UNL A   1      42.230  25.100  27.962  1.00  0.00     0.058 A 
ATOM     80  C   UNL A   1      42.472  23.971  28.755  1.00  0.00     0.135 A 
ATOM     81  C   UNL A   1      41.586  24.906  26.728  1.00  0.00     0.135 A 
ATOM     82  F   UNL A   1      43.095  24.101  29.937  1.00  0.00    -0.206 F 
ATOM     83  C   UNL A   1      42.074  22.699  28.352  1.00  0.00     0.059 A 
ATOM     84  C   UNL A   1      41.157  23.650  26.314  1.00  0.00     0.059 A 
ATOM     85  F   UNL A   1      41.323  25.957  25.935  1.00  0.00    -0.206 F 
ATOM     86  C   UNL A   1      41.403  22.552  27.136  1.00  0.00     0.060 A 
BRANCH  86  87
ATOM     87  S   UNL A   1      40.789  20.916  26.677  1.00  0.00     0.124 S 
ATOM     88  O   UNL A   1      39.486  21.238  26.106  1.00  0.00    -0.237 OA
ATOM     89  O   UNL A   1      41.806  20.465  25.732  1.00  0.00    -0.237 OA
ATOM     90  O   UNL A   1      40.763  20.197  27.947  1.00  0.00    -0.744 OA
ENDBRANCH  86  87
ENDBRANCH  54  79
BRANCH  66  91
ATOM     91  C   UNL A   1      48.106  28.904  28.227  1.00  0.00     0.058 A 
ATOM     92  C   UNL A   1      48.620  29.145  26.944  1.00  0.00     0.135 A 
ATOM     93  C   UNL A   1      48.991  28.431  29.210  1.00  0.00     0.135 A 
ATOM     94  F   UNL A   1      47.816  29.593  25.966  1.00  0.00    -0.206 F 
ATOM     95  C   UNL A   1      49.956  28.904  26.641  1.00  0.00     0.059 A 
ATOM     96  C   UNL A   1      50.338  28.215  28.938  1.00  0.00     0.059 A 
ATOM     97  F   UNL A   1      48.555  28.197  30.458  1.00  0.00    -0.206 F 
ATOM     98  C   UNL A   1      50.808  28.444  27.646  1.00  0.00     0.060 A 
BRANCH  98  99
ATOM     99  S   UNL A   1      52.547  28.170  27.248  1.00  0.00     0.124 S 
ATOM    100  O   UNL A   1      52.567  26.734  26.990  1.00  0.00    -0.237 OA
ATOM    101  O   UNL A   1      52.738  29.026  26.080  1.00  0.00    -0.237 OA
ATOM    102  O   UNL A   1      53.246  28.602  28.455  1.00  0.00    -0.744 OA
ENDBRANCH  98  99
ENDBRANCH  66  91
ENDBRANCH  40  41
ENDBRANCH  33  35
ENDBRANCH  32  33
ENDBRANCH  31  32
ENDBRANCH  30  31
ENDBRANCH  29  30
ENDBRANCH  28  29
ENDBRANCH  27  28
ENDBRANCH   1  27
TORSDOF 27
ENDMDL
