MODEL 1
REMARK VINA RESULT:      -8.4      0.000      0.000
REMARK SMILES Cc1cccc(C[C@H](CC(=O)OCCOCCOCCOCCOC(=O)c2ccc(-c3c4nc(c(-c5c(F)cc(S(=O)(=O)[O-])cc5F)c5ccc([nH]5)c(-c5c(F)cc(S(=O)(=O)[O-])cc5F)c5nc(c(-c6c(F)cc(S(=O)(=O)[O-])cc6F)c6ccc3[nH]6)C=C5)C=C4)cc2)NC(=O)OC(C)(C)C)c1
REMARK SMILES IDX 17 1 16 2 15 3 14 4 13 5 12 6 10 7 11 8 9 9 8 10 7 11 6 12
REMARK SMILES IDX 1 13 2 14 3 15 101 16 4 17 5 18 93 19 94 20 95 22 96 23
REMARK SMILES IDX 97 24 98 25 99 26 100 27 18 28 19 29 20 30 21 31 22 32 23 33
REMARK SMILES IDX 24 34 25 35 26 36 27 37 28 38 92 39 29 40 91 41 30 42 31 43
REMARK SMILES IDX 32 44 85 45 33 46 90 47 84 48 86 49 34 50 89 51 83 52 82 53
REMARK SMILES IDX 35 55 69 56 48 57 68 58 49 59 52 60 67 61 87 62 50 63 51 64
REMARK SMILES IDX 66 66 88 67 53 68 36 69 37 70 46 71 38 72 39 73 45 74 47 75
REMARK SMILES IDX 40 76 41 77 42 78 43 79 44 80 70 81 71 82 80 83 72 84 73 85
REMARK SMILES IDX 79 86 81 87 74 88 75 89 76 90 77 91 78 92 54 93 55 94 64 95
REMARK SMILES IDX 56 96 57 97 63 98 65 99 58 100 59 101 60 102 61 103 62 104
REMARK H PARENT 93 21 86 54 52 65
REMARK Flexibility Score: inf
ROOT
ATOM      1  C   UNL A   1      37.547  32.636  34.138  1.00  0.00     0.188 C 
ENDROOT
BRANCH   1   2
ATOM      2  C   UNL A   1      38.604  32.464  35.398  1.00  0.00     0.188 C 
BRANCH   2   3
ATOM      3  O   UNL A   1      38.555  32.182  37.172  1.00  0.00    -0.376 OA
BRANCH   3   4
ATOM      4  C   UNL A   1      39.076  33.065  38.593  1.00  0.00     0.202 C 
BRANCH   4   5
ATOM      5  C   UNL A   1      38.026  33.866  39.939  1.00  0.00     0.261 C 
BRANCH   5   6
ATOM      6  O   UNL A   1      37.092  33.035  41.287  1.00  0.00    -0.463 OA
BRANCH   6   7
ATOM      7  C   UNL A   1      36.762  31.645  41.878  1.00  0.00     0.307 C 
ATOM      8  O   UNL A   1      37.525  30.670  41.949  1.00  0.00    -0.252 OA
BRANCH   7   9
ATOM      9  C   UNL A   1      35.274  31.314  42.580  1.00  0.00     0.148 C 
BRANCH   9  10
ATOM     10  C   UNL A   1      34.506  31.848  43.988  1.00  0.00     0.101 C 
BRANCH  10  11
ATOM     11  C   UNL A   1      34.892  31.183  45.352  1.00  0.00     0.061 C 
BRANCH  11  12
ATOM     12  C   UNL A   1      34.378  29.842  45.961  1.00  0.00    -0.046 A 
ATOM     13  C   UNL A   1      31.648  27.247  45.050  1.00  0.00     0.044 C 
ATOM     14  C   UNL A   1      32.820  27.910  45.726  1.00  0.00    -0.051 A 
ATOM     15  C   UNL A   1      33.672  27.109  46.484  1.00  0.00     0.003 A 
ATOM     16  C   UNL A   1      33.159  29.273  45.502  1.00  0.00     0.007 A 
ATOM     17  C   UNL A   1      34.872  27.634  46.943  1.00  0.00     0.001 A 
ATOM     18  C   UNL A   1      35.230  28.965  46.656  1.00  0.00     0.004 A 
ENDBRANCH  11  12
ENDBRANCH  10  11
BRANCH  10  19
ATOM     19  N   UNL A   1      34.589  33.316  44.094  1.00  0.00    -0.318 N 
ATOM     20  C   UNL A   1      33.680  34.329  44.132  1.00  0.00     0.407 C 
ATOM     21  H   UNL A   1      35.517  33.639  44.150  1.00  0.00     0.167 HD
ATOM     22  O   UNL A   1      34.049  35.441  44.428  1.00  0.00    -0.225 OA
BRANCH  20  23
ATOM     23  O   UNL A   1      32.405  33.958  43.858  1.00  0.00    -0.444 OA
BRANCH  23  24
ATOM     24  C   UNL A   1      31.825  34.392  42.597  1.00  0.00     0.106 C 
ATOM     25  C   UNL A   1      32.792  34.259  41.408  1.00  0.00     0.056 C 
ATOM     26  C   UNL A   1      30.507  33.663  42.298  1.00  0.00     0.056 C 
ATOM     27  C   UNL A   1      31.534  35.883  42.809  1.00  0.00     0.056 C 
ENDBRANCH  23  24
ENDBRANCH  20  23
ENDBRANCH  10  19
ENDBRANCH   9  10
ENDBRANCH   7   9
ENDBRANCH   6   7
ENDBRANCH   5   6
ENDBRANCH   4   5
ENDBRANCH   3   4
ENDBRANCH   2   3
ENDBRANCH   1   2
BRANCH   1  28
ATOM     28  O   UNL A   1      36.617  31.755  33.537  1.00  0.00    -0.377 OA
BRANCH  28  29
ATOM     29  C   UNL A   1      35.808  31.955  32.387  1.00  0.00     0.188 C 
BRANCH  29  30
ATOM     30  C   UNL A   1      35.019  33.210  32.212  1.00  0.00     0.188 C 
BRANCH  30  31
ATOM     31  O   UNL A   1      35.421  33.836  31.014  1.00  0.00    -0.376 OA
BRANCH  31  32
ATOM     32  C   UNL A   1      35.179  33.057  29.869  1.00  0.00     0.202 C 
BRANCH  32  33
ATOM     33  C   UNL A   1      36.433  32.274  29.480  1.00  0.00     0.261 C 
BRANCH  33  34
ATOM     34  O   UNL A   1      36.344  31.860  28.095  1.00  0.00    -0.460 OA
BRANCH  34  35
ATOM     35  C   UNL A   1      36.046  30.534  27.859  1.00  0.00     0.338 C 
ATOM     36  O   UNL A   1      35.032  30.170  27.296  1.00  0.00    -0.246 OA
BRANCH  35  37
ATOM     37  C   UNL A   1      37.186  29.671  28.314  1.00  0.00     0.060 A 
ATOM     38  C   UNL A   1      37.313  28.927  29.491  1.00  0.00     0.016 A 
ATOM     39  C   UNL A   1      38.277  29.647  27.517  1.00  0.00     0.016 A 
ATOM     40  C   UNL A   1      38.617  28.545  30.038  1.00  0.00     0.010 A 
ATOM     41  C   UNL A   1      39.489  29.258  28.078  1.00  0.00     0.010 A 
ATOM     42  C   UNL A   1      39.833  28.969  29.467  1.00  0.00    -0.014 A 
BRANCH  42  43
ATOM     43  C   UNL A   1      41.472  29.215  30.339  1.00  0.00     0.031 A 
ATOM     44  C   UNL A   1      41.899  30.821  31.487  1.00  0.00     0.074 A 
ATOM     45  C   UNL A   1      42.381  28.202  29.780  1.00  0.00     0.049 A 
ATOM     46  N   UNL A   1      42.991  31.620  31.371  1.00  0.00    -0.248 NA
ATOM     47  C   UNL A   1      41.047  31.964  32.344  1.00  0.00     0.031 C 
ATOM     48  C   UNL A   1      43.815  27.803  29.989  1.00  0.00     0.029 A 
ATOM     49  N   UNL A   1      42.223  27.429  28.586  1.00  0.00    -0.354 N 
ATOM     50  C   UNL A   1      43.023  32.884  31.871  1.00  0.00     0.074 A 
ATOM     51  C   UNL A   1      41.771  33.072  32.490  1.00  0.00     0.031 C 
ATOM     52  C   UNL A   1      44.419  27.161  29.009  1.00  0.00     0.029 A 
ATOM     53  C   UNL A   1      43.469  27.123  28.003  1.00  0.00     0.049 A 
ATOM     54  H   UNL A   1      41.354  27.147  28.218  1.00  0.00     0.167 HD
ATOM     55  C   UNL A   1      44.099  33.704  31.687  1.00  0.00     0.037 A 
ATOM     56  C   UNL A   1      43.913  27.360  26.758  1.00  0.00     0.037 A 
ATOM     57  C   UNL A   1      45.220  33.029  31.021  1.00  0.00     0.049 A 
ATOM     58  C   UNL A   1      45.026  28.422  26.728  1.00  0.00     0.074 A 
ATOM     59  C   UNL A   1      46.153  32.142  31.531  1.00  0.00     0.029 A 
ATOM     60  N   UNL A   1      45.322  32.912  29.627  1.00  0.00    -0.354 N 
ATOM     61  N   UNL A   1      45.081  29.446  27.577  1.00  0.00    -0.248 NA
ATOM     62  C   UNL A   1      46.204  28.387  25.866  1.00  0.00     0.031 C 
ATOM     63  C   UNL A   1      46.665  31.357  30.458  1.00  0.00     0.029 A 
ATOM     64  C   UNL A   1      46.118  31.804  29.260  1.00  0.00     0.049 A 
ATOM     65  H   UNL A   1      44.894  33.524  28.985  1.00  0.00     0.167 HD
ATOM     66  C   UNL A   1      46.178  30.245  27.307  1.00  0.00     0.074 A 
ATOM     67  C   UNL A   1      46.865  29.494  26.258  1.00  0.00     0.031 C 
ATOM     68  C   UNL A   1      46.472  31.481  27.859  1.00  0.00     0.037 A 
BRANCH  55  69
ATOM     69  C   UNL A   1      44.136  34.974  32.508  1.00  0.00     0.058 A 
ATOM     70  C   UNL A   1      43.788  36.206  31.928  1.00  0.00     0.135 A 
ATOM     71  C   UNL A   1      44.709  35.044  33.799  1.00  0.00     0.135 A 
ATOM     72  F   UNL A   1      43.217  36.255  30.716  1.00  0.00    -0.206 F 
ATOM     73  C   UNL A   1      44.078  37.431  32.541  1.00  0.00     0.059 A 
ATOM     74  C   UNL A   1      45.044  36.258  34.415  1.00  0.00     0.059 A 
ATOM     75  F   UNL A   1      45.034  33.917  34.456  1.00  0.00    -0.206 F 
ATOM     76  C   UNL A   1      44.736  37.451  33.769  1.00  0.00     0.060 A 
BRANCH  76  77
ATOM     77  S   UNL A   1      45.248  39.046  34.459  1.00  0.00     0.124 S 
ATOM     78  O   UNL A   1      44.412  39.993  33.726  1.00  0.00    -0.237 OA
ATOM     79  O   UNL A   1      44.927  38.882  35.873  1.00  0.00    -0.237 OA
ATOM     80  O   UNL A   1      46.673  39.114  34.142  1.00  0.00    -0.744 OA
ENDBRANCH  76  77
ENDBRANCH  55  69
BRANCH  56  81
ATOM     81  C   UNL A   1      43.202  26.374  25.897  1.00  0.00     0.058 A 
ATOM     82  C   UNL A   1      43.574  25.004  26.083  1.00  0.00     0.135 A 
ATOM     83  C   UNL A   1      41.833  26.623  25.726  1.00  0.00     0.135 A 
ATOM     84  F   UNL A   1      44.866  24.686  26.282  1.00  0.00    -0.206 F 
ATOM     85  C   UNL A   1      42.629  24.013  26.372  1.00  0.00     0.059 A 
ATOM     86  C   UNL A   1      40.874  25.632  25.976  1.00  0.00     0.059 A 
ATOM     87  F   UNL A   1      41.413  27.890  25.587  1.00  0.00    -0.206 F 
ATOM     88  C   UNL A   1      41.279  24.356  26.376  1.00  0.00     0.060 A 
BRANCH  88  89
ATOM     89  S   UNL A   1      40.103  23.183  27.112  1.00  0.00     0.124 S 
ATOM     90  O   UNL A   1      38.946  24.031  27.369  1.00  0.00    -0.237 OA
ATOM     91  O   UNL A   1      39.953  22.195  26.047  1.00  0.00    -0.237 OA
ATOM     92  O   UNL A   1      40.802  22.703  28.295  1.00  0.00    -0.744 OA
ENDBRANCH  88  89
ENDBRANCH  56  81
BRANCH  68  93
ATOM     93  C   UNL A   1      47.279  32.533  27.096  1.00  0.00     0.058 A 
ATOM     94  C   UNL A   1      46.696  33.685  26.531  1.00  0.00     0.135 A 
ATOM     95  C   UNL A   1      48.697  32.517  27.092  1.00  0.00     0.135 A 
ATOM     96  F   UNL A   1      45.373  33.896  26.565  1.00  0.00    -0.206 F 
ATOM     97  C   UNL A   1      47.450  34.703  25.950  1.00  0.00     0.059 A 
ATOM     98  C   UNL A   1      49.469  33.563  26.594  1.00  0.00     0.059 A 
ATOM     99  F   UNL A   1      49.394  31.491  27.601  1.00  0.00    -0.206 F 
ATOM    100  C   UNL A   1      48.836  34.641  25.996  1.00  0.00     0.060 A 
BRANCH 100 101
ATOM    101  S   UNL A   1      49.807  35.999  25.327  1.00  0.00     0.124 S 
ATOM    102  O   UNL A   1      50.673  35.295  24.386  1.00  0.00    -0.237 OA
ATOM    103  O   UNL A   1      48.789  36.858  24.727  1.00  0.00    -0.237 OA
ATOM    104  O   UNL A   1      50.464  36.552  26.506  1.00  0.00    -0.744 OA
ENDBRANCH 100 101
ENDBRANCH  68  93
ENDBRANCH  42  43
ENDBRANCH  35  37
ENDBRANCH  34  35
ENDBRANCH  33  34
ENDBRANCH  32  33
ENDBRANCH  31  32
ENDBRANCH  30  31
ENDBRANCH  29  30
ENDBRANCH  28  29
ENDBRANCH   1  28
TORSDOF 29
ENDMDL
MODEL 2
REMARK VINA RESULT:      -7.9      5.286     10.296
REMARK SMILES Cc1cccc(C[C@H](CC(=O)OCCOCCOCCOCCOC(=O)c2ccc(-c3c4nc(c(-c5c(F)cc(S(=O)(=O)[O-])cc5F)c5ccc([nH]5)c(-c5c(F)cc(S(=O)(=O)[O-])cc5F)c5nc(c(-c6c(F)cc(S(=O)(=O)[O-])cc6F)c6ccc3[nH]6)C=C5)C=C4)cc2)NC(=O)OC(C)(C)C)c1
REMARK SMILES IDX 17 1 16 2 15 3 14 4 13 5 12 6 10 7 11 8 9 9 8 10 7 11 6 12
REMARK SMILES IDX 1 13 2 14 3 15 101 16 4 17 5 18 93 19 94 20 95 22 96 23
REMARK SMILES IDX 97 24 98 25 99 26 100 27 18 28 19 29 20 30 21 31 22 32 23 33
REMARK SMILES IDX 24 34 25 35 26 36 27 37 28 38 92 39 29 40 91 41 30 42 31 43
REMARK SMILES IDX 32 44 85 45 33 46 90 47 84 48 86 49 34 50 89 51 83 52 82 53
REMARK SMILES IDX 35 55 69 56 48 57 68 58 49 59 52 60 67 61 87 62 50 63 51 64
REMARK SMILES IDX 66 66 88 67 53 68 36 69 37 70 46 71 38 72 39 73 45 74 47 75
REMARK SMILES IDX 40 76 41 77 42 78 43 79 44 80 70 81 71 82 80 83 72 84 73 85
REMARK SMILES IDX 79 86 81 87 74 88 75 89 76 90 77 91 78 92 54 93 55 94 64 95
REMARK SMILES IDX 56 96 57 97 63 98 65 99 58 100 59 101 60 102 61 103 62 104
REMARK H PARENT 93 21 86 54 52 65
REMARK Flexibility Score: inf
ROOT
ATOM      1  C   UNL A   1      44.593  31.949  42.951  1.00  0.00     0.188 C 
ENDROOT
BRANCH   1   2
ATOM      2  C   UNL A   1      43.340  31.550  43.952  1.00  0.00     0.188 C 
BRANCH   2   3
ATOM      3  O   UNL A   1      41.550  31.410  43.884  1.00  0.00    -0.376 OA
BRANCH   3   4
ATOM      4  C   UNL A   1      40.353  31.290  42.610  1.00  0.00     0.202 C 
BRANCH   4   5
ATOM      5  C   UNL A   1      40.054  32.450  41.154  1.00  0.00     0.261 C 
BRANCH   5   6
ATOM      6  O   UNL A   1      40.711  32.308  39.443  1.00  0.00    -0.463 OA
BRANCH   6   7
ATOM      7  C   UNL A   1      41.952  32.617  38.572  1.00  0.00     0.307 C 
ATOM      8  O   UNL A   1      42.771  31.796  38.134  1.00  0.00    -0.252 OA
BRANCH   7   9
ATOM      9  C   UNL A   1      42.300  34.173  38.051  1.00  0.00     0.148 C 
BRANCH   9  10
ATOM     10  C   UNL A   1      41.363  35.419  37.397  1.00  0.00     0.101 C 
BRANCH  10  11
ATOM     11  C   UNL A   1      39.803  35.290  37.443  1.00  0.00     0.061 C 
BRANCH  11  12
ATOM     12  C   UNL A   1      38.924  34.026  37.190  1.00  0.00    -0.046 A 
ATOM     13  C   UNL A   1      39.326  30.714  35.218  1.00  0.00     0.044 C 
ATOM     14  C   UNL A   1      38.772  31.770  36.139  1.00  0.00    -0.051 A 
ATOM     15  C   UNL A   1      37.816  31.380  37.075  1.00  0.00     0.003 A 
ATOM     16  C   UNL A   1      39.290  33.095  36.181  1.00  0.00     0.007 A 
ATOM     17  C   UNL A   1      37.441  32.265  38.075  1.00  0.00     0.001 A 
ATOM     18  C   UNL A   1      38.011  33.550  38.148  1.00  0.00     0.004 A 
ENDBRANCH  11  12
ENDBRANCH  10  11
BRANCH  10  19
ATOM     19  N   UNL A   1      41.783  36.721  37.946  1.00  0.00    -0.318 N 
ATOM     20  C   UNL A   1      41.818  37.272  39.191  1.00  0.00     0.407 C 
ATOM     21  H   UNL A   1      42.114  37.335  37.253  1.00  0.00     0.167 HD
ATOM     22  O   UNL A   1      42.412  38.311  39.359  1.00  0.00    -0.225 OA
BRANCH  20  23
ATOM     23  O   UNL A   1      41.190  36.548  40.150  1.00  0.00    -0.444 OA
BRANCH  23  24
ATOM     24  C   UNL A   1      39.945  37.072  40.693  1.00  0.00     0.106 C 
ATOM     25  C   UNL A   1      39.470  38.354  39.989  1.00  0.00     0.056 C 
ATOM     26  C   UNL A   1      38.834  36.013  40.684  1.00  0.00     0.056 C 
ATOM     27  C   UNL A   1      40.287  37.425  42.145  1.00  0.00     0.056 C 
ENDBRANCH  23  24
ENDBRANCH  20  23
ENDBRANCH  10  19
ENDBRANCH   9  10
ENDBRANCH   7   9
ENDBRANCH   6   7
ENDBRANCH   5   6
ENDBRANCH   4   5
ENDBRANCH   3   4
ENDBRANCH   2   3
ENDBRANCH   1   2
BRANCH   1  28
ATOM     28  O   UNL A   1      44.681  32.770  41.801  1.00  0.00    -0.377 OA
BRANCH  28  29
ATOM     29  C   UNL A   1      44.460  34.167  41.679  1.00  0.00     0.188 C 
BRANCH  29  30
ATOM     30  C   UNL A   1      45.473  35.051  41.029  1.00  0.00     0.188 C 
BRANCH  30  31
ATOM     31  O   UNL A   1      44.879  35.674  39.911  1.00  0.00    -0.376 OA
BRANCH  31  32
ATOM     32  C   UNL A   1      45.619  36.767  39.425  1.00  0.00     0.202 C 
BRANCH  32  33
ATOM     33  C   UNL A   1      45.937  36.579  37.941  1.00  0.00     0.261 C 
BRANCH  33  34
ATOM     34  O   UNL A   1      45.263  37.597  37.162  1.00  0.00    -0.460 OA
BRANCH  34  35
ATOM     35  C   UNL A   1      46.003  38.218  36.176  1.00  0.00     0.338 C 
ATOM     36  O   UNL A   1      46.985  38.895  36.410  1.00  0.00    -0.246 OA
BRANCH  35  37
ATOM     37  C   UNL A   1      45.461  37.847  34.828  1.00  0.00     0.060 A 
ATOM     38  C   UNL A   1      44.372  38.387  34.137  1.00  0.00     0.016 A 
ATOM     39  C   UNL A   1      46.057  36.806  34.207  1.00  0.00     0.016 A 
ATOM     40  C   UNL A   1      43.658  37.641  33.098  1.00  0.00     0.010 A 
ATOM     41  C   UNL A   1      45.346  36.142  33.213  1.00  0.00     0.010 A 
ATOM     42  C   UNL A   1      43.960  36.302  32.780  1.00  0.00    -0.014 A 
BRANCH  42  43
ATOM     43  C   UNL A   1      42.798  35.011  32.080  1.00  0.00     0.031 A 
ATOM     44  C   UNL A   1      42.448  33.227  32.961  1.00  0.00     0.074 A 
ATOM     45  C   UNL A   1      42.483  35.453  30.714  1.00  0.00     0.049 A 
ATOM     46  N   UNL A   1      42.537  32.010  32.365  1.00  0.00    -0.248 NA
ATOM     47  C   UNL A   1      42.558  32.583  34.490  1.00  0.00     0.031 C 
ATOM     48  C   UNL A   1      41.640  34.942  29.579  1.00  0.00     0.029 A 
ATOM     49  N   UNL A   1      43.163  36.428  29.916  1.00  0.00    -0.354 N 
ATOM     50  C   UNL A   1      42.695  30.862  33.077  1.00  0.00     0.074 A 
ATOM     51  C   UNL A   1      42.700  31.261  34.429  1.00  0.00     0.031 C 
ATOM     52  C   UNL A   1      41.944  35.345  28.362  1.00  0.00     0.029 A 
ATOM     53  C   UNL A   1      43.076  36.121  28.543  1.00  0.00     0.049 A 
ATOM     54  H   UNL A   1      43.631  37.214  30.280  1.00  0.00     0.167 HD
ATOM     55  C   UNL A   1      42.855  29.652  32.466  1.00  0.00     0.037 A 
ATOM     56  C   UNL A   1      44.055  35.964  27.638  1.00  0.00     0.037 A 
ATOM     57  C   UNL A   1      42.710  29.729  31.006  1.00  0.00     0.049 A 
ATOM     58  C   UNL A   1      44.187  34.503  27.170  1.00  0.00     0.074 A 
ATOM     59  C   UNL A   1      41.567  29.819  30.231  1.00  0.00     0.029 A 
ATOM     60  N   UNL A   1      43.765  30.078  30.151  1.00  0.00    -0.354 N 
ATOM     61  N   UNL A   1      43.941  33.459  27.958  1.00  0.00    -0.248 NA
ATOM     62  C   UNL A   1      44.477  34.077  25.804  1.00  0.00     0.031 C 
ATOM     63  C   UNL A   1      41.913  30.410  28.981  1.00  0.00     0.029 A 
ATOM     64  C   UNL A   1      43.288  30.616  28.936  1.00  0.00     0.049 A 
ATOM     65  H   UNL A   1      44.719  29.962  30.369  1.00  0.00     0.167 HD
ATOM     66  C   UNL A   1      44.155  32.273  27.278  1.00  0.00     0.074 A 
ATOM     67  C   UNL A   1      44.437  32.735  25.920  1.00  0.00     0.031 C 
ATOM     68  C   UNL A   1      44.169  30.993  27.807  1.00  0.00     0.037 A 
BRANCH  55  69
ATOM     69  C   UNL A   1      42.751  28.426  33.345  1.00  0.00     0.058 A 
ATOM     70  C   UNL A   1      41.499  27.847  33.613  1.00  0.00     0.135 A 
ATOM     71  C   UNL A   1      43.833  27.925  34.105  1.00  0.00     0.135 A 
ATOM     72  F   UNL A   1      40.408  28.231  32.934  1.00  0.00    -0.206 F 
ATOM     73  C   UNL A   1      41.310  26.907  34.633  1.00  0.00     0.059 A 
ATOM     74  C   UNL A   1      43.663  27.014  35.158  1.00  0.00     0.059 A 
ATOM     75  F   UNL A   1      45.079  28.382  33.890  1.00  0.00    -0.206 F 
ATOM     76  C   UNL A   1      42.390  26.519  35.425  1.00  0.00     0.060 A 
BRANCH  76  77
ATOM     77  S   UNL A   1      42.088  25.432  36.842  1.00  0.00     0.124 S 
ATOM     78  O   UNL A   1      43.220  25.727  37.715  1.00  0.00    -0.237 OA
ATOM     79  O   UNL A   1      40.788  25.901  37.311  1.00  0.00    -0.237 OA
ATOM     80  O   UNL A   1      42.100  24.095  36.255  1.00  0.00    -0.744 OA
ENDBRANCH  76  77
ENDBRANCH  55  69
BRANCH  56  81
ATOM     81  C   UNL A   1      44.552  37.340  27.358  1.00  0.00     0.058 A 
ATOM     82  C   UNL A   1      43.548  38.314  27.058  1.00  0.00     0.135 A 
ATOM     83  C   UNL A   1      45.596  37.767  28.190  1.00  0.00     0.135 A 
ATOM     84  F   UNL A   1      42.497  37.973  26.289  1.00  0.00    -0.206 F 
ATOM     85  C   UNL A   1      43.443  39.514  27.771  1.00  0.00     0.059 A 
ATOM     86  C   UNL A   1      45.526  38.983  28.884  1.00  0.00     0.059 A 
ATOM     87  F   UNL A   1      46.549  36.891  28.543  1.00  0.00    -0.206 F 
ATOM     88  C   UNL A   1      44.409  39.809  28.729  1.00  0.00     0.060 A 
BRANCH  88  89
ATOM     89  S   UNL A   1      44.067  41.157  29.898  1.00  0.00     0.124 S 
ATOM     90  O   UNL A   1      44.807  40.733  31.079  1.00  0.00    -0.237 OA
ATOM     91  O   UNL A   1      44.600  42.317  29.187  1.00  0.00    -0.237 OA
ATOM     92  O   UNL A   1      42.618  41.133  30.026  1.00  0.00    -0.744 OA
ENDBRANCH  88  89
ENDBRANCH  56  81
BRANCH  68  93
ATOM     93  C   UNL A   1      45.002  29.872  27.183  1.00  0.00     0.058 A 
ATOM     94  C   UNL A   1      46.389  29.741  27.392  1.00  0.00     0.135 A 
ATOM     95  C   UNL A   1      44.390  28.774  26.526  1.00  0.00     0.135 A 
ATOM     96  F   UNL A   1      47.085  30.643  28.098  1.00  0.00    -0.206 F 
ATOM     97  C   UNL A   1      47.121  28.649  26.929  1.00  0.00     0.059 A 
ATOM     98  C   UNL A   1      45.089  27.636  26.133  1.00  0.00     0.059 A 
ATOM     99  F   UNL A   1      43.075  28.750  26.263  1.00  0.00    -0.206 F 
ATOM    100  C   UNL A   1      46.462  27.596  26.311  1.00  0.00     0.060 A 
BRANCH 100 101
ATOM    101  S   UNL A   1      47.396  26.147  25.797  1.00  0.00     0.124 S 
ATOM    102  O   UNL A   1      47.300  25.307  26.987  1.00  0.00    -0.237 OA
ATOM    103  O   UNL A   1      46.647  25.677  24.634  1.00  0.00    -0.237 OA
ATOM    104  O   UNL A   1      48.718  26.687  25.504  1.00  0.00    -0.744 OA
ENDBRANCH 100 101
ENDBRANCH  68  93
ENDBRANCH  42  43
ENDBRANCH  35  37
ENDBRANCH  34  35
ENDBRANCH  33  34
ENDBRANCH  32  33
ENDBRANCH  31  32
ENDBRANCH  30  31
ENDBRANCH  29  30
ENDBRANCH  28  29
ENDBRANCH   1  28
TORSDOF 29
ENDMDL
MODEL 3
REMARK VINA RESULT:      -7.8      8.809     12.476
REMARK SMILES Cc1cccc(C[C@H](CC(=O)OCCOCCOCCOCCOC(=O)c2ccc(-c3c4nc(c(-c5c(F)cc(S(=O)(=O)[O-])cc5F)c5ccc([nH]5)c(-c5c(F)cc(S(=O)(=O)[O-])cc5F)c5nc(c(-c6c(F)cc(S(=O)(=O)[O-])cc6F)c6ccc3[nH]6)C=C5)C=C4)cc2)NC(=O)OC(C)(C)C)c1
REMARK SMILES IDX 17 1 16 2 15 3 14 4 13 5 12 6 10 7 11 8 9 9 8 10 7 11 6 12
REMARK SMILES IDX 1 13 2 14 3 15 101 16 4 17 5 18 93 19 94 20 95 22 96 23
REMARK SMILES IDX 97 24 98 25 99 26 100 27 18 28 19 29 20 30 21 31 22 32 23 33
REMARK SMILES IDX 24 34 25 35 26 36 27 37 28 38 92 39 29 40 91 41 30 42 31 43
REMARK SMILES IDX 32 44 85 45 33 46 90 47 84 48 86 49 34 50 89 51 83 52 82 53
REMARK SMILES IDX 35 55 69 56 48 57 68 58 49 59 52 60 67 61 87 62 50 63 51 64
REMARK SMILES IDX 66 66 88 67 53 68 36 69 37 70 46 71 38 72 39 73 45 74 47 75
REMARK SMILES IDX 40 76 41 77 42 78 43 79 44 80 70 81 71 82 80 83 72 84 73 85
REMARK SMILES IDX 79 86 81 87 74 88 75 89 76 90 77 91 78 92 54 93 55 94 64 95
REMARK SMILES IDX 56 96 57 97 63 98 65 99 58 100 59 101 60 102 61 103 62 104
REMARK H PARENT 93 21 86 54 52 65
REMARK Flexibility Score: inf
ROOT
ATOM      1  C   UNL A   1      48.647  20.630  36.721  1.00  0.00     0.188 C 
ENDROOT
BRANCH   1   2
ATOM      2  C   UNL A   1      47.358  21.652  36.889  1.00  0.00     0.188 C 
BRANCH   2   3
ATOM      3  O   UNL A   1      46.171  22.132  38.149  1.00  0.00    -0.376 OA
BRANCH   3   4
ATOM      4  C   UNL A   1      45.884  21.704  39.824  1.00  0.00     0.202 C 
BRANCH   4   5
ATOM      5  C   UNL A   1      46.179  20.055  40.691  1.00  0.00     0.261 C 
BRANCH   5   6
ATOM      6  O   UNL A   1      46.058  19.686  42.488  1.00  0.00    -0.463 OA
BRANCH   6   7
ATOM      7  C   UNL A   1      46.599  18.745  43.589  1.00  0.00     0.307 C 
ATOM      8  O   UNL A   1      47.563  18.961  44.339  1.00  0.00    -0.252 OA
BRANCH   7   9
ATOM      9  C   UNL A   1      45.858  17.282  43.944  1.00  0.00     0.148 C 
BRANCH   9  10
ATOM     10  C   UNL A   1      44.342  16.865  44.566  1.00  0.00     0.101 C 
BRANCH  10  11
ATOM     11  C   UNL A   1      43.677  15.530  44.091  1.00  0.00     0.061 C 
BRANCH  11  12
ATOM     12  C   UNL A   1      42.922  15.240  42.757  1.00  0.00    -0.046 A 
ATOM     13  C   UNL A   1      43.320  16.310  39.053  1.00  0.00     0.044 C 
ATOM     14  C   UNL A   1      42.836  15.600  40.291  1.00  0.00    -0.051 A 
ATOM     15  C   UNL A   1      42.135  14.407  40.124  1.00  0.00     0.003 A 
ATOM     16  C   UNL A   1      43.191  16.024  41.602  1.00  0.00     0.007 A 
ATOM     17  C   UNL A   1      41.861  13.618  41.232  1.00  0.00     0.001 A 
ATOM     18  C   UNL A   1      42.277  14.013  42.517  1.00  0.00     0.004 A 
ENDBRANCH  11  12
ENDBRANCH  10  11
BRANCH  10  19
ATOM     19  N   UNL A   1      44.354  16.934  46.039  1.00  0.00    -0.318 N 
ATOM     20  C   UNL A   1      45.303  16.761  47.000  1.00  0.00     0.407 C 
ATOM     21  H   UNL A   1      43.472  17.155  46.414  1.00  0.00     0.167 HD
ATOM     22  O   UNL A   1      45.055  17.084  48.137  1.00  0.00    -0.225 OA
BRANCH  20  23
ATOM     23  O   UNL A   1      46.481  16.262  46.552  1.00  0.00    -0.444 OA
BRANCH  23  24
ATOM     24  C   UNL A   1      46.952  15.010  47.125  1.00  0.00     0.106 C 
ATOM     25  C   UNL A   1      48.126  15.196  48.102  1.00  0.00     0.056 C 
ATOM     26  C   UNL A   1      45.813  14.231  47.798  1.00  0.00     0.056 C 
ATOM     27  C   UNL A   1      47.459  14.211  45.919  1.00  0.00     0.056 C 
ENDBRANCH  23  24
ENDBRANCH  20  23
ENDBRANCH  10  19
ENDBRANCH   9  10
ENDBRANCH   7   9
ENDBRANCH   6   7
ENDBRANCH   5   6
ENDBRANCH   4   5
ENDBRANCH   3   4
ENDBRANCH   2   3
ENDBRANCH   1   2
BRANCH   1  28
ATOM     28  O   UNL A   1      49.861  20.725  36.000  1.00  0.00    -0.377 OA
BRANCH  28  29
ATOM     29  C   UNL A   1      50.762  21.818  35.903  1.00  0.00     0.188 C 
BRANCH  29  30
ATOM     30  C   UNL A   1      50.428  23.017  35.079  1.00  0.00     0.188 C 
BRANCH  30  31
ATOM     31  O   UNL A   1      51.174  24.117  35.555  1.00  0.00    -0.376 OA
BRANCH  31  32
ATOM     32  C   UNL A   1      51.554  25.013  34.541  1.00  0.00     0.202 C 
BRANCH  32  33
ATOM     33  C   UNL A   1      51.225  24.435  33.164  1.00  0.00     0.261 C 
BRANCH  33  34
ATOM     34  O   UNL A   1      50.867  25.504  32.255  1.00  0.00    -0.460 OA
BRANCH  34  35
ATOM     35  C   UNL A   1      51.588  25.591  31.082  1.00  0.00     0.338 C 
ATOM     36  O   UNL A   1      52.803  25.575  31.046  1.00  0.00    -0.246 OA
BRANCH  35  37
ATOM     37  C   UNL A   1      50.650  25.610  29.913  1.00  0.00     0.060 A 
ATOM     38  C   UNL A   1      50.943  25.706  28.549  1.00  0.00     0.016 A 
ATOM     39  C   UNL A   1      49.330  25.597  30.200  1.00  0.00     0.016 A 
ATOM     40  C   UNL A   1      49.971  26.202  27.573  1.00  0.00     0.010 A 
ATOM     41  C   UNL A   1      48.444  26.060  29.233  1.00  0.00     0.010 A 
ATOM     42  C   UNL A   1      48.705  26.696  27.945  1.00  0.00    -0.014 A 
BRANCH  42  43
ATOM     43  C   UNL A   1      47.671  27.969  27.041  1.00  0.00     0.031 A 
ATOM     44  C   UNL A   1      47.767  29.954  27.409  1.00  0.00     0.074 A 
ATOM     45  C   UNL A   1      46.657  27.209  26.296  1.00  0.00     0.049 A 
ATOM     46  N   UNL A   1      46.714  30.769  27.675  1.00  0.00    -0.248 NA
ATOM     47  C   UNL A   1      48.867  31.019  28.057  1.00  0.00     0.031 C 
ATOM     48  C   UNL A   1      45.519  27.540  25.373  1.00  0.00     0.029 A 
ATOM     49  N   UNL A   1      46.263  25.844  26.472  1.00  0.00    -0.354 N 
ATOM     50  C   UNL A   1      46.863  31.965  28.305  1.00  0.00     0.074 A 
ATOM     51  C   UNL A   1      48.247  32.097  28.531  1.00  0.00     0.031 C 
ATOM     52  C   UNL A   1      44.553  26.653  25.251  1.00  0.00     0.029 A 
ATOM     53  C   UNL A   1      44.907  25.652  26.141  1.00  0.00     0.049 A 
ATOM     54  H   UNL A   1      46.864  25.129  26.785  1.00  0.00     0.167 HD
ATOM     55  C   UNL A   1      45.791  32.744  28.632  1.00  0.00     0.037 A 
ATOM     56  C   UNL A   1      43.911  25.131  26.876  1.00  0.00     0.037 A 
ATOM     57  C   UNL A   1      44.522  32.209  28.122  1.00  0.00     0.049 A 
ATOM     58  C   UNL A   1      42.868  26.189  27.279  1.00  0.00     0.074 A 
ATOM     59  C   UNL A   1      43.991  32.249  26.844  1.00  0.00     0.029 A 
ATOM     60  N   UNL A   1      43.773  31.239  28.804  1.00  0.00    -0.354 N 
ATOM     61  N   UNL A   1      43.175  27.461  27.523  1.00  0.00    -0.248 NA
ATOM     62  C   UNL A   1      41.425  25.974  27.332  1.00  0.00     0.031 C 
ATOM     63  C   UNL A   1      43.068  31.172  26.704  1.00  0.00     0.029 A 
ATOM     64  C   UNL A   1      42.954  30.504  27.918  1.00  0.00     0.049 A 
ATOM     65  H   UNL A   1      43.812  31.089  29.777  1.00  0.00     0.167 HD
ATOM     66  C   UNL A   1      42.044  28.176  27.876  1.00  0.00     0.074 A 
ATOM     67  C   UNL A   1      40.978  27.195  27.685  1.00  0.00     0.031 C 
ATOM     68  C   UNL A   1      41.990  29.472  28.363  1.00  0.00     0.037 A 
BRANCH  55  69
ATOM     69  C   UNL A   1      46.088  34.158  29.080  1.00  0.00     0.058 A 
ATOM     70  C   UNL A   1      45.739  34.583  30.373  1.00  0.00     0.135 A 
ATOM     71  C   UNL A   1      46.518  35.175  28.196  1.00  0.00     0.135 A 
ATOM     72  F   UNL A   1      45.339  33.700  31.299  1.00  0.00    -0.206 F 
ATOM     73  C   UNL A   1      45.722  35.934  30.739  1.00  0.00     0.059 A 
ATOM     74  C   UNL A   1      46.473  36.537  28.527  1.00  0.00     0.059 A 
ATOM     75  F   UNL A   1      46.917  34.863  26.951  1.00  0.00    -0.206 F 
ATOM     76  C   UNL A   1      46.058  36.909  29.801  1.00  0.00     0.060 A 
BRANCH  76  77
ATOM     77  S   UNL A   1      45.866  38.654  30.249  1.00  0.00     0.124 S 
ATOM     78  O   UNL A   1      47.249  39.119  30.317  1.00  0.00    -0.237 OA
ATOM     79  O   UNL A   1      45.080  39.168  29.133  1.00  0.00    -0.237 OA
ATOM     80  O   UNL A   1      45.173  38.603  31.534  1.00  0.00    -0.744 OA
ENDBRANCH  76  77
ENDBRANCH  55  69
BRANCH  56  81
ATOM     81  C   UNL A   1      44.172  23.664  26.900  1.00  0.00     0.058 A 
ATOM     82  C   UNL A   1      43.748  22.977  28.080  1.00  0.00     0.135 A 
ATOM     83  C   UNL A   1      43.937  23.007  25.684  1.00  0.00     0.135 A 
ATOM     84  F   UNL A   1      43.913  23.556  29.284  1.00  0.00    -0.206 F 
ATOM     85  C   UNL A   1      42.893  21.870  28.026  1.00  0.00     0.059 A 
ATOM     86  C   UNL A   1      43.113  21.874  25.616  1.00  0.00     0.059 A 
ATOM     87  F   UNL A   1      44.274  23.614  24.537  1.00  0.00    -0.206 F 
ATOM     88  C   UNL A   1      42.532  21.363  26.780  1.00  0.00     0.060 A 
BRANCH  88  89
ATOM     89  S   UNL A   1      41.148  20.189  26.704  1.00  0.00     0.124 S 
ATOM     90  O   UNL A   1      41.606  19.242  25.696  1.00  0.00    -0.237 OA
ATOM     91  O   UNL A   1      41.095  19.693  28.077  1.00  0.00    -0.237 OA
ATOM     92  O   UNL A   1      40.021  21.023  26.313  1.00  0.00    -0.744 OA
ENDBRANCH  88  89
ENDBRANCH  56  81
BRANCH  68  93
ATOM     93  C   UNL A   1      40.866  29.938  29.290  1.00  0.00     0.058 A 
ATOM     94  C   UNL A   1      41.086  30.327  30.626  1.00  0.00     0.135 A 
ATOM     95  C   UNL A   1      39.564  30.205  28.796  1.00  0.00     0.135 A 
ATOM     96  F   UNL A   1      42.297  30.243  31.195  1.00  0.00    -0.206 F 
ATOM     97  C   UNL A   1      40.085  30.873  31.427  1.00  0.00     0.059 A 
ATOM     98  C   UNL A   1      38.575  30.827  29.554  1.00  0.00     0.059 A 
ATOM     99  F   UNL A   1      39.206  29.897  27.541  1.00  0.00    -0.206 F 
ATOM    100  C   UNL A   1      38.835  31.130  30.881  1.00  0.00     0.060 A 
BRANCH 100 101
ATOM    101  S   UNL A   1      37.572  31.918  31.890  1.00  0.00     0.124 S 
ATOM    102  O   UNL A   1      36.878  32.731  30.896  1.00  0.00    -0.237 OA
ATOM    103  O   UNL A   1      36.818  30.779  32.410  1.00  0.00    -0.237 OA
ATOM    104  O   UNL A   1      38.347  32.650  32.884  1.00  0.00    -0.744 OA
ENDBRANCH 100 101
ENDBRANCH  68  93
ENDBRANCH  42  43
ENDBRANCH  35  37
ENDBRANCH  34  35
ENDBRANCH  33  34
ENDBRANCH  32  33
ENDBRANCH  31  32
ENDBRANCH  30  31
ENDBRANCH  29  30
ENDBRANCH  28  29
ENDBRANCH   1  28
TORSDOF 29
ENDMDL
