MODEL 1
REMARK VINA RESULT:      -7.8      0.000      0.000
REMARK SMILES Cc1ccc(F)cc1NS(=O)(=O)c1ccc(C(=O)OCCOCCOCCOCCOC(=O)c2ccc(-c3c4nc(c(-c5c(F)cc(S(=O)(=O)[O-])cc5F)c5ccc([nH]5)c(-c5c(F)cc(S(=O)(=O)[O-])cc5F)c5nc(c(-c6c(F)cc(S(=O)(=O)[O-])cc6F)c6ccc3[nH]6)C=C5)C=C4)cc2)cc1
REMARK SMILES IDX 25 1 24 2 23 3 22 4 21 5 20 6 19 7 17 8 18 9 16 10 13 11
REMARK SMILES IDX 14 12 101 13 15 14 100 15 10 16 11 17 12 18 9 19 8 21 1 22
REMARK SMILES IDX 2 23 3 24 4 25 7 26 5 27 6 28 26 29 27 30 28 31 29 32 30 33
REMARK SMILES IDX 31 34 32 35 33 36 34 37 35 38 99 39 36 40 98 41 37 42 38 43
REMARK SMILES IDX 39 44 92 45 40 46 97 47 91 48 93 49 41 50 96 51 90 52 89 53
REMARK SMILES IDX 42 55 76 56 55 57 75 58 56 59 59 60 74 61 94 62 57 63 58 64
REMARK SMILES IDX 73 66 95 67 60 68 43 69 44 70 53 71 45 72 46 73 52 74 54 75
REMARK SMILES IDX 47 76 48 77 49 78 50 79 51 80 77 81 78 82 87 83 79 84 80 85
REMARK SMILES IDX 86 86 88 87 81 88 82 89 83 90 84 91 85 92 61 93 62 94 71 95
REMARK SMILES IDX 63 96 64 97 70 98 72 99 65 100 66 101 67 102 68 103 69 104
REMARK H PARENT 9 20 93 54 59 65
REMARK Flexibility Score: inf
ROOT
ATOM      1  O   UNL A   1      32.888  34.582  29.604  1.00  0.00    -0.377 OA
ENDROOT
BRANCH   1   2
ATOM      2  C   UNL A   1      33.443  34.262  28.340  1.00  0.00     0.188 C 
BRANCH   2   3
ATOM      3  C   UNL A   1      34.873  33.693  28.333  1.00  0.00     0.188 C 
BRANCH   3   4
ATOM      4  O   UNL A   1      35.320  33.269  29.609  1.00  0.00    -0.376 OA
BRANCH   4   5
ATOM      5  C   UNL A   1      36.586  32.644  29.737  1.00  0.00     0.202 C 
BRANCH   5   6
ATOM      6  C   UNL A   1      36.710  31.145  30.065  1.00  0.00     0.261 C 
BRANCH   6   7
ATOM      7  O   UNL A   1      37.537  30.368  29.189  1.00  0.00    -0.460 OA
BRANCH   7   8
ATOM      8  C   UNL A   1      38.408  29.512  29.762  1.00  0.00     0.338 C 
ATOM      9  O   UNL A   1      38.260  28.941  30.829  1.00  0.00    -0.246 OA
BRANCH   8  10
ATOM     10  C   UNL A   1      39.507  29.206  28.802  1.00  0.00     0.060 A 
ATOM     11  C   UNL A   1      41.606  28.431  27.106  1.00  0.00     0.087 A 
ATOM     12  C   UNL A   1      41.785  28.398  28.489  1.00  0.00     0.023 A 
ATOM     13  C   UNL A   1      40.395  28.895  26.568  1.00  0.00     0.023 A 
ATOM     14  C   UNL A   1      40.724  28.752  29.331  1.00  0.00     0.017 A 
ATOM     15  C   UNL A   1      39.353  29.295  27.413  1.00  0.00     0.017 A 
BRANCH  11  16
ATOM     16  S   UNL A   1      42.820  27.809  25.961  1.00  0.00     0.261 S 
ATOM     17  O   UNL A   1      44.109  28.207  26.495  1.00  0.00    -0.201 OA
ATOM     18  O   UNL A   1      42.407  28.202  24.632  1.00  0.00    -0.201 OA
BRANCH  16  19
ATOM     19  N   UNL A   1      42.868  26.139  26.004  1.00  0.00    -0.279 N 
ATOM     20  H   UNL A   1      42.945  25.702  25.125  1.00  0.00     0.180 HD
BRANCH  19  21
ATOM     21  C   UNL A   1      42.814  25.251  27.117  1.00  0.00     0.055 A 
ATOM     22  C   UNL A   1      40.243  25.163  26.945  1.00  0.00     0.046 C 
ATOM     23  C   UNL A   1      41.577  24.628  27.401  1.00  0.00    -0.027 A 
ATOM     24  C   UNL A   1      41.556  23.475  28.206  1.00  0.00     0.008 A 
ATOM     25  C   UNL A   1      42.727  22.996  28.782  1.00  0.00     0.039 A 
ATOM     26  C   UNL A   1      43.941  24.876  27.846  1.00  0.00     0.066 A 
ATOM     27  C   UNL A   1      43.896  23.729  28.635  1.00  0.00     0.125 A 
ATOM     28  F   UNL A   1      45.018  23.290  29.220  1.00  0.00    -0.207 F 
ENDBRANCH  19  21
ENDBRANCH  16  19
ENDBRANCH  11  16
ENDBRANCH   8  10
ENDBRANCH   7   8
ENDBRANCH   6   7
ENDBRANCH   5   6
ENDBRANCH   4   5
ENDBRANCH   3   4
ENDBRANCH   2   3
ENDBRANCH   1   2
BRANCH   1  29
ATOM     29  C   UNL A   1      32.924  35.929  30.079  1.00  0.00     0.188 C 
BRANCH  29  30
ATOM     30  C   UNL A   1      33.116  36.297  31.572  1.00  0.00     0.188 C 
BRANCH  30  31
ATOM     31  O   UNL A   1      34.325  35.836  32.151  1.00  0.00    -0.376 OA
BRANCH  31  32
ATOM     32  C   UNL A   1      34.282  34.616  32.869  1.00  0.00     0.202 C 
BRANCH  32  33
ATOM     33  C   UNL A   1      35.135  34.549  34.143  1.00  0.00     0.261 C 
BRANCH  33  34
ATOM     34  O   UNL A   1      35.690  33.263  34.463  1.00  0.00    -0.460 OA
BRANCH  34  35
ATOM     35  C   UNL A   1      36.697  33.225  35.362  1.00  0.00     0.338 C 
ATOM     36  O   UNL A   1      36.605  33.357  36.572  1.00  0.00    -0.246 OA
BRANCH  35  37
ATOM     37  C   UNL A   1      37.919  32.803  34.648  1.00  0.00     0.060 A 
ATOM     38  C   UNL A   1      39.173  33.106  35.196  1.00  0.00     0.016 A 
ATOM     39  C   UNL A   1      37.825  32.096  33.447  1.00  0.00     0.016 A 
ATOM     40  C   UNL A   1      40.338  32.729  34.524  1.00  0.00     0.010 A 
ATOM     41  C   UNL A   1      38.991  31.736  32.768  1.00  0.00     0.010 A 
ATOM     42  C   UNL A   1      40.253  32.080  33.285  1.00  0.00    -0.014 A 
BRANCH  42  43
ATOM     43  C   UNL A   1      41.464  31.932  32.439  1.00  0.00     0.031 A 
ATOM     44  C   UNL A   1      42.271  30.669  32.565  1.00  0.00     0.074 A 
ATOM     45  C   UNL A   1      41.838  32.890  31.570  1.00  0.00     0.049 A 
ATOM     46  N   UNL A   1      43.395  30.337  31.984  1.00  0.00    -0.248 NA
ATOM     47  C   UNL A   1      41.739  29.643  33.478  1.00  0.00     0.031 C 
ATOM     48  C   UNL A   1      41.120  34.140  31.328  1.00  0.00     0.029 A 
ATOM     49  N   UNL A   1      42.928  32.962  30.738  1.00  0.00    -0.354 N 
ATOM     50  C   UNL A   1      43.708  29.071  32.465  1.00  0.00     0.074 A 
ATOM     51  C   UNL A   1      42.675  28.708  33.411  1.00  0.00     0.031 C 
ATOM     52  C   UNL A   1      41.797  34.862  30.418  1.00  0.00     0.029 A 
ATOM     53  C   UNL A   1      43.015  34.144  30.041  1.00  0.00     0.049 A 
ATOM     54  H   UNL A   1      43.587  32.235  30.651  1.00  0.00     0.167 HD
ATOM     55  C   UNL A   1      44.758  28.278  32.143  1.00  0.00     0.037 A 
ATOM     56  C   UNL A   1      43.978  34.601  29.215  1.00  0.00     0.037 A 
ATOM     57  C   UNL A   1      45.786  28.648  31.205  1.00  0.00     0.049 A 
ATOM     58  C   UNL A   1      45.179  33.733  28.928  1.00  0.00     0.074 A 
ATOM     59  C   UNL A   1      46.882  27.909  30.795  1.00  0.00     0.029 A 
ATOM     60  N   UNL A   1      45.852  29.864  30.539  1.00  0.00    -0.354 N 
ATOM     61  N   UNL A   1      45.451  32.526  29.367  1.00  0.00    -0.248 NA
ATOM     62  C   UNL A   1      46.202  34.287  28.029  1.00  0.00     0.031 C 
ATOM     63  C   UNL A   1      47.643  28.701  29.930  1.00  0.00     0.029 A 
ATOM     64  C   UNL A   1      46.987  29.908  29.746  1.00  0.00     0.049 A 
ATOM     65  H   UNL A   1      45.190  30.589  30.619  1.00  0.00     0.167 HD
ATOM     66  C   UNL A   1      46.659  32.166  28.775  1.00  0.00     0.074 A 
ATOM     67  C   UNL A   1      47.058  33.278  27.936  1.00  0.00     0.031 C 
ATOM     68  C   UNL A   1      47.371  31.019  28.910  1.00  0.00     0.037 A 
BRANCH  55  69
ATOM     69  C   UNL A   1      44.865  26.947  32.835  1.00  0.00     0.058 A 
ATOM     70  C   UNL A   1      45.450  26.815  34.105  1.00  0.00     0.135 A 
ATOM     71  C   UNL A   1      44.352  25.788  32.229  1.00  0.00     0.135 A 
ATOM     72  F   UNL A   1      45.973  27.885  34.723  1.00  0.00    -0.206 F 
ATOM     73  C   UNL A   1      45.547  25.579  34.737  1.00  0.00     0.059 A 
ATOM     74  C   UNL A   1      44.411  24.547  32.856  1.00  0.00     0.059 A 
ATOM     75  F   UNL A   1      43.787  25.854  31.014  1.00  0.00    -0.206 F 
ATOM     76  C   UNL A   1      45.024  24.451  34.103  1.00  0.00     0.060 A 
BRANCH  76  77
ATOM     77  S   UNL A   1      45.156  22.856  34.939  1.00  0.00     0.124 S 
ATOM     78  O   UNL A   1      45.184  23.263  36.341  1.00  0.00    -0.237 OA
ATOM     79  O   UNL A   1      43.942  22.173  34.502  1.00  0.00    -0.237 OA
ATOM     80  O   UNL A   1      46.404  22.302  34.423  1.00  0.00    -0.744 OA
ENDBRANCH  76  77
ENDBRANCH  55  69
BRANCH  56  81
ATOM     81  C   UNL A   1      43.858  35.954  28.607  1.00  0.00     0.058 A 
ATOM     82  C   UNL A   1      43.055  36.177  27.477  1.00  0.00     0.135 A 
ATOM     83  C   UNL A   1      44.549  37.055  29.141  1.00  0.00     0.135 A 
ATOM     84  F   UNL A   1      42.388  35.156  26.919  1.00  0.00    -0.206 F 
ATOM     85  C   UNL A   1      42.950  37.435  26.891  1.00  0.00     0.059 A 
ATOM     86  C   UNL A   1      44.436  38.329  28.590  1.00  0.00     0.059 A 
ATOM     87  F   UNL A   1      45.327  36.901  30.223  1.00  0.00    -0.206 F 
ATOM     88  C   UNL A   1      43.640  38.506  27.460  1.00  0.00     0.060 A 
BRANCH  88  89
ATOM     89  S   UNL A   1      43.449  40.146  26.725  1.00  0.00     0.124 S 
ATOM     90  O   UNL A   1      43.638  41.011  27.884  1.00  0.00    -0.237 OA
ATOM     91  O   UNL A   1      44.519  40.160  25.734  1.00  0.00    -0.237 OA
ATOM     92  O   UNL A   1      42.097  40.113  26.176  1.00  0.00    -0.744 OA
ENDBRANCH  88  89
ENDBRANCH  56  81
BRANCH  68  93
ATOM     93  C   UNL A   1      48.637  30.881  28.104  1.00  0.00     0.058 A 
ATOM     94  C   UNL A   1      49.862  31.399  28.551  1.00  0.00     0.135 A 
ATOM     95  C   UNL A   1      48.632  30.168  26.893  1.00  0.00     0.135 A 
ATOM     96  F   UNL A   1      49.925  32.093  29.698  1.00  0.00    -0.206 F 
ATOM     97  C   UNL A   1      51.033  31.236  27.814  1.00  0.00     0.059 A 
ATOM     98  C   UNL A   1      49.796  29.964  26.157  1.00  0.00     0.059 A 
ATOM     99  F   UNL A   1      47.490  29.639  26.423  1.00  0.00    -0.206 F 
ATOM    100  C   UNL A   1      50.990  30.513  26.621  1.00  0.00     0.060 A 
BRANCH 100 101
ATOM    101  S   UNL A   1      52.522  30.281  25.693  1.00  0.00     0.124 S 
ATOM    102  O   UNL A   1      53.291  31.453  26.098  1.00  0.00    -0.237 OA
ATOM    103  O   UNL A   1      53.003  29.001  26.202  1.00  0.00    -0.237 OA
ATOM    104  O   UNL A   1      52.081  30.271  24.302  1.00  0.00    -0.744 OA
ENDBRANCH 100 101
ENDBRANCH  68  93
ENDBRANCH  42  43
ENDBRANCH  35  37
ENDBRANCH  34  35
ENDBRANCH  33  34
ENDBRANCH  32  33
ENDBRANCH  31  32
ENDBRANCH  30  31
ENDBRANCH  29  30
ENDBRANCH   1  29
TORSDOF 26
ENDMDL
MODEL 2
REMARK VINA RESULT:      -7.6      5.535      7.221
REMARK SMILES Cc1ccc(F)cc1NS(=O)(=O)c1ccc(C(=O)OCCOCCOCCOCCOC(=O)c2ccc(-c3c4nc(c(-c5c(F)cc(S(=O)(=O)[O-])cc5F)c5ccc([nH]5)c(-c5c(F)cc(S(=O)(=O)[O-])cc5F)c5nc(c(-c6c(F)cc(S(=O)(=O)[O-])cc6F)c6ccc3[nH]6)C=C5)C=C4)cc2)cc1
REMARK SMILES IDX 25 1 24 2 23 3 22 4 21 5 20 6 19 7 17 8 18 9 16 10 13 11
REMARK SMILES IDX 14 12 101 13 15 14 100 15 10 16 11 17 12 18 9 19 8 21 1 22
REMARK SMILES IDX 2 23 3 24 4 25 7 26 5 27 6 28 26 29 27 30 28 31 29 32 30 33
REMARK SMILES IDX 31 34 32 35 33 36 34 37 35 38 99 39 36 40 98 41 37 42 38 43
REMARK SMILES IDX 39 44 92 45 40 46 97 47 91 48 93 49 41 50 96 51 90 52 89 53
REMARK SMILES IDX 42 55 76 56 55 57 75 58 56 59 59 60 74 61 94 62 57 63 58 64
REMARK SMILES IDX 73 66 95 67 60 68 43 69 44 70 53 71 45 72 46 73 52 74 54 75
REMARK SMILES IDX 47 76 48 77 49 78 50 79 51 80 77 81 78 82 87 83 79 84 80 85
REMARK SMILES IDX 86 86 88 87 81 88 82 89 83 90 84 91 85 92 61 93 62 94 71 95
REMARK SMILES IDX 63 96 64 97 70 98 72 99 65 100 66 101 67 102 68 103 69 104
REMARK H PARENT 9 20 93 54 59 65
REMARK Flexibility Score: inf
ROOT
ATOM      1  O   UNL A   1      35.226  32.333  27.366  1.00  0.00    -0.377 OA
ENDROOT
BRANCH   1   2
ATOM      2  C   UNL A   1      33.905  32.121  27.836  1.00  0.00     0.188 C 
BRANCH   2   3
ATOM      3  C   UNL A   1      33.289  30.735  27.573  1.00  0.00     0.188 C 
BRANCH   3   4
ATOM      4  O   UNL A   1      33.198  30.407  26.198  1.00  0.00    -0.376 OA
BRANCH   4   5
ATOM      5  C   UNL A   1      33.694  29.161  25.740  1.00  0.00     0.202 C 
BRANCH   5   6
ATOM      6  C   UNL A   1      33.813  28.849  24.237  1.00  0.00     0.261 C 
BRANCH   6   7
ATOM      7  O   UNL A   1      32.609  28.445  23.573  1.00  0.00    -0.460 OA
BRANCH   7   8
ATOM      8  C   UNL A   1      31.580  28.047  24.350  1.00  0.00     0.338 C 
ATOM      9  O   UNL A   1      30.575  28.690  24.598  1.00  0.00    -0.246 OA
BRANCH   8  10
ATOM     10  C   UNL A   1      31.756  26.611  24.711  1.00  0.00     0.060 A 
ATOM     11  C   UNL A   1      31.976  23.952  25.585  1.00  0.00     0.087 A 
ATOM     12  C   UNL A   1      32.373  24.992  26.425  1.00  0.00     0.023 A 
ATOM     13  C   UNL A   1      31.513  24.236  24.290  1.00  0.00     0.023 A 
ATOM     14  C   UNL A   1      32.229  26.318  25.999  1.00  0.00     0.017 A 
ATOM     15  C   UNL A   1      31.417  25.561  23.849  1.00  0.00     0.017 A 
BRANCH  11  16
ATOM     16  S   UNL A   1      31.930  22.251  26.111  1.00  0.00     0.261 S 
ATOM     17  O   UNL A   1      30.562  21.812  25.912  1.00  0.00    -0.201 OA
ATOM     18  O   UNL A   1      32.556  22.181  27.412  1.00  0.00    -0.201 OA
BRANCH  16  19
ATOM     19  N   UNL A   1      32.815  21.289  25.070  1.00  0.00    -0.279 N 
ATOM     20  H   UNL A   1      33.591  21.729  24.655  1.00  0.00     0.180 HD
BRANCH  19  21
ATOM     21  C   UNL A   1      32.618  19.929  24.691  1.00  0.00     0.055 A 
ATOM     22  C   UNL A   1      32.032  20.664  22.290  1.00  0.00     0.046 C 
ATOM     23  C   UNL A   1      32.466  19.646  23.315  1.00  0.00    -0.027 A 
ATOM     24  C   UNL A   1      32.666  18.331  22.856  1.00  0.00     0.008 A 
ATOM     25  C   UNL A   1      32.932  17.305  23.755  1.00  0.00     0.039 A 
ATOM     26  C   UNL A   1      32.696  18.870  25.594  1.00  0.00     0.066 A 
ATOM     27  C   UNL A   1      32.896  17.577  25.115  1.00  0.00     0.125 A 
ATOM     28  F   UNL A   1      33.115  16.581  25.984  1.00  0.00    -0.207 F 
ENDBRANCH  19  21
ENDBRANCH  16  19
ENDBRANCH  11  16
ENDBRANCH   8  10
ENDBRANCH   7   8
ENDBRANCH   6   7
ENDBRANCH   5   6
ENDBRANCH   4   5
ENDBRANCH   3   4
ENDBRANCH   2   3
ENDBRANCH   1   2
BRANCH   1  29
ATOM     29  C   UNL A   1      36.193  32.956  28.213  1.00  0.00     0.188 C 
BRANCH  29  30
ATOM     30  C   UNL A   1      35.986  33.149  29.736  1.00  0.00     0.188 C 
BRANCH  30  31
ATOM     31  O   UNL A   1      36.592  34.310  30.281  1.00  0.00    -0.376 OA
BRANCH  31  32
ATOM     32  C   UNL A   1      37.230  34.184  31.539  1.00  0.00     0.202 C 
BRANCH  32  33
ATOM     33  C   UNL A   1      36.750  33.029  32.429  1.00  0.00     0.261 C 
BRANCH  33  34
ATOM     34  O   UNL A   1      37.640  31.907  32.542  1.00  0.00    -0.460 OA
BRANCH  34  35
ATOM     35  C   UNL A   1      37.273  30.758  31.934  1.00  0.00     0.338 C 
ATOM     36  O   UNL A   1      36.143  30.305  31.842  1.00  0.00    -0.246 OA
BRANCH  35  37
ATOM     37  C   UNL A   1      38.457  30.229  31.226  1.00  0.00     0.060 A 
ATOM     38  C   UNL A   1      39.522  29.701  31.970  1.00  0.00     0.016 A 
ATOM     39  C   UNL A   1      38.506  30.239  29.830  1.00  0.00     0.016 A 
ATOM     40  C   UNL A   1      40.655  29.212  31.315  1.00  0.00     0.010 A 
ATOM     41  C   UNL A   1      39.648  29.766  29.179  1.00  0.00     0.010 A 
ATOM     42  C   UNL A   1      40.742  29.282  29.918  1.00  0.00    -0.014 A 
BRANCH  42  43
ATOM     43  C   UNL A   1      42.039  29.033  29.241  1.00  0.00     0.031 A 
ATOM     44  C   UNL A   1      42.306  27.655  28.697  1.00  0.00     0.074 A 
ATOM     45  C   UNL A   1      42.959  30.005  29.100  1.00  0.00     0.049 A 
ATOM     46  N   UNL A   1      43.382  27.180  28.126  1.00  0.00    -0.248 NA
ATOM     47  C   UNL A   1      41.209  26.681  28.822  1.00  0.00     0.031 C 
ATOM     48  C   UNL A   1      42.804  31.388  29.548  1.00  0.00     0.029 A 
ATOM     49  N   UNL A   1      44.216  29.969  28.549  1.00  0.00    -0.354 N 
ATOM     50  C   UNL A   1      43.096  25.851  27.831  1.00  0.00     0.074 A 
ATOM     51  C   UNL A   1      41.759  25.587  28.317  1.00  0.00     0.031 C 
ATOM     52  C   UNL A   1      43.930  32.066  29.266  1.00  0.00     0.029 A 
ATOM     53  C   UNL A   1      44.899  31.158  28.652  1.00  0.00     0.049 A 
ATOM     54  H   UNL A   1      44.593  29.167  28.121  1.00  0.00     0.167 HD
ATOM     55  C   UNL A   1      43.873  24.936  27.206  1.00  0.00     0.037 A 
ATOM     56  C   UNL A   1      46.168  31.468  28.313  1.00  0.00     0.037 A 
ATOM     57  C   UNL A   1      45.206  25.204  26.731  1.00  0.00     0.049 A 
ATOM     58  C   UNL A   1      47.044  30.412  27.686  1.00  0.00     0.074 A 
ATOM     59  C   UNL A   1      46.070  24.350  26.068  1.00  0.00     0.029 A 
ATOM     60  N   UNL A   1      45.872  26.413  26.877  1.00  0.00    -0.354 N 
ATOM     61  N   UNL A   1      46.754  29.167  27.387  1.00  0.00    -0.248 NA
ATOM     62  C   UNL A   1      48.420  30.803  27.346  1.00  0.00     0.031 C 
ATOM     63  C   UNL A   1      47.280  25.022  25.868  1.00  0.00     0.029 A 
ATOM     64  C   UNL A   1      47.148  26.317  26.345  1.00  0.00     0.049 A 
ATOM     65  H   UNL A   1      45.494  27.219  27.297  1.00  0.00     0.167 HD
ATOM     66  C   UNL A   1      47.899  28.637  26.798  1.00  0.00     0.074 A 
ATOM     67  C   UNL A   1      48.882  29.701  26.771  1.00  0.00     0.031 C 
ATOM     68  C   UNL A   1      48.117  27.386  26.319  1.00  0.00     0.037 A 
BRANCH  55  69
ATOM     69  C   UNL A   1      43.315  23.550  27.030  1.00  0.00     0.058 A 
ATOM     70  C   UNL A   1      42.837  23.092  25.792  1.00  0.00     0.135 A 
ATOM     71  C   UNL A   1      43.282  22.656  28.114  1.00  0.00     0.135 A 
ATOM     72  F   UNL A   1      42.827  23.909  24.727  1.00  0.00    -0.206 F 
ATOM     73  C   UNL A   1      42.320  21.810  25.640  1.00  0.00     0.059 A 
ATOM     74  C   UNL A   1      42.798  21.358  27.977  1.00  0.00     0.059 A 
ATOM     75  F   UNL A   1      43.721  23.040  29.321  1.00  0.00    -0.206 F 
ATOM     76  C   UNL A   1      42.305  20.950  26.739  1.00  0.00     0.060 A 
BRANCH  76  77
ATOM     77  S   UNL A   1      41.635  19.288  26.523  1.00  0.00     0.124 S 
ATOM     78  O   UNL A   1      40.868  19.441  25.290  1.00  0.00    -0.237 OA
ATOM     79  O   UNL A   1      42.842  18.475  26.422  1.00  0.00    -0.237 OA
ATOM     80  O   UNL A   1      40.842  19.080  27.731  1.00  0.00    -0.744 OA
ENDBRANCH  76  77
ENDBRANCH  55  69
BRANCH  56  81
ATOM     81  C   UNL A   1      46.694  32.837  28.569  1.00  0.00     0.058 A 
ATOM     82  C   UNL A   1      47.394  33.140  29.747  1.00  0.00     0.135 A 
ATOM     83  C   UNL A   1      46.502  33.875  27.641  1.00  0.00     0.135 A 
ATOM     84  F   UNL A   1      47.590  32.189  30.673  1.00  0.00    -0.206 F 
ATOM     85  C   UNL A   1      47.875  34.420  30.002  1.00  0.00     0.059 A 
ATOM     86  C   UNL A   1      46.999  35.156  27.861  1.00  0.00     0.059 A 
ATOM     87  F   UNL A   1      45.843  33.640  26.496  1.00  0.00    -0.206 F 
ATOM     88  C   UNL A   1      47.678  35.421  29.049  1.00  0.00     0.060 A 
BRANCH  88  89
ATOM     89  S   UNL A   1      48.357  37.064  29.367  1.00  0.00     0.124 S 
ATOM     90  O   UNL A   1      47.161  37.896  29.296  1.00  0.00    -0.237 OA
ATOM     91  O   UNL A   1      48.944  36.899  30.693  1.00  0.00    -0.237 OA
ATOM     92  O   UNL A   1      49.318  37.246  28.284  1.00  0.00    -0.744 OA
ENDBRANCH  88  89
ENDBRANCH  56  81
BRANCH  68  93
ATOM     93  C   UNL A   1      49.453  27.101  25.685  1.00  0.00     0.058 A 
ATOM     94  C   UNL A   1      49.672  27.260  24.308  1.00  0.00     0.135 A 
ATOM     95  C   UNL A   1      50.548  26.718  26.479  1.00  0.00     0.135 A 
ATOM     96  F   UNL A   1      48.662  27.620  23.500  1.00  0.00    -0.206 F 
ATOM     97  C   UNL A   1      50.920  27.027  23.737  1.00  0.00     0.059 A 
ATOM     98  C   UNL A   1      51.812  26.511  25.935  1.00  0.00     0.059 A 
ATOM     99  F   UNL A   1      50.400  26.562  27.805  1.00  0.00    -0.206 F 
ATOM    100  C   UNL A   1      51.985  26.656  24.560  1.00  0.00     0.060 A 
BRANCH 100 101
ATOM    101  S   UNL A   1      53.606  26.389  23.811  1.00  0.00     0.124 S 
ATOM    102  O   UNL A   1      54.163  25.355  24.676  1.00  0.00    -0.237 OA
ATOM    103  O   UNL A   1      53.258  25.965  22.459  1.00  0.00    -0.237 OA
ATOM    104  O   UNL A   1      54.246  27.698  23.906  1.00  0.00    -0.744 OA
ENDBRANCH 100 101
ENDBRANCH  68  93
ENDBRANCH  42  43
ENDBRANCH  35  37
ENDBRANCH  34  35
ENDBRANCH  33  34
ENDBRANCH  32  33
ENDBRANCH  31  32
ENDBRANCH  30  31
ENDBRANCH  29  30
ENDBRANCH   1  29
TORSDOF 26
ENDMDL
MODEL 3
REMARK VINA RESULT:      -7.6      4.558      6.557
REMARK SMILES Cc1ccc(F)cc1NS(=O)(=O)c1ccc(C(=O)OCCOCCOCCOCCOC(=O)c2ccc(-c3c4nc(c(-c5c(F)cc(S(=O)(=O)[O-])cc5F)c5ccc([nH]5)c(-c5c(F)cc(S(=O)(=O)[O-])cc5F)c5nc(c(-c6c(F)cc(S(=O)(=O)[O-])cc6F)c6ccc3[nH]6)C=C5)C=C4)cc2)cc1
REMARK SMILES IDX 25 1 24 2 23 3 22 4 21 5 20 6 19 7 17 8 18 9 16 10 13 11
REMARK SMILES IDX 14 12 101 13 15 14 100 15 10 16 11 17 12 18 9 19 8 21 1 22
REMARK SMILES IDX 2 23 3 24 4 25 7 26 5 27 6 28 26 29 27 30 28 31 29 32 30 33
REMARK SMILES IDX 31 34 32 35 33 36 34 37 35 38 99 39 36 40 98 41 37 42 38 43
REMARK SMILES IDX 39 44 92 45 40 46 97 47 91 48 93 49 41 50 96 51 90 52 89 53
REMARK SMILES IDX 42 55 76 56 55 57 75 58 56 59 59 60 74 61 94 62 57 63 58 64
REMARK SMILES IDX 73 66 95 67 60 68 43 69 44 70 53 71 45 72 46 73 52 74 54 75
REMARK SMILES IDX 47 76 48 77 49 78 50 79 51 80 77 81 78 82 87 83 79 84 80 85
REMARK SMILES IDX 86 86 88 87 81 88 82 89 83 90 84 91 85 92 61 93 62 94 71 95
REMARK SMILES IDX 63 96 64 97 70 98 72 99 65 100 66 101 67 102 68 103 69 104
REMARK H PARENT 9 20 93 54 59 65
REMARK Flexibility Score: inf
ROOT
ATOM      1  O   UNL A   1      33.480  35.252  32.360  1.00  0.00    -0.377 OA
ENDROOT
BRANCH   1   2
ATOM      2  C   UNL A   1      32.836  35.609  31.148  1.00  0.00     0.188 C 
BRANCH   2   3
ATOM      3  C   UNL A   1      33.601  35.319  29.844  1.00  0.00     0.188 C 
BRANCH   3   4
ATOM      4  O   UNL A   1      33.197  34.120  29.205  1.00  0.00    -0.376 OA
BRANCH   4   5
ATOM      5  C   UNL A   1      34.113  33.424  28.377  1.00  0.00     0.202 C 
BRANCH   5   6
ATOM      6  C   UNL A   1      34.220  31.888  28.415  1.00  0.00     0.261 C 
BRANCH   6   7
ATOM      7  O   UNL A   1      33.853  31.195  27.215  1.00  0.00    -0.460 OA
BRANCH   7   8
ATOM      8  C   UNL A   1      32.538  31.130  26.919  1.00  0.00     0.338 C 
ATOM      9  O   UNL A   1      31.763  32.070  26.874  1.00  0.00    -0.246 OA
BRANCH   8  10
ATOM     10  C   UNL A   1      32.201  29.753  26.456  1.00  0.00     0.060 A 
ATOM     11  C   UNL A   1      31.770  27.156  25.481  1.00  0.00     0.087 A 
ATOM     12  C   UNL A   1      32.159  28.170  24.604  1.00  0.00     0.023 A 
ATOM     13  C   UNL A   1      31.551  27.449  26.836  1.00  0.00     0.023 A 
ATOM     14  C   UNL A   1      32.406  29.454  25.101  1.00  0.00     0.017 A 
ATOM     15  C   UNL A   1      31.752  28.747  27.321  1.00  0.00     0.017 A 
BRANCH  11  16
ATOM     16  S   UNL A   1      31.629  25.452  24.982  1.00  0.00     0.261 S 
ATOM     17  O   UNL A   1      32.152  25.389  23.631  1.00  0.00    -0.201 OA
ATOM     18  O   UNL A   1      30.282  25.021  25.283  1.00  0.00    -0.201 OA
BRANCH  16  19
ATOM     19  N   UNL A   1      32.676  24.493  25.863  1.00  0.00    -0.279 N 
ATOM     20  H   UNL A   1      32.470  24.423  26.823  1.00  0.00     0.180 HD
BRANCH  19  21
ATOM     21  C   UNL A   1      33.822  23.761  25.438  1.00  0.00     0.055 A 
ATOM     22  C   UNL A   1      32.305  21.942  24.419  1.00  0.00     0.046 C 
ATOM     23  C   UNL A   1      33.617  22.670  24.561  1.00  0.00    -0.027 A 
ATOM     24  C   UNL A   1      34.700  22.177  23.811  1.00  0.00     0.008 A 
ATOM     25  C   UNL A   1      35.975  22.702  23.986  1.00  0.00     0.039 A 
ATOM     26  C   UNL A   1      35.127  24.147  25.740  1.00  0.00     0.066 A 
ATOM     27  C   UNL A   1      36.182  23.646  24.982  1.00  0.00     0.125 A 
ATOM     28  F   UNL A   1      37.418  24.125  25.178  1.00  0.00    -0.207 F 
ENDBRANCH  19  21
ENDBRANCH  16  19
ENDBRANCH  11  16
ENDBRANCH   8  10
ENDBRANCH   7   8
ENDBRANCH   6   7
ENDBRANCH   5   6
ENDBRANCH   4   5
ENDBRANCH   3   4
ENDBRANCH   2   3
ENDBRANCH   1   2
BRANCH   1  29
ATOM     29  C   UNL A   1      34.772  35.782  32.664  1.00  0.00     0.188 C 
BRANCH  29  30
ATOM     30  C   UNL A   1      35.876  34.966  33.381  1.00  0.00     0.188 C 
BRANCH  30  31
ATOM     31  O   UNL A   1      36.344  33.834  32.665  1.00  0.00    -0.376 OA
BRANCH  31  32
ATOM     32  C   UNL A   1      35.989  32.556  33.161  1.00  0.00     0.202 C 
BRANCH  32  33
ATOM     33  C   UNL A   1      37.065  31.821  33.973  1.00  0.00     0.261 C 
BRANCH  33  34
ATOM     34  O   UNL A   1      37.834  30.841  33.257  1.00  0.00    -0.460 OA
BRANCH  34  35
ATOM     35  C   UNL A   1      38.840  30.233  33.922  1.00  0.00     0.338 C 
ATOM     36  O   UNL A   1      38.861  29.932  35.105  1.00  0.00    -0.246 OA
BRANCH  35  37
ATOM     37  C   UNL A   1      39.848  29.817  32.925  1.00  0.00     0.060 A 
ATOM     38  C   UNL A   1      40.907  28.990  33.324  1.00  0.00     0.016 A 
ATOM     39  C   UNL A   1      39.737  30.231  31.595  1.00  0.00     0.016 A 
ATOM     40  C   UNL A   1      41.877  28.601  32.397  1.00  0.00     0.010 A 
ATOM     41  C   UNL A   1      40.718  29.856  30.674  1.00  0.00     0.010 A 
ATOM     42  C   UNL A   1      41.811  29.068  31.077  1.00  0.00    -0.014 A 
BRANCH  42  43
ATOM     43  C   UNL A   1      42.973  28.898  30.170  1.00  0.00     0.031 A 
ATOM     44  C   UNL A   1      43.104  27.603  29.414  1.00  0.00     0.074 A 
ATOM     45  C   UNL A   1      43.890  29.870  30.009  1.00  0.00     0.049 A 
ATOM     46  N   UNL A   1      44.058  27.197  28.617  1.00  0.00    -0.248 NA
ATOM     47  C   UNL A   1      42.010  26.633  29.588  1.00  0.00     0.031 C 
ATOM     48  C   UNL A   1      43.855  31.182  30.653  1.00  0.00     0.029 A 
ATOM     49  N   UNL A   1      45.041  29.895  29.259  1.00  0.00    -0.354 N 
ATOM     50  C   UNL A   1      43.685  25.923  28.202  1.00  0.00     0.074 A 
ATOM     51  C   UNL A   1      42.436  25.611  28.862  1.00  0.00     0.031 C 
ATOM     52  C   UNL A   1      44.942  31.879  30.281  1.00  0.00     0.029 A 
ATOM     53  C   UNL A   1      45.770  31.052  29.403  1.00  0.00     0.049 A 
ATOM     54  H   UNL A   1      45.317  29.153  28.674  1.00  0.00     0.167 HD
ATOM     55  C   UNL A   1      44.321  25.092  27.344  1.00  0.00     0.037 A 
ATOM     56  C   UNL A   1      46.976  31.391  28.904  1.00  0.00     0.037 A 
ATOM     57  C   UNL A   1      45.568  25.407  26.696  1.00  0.00     0.049 A 
ATOM     58  C   UNL A   1      47.706  30.418  28.009  1.00  0.00     0.074 A 
ATOM     59  C   UNL A   1      46.286  24.640  25.794  1.00  0.00     0.029 A 
ATOM     60  N   UNL A   1      46.288  26.577  26.888  1.00  0.00    -0.354 N 
ATOM     61  N   UNL A   1      47.331  29.228  27.602  1.00  0.00    -0.248 NA
ATOM     62  C   UNL A   1      49.021  30.836  27.503  1.00  0.00     0.031 C 
ATOM     63  C   UNL A   1      47.469  25.320  25.489  1.00  0.00     0.029 A 
ATOM     64  C   UNL A   1      47.458  26.540  26.146  1.00  0.00     0.049 A 
ATOM     65  H   UNL A   1      46.010  27.324  27.466  1.00  0.00     0.167 HD
ATOM     66  C   UNL A   1      48.348  28.770  26.769  1.00  0.00     0.074 A 
ATOM     67  C   UNL A   1      49.348  29.817  26.721  1.00  0.00     0.031 C 
ATOM     68  C   UNL A   1      48.445  27.592  26.102  1.00  0.00     0.037 A 
BRANCH  55  69
ATOM     69  C   UNL A   1      43.697  23.748  27.082  1.00  0.00     0.058 A 
ATOM     70  C   UNL A   1      43.752  22.708  28.025  1.00  0.00     0.135 A 
ATOM     71  C   UNL A   1      43.013  23.505  25.880  1.00  0.00     0.135 A 
ATOM     72  F   UNL A   1      44.410  22.877  29.182  1.00  0.00    -0.206 F 
ATOM     73  C   UNL A   1      43.175  21.467  27.773  1.00  0.00     0.059 A 
ATOM     74  C   UNL A   1      42.401  22.282  25.621  1.00  0.00     0.059 A 
ATOM     75  F   UNL A   1      42.933  24.461  24.942  1.00  0.00    -0.206 F 
ATOM     76  C   UNL A   1      42.501  21.264  26.567  1.00  0.00     0.060 A 
BRANCH  76  77
ATOM     77  S   UNL A   1      41.755  19.649  26.260  1.00  0.00     0.124 S 
ATOM     78  O   UNL A   1      40.339  19.994  26.173  1.00  0.00    -0.237 OA
ATOM     79  O   UNL A   1      42.387  19.247  25.008  1.00  0.00    -0.237 OA
ATOM     80  O   UNL A   1      42.138  18.868  27.432  1.00  0.00    -0.744 OA
ENDBRANCH  76  77
ENDBRANCH  55  69
BRANCH  56  81
ATOM     81  C   UNL A   1      47.582  32.707  29.247  1.00  0.00     0.058 A 
ATOM     82  C   UNL A   1      48.568  32.819  30.239  1.00  0.00     0.135 A 
ATOM     83  C   UNL A   1      47.181  33.884  28.592  1.00  0.00     0.135 A 
ATOM     84  F   UNL A   1      48.974  31.728  30.906  1.00  0.00    -0.206 F 
ATOM     85  C   UNL A   1      49.127  34.047  30.578  1.00  0.00     0.059 A 
ATOM     86  C   UNL A   1      47.747  35.119  28.894  1.00  0.00     0.059 A 
ATOM     87  F   UNL A   1      46.244  33.834  27.633  1.00  0.00    -0.206 F 
ATOM     88  C   UNL A   1      48.714  35.191  29.895  1.00  0.00     0.060 A 
BRANCH  88  89
ATOM     89  S   UNL A   1      49.489  36.771  30.304  1.00  0.00     0.124 S 
ATOM     90  O   UNL A   1      48.961  37.638  29.257  1.00  0.00    -0.237 OA
ATOM     91  O   UNL A   1      48.986  37.016  31.651  1.00  0.00    -0.237 OA
ATOM     92  O   UNL A   1      50.916  36.477  30.220  1.00  0.00    -0.744 OA
ENDBRANCH  88  89
ENDBRANCH  56  81
BRANCH  68  93
ATOM     93  C   UNL A   1      49.652  27.380  25.226  1.00  0.00     0.058 A 
ATOM     94  C   UNL A   1      49.580  27.473  23.827  1.00  0.00     0.135 A 
ATOM     95  C   UNL A   1      50.911  27.138  25.800  1.00  0.00     0.135 A 
ATOM     96  F   UNL A   1      48.403  27.697  23.224  1.00  0.00    -0.206 F 
ATOM     97  C   UNL A   1      50.709  27.308  23.028  1.00  0.00     0.059 A 
ATOM     98  C   UNL A   1      52.058  27.003  25.023  1.00  0.00     0.059 A 
ATOM     99  F   UNL A   1      51.042  27.052  27.134  1.00  0.00    -0.206 F 
ATOM    100  C   UNL A   1      51.944  27.078  23.636  1.00  0.00     0.060 A 
BRANCH 100 101
ATOM    101  S   UNL A   1      53.405  26.900  22.589  1.00  0.00     0.124 S 
ATOM    102  O   UNL A   1      53.876  28.279  22.506  1.00  0.00    -0.237 OA
ATOM    103  O   UNL A   1      54.238  25.992  23.370  1.00  0.00    -0.237 OA
ATOM    104  O   UNL A   1      52.871  26.345  21.350  1.00  0.00    -0.744 OA
ENDBRANCH 100 101
ENDBRANCH  68  93
ENDBRANCH  42  43
ENDBRANCH  35  37
ENDBRANCH  34  35
ENDBRANCH  33  34
ENDBRANCH  32  33
ENDBRANCH  31  32
ENDBRANCH  30  31
ENDBRANCH  29  30
ENDBRANCH   1  29
TORSDOF 26
ENDMDL
