MODEL 1
REMARK VINA RESULT:     -10.3      0.000      0.000
REMARK SMILES Cc1ccc(C(=O)N[C@@H]2C=C[C@H](C(=O)OCCOCCOCCOCCOC(=O)c3ccc(-c4c5nc(c(-c6c(F)cc(S(=O)(=O)[O-])cc6F)c6ccc([nH]6)c(-c6c(F)cc(S(=O)(=O)[O-])cc6F)c6nc(c(-c7c(F)cc(S(=O)(=O)[O-])cc7F)c7ccc4[nH]7)C=C6)C=C5)cc3)C2)c(F)c1
REMARK SMILES IDX 22 1 21 2 20 3 19 4 18 5 17 6 16 7 15 8 13 9 14 10 12 11
REMARK SMILES IDX 9 12 10 13 96 14 11 15 8 16 6 17 7 18 5 20 1 21 2 22 3 23
REMARK SMILES IDX 99 24 4 25 97 26 98 27 23 28 24 29 25 30 26 31 27 32 28 33
REMARK SMILES IDX 29 34 30 35 31 36 95 37 32 38 94 39 33 40 34 41 35 42 88 43
REMARK SMILES IDX 36 44 93 45 87 46 89 47 37 48 92 49 86 50 85 51 38 53 72 54
REMARK SMILES IDX 51 55 71 56 52 57 55 58 70 59 90 60 53 61 54 62 69 64 91 65
REMARK SMILES IDX 56 66 39 67 40 68 49 69 41 70 42 71 48 72 50 73 43 74 44 75
REMARK SMILES IDX 45 76 46 77 47 78 73 79 74 80 83 81 75 82 76 83 82 84 84 85
REMARK SMILES IDX 77 86 78 87 79 88 80 89 81 90 57 91 58 92 67 93 59 94 60 95
REMARK SMILES IDX 66 96 68 97 61 98 62 99 63 100 64 101 65 102
REMARK H PARENT 8 19 89 52 55 63
REMARK Flexibility Score: inf
ROOT
ATOM      1  C   UNL A   1      34.865  33.484  29.305  1.00  0.00     0.188 C 
ENDROOT
BRANCH   1   2
ATOM      2  O   UNL A   1      34.391  32.189  28.975  1.00  0.00    -0.377 OA
BRANCH   2   3
ATOM      3  C   UNL A   1      35.056  31.616  27.869  1.00  0.00     0.188 C 
BRANCH   3   4
ATOM      4  C   UNL A   1      34.340  30.404  27.254  1.00  0.00     0.188 C 
BRANCH   4   5
ATOM      5  O   UNL A   1      33.178  30.592  26.474  1.00  0.00    -0.376 OA
BRANCH   5   6
ATOM      6  C   UNL A   1      31.939  30.011  26.836  1.00  0.00     0.202 C 
BRANCH   6   7
ATOM      7  C   UNL A   1      31.774  28.555  27.313  1.00  0.00     0.261 C 
BRANCH   7   8
ATOM      8  O   UNL A   1      32.561  27.539  26.681  1.00  0.00    -0.463 OA
BRANCH   8   9
ATOM      9  C   UNL A   1      32.146  27.144  25.449  1.00  0.00     0.312 C 
ATOM     10  O   UNL A   1      32.478  27.681  24.401  1.00  0.00    -0.252 OA
BRANCH   9  11
ATOM     11  C   UNL A   1      31.144  25.993  25.582  1.00  0.00     0.124 C 
ATOM     12  C   UNL A   1      30.953  24.329  23.750  1.00  0.00     0.106 C 
ATOM     13  C   UNL A   1      29.907  25.387  23.670  1.00  0.00    -0.006 C 
ATOM     14  C   UNL A   1      31.636  24.628  25.090  1.00  0.00     0.048 C 
ATOM     15  C   UNL A   1      29.965  26.243  24.695  1.00  0.00    -0.014 C 
BRANCH  12  16
ATOM     16  N   UNL A   1      31.818  24.370  22.586  1.00  0.00    -0.346 N 
ATOM     17  C   UNL A   1      33.001  23.716  22.290  1.00  0.00     0.254 C 
ATOM     18  O   UNL A   1      33.412  23.774  21.133  1.00  0.00    -0.269 OA
ATOM     19  H   UNL A   1      31.506  24.975  21.875  1.00  0.00     0.164 HD
BRANCH  17  20
ATOM     20  C   UNL A   1      33.831  23.049  23.337  1.00  0.00     0.075 A 
ATOM     21  C   UNL A   1      36.720  20.405  25.071  1.00  0.00     0.044 C 
ATOM     22  C   UNL A   1      35.656  21.399  24.707  1.00  0.00    -0.048 A 
ATOM     23  C   UNL A   1      35.981  22.722  24.414  1.00  0.00     0.004 A 
ATOM     24  C   UNL A   1      34.337  20.986  24.515  1.00  0.00     0.043 A 
ATOM     25  C   UNL A   1      35.046  23.558  23.796  1.00  0.00     0.017 A 
ATOM     26  C   UNL A   1      33.447  21.787  23.798  1.00  0.00     0.136 A 
ATOM     27  F   UNL A   1      32.259  21.250  23.487  1.00  0.00    -0.206 F 
ENDBRANCH  17  20
ENDBRANCH  12  16
ENDBRANCH   9  11
ENDBRANCH   8   9
ENDBRANCH   7   8
ENDBRANCH   6   7
ENDBRANCH   5   6
ENDBRANCH   4   5
ENDBRANCH   3   4
ENDBRANCH   2   3
ENDBRANCH   1   2
BRANCH   1  28
ATOM     28  C   UNL A   1      34.481  33.976  30.711  1.00  0.00     0.188 C 
BRANCH  28  29
ATOM     29  O   UNL A   1      34.201  33.076  31.771  1.00  0.00    -0.376 OA
BRANCH  29  30
ATOM     30  C   UNL A   1      35.159  32.621  32.704  1.00  0.00     0.202 C 
BRANCH  30  31
ATOM     31  C   UNL A   1      36.572  32.179  32.316  1.00  0.00     0.261 C 
BRANCH  31  32
ATOM     32  O   UNL A   1      36.823  30.791  32.518  1.00  0.00    -0.460 OA
BRANCH  32  33
ATOM     33  C   UNL A   1      36.871  30.076  31.373  1.00  0.00     0.338 C 
ATOM     34  O   UNL A   1      35.926  29.656  30.720  1.00  0.00    -0.246 OA
BRANCH  33  35
ATOM     35  C   UNL A   1      38.248  30.076  30.872  1.00  0.00     0.060 A 
ATOM     36  C   UNL A   1      38.411  30.135  29.482  1.00  0.00     0.016 A 
ATOM     37  C   UNL A   1      39.347  30.003  31.730  1.00  0.00     0.016 A 
ATOM     38  C   UNL A   1      39.678  30.076  28.936  1.00  0.00     0.010 A 
ATOM     39  C   UNL A   1      40.624  29.905  31.178  1.00  0.00     0.010 A 
ATOM     40  C   UNL A   1      40.778  29.892  29.781  1.00  0.00    -0.014 A 
BRANCH  40  41
ATOM     41  C   UNL A   1      42.025  29.418  29.155  1.00  0.00     0.031 A 
ATOM     42  C   UNL A   1      43.163  30.393  29.048  1.00  0.00     0.074 A 
ATOM     43  C   UNL A   1      42.165  28.126  28.820  1.00  0.00     0.049 A 
ATOM     44  N   UNL A   1      44.375  30.203  28.606  1.00  0.00    -0.248 NA
ATOM     45  C   UNL A   1      42.902  31.770  29.512  1.00  0.00     0.031 C 
ATOM     46  C   UNL A   1      41.128  27.102  28.953  1.00  0.00     0.029 A 
ATOM     47  N   UNL A   1      43.243  27.453  28.313  1.00  0.00    -0.354 N 
ATOM     48  C   UNL A   1      45.015  31.431  28.726  1.00  0.00     0.074 A 
ATOM     49  C   UNL A   1      44.055  32.368  29.260  1.00  0.00     0.031 C 
ATOM     50  C   UNL A   1      41.620  25.928  28.523  1.00  0.00     0.029 A 
ATOM     51  C   UNL A   1      42.992  26.126  28.062  1.00  0.00     0.049 A 
ATOM     52  H   UNL A   1      44.114  27.879  28.144  1.00  0.00     0.167 HD
ATOM     53  C   UNL A   1      46.294  31.740  28.421  1.00  0.00     0.037 A 
ATOM     54  C   UNL A   1      43.782  25.193  27.499  1.00  0.00     0.037 A 
ATOM     55  C   UNL A   1      47.234  30.783  27.902  1.00  0.00     0.049 A 
ATOM     56  C   UNL A   1      45.189  25.579  27.118  1.00  0.00     0.074 A 
ATOM     57  C   UNL A   1      48.564  30.974  27.578  1.00  0.00     0.029 A 
ATOM     58  N   UNL A   1      46.937  29.456  27.622  1.00  0.00    -0.354 N 
ATOM     59  N   UNL A   1      45.794  26.736  27.259  1.00  0.00    -0.248 NA
ATOM     60  C   UNL A   1      46.022  24.534  26.513  1.00  0.00     0.031 C 
ATOM     61  C   UNL A   1      49.052  29.782  27.037  1.00  0.00     0.029 A 
ATOM     62  C   UNL A   1      48.048  28.825  27.093  1.00  0.00     0.049 A 
ATOM     63  H   UNL A   1      46.064  29.028  27.777  1.00  0.00     0.167 HD
ATOM     64  C   UNL A   1      47.087  26.552  26.782  1.00  0.00     0.074 A 
ATOM     65  C   UNL A   1      47.180  25.165  26.368  1.00  0.00     0.031 C 
ATOM     66  C   UNL A   1      48.108  27.442  26.691  1.00  0.00     0.037 A 
BRANCH  53  67
ATOM     67  C   UNL A   1      46.738  33.166  28.590  1.00  0.00     0.058 A 
ATOM     68  C   UNL A   1      46.440  34.162  27.648  1.00  0.00     0.135 A 
ATOM     69  C   UNL A   1      47.438  33.547  29.746  1.00  0.00     0.135 A 
ATOM     70  F   UNL A   1      45.800  33.849  26.510  1.00  0.00    -0.206 F 
ATOM     71  C   UNL A   1      46.825  35.486  27.843  1.00  0.00     0.059 A 
ATOM     72  C   UNL A   1      47.807  34.868  29.976  1.00  0.00     0.059 A 
ATOM     73  F   UNL A   1      47.764  32.631  30.672  1.00  0.00    -0.206 F 
ATOM     74  C   UNL A   1      47.501  35.830  29.016  1.00  0.00     0.060 A 
BRANCH  74  75
ATOM     75  S   UNL A   1      47.956  37.557  29.275  1.00  0.00     0.124 S 
ATOM     76  O   UNL A   1      46.898  38.250  28.548  1.00  0.00    -0.237 OA
ATOM     77  O   UNL A   1      47.908  37.675  30.729  1.00  0.00    -0.237 OA
ATOM     78  O   UNL A   1      49.287  37.652  28.684  1.00  0.00    -0.744 OA
ENDBRANCH  74  75
ENDBRANCH  53  67
BRANCH  54  79
ATOM     79  C   UNL A   1      43.250  23.831  27.229  1.00  0.00     0.058 A 
ATOM     80  C   UNL A   1      43.274  22.823  28.203  1.00  0.00     0.135 A 
ATOM     81  C   UNL A   1      42.708  23.511  25.973  1.00  0.00     0.135 A 
ATOM     82  F   UNL A   1      43.785  23.075  29.418  1.00  0.00    -0.206 F 
ATOM     83  C   UNL A   1      42.804  21.539  27.935  1.00  0.00     0.059 A 
ATOM     84  C   UNL A   1      42.204  22.246  25.692  1.00  0.00     0.059 A 
ATOM     85  F   UNL A   1      42.648  24.443  25.008  1.00  0.00    -0.206 F 
ATOM     86  C   UNL A   1      42.270  21.262  26.675  1.00  0.00     0.060 A 
BRANCH  86  87
ATOM     87  S   UNL A   1      41.638  19.603  26.345  1.00  0.00     0.124 S 
ATOM     88  O   UNL A   1      41.916  18.927  27.606  1.00  0.00    -0.237 OA
ATOM     89  O   UNL A   1      40.232  19.865  26.055  1.00  0.00    -0.237 OA
ATOM     90  O   UNL A   1      42.434  19.163  25.203  1.00  0.00    -0.744 OA
ENDBRANCH  86  87
ENDBRANCH  54  79
BRANCH  66  91
ATOM     91  C   UNL A   1      49.417  26.935  26.155  1.00  0.00     0.058 A 
ATOM     92  C   UNL A   1      49.800  27.140  24.820  1.00  0.00     0.135 A 
ATOM     93  C   UNL A   1      50.324  26.278  27.004  1.00  0.00     0.135 A 
ATOM     94  F   UNL A   1      48.970  27.761  23.966  1.00  0.00    -0.206 F 
ATOM     95  C   UNL A   1      51.020  26.681  24.337  1.00  0.00     0.059 A 
ATOM     96  C   UNL A   1      51.563  25.843  26.552  1.00  0.00     0.059 A 
ATOM     97  F   UNL A   1      50.014  26.070  28.294  1.00  0.00    -0.206 F 
ATOM     98  C   UNL A   1      51.896  26.035  25.212  1.00  0.00     0.060 A 
BRANCH  98  99
ATOM     99  S   UNL A   1      53.483  25.461  24.576  1.00  0.00     0.124 S 
ATOM    100  O   UNL A   1      53.500  24.076  25.033  1.00  0.00    -0.237 OA
ATOM    101  O   UNL A   1      53.329  25.653  23.137  1.00  0.00    -0.237 OA
ATOM    102  O   UNL A   1      54.448  26.347  25.220  1.00  0.00    -0.744 OA
ENDBRANCH  98  99
ENDBRANCH  66  91
ENDBRANCH  40  41
ENDBRANCH  33  35
ENDBRANCH  32  33
ENDBRANCH  31  32
ENDBRANCH  30  31
ENDBRANCH  29  30
ENDBRANCH  28  29
ENDBRANCH   1  28
TORSDOF 25
ENDMDL
MODEL 2
REMARK VINA RESULT:     -10.1      5.872     11.652
REMARK SMILES Cc1ccc(C(=O)N[C@@H]2C=C[C@H](C(=O)OCCOCCOCCOCCOC(=O)c3ccc(-c4c5nc(c(-c6c(F)cc(S(=O)(=O)[O-])cc6F)c6ccc([nH]6)c(-c6c(F)cc(S(=O)(=O)[O-])cc6F)c6nc(c(-c7c(F)cc(S(=O)(=O)[O-])cc7F)c7ccc4[nH]7)C=C6)C=C5)cc3)C2)c(F)c1
REMARK SMILES IDX 22 1 21 2 20 3 19 4 18 5 17 6 16 7 15 8 13 9 14 10 12 11
REMARK SMILES IDX 9 12 10 13 96 14 11 15 8 16 6 17 7 18 5 20 1 21 2 22 3 23
REMARK SMILES IDX 99 24 4 25 97 26 98 27 23 28 24 29 25 30 26 31 27 32 28 33
REMARK SMILES IDX 29 34 30 35 31 36 95 37 32 38 94 39 33 40 34 41 35 42 88 43
REMARK SMILES IDX 36 44 93 45 87 46 89 47 37 48 92 49 86 50 85 51 38 53 72 54
REMARK SMILES IDX 51 55 71 56 52 57 55 58 70 59 90 60 53 61 54 62 69 64 91 65
REMARK SMILES IDX 56 66 39 67 40 68 49 69 41 70 42 71 48 72 50 73 43 74 44 75
REMARK SMILES IDX 45 76 46 77 47 78 73 79 74 80 83 81 75 82 76 83 82 84 84 85
REMARK SMILES IDX 77 86 78 87 79 88 80 89 81 90 57 91 58 92 67 93 59 94 60 95
REMARK SMILES IDX 66 96 68 97 61 98 62 99 63 100 64 101 65 102
REMARK H PARENT 8 19 89 52 55 63
REMARK Flexibility Score: inf
ROOT
ATOM      1  C   UNL A   1      38.249  21.702  25.697  1.00  0.00     0.188 C 
ENDROOT
BRANCH   1   2
ATOM      2  O   UNL A   1      37.276  22.585  25.164  1.00  0.00    -0.377 OA
BRANCH   2   3
ATOM      3  C   UNL A   1      36.283  21.929  24.404  1.00  0.00     0.188 C 
BRANCH   3   4
ATOM      4  C   UNL A   1      35.144  21.321  25.237  1.00  0.00     0.188 C 
BRANCH   4   5
ATOM      5  O   UNL A   1      34.605  20.064  24.883  1.00  0.00    -0.376 OA
BRANCH   5   6
ATOM      6  C   UNL A   1      33.222  19.893  24.632  1.00  0.00     0.202 C 
BRANCH   6   7
ATOM      7  C   UNL A   1      32.241  21.053  24.376  1.00  0.00     0.261 C 
BRANCH   7   8
ATOM      8  O   UNL A   1      32.413  21.842  23.193  1.00  0.00    -0.463 OA
BRANCH   8   9
ATOM      9  C   UNL A   1      31.911  23.104  23.240  1.00  0.00     0.312 C 
ATOM     10  O   UNL A   1      30.740  23.376  23.466  1.00  0.00    -0.252 OA
BRANCH   9  11
ATOM     11  C   UNL A   1      33.008  24.112  22.884  1.00  0.00     0.124 C 
ATOM     12  C   UNL A   1      32.396  26.487  22.496  1.00  0.00     0.106 C 
ATOM     13  C   UNL A   1      32.527  25.718  21.227  1.00  0.00    -0.006 C 
ATOM     14  C   UNL A   1      32.884  25.487  23.550  1.00  0.00     0.048 C 
ATOM     15  C   UNL A   1      32.925  24.458  21.430  1.00  0.00    -0.014 C 
BRANCH  12  16
ATOM     16  N   UNL A   1      31.037  26.966  22.670  1.00  0.00    -0.346 N 
ATOM     17  C   UNL A   1      30.495  27.918  23.515  1.00  0.00     0.254 C 
ATOM     18  O   UNL A   1      29.339  28.280  23.300  1.00  0.00    -0.269 OA
ATOM     19  H   UNL A   1      30.380  26.533  22.079  1.00  0.00     0.164 HD
BRANCH  17  20
ATOM     20  C   UNL A   1      31.217  28.427  24.718  1.00  0.00     0.075 A 
ATOM     21  C   UNL A   1      34.383  28.983  27.550  1.00  0.00     0.044 C 
ATOM     22  C   UNL A   1      33.134  28.934  26.718  1.00  0.00    -0.048 A 
ATOM     23  C   UNL A   1      32.919  29.856  25.695  1.00  0.00     0.004 A 
ATOM     24  C   UNL A   1      32.231  27.881  26.857  1.00  0.00     0.043 A 
ATOM     25  C   UNL A   1      31.918  29.633  24.744  1.00  0.00     0.017 A 
ATOM     26  C   UNL A   1      31.310  27.605  25.845  1.00  0.00     0.136 A 
ATOM     27  F   UNL A   1      30.605  26.470  25.955  1.00  0.00    -0.206 F 
ENDBRANCH  17  20
ENDBRANCH  12  16
ENDBRANCH   9  11
ENDBRANCH   8   9
ENDBRANCH   7   8
ENDBRANCH   6   7
ENDBRANCH   5   6
ENDBRANCH   4   5
ENDBRANCH   3   4
ENDBRANCH   2   3
ENDBRANCH   1   2
BRANCH   1  28
ATOM     28  C   UNL A   1      39.386  22.385  26.477  1.00  0.00     0.188 C 
BRANCH  28  29
ATOM     29  O   UNL A   1      40.521  21.668  26.932  1.00  0.00    -0.376 OA
BRANCH  29  30
ATOM     30  C   UNL A   1      41.616  21.309  26.114  1.00  0.00     0.202 C 
BRANCH  30  31
ATOM     31  C   UNL A   1      42.859  22.184  25.936  1.00  0.00     0.261 C 
BRANCH  31  32
ATOM     32  O   UNL A   1      42.915  23.301  26.818  1.00  0.00    -0.460 OA
BRANCH  32  33
ATOM     33  C   UNL A   1      42.898  24.494  26.184  1.00  0.00     0.338 C 
ATOM     34  O   UNL A   1      43.158  24.714  25.009  1.00  0.00    -0.246 OA
BRANCH  33  35
ATOM     35  C   UNL A   1      42.274  25.489  27.061  1.00  0.00     0.060 A 
ATOM     36  C   UNL A   1      42.915  26.730  27.159  1.00  0.00     0.016 A 
ATOM     37  C   UNL A   1      41.108  25.213  27.779  1.00  0.00     0.016 A 
ATOM     38  C   UNL A   1      42.418  27.693  28.015  1.00  0.00     0.010 A 
ATOM     39  C   UNL A   1      40.628  26.170  28.671  1.00  0.00     0.010 A 
ATOM     40  C   UNL A   1      41.316  27.388  28.821  1.00  0.00    -0.014 A 
BRANCH  40  41
ATOM     41  C   UNL A   1      41.087  28.255  29.990  1.00  0.00     0.031 A 
ATOM     42  C   UNL A   1      42.017  28.102  31.161  1.00  0.00     0.074 A 
ATOM     43  C   UNL A   1      40.164  29.228  29.942  1.00  0.00     0.049 A 
ATOM     44  N   UNL A   1      42.069  28.786  32.270  1.00  0.00    -0.248 NA
ATOM     45  C   UNL A   1      43.034  27.037  31.064  1.00  0.00     0.031 C 
ATOM     46  C   UNL A   1      39.265  29.483  28.815  1.00  0.00     0.029 A 
ATOM     47  N   UNL A   1      39.840  30.190  30.859  1.00  0.00    -0.354 N 
ATOM     48  C   UNL A   1      43.110  28.231  33.004  1.00  0.00     0.074 A 
ATOM     49  C   UNL A   1      43.650  27.138  32.230  1.00  0.00     0.031 C 
ATOM     50  C   UNL A   1      38.479  30.530  29.116  1.00  0.00     0.029 A 
ATOM     51  C   UNL A   1      38.803  30.998  30.462  1.00  0.00     0.049 A 
ATOM     52  H   UNL A   1      40.306  30.294  31.719  1.00  0.00     0.167 HD
ATOM     53  C   UNL A   1      43.572  28.609  34.216  1.00  0.00     0.037 A 
ATOM     54  C   UNL A   1      38.177  31.985  31.131  1.00  0.00     0.037 A 
ATOM     55  C   UNL A   1      43.023  29.711  34.960  1.00  0.00     0.049 A 
ATOM     56  C   UNL A   1      38.679  32.351  32.504  1.00  0.00     0.074 A 
ATOM     57  C   UNL A   1      43.425  30.203  36.188  1.00  0.00     0.029 A 
ATOM     58  N   UNL A   1      41.947  30.484  34.548  1.00  0.00    -0.354 N 
ATOM     59  N   UNL A   1      39.680  31.837  33.181  1.00  0.00    -0.248 NA
ATOM     60  C   UNL A   1      37.976  33.435  33.200  1.00  0.00     0.031 C 
ATOM     61  C   UNL A   1      42.548  31.228  36.550  1.00  0.00     0.029 A 
ATOM     62  C   UNL A   1      41.645  31.426  35.515  1.00  0.00     0.049 A 
ATOM     63  H   UNL A   1      41.469  30.377  33.694  1.00  0.00     0.167 HD
ATOM     64  C   UNL A   1      39.743  32.551  34.373  1.00  0.00     0.074 A 
ATOM     65  C   UNL A   1      38.689  33.546  34.312  1.00  0.00     0.031 C 
ATOM     66  C   UNL A   1      40.589  32.404  35.423  1.00  0.00     0.037 A 
BRANCH  53  67
ATOM     67  C   UNL A   1      44.684  27.807  34.831  1.00  0.00     0.058 A 
ATOM     68  C   UNL A   1      46.033  28.178  34.712  1.00  0.00     0.135 A 
ATOM     69  C   UNL A   1      44.384  26.668  35.595  1.00  0.00     0.135 A 
ATOM     70  F   UNL A   1      46.380  29.240  33.969  1.00  0.00    -0.206 F 
ATOM     71  C   UNL A   1      47.045  27.444  35.323  1.00  0.00     0.059 A 
ATOM     72  C   UNL A   1      45.376  25.935  36.239  1.00  0.00     0.059 A 
ATOM     73  F   UNL A   1      43.112  26.258  35.727  1.00  0.00    -0.206 F 
ATOM     74  C   UNL A   1      46.705  26.328  36.093  1.00  0.00     0.060 A 
BRANCH  74  75
ATOM     75  S   UNL A   1      48.025  25.412  36.915  1.00  0.00     0.124 S 
ATOM     76  O   UNL A   1      49.040  25.360  35.868  1.00  0.00    -0.237 OA
ATOM     77  O   UNL A   1      48.333  26.269  38.055  1.00  0.00    -0.237 OA
ATOM     78  O   UNL A   1      47.399  24.135  37.245  1.00  0.00    -0.744 OA
ENDBRANCH  74  75
ENDBRANCH  53  67
BRANCH  54  79
ATOM     79  C   UNL A   1      36.994  32.657  30.531  1.00  0.00     0.058 A 
ATOM     80  C   UNL A   1      37.120  33.816  29.752  1.00  0.00     0.135 A 
ATOM     81  C   UNL A   1      35.701  32.147  30.736  1.00  0.00     0.135 A 
ATOM     82  F   UNL A   1      38.332  34.347  29.530  1.00  0.00    -0.206 F 
ATOM     83  C   UNL A   1      36.007  34.462  29.220  1.00  0.00     0.059 A 
ATOM     84  C   UNL A   1      34.577  32.755  30.188  1.00  0.00     0.059 A 
ATOM     85  F   UNL A   1      35.524  31.032  31.461  1.00  0.00    -0.206 F 
ATOM     86  C   UNL A   1      34.739  33.921  29.443  1.00  0.00     0.060 A 
BRANCH  86  87
ATOM     87  S   UNL A   1      33.303  34.748  28.725  1.00  0.00     0.124 S 
ATOM     88  O   UNL A   1      32.710  33.675  27.937  1.00  0.00    -0.237 OA
ATOM     89  O   UNL A   1      32.561  35.156  29.913  1.00  0.00    -0.237 OA
ATOM     90  O   UNL A   1      33.895  35.842  27.959  1.00  0.00    -0.744 OA
ENDBRANCH  86  87
ENDBRANCH  54  79
BRANCH  66  91
ATOM     91  C   UNL A   1      40.431  33.358  36.574  1.00  0.00     0.058 A 
ATOM     92  C   UNL A   1      41.206  34.524  36.681  1.00  0.00     0.135 A 
ATOM     93  C   UNL A   1      39.453  33.127  37.556  1.00  0.00     0.135 A 
ATOM     94  F   UNL A   1      42.156  34.790  35.769  1.00  0.00    -0.206 F 
ATOM     95  C   UNL A   1      41.042  35.408  37.741  1.00  0.00     0.059 A 
ATOM     96  C   UNL A   1      39.247  34.016  38.603  1.00  0.00     0.059 A 
ATOM     97  F   UNL A   1      38.673  32.036  37.492  1.00  0.00    -0.206 F 
ATOM     98  C   UNL A   1      40.058  35.146  38.696  1.00  0.00     0.060 A 
BRANCH  98  99
ATOM     99  S   UNL A   1      39.844  36.313  40.055  1.00  0.00     0.124 S 
ATOM    100  O   UNL A   1      39.048  35.529  40.993  1.00  0.00    -0.237 OA
ATOM    101  O   UNL A   1      41.221  36.578  40.458  1.00  0.00    -0.237 OA
ATOM    102  O   UNL A   1      39.152  37.438  39.432  1.00  0.00    -0.744 OA
ENDBRANCH  98  99
ENDBRANCH  66  91
ENDBRANCH  40  41
ENDBRANCH  33  35
ENDBRANCH  32  33
ENDBRANCH  31  32
ENDBRANCH  30  31
ENDBRANCH  29  30
ENDBRANCH  28  29
ENDBRANCH   1  28
TORSDOF 25
ENDMDL
MODEL 3
REMARK VINA RESULT:      -9.9      5.980     11.961
REMARK SMILES Cc1ccc(C(=O)N[C@@H]2C=C[C@H](C(=O)OCCOCCOCCOCCOC(=O)c3ccc(-c4c5nc(c(-c6c(F)cc(S(=O)(=O)[O-])cc6F)c6ccc([nH]6)c(-c6c(F)cc(S(=O)(=O)[O-])cc6F)c6nc(c(-c7c(F)cc(S(=O)(=O)[O-])cc7F)c7ccc4[nH]7)C=C6)C=C5)cc3)C2)c(F)c1
REMARK SMILES IDX 22 1 21 2 20 3 19 4 18 5 17 6 16 7 15 8 13 9 14 10 12 11
REMARK SMILES IDX 9 12 10 13 96 14 11 15 8 16 6 17 7 18 5 20 1 21 2 22 3 23
REMARK SMILES IDX 99 24 4 25 97 26 98 27 23 28 24 29 25 30 26 31 27 32 28 33
REMARK SMILES IDX 29 34 30 35 31 36 95 37 32 38 94 39 33 40 34 41 35 42 88 43
REMARK SMILES IDX 36 44 93 45 87 46 89 47 37 48 92 49 86 50 85 51 38 53 72 54
REMARK SMILES IDX 51 55 71 56 52 57 55 58 70 59 90 60 53 61 54 62 69 64 91 65
REMARK SMILES IDX 56 66 39 67 40 68 49 69 41 70 42 71 48 72 50 73 43 74 44 75
REMARK SMILES IDX 45 76 46 77 47 78 73 79 74 80 83 81 75 82 76 83 82 84 84 85
REMARK SMILES IDX 77 86 78 87 79 88 80 89 81 90 57 91 58 92 67 93 59 94 60 95
REMARK SMILES IDX 66 96 68 97 61 98 62 99 63 100 64 101 65 102
REMARK H PARENT 8 19 89 52 55 63
REMARK Flexibility Score: inf
ROOT
ATOM      1  C   UNL A   1      38.959  21.442  26.089  1.00  0.00     0.188 C 
ENDROOT
BRANCH   1   2
ATOM      2  O   UNL A   1      37.825  22.169  25.645  1.00  0.00    -0.377 OA
BRANCH   2   3
ATOM      3  C   UNL A   1      37.052  21.470  24.692  1.00  0.00     0.188 C 
BRANCH   3   4
ATOM      4  C   UNL A   1      35.908  20.637  25.288  1.00  0.00     0.188 C 
BRANCH   4   5
ATOM      5  O   UNL A   1      35.415  19.513  24.589  1.00  0.00    -0.376 OA
BRANCH   5   6
ATOM      6  C   UNL A   1      34.059  19.118  24.677  1.00  0.00     0.202 C 
BRANCH   6   7
ATOM      7  C   UNL A   1      33.034  19.761  25.631  1.00  0.00     0.261 C 
BRANCH   7   8
ATOM      8  O   UNL A   1      31.890  20.411  25.064  1.00  0.00    -0.463 OA
BRANCH   8   9
ATOM      9  C   UNL A   1      32.006  21.748  24.856  1.00  0.00     0.312 C 
ATOM     10  O   UNL A   1      31.781  22.306  23.791  1.00  0.00    -0.252 OA
BRANCH   9  11
ATOM     11  C   UNL A   1      32.540  22.427  26.122  1.00  0.00     0.124 C 
ATOM     12  C   UNL A   1      31.847  24.754  26.638  1.00  0.00     0.106 C 
ATOM     13  C   UNL A   1      33.177  24.690  25.969  1.00  0.00    -0.006 C 
ATOM     14  C   UNL A   1      31.526  23.277  26.894  1.00  0.00     0.048 C 
ATOM     15  C   UNL A   1      33.583  23.435  25.755  1.00  0.00    -0.014 C 
BRANCH  12  16
ATOM     16  N   UNL A   1      30.890  25.468  25.814  1.00  0.00    -0.346 N 
ATOM     17  C   UNL A   1      30.920  26.730  25.246  1.00  0.00     0.254 C 
ATOM     18  O   UNL A   1      30.060  27.000  24.410  1.00  0.00    -0.269 OA
ATOM     19  H   UNL A   1      30.068  24.962  25.623  1.00  0.00     0.164 HD
BRANCH  17  20
ATOM     20  C   UNL A   1      31.876  27.786  25.691  1.00  0.00     0.075 A 
ATOM     21  C   UNL A   1      35.281  29.562  27.590  1.00  0.00     0.044 C 
ATOM     22  C   UNL A   1      34.022  29.182  26.866  1.00  0.00    -0.048 A 
ATOM     23  C   UNL A   1      34.044  28.864  25.510  1.00  0.00     0.004 A 
ATOM     24  C   UNL A   1      32.829  29.001  27.567  1.00  0.00     0.043 A 
ATOM     25  C   UNL A   1      32.946  28.233  24.915  1.00  0.00     0.017 A 
ATOM     26  C   UNL A   1      31.783  28.271  26.999  1.00  0.00     0.136 A 
ATOM     27  F   UNL A   1      30.746  27.973  27.793  1.00  0.00    -0.206 F 
ENDBRANCH  17  20
ENDBRANCH  12  16
ENDBRANCH   9  11
ENDBRANCH   8   9
ENDBRANCH   7   8
ENDBRANCH   6   7
ENDBRANCH   5   6
ENDBRANCH   4   5
ENDBRANCH   3   4
ENDBRANCH   2   3
ENDBRANCH   1   2
BRANCH   1  28
ATOM     28  C   UNL A   1      40.156  22.308  26.517  1.00  0.00     0.188 C 
BRANCH  28  29
ATOM     29  O   UNL A   1      41.495  21.868  26.358  1.00  0.00    -0.376 OA
BRANCH  29  30
ATOM     30  C   UNL A   1      42.443  22.491  25.515  1.00  0.00     0.202 C 
BRANCH  30  31
ATOM     31  C   UNL A   1      42.851  23.961  25.644  1.00  0.00     0.261 C 
BRANCH  31  32
ATOM     32  O   UNL A   1      41.812  24.813  26.117  1.00  0.00    -0.460 OA
BRANCH  32  33
ATOM     33  C   UNL A   1      42.059  26.128  25.926  1.00  0.00     0.338 C 
ATOM     34  O   UNL A   1      41.979  26.753  24.878  1.00  0.00    -0.246 OA
BRANCH  33  35
ATOM     35  C   UNL A   1      42.209  26.776  27.231  1.00  0.00     0.060 A 
ATOM     36  C   UNL A   1      41.336  26.360  28.244  1.00  0.00     0.016 A 
ATOM     37  C   UNL A   1      43.160  27.774  27.457  1.00  0.00     0.016 A 
ATOM     38  C   UNL A   1      41.378  26.972  29.481  1.00  0.00     0.010 A 
ATOM     39  C   UNL A   1      43.177  28.418  28.692  1.00  0.00     0.010 A 
ATOM     40  C   UNL A   1      42.250  28.046  29.683  1.00  0.00    -0.014 A 
BRANCH  40  41
ATOM     41  C   UNL A   1      41.972  28.922  30.835  1.00  0.00     0.031 A 
ATOM     42  C   UNL A   1      40.741  29.782  30.772  1.00  0.00     0.074 A 
ATOM     43  C   UNL A   1      42.725  28.843  31.943  1.00  0.00     0.049 A 
ATOM     44  N   UNL A   1      40.243  30.579  31.676  1.00  0.00    -0.248 NA
ATOM     45  C   UNL A   1      39.960  29.729  29.521  1.00  0.00     0.031 C 
ATOM     46  C   UNL A   1      43.899  27.984  32.106  1.00  0.00     0.029 A 
ATOM     47  N   UNL A   1      42.605  29.485  33.145  1.00  0.00    -0.354 N 
ATOM     48  C   UNL A   1      39.102  31.129  31.103  1.00  0.00     0.074 A 
ATOM     49  C   UNL A   1      38.991  30.597  29.765  1.00  0.00     0.031 C 
ATOM     50  C   UNL A   1      44.400  28.165  33.340  1.00  0.00     0.029 A 
ATOM     51  C   UNL A   1      43.598  29.169  34.037  1.00  0.00     0.049 A 
ATOM     52  H   UNL A   1      41.875  30.114  33.350  1.00  0.00     0.167 HD
ATOM     53  C   UNL A   1      38.227  31.998  31.653  1.00  0.00     0.037 A 
ATOM     54  C   UNL A   1      43.839  29.660  35.268  1.00  0.00     0.037 A 
ATOM     55  C   UNL A   1      38.355  32.504  32.994  1.00  0.00     0.049 A 
ATOM     56  C   UNL A   1      42.875  30.669  35.838  1.00  0.00     0.074 A 
ATOM     57  C   UNL A   1      37.516  33.370  33.669  1.00  0.00     0.029 A 
ATOM     58  N   UNL A   1      39.396  32.193  33.859  1.00  0.00    -0.354 N 
ATOM     59  N   UNL A   1      41.785  31.165  35.299  1.00  0.00    -0.248 NA
ATOM     60  C   UNL A   1      43.166  31.179  37.183  1.00  0.00     0.031 C 
ATOM     61  C   UNL A   1      38.086  33.638  34.916  1.00  0.00     0.029 A 
ATOM     62  C   UNL A   1      39.242  32.882  35.048  1.00  0.00     0.049 A 
ATOM     63  H   UNL A   1      40.134  31.575  33.654  1.00  0.00     0.167 HD
ATOM     64  C   UNL A   1      41.246  32.026  36.248  1.00  0.00     0.074 A 
ATOM     65  C   UNL A   1      42.122  31.966  37.402  1.00  0.00     0.031 C 
ATOM     66  C   UNL A   1      40.132  32.799  36.179  1.00  0.00     0.037 A 
BRANCH  53  67
ATOM     67  C   UNL A   1      37.091  32.493  30.803  1.00  0.00     0.058 A 
ATOM     68  C   UNL A   1      35.817  31.906  30.836  1.00  0.00     0.135 A 
ATOM     69  C   UNL A   1      37.276  33.608  29.971  1.00  0.00     0.135 A 
ATOM     70  F   UNL A   1      35.591  30.818  31.590  1.00  0.00    -0.206 F 
ATOM     71  C   UNL A   1      34.766  32.404  30.070  1.00  0.00     0.059 A 
ATOM     72  C   UNL A   1      36.234  34.142  29.219  1.00  0.00     0.059 A 
ATOM     73  F   UNL A   1      38.479  34.198  29.888  1.00  0.00    -0.206 F 
ATOM     74  C   UNL A   1      34.983  33.529  29.271  1.00  0.00     0.060 A 
BRANCH  74  75
ATOM     75  S   UNL A   1      33.601  34.190  28.317  1.00  0.00     0.124 S 
ATOM     76  O   UNL A   1      33.141  33.001  27.607  1.00  0.00    -0.237 OA
ATOM     77  O   UNL A   1      32.712  34.686  29.363  1.00  0.00    -0.237 OA
ATOM     78  O   UNL A   1      34.221  35.216  27.485  1.00  0.00    -0.744 OA
ENDBRANCH  74  75
ENDBRANCH  53  67
BRANCH  54  79
ATOM     79  C   UNL A   1      45.053  29.237  36.015  1.00  0.00     0.058 A 
ATOM     80  C   UNL A   1      45.027  28.167  36.920  1.00  0.00     0.135 A 
ATOM     81  C   UNL A   1      46.273  29.911  35.836  1.00  0.00     0.135 A 
ATOM     82  F   UNL A   1      43.886  27.494  37.131  1.00  0.00    -0.206 F 
ATOM     83  C   UNL A   1      46.158  27.796  37.642  1.00  0.00     0.059 A 
ATOM     84  C   UNL A   1      47.424  29.538  36.522  1.00  0.00     0.059 A 
ATOM     85  F   UNL A   1      46.358  30.933  34.971  1.00  0.00    -0.206 F 
ATOM     86  C   UNL A   1      47.353  28.488  37.434  1.00  0.00     0.060 A 
BRANCH  86  87
ATOM     87  S   UNL A   1      48.822  27.982  38.353  1.00  0.00     0.124 S 
ATOM     88  O   UNL A   1      49.641  29.186  38.284  1.00  0.00    -0.237 OA
ATOM     89  O   UNL A   1      48.267  27.660  39.663  1.00  0.00    -0.237 OA
ATOM     90  O   UNL A   1      49.315  26.838  37.592  1.00  0.00    -0.744 OA
ENDBRANCH  86  87
ENDBRANCH  54  79
BRANCH  66  91
ATOM     91  C   UNL A   1      39.782  33.611  37.394  1.00  0.00     0.058 A 
ATOM     92  C   UNL A   1      38.824  33.178  38.324  1.00  0.00     0.135 A 
ATOM     93  C   UNL A   1      40.453  34.818  37.656  1.00  0.00     0.135 A 
ATOM     94  F   UNL A   1      38.152  32.033  38.120  1.00  0.00    -0.206 F 
ATOM     95  C   UNL A   1      38.517  33.930  39.453  1.00  0.00     0.059 A 
ATOM     96  C   UNL A   1      40.189  35.566  38.797  1.00  0.00     0.059 A 
ATOM     97  F   UNL A   1      41.390  35.270  36.808  1.00  0.00    -0.206 F 
ATOM     98  C   UNL A   1      39.207  35.122  39.681  1.00  0.00     0.060 A 
BRANCH  98  99
ATOM     99  S   UNL A   1      38.813  36.076  41.160  1.00  0.00     0.124 S 
ATOM    100  O   UNL A   1      38.456  37.370  40.588  1.00  0.00    -0.237 OA
ATOM    101  O   UNL A   1      37.712  35.313  41.739  1.00  0.00    -0.237 OA
ATOM    102  O   UNL A   1      40.056  36.050  41.925  1.00  0.00    -0.744 OA
ENDBRANCH  98  99
ENDBRANCH  66  91
ENDBRANCH  40  41
ENDBRANCH  33  35
ENDBRANCH  32  33
ENDBRANCH  31  32
ENDBRANCH  30  31
ENDBRANCH  29  30
ENDBRANCH  28  29
ENDBRANCH   1  28
TORSDOF 25
ENDMDL
