MODEL 1
REMARK VINA RESULT:      -9.5      0.000      0.000
REMARK SMILES O=C(OCCOCCOCCOCCOC(=O)[C@H](c1c[nH]c2cc(F)ccc12)[NH+]1CC[NH+](CC(=O)N2CCOCC2)CC1)c1ccc(-c2c3nc(c(-c4c(F)cc(S(=O)(=O)[O-])cc4F)c4ccc([nH]4)c(-c4c(F)cc(S(=O)(=O)[O-])cc4F)c4nc(c(-c5c(F)cc(S(=O)(=O)[O-])cc5F)c5ccc2[nH]5)C=C4)C=C3)cc1
REMARK SMILES IDX 9 1 8 2 7 3 6 4 5 5 4 6 3 7 2 8 1 9 44 10 45 11 109 12 46 13
REMARK SMILES IDX 108 14 47 15 48 16 49 17 102 18 50 19 107 20 101 21 103 22
REMARK SMILES IDX 51 23 106 24 100 25 99 26 52 28 86 29 65 30 85 31 66 32
REMARK SMILES IDX 69 33 84 34 104 35 67 36 68 37 83 39 105 40 70 41 53 42
REMARK SMILES IDX 54 43 63 44 55 45 56 46 62 47 64 48 57 49 58 50 59 51 60 52
REMARK SMILES IDX 61 53 87 54 88 55 97 56 89 57 90 58 96 59 98 60 91 61 92 62
REMARK SMILES IDX 93 63 94 64 95 65 71 66 72 67 81 68 73 69 74 70 80 71 82 72
REMARK SMILES IDX 75 73 76 74 77 75 78 76 79 77 10 78 11 79 12 80 13 81 14 82
REMARK SMILES IDX 15 83 16 84 17 85 18 86 29 87 30 88 43 89 31 91 42 92 32 93
REMARK SMILES IDX 33 95 34 96 35 97 36 98 37 99 41 100 38 101 40 102 39 103
REMARK SMILES IDX 19 104 20 105 28 106 21 107 22 108 27 109 23 111 26 112
REMARK SMILES IDX 24 113 25 114
REMARK H PARENT 103 27 69 38 29 90 32 94 21 110
REMARK Flexibility Score: inf
ROOT
ATOM      1  O   UNL A   1      33.743  27.536  26.583  1.00  0.00    -0.377 OA
ENDROOT
BRANCH   1   2
ATOM      2  C   UNL A   1      34.196  28.845  26.232  1.00  0.00     0.188 C 
BRANCH   2   3
ATOM      3  C   UNL A   1      34.280  29.824  27.408  1.00  0.00     0.188 C 
BRANCH   3   4
ATOM      4  O   UNL A   1      35.633  30.181  27.662  1.00  0.00    -0.376 OA
BRANCH   4   5
ATOM      5  C   UNL A   1      35.887  31.511  28.120  1.00  0.00     0.202 C 
BRANCH   5   6
ATOM      6  C   UNL A   1      35.378  31.762  29.524  1.00  0.00     0.261 C 
BRANCH   6   7
ATOM      7  O   UNL A   1      36.401  31.599  30.511  1.00  0.00    -0.460 OA
BRANCH   7   8
ATOM      8  C   UNL A   1      37.136  30.489  30.768  1.00  0.00     0.338 C 
ATOM      9  O   UNL A   1      36.636  29.633  31.501  1.00  0.00    -0.246 OA
BRANCH   8  10
ATOM     10  C   UNL A   1      38.489  30.193  30.193  1.00  0.00     0.060 A 
ATOM     11  C   UNL A   1      38.800  30.014  28.843  1.00  0.00     0.016 A 
ATOM     12  C   UNL A   1      39.556  30.210  31.105  1.00  0.00     0.016 A 
ATOM     13  C   UNL A   1      40.104  29.886  28.398  1.00  0.00     0.010 A 
ATOM     14  C   UNL A   1      40.876  30.051  30.676  1.00  0.00     0.010 A 
ATOM     15  C   UNL A   1      41.142  29.885  29.315  1.00  0.00    -0.014 A 
BRANCH  15  16
ATOM     16  C   UNL A   1      42.456  29.474  28.809  1.00  0.00     0.031 A 
ATOM     17  C   UNL A   1      42.572  28.070  28.307  1.00  0.00     0.074 A 
ATOM     18  C   UNL A   1      43.425  30.390  28.636  1.00  0.00     0.049 A 
ATOM     19  N   UNL A   1      43.623  27.430  27.883  1.00  0.00    -0.248 NA
ATOM     20  C   UNL A   1      41.323  27.284  28.249  1.00  0.00     0.031 C 
ATOM     21  C   UNL A   1      43.294  31.823  28.922  1.00  0.00     0.029 A 
ATOM     22  N   UNL A   1      44.695  30.263  28.151  1.00  0.00    -0.354 N 
ATOM     23  C   UNL A   1      43.174  26.157  27.560  1.00  0.00     0.074 A 
ATOM     24  C   UNL A   1      41.754  26.114  27.806  1.00  0.00     0.031 C 
ATOM     25  C   UNL A   1      44.447  32.438  28.614  1.00  0.00     0.029 A 
ATOM     26  C   UNL A   1      45.414  31.435  28.191  1.00  0.00     0.049 A 
ATOM     27  H   UNL A   1      45.060  29.415  27.807  1.00  0.00     0.167 HD
ATOM     28  C   UNL A   1      43.909  25.116  27.116  1.00  0.00     0.037 A 
ATOM     29  C   UNL A   1      46.727  31.635  27.969  1.00  0.00     0.037 A 
ATOM     30  C   UNL A   1      45.321  25.220  26.879  1.00  0.00     0.049 A 
ATOM     31  C   UNL A   1      47.551  30.428  27.597  1.00  0.00     0.074 A 
ATOM     32  C   UNL A   1      46.209  24.236  26.497  1.00  0.00     0.029 A 
ATOM     33  N   UNL A   1      46.047  26.398  27.010  1.00  0.00    -0.354 N 
ATOM     34  N   UNL A   1      47.149  29.195  27.376  1.00  0.00    -0.248 NA
ATOM     35  C   UNL A   1      48.998  30.623  27.465  1.00  0.00     0.031 C 
ATOM     36  C   UNL A   1      47.485  24.809  26.453  1.00  0.00     0.029 A 
ATOM     37  C   UNL A   1      47.381  26.163  26.744  1.00  0.00     0.049 A 
ATOM     38  H   UNL A   1      45.666  27.272  27.256  1.00  0.00     0.167 HD
ATOM     39  C   UNL A   1      48.291  28.471  27.062  1.00  0.00     0.074 A 
ATOM     40  C   UNL A   1      49.395  29.412  27.098  1.00  0.00     0.031 C 
ATOM     41  C   UNL A   1      48.430  27.151  26.779  1.00  0.00     0.037 A 
BRANCH  28  42
ATOM     42  C   UNL A   1      43.223  23.791  26.968  1.00  0.00     0.058 A 
ATOM     43  C   UNL A   1      42.681  23.354  25.751  1.00  0.00     0.135 A 
ATOM     44  C   UNL A   1      43.107  22.943  28.082  1.00  0.00     0.135 A 
ATOM     45  F   UNL A   1      42.719  24.147  24.668  1.00  0.00    -0.206 F 
ATOM     46  C   UNL A   1      42.051  22.117  25.642  1.00  0.00     0.059 A 
ATOM     47  C   UNL A   1      42.503  21.694  27.990  1.00  0.00     0.059 A 
ATOM     48  F   UNL A   1      43.579  23.330  29.277  1.00  0.00    -0.206 F 
ATOM     49  C   UNL A   1      41.976  21.290  26.765  1.00  0.00     0.060 A 
BRANCH  49  50
ATOM     50  S   UNL A   1      41.200  19.669  26.595  1.00  0.00     0.124 S 
ATOM     51  O   UNL A   1      41.063  19.262  27.990  1.00  0.00    -0.237 OA
ATOM     52  O   UNL A   1      39.956  19.994  25.904  1.00  0.00    -0.237 OA
ATOM     53  O   UNL A   1      42.169  18.909  25.812  1.00  0.00    -0.744 OA
ENDBRANCH  49  50
ENDBRANCH  28  42
BRANCH  29  54
ATOM     54  C   UNL A   1      47.352  32.970  28.196  1.00  0.00     0.058 A 
ATOM     55  C   UNL A   1      47.511  33.895  27.154  1.00  0.00     0.135 A 
ATOM     56  C   UNL A   1      47.852  33.329  29.461  1.00  0.00     0.135 A 
ATOM     57  F   UNL A   1      47.056  33.606  25.926  1.00  0.00    -0.206 F 
ATOM     58  C   UNL A   1      48.177  35.104  27.344  1.00  0.00     0.059 A 
ATOM     59  C   UNL A   1      48.490  34.545  29.684  1.00  0.00     0.059 A 
ATOM     60  F   UNL A   1      47.722  32.491  30.502  1.00  0.00    -0.206 F 
ATOM     61  C   UNL A   1      48.670  35.416  28.613  1.00  0.00     0.060 A 
BRANCH  61  62
ATOM     62  S   UNL A   1      49.551  36.975  28.848  1.00  0.00     0.124 S 
ATOM     63  O   UNL A   1      48.447  37.912  29.018  1.00  0.00    -0.237 OA
ATOM     64  O   UNL A   1      50.347  36.700  30.040  1.00  0.00    -0.237 OA
ATOM     65  O   UNL A   1      50.316  37.119  27.612  1.00  0.00    -0.744 OA
ENDBRANCH  61  62
ENDBRANCH  29  54
BRANCH  41  66
ATOM     66  C   UNL A   1      49.811  26.674  26.450  1.00  0.00     0.058 A 
ATOM     67  C   UNL A   1      50.323  26.753  25.148  1.00  0.00     0.135 A 
ATOM     68  C   UNL A   1      50.653  26.205  27.471  1.00  0.00     0.135 A 
ATOM     69  F   UNL A   1      49.551  27.189  24.141  1.00  0.00    -0.206 F 
ATOM     70  C   UNL A   1      51.624  26.361  24.863  1.00  0.00     0.059 A 
ATOM     71  C   UNL A   1      51.968  25.842  27.215  1.00  0.00     0.059 A 
ATOM     72  F   UNL A   1      50.207  26.127  28.735  1.00  0.00    -0.206 F 
ATOM     73  C   UNL A   1      52.440  25.913  25.905  1.00  0.00     0.060 A 
BRANCH  73  74
ATOM     74  S   UNL A   1      54.143  25.455  25.530  1.00  0.00     0.124 S 
ATOM     75  O   UNL A   1      54.178  24.069  25.984  1.00  0.00    -0.237 OA
ATOM     76  O   UNL A   1      54.206  25.652  24.084  1.00  0.00    -0.237 OA
ATOM     77  O   UNL A   1      54.929  26.397  26.319  1.00  0.00    -0.744 OA
ENDBRANCH  73  74
ENDBRANCH  41  66
ENDBRANCH  15  16
ENDBRANCH   8  10
ENDBRANCH   7   8
ENDBRANCH   6   7
ENDBRANCH   5   6
ENDBRANCH   4   5
ENDBRANCH   3   4
ENDBRANCH   2   3
ENDBRANCH   1   2
BRANCH   1  78
ATOM     78  C   UNL A   1      32.363  27.296  26.325  1.00  0.00     0.188 C 
BRANCH  78  79
ATOM     79  C   UNL A   1      31.645  26.054  26.875  1.00  0.00     0.188 C 
BRANCH  79  80
ATOM     80  O   UNL A   1      31.885  24.863  26.138  1.00  0.00    -0.376 OA
BRANCH  80  81
ATOM     81  C   UNL A   1      30.758  23.986  26.075  1.00  0.00     0.202 C 
BRANCH  81  82
ATOM     82  C   UNL A   1      31.042  22.638  25.406  1.00  0.00     0.261 C 
BRANCH  82  83
ATOM     83  O   UNL A   1      32.306  22.615  24.728  1.00  0.00    -0.459 OA
BRANCH  83  84
ATOM     84  C   UNL A   1      32.446  22.517  23.376  1.00  0.00     0.370 C 
ATOM     85  O   UNL A   1      31.917  21.637  22.705  1.00  0.00    -0.245 OA
BRANCH  84  86
ATOM     86  C   UNL A   1      33.446  23.672  22.880  1.00  0.00     0.328 C 
BRANCH  86  87
ATOM     87  N   UNL A   1      32.906  24.976  23.271  1.00  0.00    -0.310 N 
ATOM     88  C   UNL A   1      33.748  26.172  23.258  1.00  0.00     0.325 C 
ATOM     89  C   UNL A   1      31.683  25.156  22.485  1.00  0.00     0.325 C 
ATOM     90  H   UNL A   1      32.770  24.914  24.280  1.00  0.00     0.349 HD
ATOM     91  C   UNL A   1      33.123  27.511  22.695  1.00  0.00     0.325 C 
ATOM     92  C   UNL A   1      31.493  26.290  21.512  1.00  0.00     0.325 C 
ATOM     93  N   UNL A   1      31.723  27.529  22.227  1.00  0.00    -0.318 N 
ATOM     94  H   UNL A   1      31.647  28.352  21.629  1.00  0.00     0.348 HD
BRANCH  93  95
ATOM     95  C   UNL A   1      30.632  27.850  23.202  1.00  0.00     0.364 C 
BRANCH  95  96
ATOM     96  C   UNL A   1      30.391  29.307  23.692  1.00  0.00     0.277 C 
ATOM     97  O   UNL A   1      31.047  29.710  24.663  1.00  0.00    -0.268 OA
ATOM     98  N   UNL A   1      29.545  30.197  22.974  1.00  0.00    -0.333 N 
ATOM     99  C   UNL A   1      28.298  29.842  22.248  1.00  0.00     0.148 C 
ATOM    100  C   UNL A   1      29.537  31.587  23.443  1.00  0.00     0.148 C 
ATOM    101  C   UNL A   1      27.725  30.902  21.311  1.00  0.00     0.181 C 
ATOM    102  C   UNL A   1      28.993  32.556  22.388  1.00  0.00     0.181 C 
ATOM    103  O   UNL A   1      27.683  32.179  21.952  1.00  0.00    -0.378 OA
ENDBRANCH  95  96
ENDBRANCH  93  95
ENDBRANCH  86  87
BRANCH  86 104
ATOM    104  C   UNL A   1      34.884  23.303  23.179  1.00  0.00     0.046 A 
ATOM    105  C   UNL A   1      35.883  23.006  22.268  1.00  0.00     0.094 A 
ATOM    106  C   UNL A   1      35.559  23.497  24.449  1.00  0.00     0.009 A 
ATOM    107  N   UNL A   1      37.099  23.088  22.891  1.00  0.00    -0.361 N 
ATOM    108  C   UNL A   1      36.934  23.403  24.219  1.00  0.00     0.049 A 
ATOM    109  C   UNL A   1      35.130  23.848  25.753  1.00  0.00     0.014 A 
ATOM    110  H   UNL A   1      37.968  22.941  22.452  1.00  0.00     0.166 HD
ATOM    111  C   UNL A   1      37.892  23.645  25.213  1.00  0.00     0.065 A 
ATOM    112  C   UNL A   1      36.075  24.079  26.763  1.00  0.00     0.040 A 
ATOM    113  C   UNL A   1      37.429  23.980  26.484  1.00  0.00     0.125 A 
ATOM    114  F   UNL A   1      38.316  24.223  27.458  1.00  0.00    -0.207 F 
ENDBRANCH  86 104
ENDBRANCH  84  86
ENDBRANCH  83  84
ENDBRANCH  82  83
ENDBRANCH  81  82
ENDBRANCH  80  81
ENDBRANCH  79  80
ENDBRANCH  78  79
ENDBRANCH   1  78
TORSDOF 27
ENDMDL
MODEL 2
REMARK VINA RESULT:      -9.1      5.924      8.127
REMARK SMILES O=C(OCCOCCOCCOCCOC(=O)[C@H](c1c[nH]c2cc(F)ccc12)[NH+]1CC[NH+](CC(=O)N2CCOCC2)CC1)c1ccc(-c2c3nc(c(-c4c(F)cc(S(=O)(=O)[O-])cc4F)c4ccc([nH]4)c(-c4c(F)cc(S(=O)(=O)[O-])cc4F)c4nc(c(-c5c(F)cc(S(=O)(=O)[O-])cc5F)c5ccc2[nH]5)C=C4)C=C3)cc1
REMARK SMILES IDX 9 1 8 2 7 3 6 4 5 5 4 6 3 7 2 8 1 9 44 10 45 11 109 12 46 13
REMARK SMILES IDX 108 14 47 15 48 16 49 17 102 18 50 19 107 20 101 21 103 22
REMARK SMILES IDX 51 23 106 24 100 25 99 26 52 28 86 29 65 30 85 31 66 32
REMARK SMILES IDX 69 33 84 34 104 35 67 36 68 37 83 39 105 40 70 41 53 42
REMARK SMILES IDX 54 43 63 44 55 45 56 46 62 47 64 48 57 49 58 50 59 51 60 52
REMARK SMILES IDX 61 53 87 54 88 55 97 56 89 57 90 58 96 59 98 60 91 61 92 62
REMARK SMILES IDX 93 63 94 64 95 65 71 66 72 67 81 68 73 69 74 70 80 71 82 72
REMARK SMILES IDX 75 73 76 74 77 75 78 76 79 77 10 78 11 79 12 80 13 81 14 82
REMARK SMILES IDX 15 83 16 84 17 85 18 86 29 87 30 88 43 89 31 91 42 92 32 93
REMARK SMILES IDX 33 95 34 96 35 97 36 98 37 99 41 100 38 101 40 102 39 103
REMARK SMILES IDX 19 104 20 105 28 106 21 107 22 108 27 109 23 111 26 112
REMARK SMILES IDX 24 113 25 114
REMARK H PARENT 103 27 69 38 29 90 32 94 21 110
REMARK Flexibility Score: inf
ROOT
ATOM      1  O   UNL A   1      33.775  27.588  26.873  1.00  0.00    -0.377 OA
ENDROOT
BRANCH   1   2
ATOM      2  C   UNL A   1      34.346  28.868  26.592  1.00  0.00     0.188 C 
BRANCH   2   3
ATOM      3  C   UNL A   1      33.601  30.048  27.227  1.00  0.00     0.188 C 
BRANCH   3   4
ATOM      4  O   UNL A   1      34.480  30.803  28.053  1.00  0.00    -0.376 OA
BRANCH   4   5
ATOM      5  C   UNL A   1      34.653  32.186  27.736  1.00  0.00     0.202 C 
BRANCH   5   6
ATOM      6  C   UNL A   1      33.352  32.962  27.737  1.00  0.00     0.261 C 
BRANCH   6   7
ATOM      7  O   UNL A   1      33.458  34.200  28.445  1.00  0.00    -0.460 OA
BRANCH   7   8
ATOM      8  C   UNL A   1      33.703  34.383  29.766  1.00  0.00     0.338 C 
ATOM      9  O   UNL A   1      32.816  34.909  30.441  1.00  0.00    -0.246 OA
BRANCH   8  10
ATOM     10  C   UNL A   1      34.945  33.951  30.485  1.00  0.00     0.060 A 
ATOM     11  C   UNL A   1      36.226  34.491  30.336  1.00  0.00     0.016 A 
ATOM     12  C   UNL A   1      34.766  32.980  31.483  1.00  0.00     0.016 A 
ATOM     13  C   UNL A   1      37.281  34.119  31.149  1.00  0.00     0.010 A 
ATOM     14  C   UNL A   1      35.829  32.570  32.292  1.00  0.00     0.010 A 
ATOM     15  C   UNL A   1      37.089  33.145  32.116  1.00  0.00    -0.014 A 
BRANCH  15  16
ATOM     16  C   UNL A   1      38.300  32.608  32.747  1.00  0.00     0.031 A 
ATOM     17  C   UNL A   1      39.131  31.676  31.922  1.00  0.00     0.074 A 
ATOM     18  C   UNL A   1      38.716  33.101  33.926  1.00  0.00     0.049 A 
ATOM     19  N   UNL A   1      40.194  31.005  32.255  1.00  0.00    -0.248 NA
ATOM     20  C   UNL A   1      38.720  31.496  30.515  1.00  0.00     0.031 C 
ATOM     21  C   UNL A   1      38.045  34.164  34.682  1.00  0.00     0.029 A 
ATOM     22  N   UNL A   1      39.813  32.798  34.682  1.00  0.00    -0.354 N 
ATOM     23  C   UNL A   1      40.547  30.286  31.122  1.00  0.00     0.074 A 
ATOM     24  C   UNL A   1      39.607  30.618  30.079  1.00  0.00     0.031 C 
ATOM     25  C   UNL A   1      38.745  34.416  35.800  1.00  0.00     0.029 A 
ATOM     26  C   UNL A   1      39.858  33.479  35.876  1.00  0.00     0.049 A 
ATOM     27  H   UNL A   1      40.503  32.155  34.399  1.00  0.00     0.167 HD
ATOM     28  C   UNL A   1      41.563  29.409  30.990  1.00  0.00     0.037 A 
ATOM     29  C   UNL A   1      40.680  33.301  36.927  1.00  0.00     0.037 A 
ATOM     30  C   UNL A   1      42.475  29.125  32.062  1.00  0.00     0.049 A 
ATOM     31  C   UNL A   1      41.729  32.224  36.800  1.00  0.00     0.074 A 
ATOM     32  C   UNL A   1      43.508  28.212  32.101  1.00  0.00     0.029 A 
ATOM     33  N   UNL A   1      42.449  29.766  33.295  1.00  0.00    -0.354 N 
ATOM     34  N   UNL A   1      42.013  31.472  35.760  1.00  0.00    -0.248 NA
ATOM     35  C   UNL A   1      42.551  31.951  37.983  1.00  0.00     0.031 C 
ATOM     36  C   UNL A   1      44.071  28.260  33.380  1.00  0.00     0.029 A 
ATOM     37  C   UNL A   1      43.430  29.249  34.117  1.00  0.00     0.049 A 
ATOM     38  H   UNL A   1      41.823  30.483  33.547  1.00  0.00     0.167 HD
ATOM     39  C   UNL A   1      43.058  30.649  36.157  1.00  0.00     0.074 A 
ATOM     40  C   UNL A   1      43.370  31.015  37.525  1.00  0.00     0.031 C 
ATOM     41  C   UNL A   1      43.701  29.672  35.468  1.00  0.00     0.037 A 
BRANCH  28  42
ATOM     42  C   UNL A   1      41.662  28.645  29.704  1.00  0.00     0.058 A 
ATOM     43  C   UNL A   1      42.520  29.028  28.663  1.00  0.00     0.135 A 
ATOM     44  C   UNL A   1      40.872  27.499  29.517  1.00  0.00     0.135 A 
ATOM     45  F   UNL A   1      43.260  30.143  28.770  1.00  0.00    -0.206 F 
ATOM     46  C   UNL A   1      42.593  28.298  27.480  1.00  0.00     0.059 A 
ATOM     47  C   UNL A   1      40.946  26.742  28.353  1.00  0.00     0.059 A 
ATOM     48  F   UNL A   1      40.010  27.110  30.469  1.00  0.00    -0.206 F 
ATOM     49  C   UNL A   1      41.809  27.150  27.339  1.00  0.00     0.060 A 
BRANCH  49  50
ATOM     50  S   UNL A   1      41.952  26.186  25.819  1.00  0.00     0.124 S 
ATOM     51  O   UNL A   1      42.753  25.050  26.267  1.00  0.00    -0.237 OA
ATOM     52  O   UNL A   1      40.556  25.894  25.507  1.00  0.00    -0.237 OA
ATOM     53  O   UNL A   1      42.620  27.100  24.898  1.00  0.00    -0.744 OA
ENDBRANCH  49  50
ENDBRANCH  28  42
BRANCH  29  54
ATOM     54  C   UNL A   1      40.483  34.056  38.197  1.00  0.00     0.058 A 
ATOM     55  C   UNL A   1      39.601  33.607  39.192  1.00  0.00     0.135 A 
ATOM     56  C   UNL A   1      41.141  35.278  38.421  1.00  0.00     0.135 A 
ATOM     57  F   UNL A   1      38.944  32.449  39.032  1.00  0.00    -0.206 F 
ATOM     58  C   UNL A   1      39.348  34.358  40.338  1.00  0.00     0.059 A 
ATOM     59  C   UNL A   1      40.931  36.029  39.573  1.00  0.00     0.059 A 
ATOM     60  F   UNL A   1      42.005  35.758  37.512  1.00  0.00    -0.206 F 
ATOM     61  C   UNL A   1      40.013  35.572  40.516  1.00  0.00     0.060 A 
BRANCH  61  62
ATOM     62  S   UNL A   1      39.663  36.552  41.993  1.00  0.00     0.124 S 
ATOM     63  O   UNL A   1      40.936  36.475  42.701  1.00  0.00    -0.237 OA
ATOM     64  O   UNL A   1      39.323  37.852  41.425  1.00  0.00    -0.237 OA
ATOM     65  O   UNL A   1      38.552  35.837  42.614  1.00  0.00    -0.744 OA
ENDBRANCH  61  62
ENDBRANCH  29  54
BRANCH  41  66
ATOM     66  C   UNL A   1      44.822  28.974  36.176  1.00  0.00     0.058 A 
ATOM     67  C   UNL A   1      46.126  29.487  36.171  1.00  0.00     0.135 A 
ATOM     68  C   UNL A   1      44.562  27.820  36.932  1.00  0.00     0.135 A 
ATOM     69  F   UNL A   1      46.419  30.585  35.456  1.00  0.00    -0.206 F 
ATOM     70  C   UNL A   1      47.146  28.864  36.877  1.00  0.00     0.059 A 
ATOM     71  C   UNL A   1      45.559  27.202  37.674  1.00  0.00     0.059 A 
ATOM     72  F   UNL A   1      43.324  27.303  36.978  1.00  0.00    -0.206 F 
ATOM     73  C   UNL A   1      46.850  27.726  37.631  1.00  0.00     0.060 A 
BRANCH  73  74
ATOM     74  S   UNL A   1      48.173  26.956  38.583  1.00  0.00     0.124 S 
ATOM     75  O   UNL A   1      49.002  28.111  38.916  1.00  0.00    -0.237 OA
ATOM     76  O   UNL A   1      47.445  26.355  39.697  1.00  0.00    -0.237 OA
ATOM     77  O   UNL A   1      48.762  26.009  37.642  1.00  0.00    -0.744 OA
ENDBRANCH  73  74
ENDBRANCH  41  66
ENDBRANCH  15  16
ENDBRANCH   8  10
ENDBRANCH   7   8
ENDBRANCH   6   7
ENDBRANCH   5   6
ENDBRANCH   4   5
ENDBRANCH   3   4
ENDBRANCH   2   3
ENDBRANCH   1   2
BRANCH   1  78
ATOM     78  C   UNL A   1      32.534  27.335  26.222  1.00  0.00     0.188 C 
BRANCH  78  79
ATOM     79  C   UNL A   1      31.567  26.252  26.724  1.00  0.00     0.188 C 
BRANCH  79  80
ATOM     80  O   UNL A   1      31.843  24.947  26.235  1.00  0.00    -0.376 OA
BRANCH  80  81
ATOM     81  C   UNL A   1      30.679  24.134  26.069  1.00  0.00     0.202 C 
BRANCH  81  82
ATOM     82  C   UNL A   1      30.957  22.736  25.509  1.00  0.00     0.261 C 
BRANCH  82  83
ATOM     83  O   UNL A   1      32.235  22.647  24.862  1.00  0.00    -0.459 OA
BRANCH  83  84
ATOM     84  C   UNL A   1      32.401  22.446  23.524  1.00  0.00     0.370 C 
ATOM     85  O   UNL A   1      31.908  21.499  22.918  1.00  0.00    -0.245 OA
BRANCH  84  86
ATOM     86  C   UNL A   1      33.375  23.586  22.952  1.00  0.00     0.328 C 
BRANCH  86  87
ATOM     87  N   UNL A   1      32.835  24.902  23.304  1.00  0.00    -0.310 N 
ATOM     88  C   UNL A   1      33.687  26.091  23.292  1.00  0.00     0.325 C 
ATOM     89  C   UNL A   1      31.636  25.075  22.482  1.00  0.00     0.325 C 
ATOM     90  H   UNL A   1      32.672  24.859  24.310  1.00  0.00     0.349 HD
ATOM     91  C   UNL A   1      33.088  27.424  22.688  1.00  0.00     0.325 C 
ATOM     92  C   UNL A   1      31.480  26.194  21.484  1.00  0.00     0.325 C 
ATOM     93  N   UNL A   1      31.701  27.443  22.182  1.00  0.00    -0.318 N 
ATOM     94  H   UNL A   1      31.647  28.255  21.568  1.00  0.00     0.348 HD
BRANCH  93  95
ATOM     95  C   UNL A   1      30.587  27.790  23.121  1.00  0.00     0.364 C 
BRANCH  95  96
ATOM     96  C   UNL A   1      30.404  29.240  23.656  1.00  0.00     0.277 C 
ATOM     97  O   UNL A   1      31.120  29.607  24.599  1.00  0.00    -0.268 OA
ATOM     98  N   UNL A   1      29.540  30.164  23.005  1.00  0.00    -0.333 N 
ATOM     99  C   UNL A   1      28.248  29.851  22.341  1.00  0.00     0.148 C 
ATOM    100  C   UNL A   1      29.587  31.542  23.504  1.00  0.00     0.148 C 
ATOM    101  C   UNL A   1      27.648  30.945  21.460  1.00  0.00     0.181 C 
ATOM    102  C   UNL A   1      29.008  32.546  22.502  1.00  0.00     0.181 C 
ATOM    103  O   UNL A   1      27.669  32.207  22.130  1.00  0.00    -0.378 OA
ENDBRANCH  95  96
ENDBRANCH  93  95
ENDBRANCH  86  87
BRANCH  86 104
ATOM    104  C   UNL A   1      34.824  23.241  23.224  1.00  0.00     0.046 A 
ATOM    105  C   UNL A   1      35.811  22.962  22.294  1.00  0.00     0.094 A 
ATOM    106  C   UNL A   1      35.520  23.446  24.481  1.00  0.00     0.009 A 
ATOM    107  N   UNL A   1      37.037  23.063  22.895  1.00  0.00    -0.361 N 
ATOM    108  C   UNL A   1      36.892  23.375  24.226  1.00  0.00     0.049 A 
ATOM    109  C   UNL A   1      35.109  23.790  25.793  1.00  0.00     0.014 A 
ATOM    110  H   UNL A   1      37.900  22.931  22.440  1.00  0.00     0.166 HD
ATOM    111  C   UNL A   1      37.864  23.632  25.202  1.00  0.00     0.065 A 
ATOM    112  C   UNL A   1      36.069  24.036  26.786  1.00  0.00     0.040 A 
ATOM    113  C   UNL A   1      37.419  23.959  26.481  1.00  0.00     0.125 A 
ATOM    114  F   UNL A   1      38.319  24.217  27.440  1.00  0.00    -0.207 F 
ENDBRANCH  86 104
ENDBRANCH  84  86
ENDBRANCH  83  84
ENDBRANCH  82  83
ENDBRANCH  81  82
ENDBRANCH  80  81
ENDBRANCH  79  80
ENDBRANCH  78  79
ENDBRANCH   1  78
TORSDOF 27
ENDMDL
MODEL 3
REMARK VINA RESULT:      -8.7      7.926     11.453
REMARK SMILES O=C(OCCOCCOCCOCCOC(=O)[C@H](c1c[nH]c2cc(F)ccc12)[NH+]1CC[NH+](CC(=O)N2CCOCC2)CC1)c1ccc(-c2c3nc(c(-c4c(F)cc(S(=O)(=O)[O-])cc4F)c4ccc([nH]4)c(-c4c(F)cc(S(=O)(=O)[O-])cc4F)c4nc(c(-c5c(F)cc(S(=O)(=O)[O-])cc5F)c5ccc2[nH]5)C=C4)C=C3)cc1
REMARK SMILES IDX 9 1 8 2 7 3 6 4 5 5 4 6 3 7 2 8 1 9 44 10 45 11 109 12 46 13
REMARK SMILES IDX 108 14 47 15 48 16 49 17 102 18 50 19 107 20 101 21 103 22
REMARK SMILES IDX 51 23 106 24 100 25 99 26 52 28 86 29 65 30 85 31 66 32
REMARK SMILES IDX 69 33 84 34 104 35 67 36 68 37 83 39 105 40 70 41 53 42
REMARK SMILES IDX 54 43 63 44 55 45 56 46 62 47 64 48 57 49 58 50 59 51 60 52
REMARK SMILES IDX 61 53 87 54 88 55 97 56 89 57 90 58 96 59 98 60 91 61 92 62
REMARK SMILES IDX 93 63 94 64 95 65 71 66 72 67 81 68 73 69 74 70 80 71 82 72
REMARK SMILES IDX 75 73 76 74 77 75 78 76 79 77 10 78 11 79 12 80 13 81 14 82
REMARK SMILES IDX 15 83 16 84 17 85 18 86 29 87 30 88 43 89 31 91 42 92 32 93
REMARK SMILES IDX 33 95 34 96 35 97 36 98 37 99 41 100 38 101 40 102 39 103
REMARK SMILES IDX 19 104 20 105 28 106 21 107 22 108 27 109 23 111 26 112
REMARK SMILES IDX 24 113 25 114
REMARK H PARENT 103 27 69 38 29 90 32 94 21 110
REMARK Flexibility Score: inf
ROOT
ATOM      1  O   UNL A   1      34.311  29.061  27.727  1.00  0.00    -0.377 OA
ENDROOT
BRANCH   1   2
ATOM      2  C   UNL A   1      35.513  29.700  27.290  1.00  0.00     0.188 C 
BRANCH   2   3
ATOM      3  C   UNL A   1      35.874  30.971  28.066  1.00  0.00     0.188 C 
BRANCH   3   4
ATOM      4  O   UNL A   1      35.033  32.049  27.674  1.00  0.00    -0.376 OA
BRANCH   4   5
ATOM      5  C   UNL A   1      34.831  33.102  28.618  1.00  0.00     0.202 C 
BRANCH   5   6
ATOM      6  C   UNL A   1      34.984  32.649  30.055  1.00  0.00     0.261 C 
BRANCH   6   7
ATOM      7  O   UNL A   1      34.139  33.379  30.949  1.00  0.00    -0.460 OA
BRANCH   7   8
ATOM      8  C   UNL A   1      34.490  34.004  32.099  1.00  0.00     0.338 C 
ATOM      9  O   UNL A   1      33.761  34.915  32.497  1.00  0.00    -0.246 OA
BRANCH   8  10
ATOM     10  C   UNL A   1      35.667  33.645  32.956  1.00  0.00     0.060 A 
ATOM     11  C   UNL A   1      36.015  32.367  33.403  1.00  0.00     0.016 A 
ATOM     12  C   UNL A   1      36.559  34.692  33.238  1.00  0.00     0.016 A 
ATOM     13  C   UNL A   1      37.199  32.117  34.071  1.00  0.00     0.010 A 
ATOM     14  C   UNL A   1      37.746  34.462  33.939  1.00  0.00     0.010 A 
ATOM     15  C   UNL A   1      38.058  33.166  34.357  1.00  0.00    -0.014 A 
BRANCH  15  16
ATOM     16  C   UNL A   1      39.147  32.878  35.297  1.00  0.00     0.031 A 
ATOM     17  C   UNL A   1      38.789  32.847  36.749  1.00  0.00     0.074 A 
ATOM     18  C   UNL A   1      40.342  32.473  34.834  1.00  0.00     0.049 A 
ATOM     19  N   UNL A   1      39.562  32.696  37.785  1.00  0.00    -0.248 NA
ATOM     20  C   UNL A   1      37.356  32.978  37.079  1.00  0.00     0.031 C 
ATOM     21  C   UNL A   1      40.682  32.290  33.419  1.00  0.00     0.029 A 
ATOM     22  N   UNL A   1      41.480  32.114  35.499  1.00  0.00    -0.354 N 
ATOM     23  C   UNL A   1      38.719  32.766  38.886  1.00  0.00     0.074 A 
ATOM     24  C   UNL A   1      37.373  32.945  38.401  1.00  0.00     0.031 C 
ATOM     25  C   UNL A   1      41.952  31.861  33.325  1.00  0.00     0.029 A 
ATOM     26  C   UNL A   1      42.531  31.820  34.661  1.00  0.00     0.049 A 
ATOM     27  H   UNL A   1      41.542  32.071  36.480  1.00  0.00     0.167 HD
ATOM     28  C   UNL A   1      39.065  32.705  40.188  1.00  0.00     0.037 A 
ATOM     29  C   UNL A   1      43.826  31.610  34.963  1.00  0.00     0.037 A 
ATOM     30  C   UNL A   1      40.424  32.516  40.613  1.00  0.00     0.049 A 
ATOM     31  C   UNL A   1      44.208  31.673  36.421  1.00  0.00     0.074 A 
ATOM     32  C   UNL A   1      40.936  32.504  41.894  1.00  0.00     0.029 A 
ATOM     33  N   UNL A   1      41.488  32.306  39.745  1.00  0.00    -0.354 N 
ATOM     34  N   UNL A   1      43.429  31.831  37.469  1.00  0.00    -0.248 NA
ATOM     35  C   UNL A   1      45.634  31.557  36.742  1.00  0.00     0.031 C 
ATOM     36  C   UNL A   1      42.322  32.344  41.796  1.00  0.00     0.029 A 
ATOM     37  C   UNL A   1      42.664  32.192  40.458  1.00  0.00     0.049 A 
ATOM     38  H   UNL A   1      41.414  32.248  38.765  1.00  0.00     0.167 HD
ATOM     39  C   UNL A   1      44.268  31.815  38.575  1.00  0.00     0.074 A 
ATOM     40  C   UNL A   1      45.611  31.607  38.067  1.00  0.00     0.031 C 
ATOM     41  C   UNL A   1      43.970  31.966  39.890  1.00  0.00     0.037 A 
BRANCH  28  42
ATOM     42  C   UNL A   1      37.992  32.947  41.207  1.00  0.00     0.058 A 
ATOM     43  C   UNL A   1      37.220  31.910  41.750  1.00  0.00     0.135 A 
ATOM     44  C   UNL A   1      37.734  34.256  41.645  1.00  0.00     0.135 A 
ATOM     45  F   UNL A   1      37.391  30.646  41.330  1.00  0.00    -0.206 F 
ATOM     46  C   UNL A   1      36.230  32.162  42.696  1.00  0.00     0.059 A 
ATOM     47  C   UNL A   1      36.767  34.529  42.605  1.00  0.00     0.059 A 
ATOM     48  F   UNL A   1      38.422  35.288  41.130  1.00  0.00    -0.206 F 
ATOM     49  C   UNL A   1      36.019  33.475  43.125  1.00  0.00     0.060 A 
BRANCH  49  50
ATOM     50  S   UNL A   1      34.767  33.780  44.389  1.00  0.00     0.124 S 
ATOM     51  O   UNL A   1      35.529  34.533  45.381  1.00  0.00    -0.237 OA
ATOM     52  O   UNL A   1      33.763  34.541  43.651  1.00  0.00    -0.237 OA
ATOM     53  O   UNL A   1      34.360  32.439  44.795  1.00  0.00    -0.744 OA
ENDBRANCH  49  50
ENDBRANCH  28  42
BRANCH  29  54
ATOM     54  C   UNL A   1      44.849  31.437  33.893  1.00  0.00     0.058 A 
ATOM     55  C   UNL A   1      45.255  30.167  33.460  1.00  0.00     0.135 A 
ATOM     56  C   UNL A   1      45.483  32.550  33.312  1.00  0.00     0.135 A 
ATOM     57  F   UNL A   1      44.687  29.068  33.980  1.00  0.00    -0.206 F 
ATOM     58  C   UNL A   1      46.276  30.003  32.526  1.00  0.00     0.059 A 
ATOM     59  C   UNL A   1      46.480  32.414  32.352  1.00  0.00     0.059 A 
ATOM     60  F   UNL A   1      45.133  33.794  33.676  1.00  0.00    -0.206 F 
ATOM     61  C   UNL A   1      46.888  31.134  31.983  1.00  0.00     0.060 A 
BRANCH  61  62
ATOM     62  S   UNL A   1      48.225  30.916  30.788  1.00  0.00     0.124 S 
ATOM     63  O   UNL A   1      47.486  30.538  29.589  1.00  0.00    -0.237 OA
ATOM     64  O   UNL A   1      48.840  32.239  30.772  1.00  0.00    -0.237 OA
ATOM     65  O   UNL A   1      49.040  29.861  31.386  1.00  0.00    -0.744 OA
ENDBRANCH  61  62
ENDBRANCH  29  54
BRANCH  41  66
ATOM     66  C   UNL A   1      45.112  31.869  40.855  1.00  0.00     0.058 A 
ATOM     67  C   UNL A   1      45.523  30.638  41.383  1.00  0.00     0.135 A 
ATOM     68  C   UNL A   1      45.847  33.018  41.189  1.00  0.00     0.135 A 
ATOM     69  F   UNL A   1      44.845  29.516  41.096  1.00  0.00    -0.206 F 
ATOM     70  C   UNL A   1      46.618  30.551  42.233  1.00  0.00     0.059 A 
ATOM     71  C   UNL A   1      46.966  32.948  42.007  1.00  0.00     0.059 A 
ATOM     72  F   UNL A   1      45.496  34.215  40.693  1.00  0.00    -0.206 F 
ATOM     73  C   UNL A   1      47.336  31.711  42.533  1.00  0.00     0.060 A 
BRANCH  73  74
ATOM     74  S   UNL A   1      48.786  31.575  43.596  1.00  0.00     0.124 S 
ATOM     75  O   UNL A   1      48.814  32.894  44.220  1.00  0.00    -0.237 OA
ATOM     76  O   UNL A   1      48.425  30.465  44.474  1.00  0.00    -0.237 OA
ATOM     77  O   UNL A   1      49.870  31.298  42.659  1.00  0.00    -0.744 OA
ENDBRANCH  73  74
ENDBRANCH  41  66
ENDBRANCH  15  16
ENDBRANCH   8  10
ENDBRANCH   7   8
ENDBRANCH   6   7
ENDBRANCH   5   6
ENDBRANCH   4   5
ENDBRANCH   3   4
ENDBRANCH   2   3
ENDBRANCH   1   2
BRANCH   1  78
ATOM     78  C   UNL A   1      33.195  29.234  26.859  1.00  0.00     0.188 C 
BRANCH  78  79
ATOM     79  C   UNL A   1      31.762  28.929  27.318  1.00  0.00     0.188 C 
BRANCH  79  80
ATOM     80  O   UNL A   1      31.496  27.550  27.533  1.00  0.00    -0.376 OA
BRANCH  80  81
ATOM     81  C   UNL A   1      31.202  26.825  26.337  1.00  0.00     0.202 C 
BRANCH  81  82
ATOM     82  C   UNL A   1      30.283  25.616  26.539  1.00  0.00     0.261 C 
BRANCH  82  83
ATOM     83  O   UNL A   1      31.013  24.397  26.737  1.00  0.00    -0.459 OA
BRANCH  83  84
ATOM     84  C   UNL A   1      30.581  23.172  26.324  1.00  0.00     0.370 C 
ATOM     85  O   UNL A   1      29.693  22.543  26.890  1.00  0.00    -0.245 OA
BRANCH  84  86
ATOM     86  C   UNL A   1      31.469  22.713  25.067  1.00  0.00     0.328 C 
BRANCH  86  87
ATOM     87  N   UNL A   1      32.019  23.901  24.408  1.00  0.00    -0.310 N 
ATOM     88  C   UNL A   1      33.351  24.400  24.749  1.00  0.00     0.325 C 
ATOM     89  C   UNL A   1      31.872  23.665  22.970  1.00  0.00     0.325 C 
ATOM     90  H   UNL A   1      31.480  24.683  24.779  1.00  0.00     0.349 HD
ATOM     91  C   UNL A   1      34.286  24.881  23.568  1.00  0.00     0.325 C 
ATOM     92  C   UNL A   1      33.043  23.610  22.024  1.00  0.00     0.325 C 
ATOM     93  N   UNL A   1      33.794  24.839  22.178  1.00  0.00    -0.318 N 
ATOM     94  H   UNL A   1      34.628  24.870  21.592  1.00  0.00     0.348 HD
BRANCH  93  95
ATOM     95  C   UNL A   1      33.078  26.032  21.621  1.00  0.00     0.364 C 
BRANCH  95  96
ATOM     96  C   UNL A   1      32.884  27.324  22.466  1.00  0.00     0.277 C 
ATOM     97  O   UNL A   1      33.894  27.968  22.784  1.00  0.00    -0.268 OA
ATOM     98  N   UNL A   1      31.586  27.830  22.754  1.00  0.00    -0.333 N 
ATOM     99  C   UNL A   1      30.363  27.029  23.019  1.00  0.00     0.148 C 
ATOM    100  C   UNL A   1      31.543  29.141  23.408  1.00  0.00     0.148 C 
ATOM    101  C   UNL A   1      29.035  27.782  23.010  1.00  0.00     0.181 C 
ATOM    102  C   UNL A   1      30.174  29.815  23.276  1.00  0.00     0.181 C 
ATOM    103  O   UNL A   1      29.125  28.983  23.780  1.00  0.00    -0.378 OA
ENDBRANCH  95  96
ENDBRANCH  93  95
ENDBRANCH  86  87
BRANCH  86 104
ATOM    104  C   UNL A   1      32.359  21.545  25.436  1.00  0.00     0.046 A 
ATOM    105  C   UNL A   1      32.911  21.268  26.676  1.00  0.00     0.094 A 
ATOM    106  C   UNL A   1      32.542  20.340  24.649  1.00  0.00     0.009 A 
ATOM    107  N   UNL A   1      33.334  19.966  26.698  1.00  0.00    -0.361 N 
ATOM    108  C   UNL A   1      33.105  19.369  25.481  1.00  0.00     0.049 A 
ATOM    109  C   UNL A   1      32.183  19.955  23.333  1.00  0.00     0.014 A 
ATOM    110  H   UNL A   1      33.743  19.520  27.475  1.00  0.00     0.166 HD
ATOM    111  C   UNL A   1      33.321  18.046  25.072  1.00  0.00     0.065 A 
ATOM    112  C   UNL A   1      32.405  18.639  22.904  1.00  0.00     0.040 A 
ATOM    113  C   UNL A   1      32.961  17.710  23.769  1.00  0.00     0.125 A 
ATOM    114  F   UNL A   1      33.147  16.452  23.344  1.00  0.00    -0.207 F 
ENDBRANCH  86 104
ENDBRANCH  84  86
ENDBRANCH  83  84
ENDBRANCH  82  83
ENDBRANCH  81  82
ENDBRANCH  80  81
ENDBRANCH  79  80
ENDBRANCH  78  79
ENDBRANCH   1  78
TORSDOF 27
ENDMDL
