MODEL 1
REMARK VINA RESULT:     -10.8      0.000      0.000
REMARK SMILES COc1cccc([C@@H]2[NH2+][C@@](C)(C(=O)OCCOCCOCCOCCOC(=O)c3ccc(-c4c5nc(c(-c6c(F)cc(S(=O)(=O)[O-])cc6F)c6ccc([nH]6)c(-c6c(F)cc(S(=O)(=O)[O-])cc6F)c6nc(c(-c7c(F)cc(S(=O)(=O)[O-])cc7F)c7ccc4[nH]7)C=C6)C=C5)cc3)[C@@H]3C(=O)N(C)C(=O)[C@@H]32)c1O
REMARK SMILES IDX 21 1 20 2 19 3 18 4 17 5 16 6 15 7 14 8 12 9 13 10 10 11
REMARK SMILES IDX 8 12 9 13 102 14 95 17 100 18 11 19 96 20 98 21 101 22 97 23
REMARK SMILES IDX 99 24 7 25 3 26 4 27 103 28 5 29 6 30 2 31 1 32 104 33 22 35
REMARK SMILES IDX 23 36 24 37 25 38 26 39 27 40 28 41 29 42 30 43 94 44 31 45
REMARK SMILES IDX 93 46 32 47 33 48 34 49 87 50 35 51 92 52 86 53 88 54 36 55
REMARK SMILES IDX 91 56 85 57 84 58 37 60 71 61 50 62 70 63 51 64 54 65 69 66
REMARK SMILES IDX 89 67 52 68 53 69 68 71 90 72 55 73 38 74 39 75 48 76 40 77
REMARK SMILES IDX 41 78 47 79 49 80 42 81 43 82 44 83 45 84 46 85 72 86 73 87
REMARK SMILES IDX 82 88 74 89 75 90 81 91 83 92 76 93 77 94 78 95 79 96 80 97
REMARK SMILES IDX 56 98 57 99 66 100 58 101 59 102 65 103 67 104 60 105 61 106
REMARK SMILES IDX 62 107 63 108 64 109
REMARK H PARENT 9 15 9 16 104 34 88 59 54 70
REMARK Flexibility Score: inf
ROOT
ATOM      1  C   UNL A   1      40.877  21.523  26.307  1.00  0.00     0.188 C 
ENDROOT
BRANCH   1   2
ATOM      2  O   UNL A   1      40.008  22.617  26.500  1.00  0.00    -0.377 OA
BRANCH   2   3
ATOM      3  C   UNL A   1      38.680  22.426  26.065  1.00  0.00     0.188 C 
BRANCH   3   4
ATOM      4  C   UNL A   1      37.827  23.713  26.075  1.00  0.00     0.188 C 
BRANCH   4   5
ATOM      5  O   UNL A   1      36.873  23.976  25.052  1.00  0.00    -0.376 OA
BRANCH   5   6
ATOM      6  C   UNL A   1      36.672  23.022  24.025  1.00  0.00     0.202 C 
BRANCH   6   7
ATOM      7  C   UNL A   1      35.356  23.047  23.217  1.00  0.00     0.261 C 
BRANCH   7   8
ATOM      8  O   UNL A   1      34.378  24.055  23.557  1.00  0.00    -0.459 OA
BRANCH   8   9
ATOM      9  C   UNL A   1      33.337  24.191  22.698  1.00  0.00     0.368 C 
ATOM     10  O   UNL A   1      33.369  23.770  21.542  1.00  0.00    -0.245 OA
BRANCH   9  11
ATOM     11  C   UNL A   1      32.096  24.974  23.255  1.00  0.00     0.204 C 
ATOM     12  C   UNL A   1      31.553  27.240  22.494  1.00  0.00     0.232 C 
ATOM     13  N   UNL A   1      31.321  25.793  22.263  1.00  0.00    -0.325 N 
ATOM     14  C   UNL A   1      32.601  27.351  23.589  1.00  0.00     0.161 C 
ATOM     15  H   UNL A   1      31.623  25.551  21.319  1.00  0.00     0.347 HD
ATOM     16  H   UNL A   1      30.327  25.595  22.374  1.00  0.00     0.347 HD
ATOM     17  C   UNL A   1      32.651  25.985  24.258  1.00  0.00     0.170 C 
ATOM     18  C   UNL A   1      32.311  28.284  24.723  1.00  0.00     0.239 C 
ATOM     19  C   UNL A   1      31.190  23.861  23.788  1.00  0.00     0.093 C 
ATOM     20  C   UNL A   1      31.929  26.196  25.557  1.00  0.00     0.240 C 
ATOM     21  N   UNL A   1      31.880  27.545  25.787  1.00  0.00    -0.285 N 
ATOM     22  O   UNL A   1      32.456  29.497  24.684  1.00  0.00    -0.274 OA
ATOM     23  O   UNL A   1      31.570  25.317  26.325  1.00  0.00    -0.274 OA
ATOM     24  C   UNL A   1      31.459  28.136  27.027  1.00  0.00     0.156 C 
BRANCH  12  25
ATOM     25  C   UNL A   1      30.317  28.119  22.634  1.00  0.00     0.056 A 
ATOM     26  C   UNL A   1      28.991  30.111  22.117  1.00  0.00     0.161 A 
ATOM     27  C   UNL A   1      27.867  29.540  22.711  1.00  0.00     0.050 A 
ATOM     28  C   UNL A   1      30.216  29.423  22.130  1.00  0.00     0.166 A 
ATOM     29  C   UNL A   1      27.955  28.274  23.281  1.00  0.00     0.005 A 
ATOM     30  C   UNL A   1      29.162  27.568  23.229  1.00  0.00     0.014 A 
BRANCH  26  31
ATOM     31  O   UNL A   1      28.839  31.378  21.619  1.00  0.00    -0.493 OA
ATOM     32  C   UNL A   1      28.365  32.339  22.563  1.00  0.00     0.278 C 
ENDBRANCH  26  31
BRANCH  28  33
ATOM     33  O   UNL A   1      31.350  30.037  21.679  1.00  0.00    -0.504 OA
ATOM     34  H   UNL A   1      32.098  30.106  22.238  1.00  0.00     0.293 HD
ENDBRANCH  28  33
ENDBRANCH  12  25
ENDBRANCH   9  11
ENDBRANCH   8   9
ENDBRANCH   7   8
ENDBRANCH   6   7
ENDBRANCH   5   6
ENDBRANCH   4   5
ENDBRANCH   3   4
ENDBRANCH   2   3
ENDBRANCH   1   2
BRANCH   1  35
ATOM     35  C   UNL A   1      41.321  20.779  27.576  1.00  0.00     0.188 C 
BRANCH  35  36
ATOM     36  O   UNL A   1      42.328  19.798  27.339  1.00  0.00    -0.376 OA
BRANCH  36  37
ATOM     37  C   UNL A   1      42.156  18.876  26.276  1.00  0.00     0.202 C 
BRANCH  37  38
ATOM     38  C   UNL A   1      43.406  18.469  25.477  1.00  0.00     0.261 C 
BRANCH  38  39
ATOM     39  O   UNL A   1      43.771  19.312  24.377  1.00  0.00    -0.460 OA
BRANCH  39  40
ATOM     40  C   UNL A   1      45.030  19.796  24.347  1.00  0.00     0.338 C 
ATOM     41  O   UNL A   1      46.003  19.268  23.835  1.00  0.00    -0.246 OA
BRANCH  40  42
ATOM     42  C   UNL A   1      44.988  21.184  24.857  1.00  0.00     0.060 A 
ATOM     43  C   UNL A   1      44.595  22.211  23.988  1.00  0.00     0.016 A 
ATOM     44  C   UNL A   1      45.277  21.465  26.196  1.00  0.00     0.016 A 
ATOM     45  C   UNL A   1      44.506  23.524  24.450  1.00  0.00     0.010 A 
ATOM     46  C   UNL A   1      45.226  22.787  26.648  1.00  0.00     0.010 A 
ATOM     47  C   UNL A   1      44.868  23.825  25.769  1.00  0.00    -0.014 A 
BRANCH  47  48
ATOM     48  C   UNL A   1      45.106  25.236  26.153  1.00  0.00     0.031 A 
ATOM     49  C   UNL A   1      46.514  25.758  26.045  1.00  0.00     0.074 A 
ATOM     50  C   UNL A   1      44.106  26.043  26.552  1.00  0.00     0.049 A 
ATOM     51  N   UNL A   1      46.995  26.926  26.375  1.00  0.00    -0.248 NA
ATOM     52  C   UNL A   1      47.515  24.832  25.485  1.00  0.00     0.031 C 
ATOM     53  C   UNL A   1      42.697  25.664  26.648  1.00  0.00     0.029 A 
ATOM     54  N   UNL A   1      44.131  27.354  26.962  1.00  0.00    -0.354 N 
ATOM     55  C   UNL A   1      48.347  26.880  26.056  1.00  0.00     0.074 A 
ATOM     56  C   UNL A   1      48.621  25.556  25.545  1.00  0.00     0.031 C 
ATOM     57  C   UNL A   1      41.994  26.714  27.115  1.00  0.00     0.029 A 
ATOM     58  C   UNL A   1      42.908  27.826  27.378  1.00  0.00     0.049 A 
ATOM     59  H   UNL A   1      44.947  27.904  26.958  1.00  0.00     0.167 HD
ATOM     60  C   UNL A   1      49.275  27.859  26.162  1.00  0.00     0.037 A 
ATOM     61  C   UNL A   1      42.576  29.008  27.937  1.00  0.00     0.037 A 
ATOM     62  C   UNL A   1      48.999  29.170  26.684  1.00  0.00     0.049 A 
ATOM     63  C   UNL A   1      43.651  30.053  28.138  1.00  0.00     0.074 A 
ATOM     64  C   UNL A   1      49.874  30.228  26.858  1.00  0.00     0.029 A 
ATOM     65  N   UNL A   1      47.754  29.602  27.117  1.00  0.00    -0.354 N 
ATOM     66  N   UNL A   1      44.926  29.998  27.827  1.00  0.00    -0.248 NA
ATOM     67  C   UNL A   1      43.243  31.321  28.760  1.00  0.00     0.031 C 
ATOM     68  C   UNL A   1      49.168  31.285  27.438  1.00  0.00     0.029 A 
ATOM     69  C   UNL A   1      47.841  30.907  27.570  1.00  0.00     0.049 A 
ATOM     70  H   UNL A   1      46.932  29.063  27.103  1.00  0.00     0.167 HD
ATOM     71  C   UNL A   1      45.458  31.235  28.180  1.00  0.00     0.074 A 
ATOM     72  C   UNL A   1      44.368  32.021  28.716  1.00  0.00     0.031 C 
ATOM     73  C   UNL A   1      46.736  31.683  28.075  1.00  0.00     0.037 A 
BRANCH  60  74
ATOM     74  C   UNL A   1      50.673  27.549  25.710  1.00  0.00     0.058 A 
ATOM     75  C   UNL A   1      51.043  27.638  24.358  1.00  0.00     0.135 A 
ATOM     76  C   UNL A   1      51.670  27.214  26.641  1.00  0.00     0.135 A 
ATOM     77  F   UNL A   1      50.124  27.927  23.423  1.00  0.00    -0.206 F 
ATOM     78  C   UNL A   1      52.349  27.402  23.944  1.00  0.00     0.059 A 
ATOM     79  C   UNL A   1      52.989  27.001  26.253  1.00  0.00     0.059 A 
ATOM     80  F   UNL A   1      51.367  27.104  27.943  1.00  0.00    -0.206 F 
ATOM     81  C   UNL A   1      53.318  27.093  24.901  1.00  0.00     0.060 A 
BRANCH  81  82
ATOM     82  S   UNL A   1      55.016  26.834  24.350  1.00  0.00     0.124 S 
ATOM     83  O   UNL A   1      54.884  27.006  22.906  1.00  0.00    -0.237 OA
ATOM     84  O   UNL A   1      55.734  27.893  25.051  1.00  0.00    -0.237 OA
ATOM     85  O   UNL A   1      55.316  25.476  24.793  1.00  0.00    -0.744 OA
ENDBRANCH  81  82
ENDBRANCH  60  74
BRANCH  61  86
ATOM     86  C   UNL A   1      41.181  29.270  28.391  1.00  0.00     0.058 A 
ATOM     87  C   UNL A   1      40.850  29.324  29.754  1.00  0.00     0.135 A 
ATOM     88  C   UNL A   1      40.134  29.411  27.465  1.00  0.00     0.135 A 
ATOM     89  F   UNL A   1      41.810  29.186  30.682  1.00  0.00    -0.206 F 
ATOM     90  C   UNL A   1      39.533  29.464  30.183  1.00  0.00     0.059 A 
ATOM     91  C   UNL A   1      38.814  29.586  27.869  1.00  0.00     0.059 A 
ATOM     92  F   UNL A   1      40.391  29.378  26.148  1.00  0.00    -0.206 F 
ATOM     93  C   UNL A   1      38.520  29.589  29.231  1.00  0.00     0.060 A 
BRANCH  93  94
ATOM     94  S   UNL A   1      36.814  29.763  29.796  1.00  0.00     0.124 S 
ATOM     95  O   UNL A   1      36.071  29.266  28.643  1.00  0.00    -0.237 OA
ATOM     96  O   UNL A   1      36.796  28.913  30.982  1.00  0.00    -0.237 OA
ATOM     97  O   UNL A   1      36.692  31.194  30.057  1.00  0.00    -0.744 OA
ENDBRANCH  93  94
ENDBRANCH  61  86
BRANCH  73  98
ATOM     98  C   UNL A   1      47.016  33.102  28.487  1.00  0.00     0.058 A 
ATOM     99  C   UNL A   1      47.473  33.426  29.775  1.00  0.00     0.135 A 
ATOM    100  C   UNL A   1      46.886  34.148  27.558  1.00  0.00     0.135 A 
ATOM    101  F   UNL A   1      47.612  32.466  30.703  1.00  0.00    -0.206 F 
ATOM    102  C   UNL A   1      47.763  34.738  30.135  1.00  0.00     0.059 A 
ATOM    103  C   UNL A   1      47.203  35.463  27.885  1.00  0.00     0.059 A 
ATOM    104  F   UNL A   1      46.467  33.893  26.308  1.00  0.00    -0.206 F 
ATOM    105  C   UNL A   1      47.627  35.749  29.181  1.00  0.00     0.060 A 
BRANCH 105 106
ATOM    106  S   UNL A   1      48.043  37.442  29.652  1.00  0.00     0.124 S 
ATOM    107  O   UNL A   1      48.097  38.104  28.353  1.00  0.00    -0.237 OA
ATOM    108  O   UNL A   1      46.920  37.812  30.507  1.00  0.00    -0.237 OA
ATOM    109  O   UNL A   1      49.325  37.299  30.337  1.00  0.00    -0.744 OA
ENDBRANCH 105 106
ENDBRANCH  73  98
ENDBRANCH  47  48
ENDBRANCH  40  42
ENDBRANCH  39  40
ENDBRANCH  38  39
ENDBRANCH  37  38
ENDBRANCH  36  37
ENDBRANCH  35  36
ENDBRANCH   1  35
TORSDOF 26
ENDMDL
MODEL 2
REMARK VINA RESULT:     -10.0      1.027      7.893
REMARK SMILES COc1cccc([C@@H]2[NH2+][C@@](C)(C(=O)OCCOCCOCCOCCOC(=O)c3ccc(-c4c5nc(c(-c6c(F)cc(S(=O)(=O)[O-])cc6F)c6ccc([nH]6)c(-c6c(F)cc(S(=O)(=O)[O-])cc6F)c6nc(c(-c7c(F)cc(S(=O)(=O)[O-])cc7F)c7ccc4[nH]7)C=C6)C=C5)cc3)[C@@H]3C(=O)N(C)C(=O)[C@@H]32)c1O
REMARK SMILES IDX 21 1 20 2 19 3 18 4 17 5 16 6 15 7 14 8 12 9 13 10 10 11
REMARK SMILES IDX 8 12 9 13 102 14 95 17 100 18 11 19 96 20 98 21 101 22 97 23
REMARK SMILES IDX 99 24 7 25 3 26 4 27 103 28 5 29 6 30 2 31 1 32 104 33 22 35
REMARK SMILES IDX 23 36 24 37 25 38 26 39 27 40 28 41 29 42 30 43 94 44 31 45
REMARK SMILES IDX 93 46 32 47 33 48 34 49 87 50 35 51 92 52 86 53 88 54 36 55
REMARK SMILES IDX 91 56 85 57 84 58 37 60 71 61 50 62 70 63 51 64 54 65 69 66
REMARK SMILES IDX 89 67 52 68 53 69 68 71 90 72 55 73 38 74 39 75 48 76 40 77
REMARK SMILES IDX 41 78 47 79 49 80 42 81 43 82 44 83 45 84 46 85 72 86 73 87
REMARK SMILES IDX 82 88 74 89 75 90 81 91 83 92 76 93 77 94 78 95 79 96 80 97
REMARK SMILES IDX 56 98 57 99 66 100 58 101 59 102 65 103 67 104 60 105 61 106
REMARK SMILES IDX 62 107 63 108 64 109
REMARK H PARENT 9 15 9 16 104 34 88 59 54 70
REMARK Flexibility Score: inf
ROOT
ATOM      1  C   UNL A   1      40.496  22.170  26.508  1.00  0.00     0.188 C 
ENDROOT
BRANCH   1   2
ATOM      2  O   UNL A   1      39.412  23.069  26.581  1.00  0.00    -0.377 OA
BRANCH   2   3
ATOM      3  C   UNL A   1      38.222  22.642  25.957  1.00  0.00     0.188 C 
BRANCH   3   4
ATOM      4  C   UNL A   1      37.040  23.621  26.127  1.00  0.00     0.188 C 
BRANCH   4   5
ATOM      5  O   UNL A   1      36.215  23.983  25.025  1.00  0.00    -0.376 OA
BRANCH   5   6
ATOM      6  C   UNL A   1      35.800  22.986  24.108  1.00  0.00     0.202 C 
BRANCH   6   7
ATOM      7  C   UNL A   1      35.289  23.407  22.714  1.00  0.00     0.261 C 
BRANCH   7   8
ATOM      8  O   UNL A   1      34.190  24.344  22.655  1.00  0.00    -0.459 OA
BRANCH   8   9
ATOM      9  C   UNL A   1      32.946  23.806  22.619  1.00  0.00     0.368 C 
ATOM     10  O   UNL A   1      32.710  22.713  22.104  1.00  0.00    -0.245 OA
BRANCH   9  11
ATOM     11  C   UNL A   1      31.804  24.693  23.228  1.00  0.00     0.204 C 
ATOM     12  C   UNL A   1      31.412  26.991  22.470  1.00  0.00     0.232 C 
ATOM     13  N   UNL A   1      31.050  25.566  22.268  1.00  0.00    -0.325 N 
ATOM     14  C   UNL A   1      32.520  27.023  23.510  1.00  0.00     0.161 C 
ATOM     15  H   UNL A   1      31.282  25.294  21.312  1.00  0.00     0.347 HD
ATOM     16  H   UNL A   1      30.049  25.452  22.432  1.00  0.00     0.347 HD
ATOM     17  C   UNL A   1      32.491  25.662  24.190  1.00  0.00     0.170 C 
ATOM     18  C   UNL A   1      32.367  27.985  24.646  1.00  0.00     0.239 C 
ATOM     19  C   UNL A   1      30.838  23.663  23.819  1.00  0.00     0.093 C 
ATOM     20  C   UNL A   1      31.857  25.942  25.522  1.00  0.00     0.240 C 
ATOM     21  N   UNL A   1      31.931  27.292  25.738  1.00  0.00    -0.285 N 
ATOM     22  O   UNL A   1      32.609  29.181  24.585  1.00  0.00    -0.274 OA
ATOM     23  O   UNL A   1      31.467  25.101  26.317  1.00  0.00    -0.274 OA
ATOM     24  C   UNL A   1      31.625  27.925  26.992  1.00  0.00     0.156 C 
BRANCH  12  25
ATOM     25  C   UNL A   1      30.261  27.971  22.662  1.00  0.00     0.056 A 
ATOM     26  C   UNL A   1      29.102  30.082  22.225  1.00  0.00     0.161 A 
ATOM     27  C   UNL A   1      27.947  29.597  22.835  1.00  0.00     0.050 A 
ATOM     28  C   UNL A   1      30.262  29.290  22.191  1.00  0.00     0.166 A 
ATOM     29  C   UNL A   1      27.938  28.314  23.375  1.00  0.00     0.005 A 
ATOM     30  C   UNL A   1      29.077  27.507  23.275  1.00  0.00     0.014 A 
BRANCH  26  31
ATOM     31  O   UNL A   1      29.049  31.369  21.760  1.00  0.00    -0.493 OA
ATOM     32  C   UNL A   1      28.066  31.601  20.751  1.00  0.00     0.278 C 
ENDBRANCH  26  31
BRANCH  28  33
ATOM     33  O   UNL A   1      31.435  29.814  21.724  1.00  0.00    -0.504 OA
ATOM     34  H   UNL A   1      32.193  29.271  21.650  1.00  0.00     0.293 HD
ENDBRANCH  28  33
ENDBRANCH  12  25
ENDBRANCH   9  11
ENDBRANCH   8   9
ENDBRANCH   7   8
ENDBRANCH   6   7
ENDBRANCH   5   6
ENDBRANCH   4   5
ENDBRANCH   3   4
ENDBRANCH   2   3
ENDBRANCH   1   2
BRANCH   1  35
ATOM     35  C   UNL A   1      41.181  21.826  27.841  1.00  0.00     0.188 C 
BRANCH  35  36
ATOM     36  O   UNL A   1      42.209  20.845  27.718  1.00  0.00    -0.376 OA
BRANCH  36  37
ATOM     37  C   UNL A   1      41.915  19.615  27.076  1.00  0.00     0.202 C 
BRANCH  37  38
ATOM     38  C   UNL A   1      42.688  19.283  25.789  1.00  0.00     0.261 C 
BRANCH  38  39
ATOM     39  O   UNL A   1      43.278  20.385  25.088  1.00  0.00    -0.460 OA
BRANCH  39  40
ATOM     40  C   UNL A   1      44.598  20.319  24.811  1.00  0.00     0.338 C 
ATOM     41  O   UNL A   1      45.178  19.414  24.235  1.00  0.00    -0.246 OA
BRANCH  40  42
ATOM     42  C   UNL A   1      45.189  21.636  25.135  1.00  0.00     0.060 A 
ATOM     43  C   UNL A   1      45.281  22.022  26.480  1.00  0.00     0.016 A 
ATOM     44  C   UNL A   1      45.701  22.459  24.128  1.00  0.00     0.016 A 
ATOM     45  C   UNL A   1      45.869  23.240  26.820  1.00  0.00     0.010 A 
ATOM     46  C   UNL A   1      46.256  23.697  24.467  1.00  0.00     0.010 A 
ATOM     47  C   UNL A   1      46.315  24.104  25.812  1.00  0.00    -0.014 A 
BRANCH  47  48
ATOM     48  C   UNL A   1      46.613  25.517  26.146  1.00  0.00     0.031 A 
ATOM     49  C   UNL A   1      45.462  26.388  26.575  1.00  0.00     0.074 A 
ATOM     50  C   UNL A   1      47.865  26.009  26.106  1.00  0.00     0.049 A 
ATOM     51  N   UNL A   1      45.444  27.662  26.858  1.00  0.00    -0.248 NA
ATOM     52  C   UNL A   1      44.151  25.725  26.701  1.00  0.00     0.031 C 
ATOM     53  C   UNL A   1      49.064  25.249  25.754  1.00  0.00     0.029 A 
ATOM     54  N   UNL A   1      48.331  27.277  26.356  1.00  0.00    -0.354 N 
ATOM     55  C   UNL A   1      44.130  27.952  27.205  1.00  0.00     0.074 A 
ATOM     56  C   UNL A   1      43.369  26.732  27.056  1.00  0.00     0.031 C 
ATOM     57  C   UNL A   1      50.127  26.075  25.786  1.00  0.00     0.029 A 
ATOM     58  C   UNL A   1      49.679  27.424  26.131  1.00  0.00     0.049 A 
ATOM     59  H   UNL A   1      47.754  28.010  26.668  1.00  0.00     0.167 HD
ATOM     60  C   UNL A   1      43.606  29.126  27.627  1.00  0.00     0.037 A 
ATOM     61  C   UNL A   1      50.451  28.530  26.167  1.00  0.00     0.037 A 
ATOM     62  C   UNL A   1      44.365  30.340  27.759  1.00  0.00     0.049 A 
ATOM     63  C   UNL A   1      49.823  29.852  26.546  1.00  0.00     0.074 A 
ATOM     64  C   UNL A   1      43.925  31.591  28.154  1.00  0.00     0.029 A 
ATOM     65  N   UNL A   1      45.723  30.455  27.499  1.00  0.00    -0.354 N 
ATOM     66  N   UNL A   1      48.578  30.112  26.876  1.00  0.00    -0.248 NA
ATOM     67  C   UNL A   1      50.702  31.030  26.561  1.00  0.00     0.031 C 
ATOM     68  C   UNL A   1      45.007  32.473  28.090  1.00  0.00     0.029 A 
ATOM     69  C   UNL A   1      46.134  31.759  27.713  1.00  0.00     0.049 A 
ATOM     70  H   UNL A   1      46.307  29.719  27.207  1.00  0.00     0.167 HD
ATOM     71  C   UNL A   1      48.539  31.471  27.174  1.00  0.00     0.074 A 
ATOM     72  C   UNL A   1      49.883  31.976  26.999  1.00  0.00     0.031 C 
ATOM     73  C   UNL A   1      47.485  32.237  27.558  1.00  0.00     0.037 A 
BRANCH  60  74
ATOM     74  C   UNL A   1      42.144  29.156  27.971  1.00  0.00     0.058 A 
ATOM     75  C   UNL A   1      41.705  29.157  29.305  1.00  0.00     0.135 A 
ATOM     76  C   UNL A   1      41.172  29.242  26.961  1.00  0.00     0.135 A 
ATOM     77  F   UNL A   1      42.591  29.048  30.308  1.00  0.00    -0.206 F 
ATOM     78  C   UNL A   1      40.355  29.237  29.626  1.00  0.00     0.059 A 
ATOM     79  C   UNL A   1      39.818  29.351  27.259  1.00  0.00     0.059 A 
ATOM     80  F   UNL A   1      41.537  29.233  25.670  1.00  0.00    -0.206 F 
ATOM     81  C   UNL A   1      39.418  29.343  28.595  1.00  0.00     0.060 A 
BRANCH  81  82
ATOM     82  S   UNL A   1      37.675  29.491  29.033  1.00  0.00     0.124 S 
ATOM     83  O   UNL A   1      37.477  30.936  28.961  1.00  0.00    -0.237 OA
ATOM     84  O   UNL A   1      37.024  28.709  27.987  1.00  0.00    -0.237 OA
ATOM     85  O   UNL A   1      37.609  28.918  30.374  1.00  0.00    -0.744 OA
ENDBRANCH  81  82
ENDBRANCH  60  74
BRANCH  61  86
ATOM     86  C   UNL A   1      51.894  28.463  25.799  1.00  0.00     0.058 A 
ATOM     87  C   UNL A   1      52.325  28.655  24.478  1.00  0.00     0.135 A 
ATOM     88  C   UNL A   1      52.870  28.142  26.758  1.00  0.00     0.135 A 
ATOM     89  F   UNL A   1      51.433  28.954  23.520  1.00  0.00    -0.206 F 
ATOM     90  C   UNL A   1      53.657  28.490  24.110  1.00  0.00     0.059 A 
ATOM     91  C   UNL A   1      54.214  28.005  26.422  1.00  0.00     0.059 A 
ATOM     92  F   UNL A   1      52.519  27.956  28.041  1.00  0.00    -0.206 F 
ATOM     93  C   UNL A   1      54.594  28.159  25.091  1.00  0.00     0.060 A 
BRANCH  93  94
ATOM     94  S   UNL A   1      56.320  27.940  24.605  1.00  0.00     0.124 S 
ATOM     95  O   UNL A   1      56.563  29.153  23.832  1.00  0.00    -0.237 OA
ATOM     96  O   UNL A   1      56.994  27.860  25.896  1.00  0.00    -0.237 OA
ATOM     97  O   UNL A   1      56.297  26.697  23.839  1.00  0.00    -0.744 OA
ENDBRANCH  93  94
ENDBRANCH  61  86
BRANCH  73  98
ATOM     98  C   UNL A   1      47.749  33.684  27.873  1.00  0.00     0.058 A 
ATOM     99  C   UNL A   1      47.626  34.691  26.902  1.00  0.00     0.135 A 
ATOM    100  C   UNL A   1      48.070  34.076  29.184  1.00  0.00     0.135 A 
ATOM    101  F   UNL A   1      47.324  34.373  25.634  1.00  0.00    -0.206 F 
ATOM    102  C   UNL A   1      47.838  36.030  27.214  1.00  0.00     0.059 A 
ATOM    103  C   UNL A   1      48.253  35.412  29.525  1.00  0.00     0.059 A 
ATOM    104  F   UNL A   1      48.186  33.155  30.155  1.00  0.00    -0.206 F 
ATOM    105  C   UNL A   1      48.148  36.381  28.530  1.00  0.00     0.060 A 
BRANCH 105 106
ATOM    106  S   UNL A   1      48.384  38.126  28.925  1.00  0.00     0.124 S 
ATOM    107  O   UNL A   1      47.116  38.701  28.487  1.00  0.00    -0.237 OA
ATOM    108  O   UNL A   1      48.601  38.093  30.368  1.00  0.00    -0.237 OA
ATOM    109  O   UNL A   1      49.549  38.501  28.130  1.00  0.00    -0.744 OA
ENDBRANCH 105 106
ENDBRANCH  73  98
ENDBRANCH  47  48
ENDBRANCH  40  42
ENDBRANCH  39  40
ENDBRANCH  38  39
ENDBRANCH  37  38
ENDBRANCH  36  37
ENDBRANCH  35  36
ENDBRANCH   1  35
TORSDOF 26
ENDMDL
MODEL 3
REMARK VINA RESULT:      -9.7      6.367     10.638
REMARK SMILES COc1cccc([C@@H]2[NH2+][C@@](C)(C(=O)OCCOCCOCCOCCOC(=O)c3ccc(-c4c5nc(c(-c6c(F)cc(S(=O)(=O)[O-])cc6F)c6ccc([nH]6)c(-c6c(F)cc(S(=O)(=O)[O-])cc6F)c6nc(c(-c7c(F)cc(S(=O)(=O)[O-])cc7F)c7ccc4[nH]7)C=C6)C=C5)cc3)[C@@H]3C(=O)N(C)C(=O)[C@@H]32)c1O
REMARK SMILES IDX 21 1 20 2 19 3 18 4 17 5 16 6 15 7 14 8 12 9 13 10 10 11
REMARK SMILES IDX 8 12 9 13 102 14 95 17 100 18 11 19 96 20 98 21 101 22 97 23
REMARK SMILES IDX 99 24 7 25 3 26 4 27 103 28 5 29 6 30 2 31 1 32 104 33 22 35
REMARK SMILES IDX 23 36 24 37 25 38 26 39 27 40 28 41 29 42 30 43 94 44 31 45
REMARK SMILES IDX 93 46 32 47 33 48 34 49 87 50 35 51 92 52 86 53 88 54 36 55
REMARK SMILES IDX 91 56 85 57 84 58 37 60 71 61 50 62 70 63 51 64 54 65 69 66
REMARK SMILES IDX 89 67 52 68 53 69 68 71 90 72 55 73 38 74 39 75 48 76 40 77
REMARK SMILES IDX 41 78 47 79 49 80 42 81 43 82 44 83 45 84 46 85 72 86 73 87
REMARK SMILES IDX 82 88 74 89 75 90 81 91 83 92 76 93 77 94 78 95 79 96 80 97
REMARK SMILES IDX 56 98 57 99 66 100 58 101 59 102 65 103 67 104 60 105 61 106
REMARK SMILES IDX 62 107 63 108 64 109
REMARK H PARENT 9 15 9 16 104 34 88 59 54 70
REMARK Flexibility Score: inf
ROOT
ATOM      1  C   UNL A   1      37.373  23.140  25.721  1.00  0.00     0.188 C 
ENDROOT
BRANCH   1   2
ATOM      2  O   UNL A   1      37.499  22.315  24.584  1.00  0.00    -0.377 OA
BRANCH   2   3
ATOM      3  C   UNL A   1      37.130  20.966  24.764  1.00  0.00     0.188 C 
BRANCH   3   4
ATOM      4  C   UNL A   1      35.758  20.778  25.447  1.00  0.00     0.188 C 
BRANCH   4   5
ATOM      5  O   UNL A   1      34.588  20.489  24.691  1.00  0.00    -0.376 OA
BRANCH   5   6
ATOM      6  C   UNL A   1      33.578  21.475  24.567  1.00  0.00     0.202 C 
BRANCH   6   7
ATOM      7  C   UNL A   1      32.336  21.404  25.482  1.00  0.00     0.261 C 
BRANCH   7   8
ATOM      8  O   UNL A   1      31.212  22.252  25.156  1.00  0.00    -0.459 OA
BRANCH   8   9
ATOM      9  C   UNL A   1      30.893  23.200  26.072  1.00  0.00     0.368 C 
ATOM     10  O   UNL A   1      30.270  22.945  27.103  1.00  0.00    -0.245 OA
BRANCH   9  11
ATOM     11  C   UNL A   1      31.319  24.665  25.708  1.00  0.00     0.204 C 
ATOM     12  C   UNL A   1      29.890  26.128  24.357  1.00  0.00     0.232 C 
ATOM     13  N   UNL A   1      30.236  25.704  25.736  1.00  0.00    -0.325 N 
ATOM     14  C   UNL A   1      30.689  25.249  23.410  1.00  0.00     0.161 C 
ATOM     15  H   UNL A   1      29.407  25.314  26.185  1.00  0.00     0.347 HD
ATOM     16  H   UNL A   1      30.568  26.516  26.258  1.00  0.00     0.347 HD
ATOM     17  C   UNL A   1      31.788  24.620  24.254  1.00  0.00     0.170 C 
ATOM     18  C   UNL A   1      31.441  25.931  22.311  1.00  0.00     0.239 C 
ATOM     19  C   UNL A   1      32.355  25.006  26.783  1.00  0.00     0.093 C 
ATOM     20  C   UNL A   1      33.021  25.380  23.860  1.00  0.00     0.240 C 
ATOM     21  N   UNL A   1      32.754  26.014  22.676  1.00  0.00    -0.285 N 
ATOM     22  O   UNL A   1      30.945  26.327  21.267  1.00  0.00    -0.274 OA
ATOM     23  O   UNL A   1      34.101  25.332  24.429  1.00  0.00    -0.274 OA
ATOM     24  C   UNL A   1      33.748  26.668  21.870  1.00  0.00     0.156 C 
BRANCH  12  25
ATOM     25  C   UNL A   1      29.898  27.626  24.076  1.00  0.00     0.056 A 
ATOM     26  C   UNL A   1      28.829  29.720  23.395  1.00  0.00     0.161 A 
ATOM     27  C   UNL A   1      29.915  30.451  23.871  1.00  0.00     0.050 A 
ATOM     28  C   UNL A   1      28.851  28.316  23.451  1.00  0.00     0.166 A 
ATOM     29  C   UNL A   1      31.001  29.788  24.435  1.00  0.00     0.005 A 
ATOM     30  C   UNL A   1      30.984  28.393  24.548  1.00  0.00     0.014 A 
BRANCH  26  31
ATOM     31  O   UNL A   1      27.820  30.439  22.811  1.00  0.00    -0.493 OA
ATOM     32  C   UNL A   1      27.605  31.733  23.375  1.00  0.00     0.278 C 
ENDBRANCH  26  31
BRANCH  28  33
ATOM     33  O   UNL A   1      27.856  27.592  22.857  1.00  0.00    -0.504 OA
ATOM     34  H   UNL A   1      27.768  26.678  23.040  1.00  0.00     0.293 HD
ENDBRANCH  28  33
ENDBRANCH  12  25
ENDBRANCH   9  11
ENDBRANCH   8   9
ENDBRANCH   7   8
ENDBRANCH   6   7
ENDBRANCH   5   6
ENDBRANCH   4   5
ENDBRANCH   3   4
ENDBRANCH   2   3
ENDBRANCH   1   2
BRANCH   1  35
ATOM     35  C   UNL A   1      38.676  23.466  26.467  1.00  0.00     0.188 C 
BRANCH  35  36
ATOM     36  O   UNL A   1      39.784  22.668  26.056  1.00  0.00    -0.376 OA
BRANCH  36  37
ATOM     37  C   UNL A   1      40.587  22.041  27.043  1.00  0.00     0.202 C 
BRANCH  37  38
ATOM     38  C   UNL A   1      41.321  22.950  28.044  1.00  0.00     0.261 C 
BRANCH  38  39
ATOM     39  O   UNL A   1      42.413  23.722  27.533  1.00  0.00    -0.460 OA
BRANCH  39  40
ATOM     40  C   UNL A   1      42.122  24.869  26.883  1.00  0.00     0.338 C 
ATOM     41  O   UNL A   1      41.969  25.008  25.681  1.00  0.00    -0.246 OA
BRANCH  40  42
ATOM     42  C   UNL A   1      41.808  25.894  27.903  1.00  0.00     0.060 A 
ATOM     43  C   UNL A   1      42.760  26.885  28.180  1.00  0.00     0.016 A 
ATOM     44  C   UNL A   1      40.564  25.912  28.541  1.00  0.00     0.016 A 
ATOM     45  C   UNL A   1      42.477  27.888  29.107  1.00  0.00     0.010 A 
ATOM     46  C   UNL A   1      40.296  26.895  29.498  1.00  0.00     0.010 A 
ATOM     47  C   UNL A   1      41.264  27.869  29.805  1.00  0.00    -0.014 A 
BRANCH  47  48
ATOM     48  C   UNL A   1      41.109  28.711  31.016  1.00  0.00     0.031 A 
ATOM     49  C   UNL A   1      40.064  29.794  30.981  1.00  0.00     0.074 A 
ATOM     50  C   UNL A   1      41.845  28.506  32.123  1.00  0.00     0.049 A 
ATOM     51  N   UNL A   1      39.775  30.699  31.876  1.00  0.00    -0.248 NA
ATOM     52  C   UNL A   1      39.231  29.861  29.767  1.00  0.00     0.031 C 
ATOM     53  C   UNL A   1      42.852  27.458  32.291  1.00  0.00     0.029 A 
ATOM     54  N   UNL A   1      41.862  29.183  33.318  1.00  0.00    -0.354 N 
ATOM     55  C   UNL A   1      38.723  31.435  31.341  1.00  0.00     0.074 A 
ATOM     56  C   UNL A   1      38.452  30.899  30.026  1.00  0.00     0.031 C 
ATOM     57  C   UNL A   1      43.407  27.580  33.511  1.00  0.00     0.029 A 
ATOM     58  C   UNL A   1      42.818  28.729  34.197  1.00  0.00     0.049 A 
ATOM     59  H   UNL A   1      41.247  29.923  33.526  1.00  0.00     0.167 HD
ATOM     60  C   UNL A   1      38.033  32.453  31.903  1.00  0.00     0.037 A 
ATOM     61  C   UNL A   1      43.191  29.212  35.400  1.00  0.00     0.037 A 
ATOM     62  C   UNL A   1      38.317  32.991  33.206  1.00  0.00     0.049 A 
ATOM     63  C   UNL A   1      42.470  30.415  35.965  1.00  0.00     0.074 A 
ATOM     64  C   UNL A   1      37.694  34.040  33.858  1.00  0.00     0.029 A 
ATOM     65  N   UNL A   1      39.307  32.521  34.056  1.00  0.00    -0.354 N 
ATOM     66  N   UNL A   1      41.474  31.099  35.451  1.00  0.00    -0.248 NA
ATOM     67  C   UNL A   1      42.920  30.911  37.274  1.00  0.00     0.031 C 
ATOM     68  C   UNL A   1      38.337  34.234  35.083  1.00  0.00     0.029 A 
ATOM     69  C   UNL A   1      39.321  33.267  35.221  1.00  0.00     0.049 A 
ATOM     70  H   UNL A   1      39.910  31.768  33.861  1.00  0.00     0.167 HD
ATOM     71  C   UNL A   1      41.157  32.076  36.390  1.00  0.00     0.074 A 
ATOM     72  C   UNL A   1      42.056  31.888  37.508  1.00  0.00     0.031 C 
ATOM     73  C   UNL A   1      40.208  33.046  36.335  1.00  0.00     0.037 A 
BRANCH  60  74
ATOM     74  C   UNL A   1      36.909  33.057  31.110  1.00  0.00     0.058 A 
ATOM     75  C   UNL A   1      37.155  33.946  30.051  1.00  0.00     0.135 A 
ATOM     76  C   UNL A   1      35.576  32.701  31.371  1.00  0.00     0.135 A 
ATOM     77  F   UNL A   1      38.408  34.342  29.776  1.00  0.00    -0.206 F 
ATOM     78  C   UNL A   1      36.119  34.466  29.283  1.00  0.00     0.059 A 
ATOM     79  C   UNL A   1      34.527  33.187  30.598  1.00  0.00     0.059 A 
ATOM     80  F   UNL A   1      35.286  31.865  32.379  1.00  0.00    -0.206 F 
ATOM     81  C   UNL A   1      34.808  34.073  29.558  1.00  0.00     0.060 A 
BRANCH  81  82
ATOM     82  S   UNL A   1      33.482  34.722  28.521  1.00  0.00     0.124 S 
ATOM     83  O   UNL A   1      33.060  33.523  27.802  1.00  0.00    -0.237 OA
ATOM     84  O   UNL A   1      32.538  35.233  29.509  1.00  0.00    -0.237 OA
ATOM     85  O   UNL A   1      34.148  35.735  27.709  1.00  0.00    -0.744 OA
ENDBRANCH  81  82
ENDBRANCH  60  74
BRANCH  61  86
ATOM     86  C   UNL A   1      44.325  28.597  36.148  1.00  0.00     0.058 A 
ATOM     87  C   UNL A   1      45.642  29.058  35.992  1.00  0.00     0.135 A 
ATOM     88  C   UNL A   1      44.121  27.491  36.988  1.00  0.00     0.135 A 
ATOM     89  F   UNL A   1      45.895  30.106  35.193  1.00  0.00    -0.206 F 
ATOM     90  C   UNL A   1      46.717  28.421  36.606  1.00  0.00     0.059 A 
ATOM     91  C   UNL A   1      45.176  26.858  37.640  1.00  0.00     0.059 A 
ATOM     92  F   UNL A   1      42.882  27.011  37.183  1.00  0.00    -0.206 F 
ATOM     93  C   UNL A   1      46.473  27.317  37.425  1.00  0.00     0.060 A 
BRANCH  93  94
ATOM     94  S   UNL A   1      47.874  26.493  38.211  1.00  0.00     0.124 S 
ATOM     95  O   UNL A   1      48.937  26.731  37.241  1.00  0.00    -0.237 OA
ATOM     96  O   UNL A   1      47.987  27.218  39.473  1.00  0.00    -0.237 OA
ATOM     97  O   UNL A   1      47.426  25.109  38.330  1.00  0.00    -0.744 OA
ENDBRANCH  93  94
ENDBRANCH  61  86
BRANCH  73  98
ATOM     98  C   UNL A   1      40.049  33.938  37.536  1.00  0.00     0.058 A 
ATOM     99  C   UNL A   1      40.730  35.161  37.650  1.00  0.00     0.135 A 
ATOM    100  C   UNL A   1      39.151  33.592  38.561  1.00  0.00     0.135 A 
ATOM    101  F   UNL A   1      41.601  35.539  36.702  1.00  0.00    -0.206 F 
ATOM    102  C   UNL A   1      40.548  35.995  38.749  1.00  0.00     0.059 A 
ATOM    103  C   UNL A   1      38.927  34.427  39.651  1.00  0.00     0.059 A 
ATOM    104  F   UNL A   1      38.462  32.442  38.496  1.00  0.00    -0.206 F 
ATOM    105  C   UNL A   1      39.641  35.620  39.743  1.00  0.00     0.060 A 
BRANCH 105 106
ATOM    106  S   UNL A   1      39.389  36.730  41.144  1.00  0.00     0.124 S 
ATOM    107  O   UNL A   1      38.401  35.995  41.927  1.00  0.00    -0.237 OA
ATOM    108  O   UNL A   1      40.725  36.811  41.723  1.00  0.00    -0.237 OA
ATOM    109  O   UNL A   1      38.905  37.959  40.521  1.00  0.00    -0.744 OA
ENDBRANCH 105 106
ENDBRANCH  73  98
ENDBRANCH  47  48
ENDBRANCH  40  42
ENDBRANCH  39  40
ENDBRANCH  38  39
ENDBRANCH  37  38
ENDBRANCH  36  37
ENDBRANCH  35  36
ENDBRANCH   1  35
TORSDOF 26
ENDMDL
