MODEL 1
REMARK VINA RESULT:      -8.5      0.000      0.000
REMARK SMILES CC1=NN(c2ccc(C(=O)OCCOCCOCCOCCOC(=O)c3ccc(-c4c5nc(c(-c6c(F)cc(S(=O)(=O)[O-])cc6F)c6ccc([nH]6)c(-c6c(F)cc(S(=O)(=O)[O-])cc6F)c6nc(c(-c7c(F)cc(S(=O)(=O)[O-])cc7F)c7ccc4[nH]7)C=C6)C=C5)cc3)cc2)C(=O)/C1=C\c1ccc(N2CCCC2)cc1
REMARK SMILES IDX 17 1 16 2 15 3 14 4 13 5 12 6 11 7 9 8 10 9 8 10 5 11 6 12
REMARK SMILES IDX 93 13 7 14 92 15 4 16 1 17 2 18 3 19 96 20 94 21 97 22 95 23
REMARK SMILES IDX 98 24 99 25 108 26 100 27 107 28 101 29 102 30 103 31 106 32
REMARK SMILES IDX 104 33 105 34 18 35 19 36 20 37 21 38 22 39 23 40 24 41
REMARK SMILES IDX 25 42 26 43 27 44 91 45 28 46 90 47 29 48 30 49 31 50 84 51
REMARK SMILES IDX 32 52 89 53 83 54 85 55 33 56 88 57 82 58 81 59 34 61 68 62
REMARK SMILES IDX 47 63 67 64 48 65 51 66 66 67 86 68 49 69 50 70 65 72 87 73
REMARK SMILES IDX 52 74 35 75 36 76 45 77 37 78 38 79 44 80 46 81 39 82 40 83
REMARK SMILES IDX 41 84 42 85 43 86 69 87 70 88 79 89 71 90 72 91 78 92 80 93
REMARK SMILES IDX 73 94 74 95 75 96 76 97 77 98 53 99 54 100 63 101 55 102
REMARK SMILES IDX 56 103 62 104 64 105 57 106 58 107 59 108 60 109 61 110
REMARK H PARENT 85 60 51 71
REMARK Flexibility Score: inf
ROOT
ATOM      1  O   UNL A   1      46.162  41.556  23.010  1.00  0.00    -0.377 OA
ENDROOT
BRANCH   1   2
ATOM      2  C   UNL A   1      46.671  41.932  21.741  1.00  0.00     0.188 C 
BRANCH   2   3
ATOM      3  C   UNL A   1      48.197  41.897  21.517  1.00  0.00     0.188 C 
BRANCH   3   4
ATOM      4  O   UNL A   1      48.666  42.849  20.576  1.00  0.00    -0.376 OA
BRANCH   4   5
ATOM      5  C   UNL A   1      49.817  43.613  20.887  1.00  0.00     0.202 C 
BRANCH   5   6
ATOM      6  C   UNL A   1      51.001  43.579  19.913  1.00  0.00     0.261 C 
BRANCH   6   7
ATOM      7  O   UNL A   1      50.932  44.498  18.820  1.00  0.00    -0.460 OA
BRANCH   7   8
ATOM      8  C   UNL A   1      50.535  45.760  19.088  1.00  0.00     0.338 C 
ATOM      9  O   UNL A   1      51.242  46.730  19.294  1.00  0.00    -0.246 OA
BRANCH   8  10
ATOM     10  C   UNL A   1      49.070  45.809  18.882  1.00  0.00     0.060 A 
ATOM     11  C   UNL A   1      46.299  45.832  18.570  1.00  0.00     0.069 A 
ATOM     12  C   UNL A   1      46.876  46.538  19.629  1.00  0.00     0.029 A 
ATOM     13  C   UNL A   1      47.121  45.222  17.611  1.00  0.00     0.029 A 
ATOM     14  C   UNL A   1      48.263  46.488  19.809  1.00  0.00     0.018 A 
ATOM     15  C   UNL A   1      48.503  45.226  17.751  1.00  0.00     0.018 A 
BRANCH  11  16
ATOM     16  N   UNL A   1      44.921  45.561  18.555  1.00  0.00    -0.196 N 
ATOM     17  C   UNL A   1      41.577  46.313  17.471  1.00  0.00     0.069 C 
ATOM     18  C   UNL A   1      42.844  45.862  18.116  1.00  0.00     0.071 C 
ATOM     19  N   UNL A   1      44.031  46.327  17.813  1.00  0.00    -0.169 NA
ATOM     20  C   UNL A   1      42.894  44.856  19.194  1.00  0.00     0.065 C 
ATOM     21  C   UNL A   1      44.334  44.606  19.393  1.00  0.00     0.280 C 
ATOM     22  C   UNL A   1      41.878  44.396  19.938  1.00  0.00     0.024 C 
ATOM     23  O   UNL A   1      44.845  43.805  20.156  1.00  0.00    -0.267 OA
BRANCH  22  24
ATOM     24  C   UNL A   1      42.096  43.633  21.173  1.00  0.00    -0.025 A 
ATOM     25  C   UNL A   1      42.409  44.266  22.373  1.00  0.00     0.010 A 
ATOM     26  C   UNL A   1      41.930  42.243  21.167  1.00  0.00     0.010 A 
ATOM     27  C   UNL A   1      42.534  43.514  23.552  1.00  0.00     0.026 A 
ATOM     28  C   UNL A   1      42.068  41.504  22.347  1.00  0.00     0.026 A 
ATOM     29  C   UNL A   1      42.374  42.120  23.564  1.00  0.00     0.037 A 
BRANCH  29  30
ATOM     30  N   UNL A   1      42.477  41.411  24.742  1.00  0.00    -0.372 N 
ATOM     31  C   UNL A   1      41.362  40.727  25.387  1.00  0.00     0.116 C 
ATOM     32  C   UNL A   1      43.511  41.790  25.709  1.00  0.00     0.116 C 
ATOM     33  C   UNL A   1      41.561  41.024  26.869  1.00  0.00     0.023 C 
ATOM     34  C   UNL A   1      43.074  41.102  27.003  1.00  0.00     0.023 C 
ENDBRANCH  29  30
ENDBRANCH  22  24
ENDBRANCH  11  16
ENDBRANCH   8  10
ENDBRANCH   7   8
ENDBRANCH   6   7
ENDBRANCH   5   6
ENDBRANCH   4   5
ENDBRANCH   3   4
ENDBRANCH   2   3
ENDBRANCH   1   2
BRANCH   1  35
ATOM     35  C   UNL A   1      47.046  41.075  24.020  1.00  0.00     0.188 C 
BRANCH  35  36
ATOM     36  C   UNL A   1      46.886  39.670  24.649  1.00  0.00     0.188 C 
BRANCH  36  37
ATOM     37  O   UNL A   1      46.150  39.636  25.862  1.00  0.00    -0.376 OA
BRANCH  37  38
ATOM     38  C   UNL A   1      46.839  39.985  27.048  1.00  0.00     0.202 C 
BRANCH  38  39
ATOM     39  C   UNL A   1      47.904  38.989  27.525  1.00  0.00     0.261 C 
BRANCH  39  40
ATOM     40  O   UNL A   1      47.477  37.625  27.644  1.00  0.00    -0.460 OA
BRANCH  40  41
ATOM     41  C   UNL A   1      47.680  37.012  28.832  1.00  0.00     0.338 C 
ATOM     42  O   UNL A   1      47.875  37.545  29.909  1.00  0.00    -0.246 OA
BRANCH  41  43
ATOM     43  C   UNL A   1      47.438  35.568  28.632  1.00  0.00     0.060 A 
ATOM     44  C   UNL A   1      47.052  35.104  27.368  1.00  0.00     0.016 A 
ATOM     45  C   UNL A   1      47.615  34.676  29.692  1.00  0.00     0.016 A 
ATOM     46  C   UNL A   1      46.810  33.744  27.170  1.00  0.00     0.010 A 
ATOM     47  C   UNL A   1      47.351  33.319  29.498  1.00  0.00     0.010 A 
ATOM     48  C   UNL A   1      46.917  32.851  28.246  1.00  0.00    -0.014 A 
BRANCH  48  49
ATOM     49  C   UNL A   1      46.382  31.473  28.123  1.00  0.00     0.031 A 
ATOM     50  C   UNL A   1      47.314  30.394  27.639  1.00  0.00     0.074 A 
ATOM     51  C   UNL A   1      45.109  31.180  28.442  1.00  0.00     0.049 A 
ATOM     52  N   UNL A   1      47.068  29.137  27.380  1.00  0.00    -0.248 NA
ATOM     53  C   UNL A   1      48.715  30.791  27.415  1.00  0.00     0.031 C 
ATOM     54  C   UNL A   1      44.126  32.127  28.965  1.00  0.00     0.029 A 
ATOM     55  N   UNL A   1      44.422  29.993  28.363  1.00  0.00    -0.354 N 
ATOM     56  C   UNL A   1      48.279  28.593  26.968  1.00  0.00     0.074 A 
ATOM     57  C   UNL A   1      49.250  29.664  26.970  1.00  0.00     0.031 C 
ATOM     58  C   UNL A   1      42.958  31.485  29.151  1.00  0.00     0.029 A 
ATOM     59  C   UNL A   1      43.100  30.093  28.726  1.00  0.00     0.049 A 
ATOM     60  H   UNL A   1      44.838  29.149  28.074  1.00  0.00     0.167 HD
ATOM     61  C   UNL A   1      48.560  27.313  26.630  1.00  0.00     0.037 A 
ATOM     62  C   UNL A   1      42.116  29.171  28.693  1.00  0.00     0.037 A 
ATOM     63  C   UNL A   1      47.587  26.252  26.619  1.00  0.00     0.049 A 
ATOM     64  C   UNL A   1      42.433  27.773  28.217  1.00  0.00     0.074 A 
ATOM     65  C   UNL A   1      47.767  24.922  26.282  1.00  0.00     0.029 A 
ATOM     66  N   UNL A   1      46.251  26.401  26.960  1.00  0.00    -0.354 N 
ATOM     67  N   UNL A   1      43.583  27.269  27.835  1.00  0.00    -0.248 NA
ATOM     68  C   UNL A   1      41.315  26.818  28.167  1.00  0.00     0.031 C 
ATOM     69  C   UNL A   1      46.530  24.279  26.371  1.00  0.00     0.029 A 
ATOM     70  C   UNL A   1      45.590  25.192  26.822  1.00  0.00     0.049 A 
ATOM     71  H   UNL A   1      45.832  27.242  27.255  1.00  0.00     0.167 HD
ATOM     72  C   UNL A   1      43.335  25.930  27.542  1.00  0.00     0.074 A 
ATOM     73  C   UNL A   1      41.928  25.702  27.797  1.00  0.00     0.031 C 
ATOM     74  C   UNL A   1      44.192  24.976  27.102  1.00  0.00     0.037 A 
BRANCH  61  75
ATOM     75  C   UNL A   1      49.974  26.991  26.231  1.00  0.00     0.058 A 
ATOM     76  C   UNL A   1      50.409  27.114  24.901  1.00  0.00     0.135 A 
ATOM     77  C   UNL A   1      50.915  26.595  27.194  1.00  0.00     0.135 A 
ATOM     78  F   UNL A   1      49.544  27.466  23.936  1.00  0.00    -0.206 F 
ATOM     79  C   UNL A   1      51.723  26.840  24.538  1.00  0.00     0.059 A 
ATOM     80  C   UNL A   1      52.242  26.343  26.859  1.00  0.00     0.059 A 
ATOM     81  F   UNL A   1      50.551  26.455  28.478  1.00  0.00    -0.206 F 
ATOM     82  C   UNL A   1      52.633  26.460  25.526  1.00  0.00     0.060 A 
BRANCH  82  83
ATOM     83  S   UNL A   1      54.341  26.130  25.040  1.00  0.00     0.124 S 
ATOM     84  O   UNL A   1      54.445  26.895  23.801  1.00  0.00    -0.237 OA
ATOM     85  O   UNL A   1      55.094  26.657  26.174  1.00  0.00    -0.237 OA
ATOM     86  O   UNL A   1      54.378  24.680  24.885  1.00  0.00    -0.744 OA
ENDBRANCH  82  83
ENDBRANCH  61  75
BRANCH  62  87
ATOM     87  C   UNL A   1      40.729  29.528  29.105  1.00  0.00     0.058 A 
ATOM     88  C   UNL A   1      40.379  29.628  30.460  1.00  0.00     0.135 A 
ATOM     89  C   UNL A   1      39.715  29.730  28.154  1.00  0.00     0.135 A 
ATOM     90  F   UNL A   1      41.307  29.431  31.409  1.00  0.00    -0.206 F 
ATOM     91  C   UNL A   1      39.071  29.885  30.860  1.00  0.00     0.059 A 
ATOM     92  C   UNL A   1      38.406  30.020  28.530  1.00  0.00     0.059 A 
ATOM     93  F   UNL A   1      39.995  29.653  26.845  1.00  0.00    -0.206 F 
ATOM     94  C   UNL A   1      38.090  30.078  29.886  1.00  0.00     0.060 A 
BRANCH  94  95
ATOM     95  S   UNL A   1      36.399  30.423  30.416  1.00  0.00     0.124 S 
ATOM     96  O   UNL A   1      36.366  31.880  30.365  1.00  0.00    -0.237 OA
ATOM     97  O   UNL A   1      35.613  29.730  29.401  1.00  0.00    -0.237 OA
ATOM     98  O   UNL A   1      36.340  29.837  31.753  1.00  0.00    -0.744 OA
ENDBRANCH  94  95
ENDBRANCH  62  87
BRANCH  74  99
ATOM     99  C   UNL A   1      43.654  23.580  26.923  1.00  0.00     0.058 A 
ATOM    100  C   UNL A   1      43.414  22.729  28.011  1.00  0.00     0.135 A 
ATOM    101  C   UNL A   1      43.317  23.113  25.641  1.00  0.00     0.135 A 
ATOM    102  F   UNL A   1      43.720  23.124  29.258  1.00  0.00    -0.206 F 
ATOM    103  C   UNL A   1      42.885  21.455  27.835  1.00  0.00     0.059 A 
ATOM    104  C   UNL A   1      42.757  21.854  25.444  1.00  0.00     0.059 A 
ATOM    105  F   UNL A   1      43.512  23.890  24.564  1.00  0.00    -0.206 F 
ATOM    106  C   UNL A   1      42.556  21.027  26.547  1.00  0.00     0.060 A 
BRANCH 106 107
ATOM    107  S   UNL A   1      41.836  19.385  26.338  1.00  0.00     0.124 S 
ATOM    108  O   UNL A   1      42.224  18.732  27.585  1.00  0.00    -0.237 OA
ATOM    109  O   UNL A   1      40.415  19.682  26.194  1.00  0.00    -0.237 OA
ATOM    110  O   UNL A   1      42.489  18.877  25.135  1.00  0.00    -0.744 OA
ENDBRANCH 106 107
ENDBRANCH  74  99
ENDBRANCH  48  49
ENDBRANCH  41  43
ENDBRANCH  40  41
ENDBRANCH  39  40
ENDBRANCH  38  39
ENDBRANCH  37  38
ENDBRANCH  36  37
ENDBRANCH  35  36
ENDBRANCH   1  35
TORSDOF 26
ENDMDL
MODEL 2
REMARK VINA RESULT:      -8.2      2.204      5.524
REMARK SMILES CC1=NN(c2ccc(C(=O)OCCOCCOCCOCCOC(=O)c3ccc(-c4c5nc(c(-c6c(F)cc(S(=O)(=O)[O-])cc6F)c6ccc([nH]6)c(-c6c(F)cc(S(=O)(=O)[O-])cc6F)c6nc(c(-c7c(F)cc(S(=O)(=O)[O-])cc7F)c7ccc4[nH]7)C=C6)C=C5)cc3)cc2)C(=O)/C1=C\c1ccc(N2CCCC2)cc1
REMARK SMILES IDX 17 1 16 2 15 3 14 4 13 5 12 6 11 7 9 8 10 9 8 10 5 11 6 12
REMARK SMILES IDX 93 13 7 14 92 15 4 16 1 17 2 18 3 19 96 20 94 21 97 22 95 23
REMARK SMILES IDX 98 24 99 25 108 26 100 27 107 28 101 29 102 30 103 31 106 32
REMARK SMILES IDX 104 33 105 34 18 35 19 36 20 37 21 38 22 39 23 40 24 41
REMARK SMILES IDX 25 42 26 43 27 44 91 45 28 46 90 47 29 48 30 49 31 50 84 51
REMARK SMILES IDX 32 52 89 53 83 54 85 55 33 56 88 57 82 58 81 59 34 61 68 62
REMARK SMILES IDX 47 63 67 64 48 65 51 66 66 67 86 68 49 69 50 70 65 72 87 73
REMARK SMILES IDX 52 74 35 75 36 76 45 77 37 78 38 79 44 80 46 81 39 82 40 83
REMARK SMILES IDX 41 84 42 85 43 86 69 87 70 88 79 89 71 90 72 91 78 92 80 93
REMARK SMILES IDX 73 94 74 95 75 96 76 97 77 98 53 99 54 100 63 101 55 102
REMARK SMILES IDX 56 103 62 104 64 105 57 106 58 107 59 108 60 109 61 110
REMARK H PARENT 85 60 51 71
REMARK Flexibility Score: inf
ROOT
ATOM      1  O   UNL A   1      49.435  40.892  31.849  1.00  0.00    -0.377 OA
ENDROOT
BRANCH   1   2
ATOM      2  C   UNL A   1      50.335  40.138  32.645  1.00  0.00     0.188 C 
BRANCH   2   3
ATOM      3  C   UNL A   1      51.556  39.486  31.963  1.00  0.00     0.188 C 
BRANCH   3   4
ATOM      4  O   UNL A   1      51.271  38.896  30.706  1.00  0.00    -0.376 OA
BRANCH   4   5
ATOM      5  C   UNL A   1      51.623  37.542  30.487  1.00  0.00     0.202 C 
BRANCH   5   6
ATOM      6  C   UNL A   1      51.453  36.962  29.078  1.00  0.00     0.261 C 
BRANCH   6   7
ATOM      7  O   UNL A   1      50.883  37.844  28.108  1.00  0.00    -0.460 OA
BRANCH   7   8
ATOM      8  C   UNL A   1      50.307  37.290  27.020  1.00  0.00     0.338 C 
ATOM      9  O   UNL A   1      50.553  36.206  26.523  1.00  0.00    -0.246 OA
BRANCH   8  10
ATOM     10  C   UNL A   1      49.161  38.152  26.648  1.00  0.00     0.060 A 
ATOM     11  C   UNL A   1      46.959  39.747  26.034  1.00  0.00     0.069 A 
ATOM     12  C   UNL A   1      47.906  40.209  26.952  1.00  0.00     0.029 A 
ATOM     13  C   UNL A   1      47.186  38.547  25.344  1.00  0.00     0.029 A 
ATOM     14  C   UNL A   1      48.987  39.387  27.292  1.00  0.00     0.018 A 
ATOM     15  C   UNL A   1      48.293  37.759  25.632  1.00  0.00     0.018 A 
BRANCH  11  16
ATOM     16  N   UNL A   1      45.701  40.363  25.932  1.00  0.00    -0.196 N 
ATOM     17  C   UNL A   1      42.135  40.330  26.387  1.00  0.00     0.069 C 
ATOM     18  C   UNL A   1      43.566  40.542  26.024  1.00  0.00     0.071 C 
ATOM     19  N   UNL A   1      44.540  39.736  26.366  1.00  0.00    -0.169 NA
ATOM     20  C   UNL A   1      44.039  41.678  25.209  1.00  0.00     0.065 C 
ATOM     21  C   UNL A   1      45.510  41.573  25.257  1.00  0.00     0.280 C 
ATOM     22  C   UNL A   1      43.306  42.515  24.461  1.00  0.00     0.024 C 
ATOM     23  O   UNL A   1      46.319  42.337  24.760  1.00  0.00    -0.267 OA
BRANCH  22  24
ATOM     24  C   UNL A   1      43.912  43.405  23.462  1.00  0.00    -0.025 A 
ATOM     25  C   UNL A   1      44.017  43.032  22.125  1.00  0.00     0.010 A 
ATOM     26  C   UNL A   1      44.343  44.681  23.842  1.00  0.00     0.010 A 
ATOM     27  C   UNL A   1      44.529  43.937  21.182  1.00  0.00     0.026 A 
ATOM     28  C   UNL A   1      44.863  45.570  22.894  1.00  0.00     0.026 A 
ATOM     29  C   UNL A   1      44.969  45.219  21.546  1.00  0.00     0.037 A 
BRANCH  29  30
ATOM     30  N   UNL A   1      45.443  46.095  20.593  1.00  0.00    -0.372 N 
ATOM     31  C   UNL A   1      45.539  47.538  20.781  1.00  0.00     0.116 C 
ATOM     32  C   UNL A   1      45.309  45.743  19.177  1.00  0.00     0.116 C 
ATOM     33  C   UNL A   1      45.079  48.111  19.446  1.00  0.00     0.023 C 
ATOM     34  C   UNL A   1      45.545  47.066  18.445  1.00  0.00     0.023 C 
ENDBRANCH  29  30
ENDBRANCH  22  24
ENDBRANCH  11  16
ENDBRANCH   8  10
ENDBRANCH   7   8
ENDBRANCH   6   7
ENDBRANCH   5   6
ENDBRANCH   4   5
ENDBRANCH   3   4
ENDBRANCH   2   3
ENDBRANCH   1   2
BRANCH   1  35
ATOM     35  C   UNL A   1      48.130  40.390  31.576  1.00  0.00     0.188 C 
BRANCH  35  36
ATOM     36  C   UNL A   1      47.224  39.810  32.690  1.00  0.00     0.188 C 
BRANCH  36  37
ATOM     37  O   UNL A   1      47.684  38.597  33.266  1.00  0.00    -0.376 OA
BRANCH  37  38
ATOM     38  C   UNL A   1      47.199  37.390  32.707  1.00  0.00     0.202 C 
BRANCH  38  39
ATOM     39  C   UNL A   1      45.882  37.492  31.926  1.00  0.00     0.261 C 
BRANCH  39  40
ATOM     40  O   UNL A   1      45.983  37.331  30.504  1.00  0.00    -0.460 OA
BRANCH  40  41
ATOM     41  C   UNL A   1      47.155  36.871  30.013  1.00  0.00     0.338 C 
ATOM     42  O   UNL A   1      48.215  37.467  29.964  1.00  0.00    -0.246 OA
BRANCH  41  43
ATOM     43  C   UNL A   1      46.974  35.436  29.709  1.00  0.00     0.060 A 
ATOM     44  C   UNL A   1      46.690  35.042  28.395  1.00  0.00     0.016 A 
ATOM     45  C   UNL A   1      47.108  34.484  30.722  1.00  0.00     0.016 A 
ATOM     46  C   UNL A   1      46.506  33.691  28.098  1.00  0.00     0.010 A 
ATOM     47  C   UNL A   1      46.902  33.135  30.427  1.00  0.00     0.010 A 
ATOM     48  C   UNL A   1      46.569  32.736  29.122  1.00  0.00    -0.014 A 
BRANCH  48  49
ATOM     49  C   UNL A   1      46.089  31.353  28.878  1.00  0.00     0.031 A 
ATOM     50  C   UNL A   1      47.109  30.300  28.536  1.00  0.00     0.074 A 
ATOM     51  C   UNL A   1      44.786  31.034  28.968  1.00  0.00     0.049 A 
ATOM     52  N   UNL A   1      46.935  29.047  28.211  1.00  0.00    -0.248 NA
ATOM     53  C   UNL A   1      48.521  30.723  28.565  1.00  0.00     0.031 C 
ATOM     54  C   UNL A   1      43.711  31.953  29.336  1.00  0.00     0.029 A 
ATOM     55  N   UNL A   1      44.145  29.839  28.745  1.00  0.00    -0.354 N 
ATOM     56  C   UNL A   1      48.208  28.531  28.000  1.00  0.00     0.074 A 
ATOM     57  C   UNL A   1      49.145  29.616  28.193  1.00  0.00     0.031 C 
ATOM     58  C   UNL A   1      42.540  31.289  29.304  1.00  0.00     0.029 A 
ATOM     59  C   UNL A   1      42.778  29.911  28.879  1.00  0.00     0.049 A 
ATOM     60  H   UNL A   1      44.620  29.008  28.513  1.00  0.00     0.167 HD
ATOM     61  C   UNL A   1      48.567  27.264  27.686  1.00  0.00     0.037 A 
ATOM     62  C   UNL A   1      41.832  28.976  28.657  1.00  0.00     0.037 A 
ATOM     63  C   UNL A   1      47.630  26.190  27.485  1.00  0.00     0.049 A 
ATOM     64  C   UNL A   1      42.251  27.595  28.210  1.00  0.00     0.074 A 
ATOM     65  C   UNL A   1      47.891  24.872  27.153  1.00  0.00     0.029 A 
ATOM     66  N   UNL A   1      46.253  26.311  27.595  1.00  0.00    -0.354 N 
ATOM     67  N   UNL A   1      43.460  27.117  28.020  1.00  0.00    -0.248 NA
ATOM     68  C   UNL A   1      41.177  26.625  27.949  1.00  0.00     0.031 C 
ATOM     69  C   UNL A   1      46.668  24.209  27.015  1.00  0.00     0.029 A 
ATOM     70  C   UNL A   1      45.648  25.096  27.319  1.00  0.00     0.049 A 
ATOM     71  H   UNL A   1      45.775  27.138  27.833  1.00  0.00     0.167 HD
ATOM     72  C   UNL A   1      43.290  25.783  27.658  1.00  0.00     0.074 A 
ATOM     73  C   UNL A   1      41.865  25.529  27.663  1.00  0.00     0.031 C 
ATOM     74  C   UNL A   1      44.227  24.853  27.351  1.00  0.00     0.037 A 
BRANCH  61  75
ATOM     75  C   UNL A   1      50.034  26.973  27.528  1.00  0.00     0.058 A 
ATOM     76  C   UNL A   1      50.831  26.598  28.621  1.00  0.00     0.135 A 
ATOM     77  C   UNL A   1      50.641  27.029  26.264  1.00  0.00     0.135 A 
ATOM     78  F   UNL A   1      50.307  26.552  29.857  1.00  0.00    -0.206 F 
ATOM     79  C   UNL A   1      52.182  26.305  28.470  1.00  0.00     0.059 A 
ATOM     80  C   UNL A   1      51.984  26.711  26.083  1.00  0.00     0.059 A 
ATOM     81  F   UNL A   1      49.926  27.388  25.186  1.00  0.00    -0.206 F 
ATOM     82  C   UNL A   1      52.748  26.360  27.195  1.00  0.00     0.060 A 
BRANCH  82  83
ATOM     83  S   UNL A   1      54.498  25.953  27.013  1.00  0.00     0.124 S 
ATOM     84  O   UNL A   1      54.953  25.991  28.400  1.00  0.00    -0.237 OA
ATOM     85  O   UNL A   1      54.447  24.630  26.399  1.00  0.00    -0.237 OA
ATOM     86  O   UNL A   1      55.009  27.019  26.157  1.00  0.00    -0.744 OA
ENDBRANCH  82  83
ENDBRANCH  61  75
BRANCH  62  87
ATOM     87  C   UNL A   1      40.388  29.302  28.833  1.00  0.00     0.058 A 
ATOM     88  C   UNL A   1      39.821  29.410  30.112  1.00  0.00     0.135 A 
ATOM     89  C   UNL A   1      39.538  29.465  27.728  1.00  0.00     0.135 A 
ATOM     90  F   UNL A   1      40.588  29.250  31.201  1.00  0.00    -0.206 F 
ATOM     91  C   UNL A   1      38.460  29.639  30.291  1.00  0.00     0.059 A 
ATOM     92  C   UNL A   1      38.179  29.725  27.882  1.00  0.00     0.059 A 
ATOM     93  F   UNL A   1      40.028  29.378  26.482  1.00  0.00    -0.206 F 
ATOM     94  C   UNL A   1      37.646  29.793  29.168  1.00  0.00     0.060 A 
BRANCH  94  95
ATOM     95  S   UNL A   1      35.883  30.101  29.412  1.00  0.00     0.124 S 
ATOM     96  O   UNL A   1      35.300  29.396  28.277  1.00  0.00    -0.237 OA
ATOM     97  O   UNL A   1      35.648  29.506  30.723  1.00  0.00    -0.237 OA
ATOM     98  O   UNL A   1      35.788  31.558  29.366  1.00  0.00    -0.744 OA
ENDBRANCH  94  95
ENDBRANCH  62  87
BRANCH  74  99
ATOM     99  C   UNL A   1      43.754  23.455  27.050  1.00  0.00     0.058 A 
ATOM    100  C   UNL A   1      43.310  22.586  28.058  1.00  0.00     0.135 A 
ATOM    101  C   UNL A   1      43.687  23.002  25.721  1.00  0.00     0.135 A 
ATOM    102  F   UNL A   1      43.355  22.966  29.345  1.00  0.00    -0.206 F 
ATOM    103  C   UNL A   1      42.844  21.309  27.764  1.00  0.00     0.059 A 
ATOM    104  C   UNL A   1      43.195  21.741  25.401  1.00  0.00     0.059 A 
ATOM    105  F   UNL A   1      44.086  23.796  24.715  1.00  0.00    -0.206 F 
ATOM    106  C   UNL A   1      42.787  20.896  26.431  1.00  0.00     0.060 A 
BRANCH 106 107
ATOM    107  S   UNL A   1      42.144  19.250  26.062  1.00  0.00     0.124 S 
ATOM    108  O   UNL A   1      42.498  18.517  27.274  1.00  0.00    -0.237 OA
ATOM    109  O   UNL A   1      40.720  19.506  25.869  1.00  0.00    -0.237 OA
ATOM    110  O   UNL A   1      42.873  18.861  24.859  1.00  0.00    -0.744 OA
ENDBRANCH 106 107
ENDBRANCH  74  99
ENDBRANCH  48  49
ENDBRANCH  41  43
ENDBRANCH  40  41
ENDBRANCH  39  40
ENDBRANCH  38  39
ENDBRANCH  37  38
ENDBRANCH  36  37
ENDBRANCH  35  36
ENDBRANCH   1  35
TORSDOF 26
ENDMDL
MODEL 3
REMARK VINA RESULT:      -8.1      8.625     16.103
REMARK SMILES CC1=NN(c2ccc(C(=O)OCCOCCOCCOCCOC(=O)c3ccc(-c4c5nc(c(-c6c(F)cc(S(=O)(=O)[O-])cc6F)c6ccc([nH]6)c(-c6c(F)cc(S(=O)(=O)[O-])cc6F)c6nc(c(-c7c(F)cc(S(=O)(=O)[O-])cc7F)c7ccc4[nH]7)C=C6)C=C5)cc3)cc2)C(=O)/C1=C\c1ccc(N2CCCC2)cc1
REMARK SMILES IDX 17 1 16 2 15 3 14 4 13 5 12 6 11 7 9 8 10 9 8 10 5 11 6 12
REMARK SMILES IDX 93 13 7 14 92 15 4 16 1 17 2 18 3 19 96 20 94 21 97 22 95 23
REMARK SMILES IDX 98 24 99 25 108 26 100 27 107 28 101 29 102 30 103 31 106 32
REMARK SMILES IDX 104 33 105 34 18 35 19 36 20 37 21 38 22 39 23 40 24 41
REMARK SMILES IDX 25 42 26 43 27 44 91 45 28 46 90 47 29 48 30 49 31 50 84 51
REMARK SMILES IDX 32 52 89 53 83 54 85 55 33 56 88 57 82 58 81 59 34 61 68 62
REMARK SMILES IDX 47 63 67 64 48 65 51 66 66 67 86 68 49 69 50 70 65 72 87 73
REMARK SMILES IDX 52 74 35 75 36 76 45 77 37 78 38 79 44 80 46 81 39 82 40 83
REMARK SMILES IDX 41 84 42 85 43 86 69 87 70 88 79 89 71 90 72 91 78 92 80 93
REMARK SMILES IDX 73 94 74 95 75 96 76 97 77 98 53 99 54 100 63 101 55 102
REMARK SMILES IDX 56 103 62 104 64 105 57 106 58 107 59 108 60 109 61 110
REMARK H PARENT 85 60 51 71
REMARK Flexibility Score: inf
ROOT
ATOM      1  O   UNL A   1      38.845  32.822  43.204  1.00  0.00    -0.377 OA
ENDROOT
BRANCH   1   2
ATOM      2  C   UNL A   1      38.937  31.934  42.102  1.00  0.00     0.188 C 
BRANCH   2   3
ATOM      3  C   UNL A   1      37.716  31.780  41.172  1.00  0.00     0.188 C 
BRANCH   3   4
ATOM      4  O   UNL A   1      38.035  31.792  39.790  1.00  0.00    -0.376 OA
BRANCH   4   5
ATOM      5  C   UNL A   1      38.279  33.033  39.153  1.00  0.00     0.202 C 
BRANCH   5   6
ATOM      6  C   UNL A   1      38.975  33.027  37.786  1.00  0.00     0.261 C 
BRANCH   6   7
ATOM      7  O   UNL A   1      38.159  33.399  36.673  1.00  0.00    -0.460 OA
BRANCH   7   8
ATOM      8  C   UNL A   1      38.731  34.133  35.695  1.00  0.00     0.338 C 
ATOM      9  O   UNL A   1      39.704  34.860  35.788  1.00  0.00    -0.246 OA
BRANCH   8  10
ATOM     10  C   UNL A   1      38.087  33.738  34.421  1.00  0.00     0.060 A 
ATOM     11  C   UNL A   1      36.948  32.926  32.009  1.00  0.00     0.069 A 
ATOM     12  C   UNL A   1      36.752  32.151  33.156  1.00  0.00     0.029 A 
ATOM     13  C   UNL A   1      37.610  34.158  32.107  1.00  0.00     0.029 A 
ATOM     14  C   UNL A   1      37.362  32.538  34.355  1.00  0.00     0.018 A 
ATOM     15  C   UNL A   1      38.161  34.578  33.311  1.00  0.00     0.018 A 
BRANCH  11  16
ATOM     16  N   UNL A   1      36.665  32.405  30.737  1.00  0.00    -0.196 N 
ATOM     17  C   UNL A   1      34.402  31.829  28.003  1.00  0.00     0.069 C 
ATOM     18  C   UNL A   1      35.484  31.868  29.030  1.00  0.00     0.071 C 
ATOM     19  N   UNL A   1      35.419  32.556  30.143  1.00  0.00    -0.169 NA
ATOM     20  C   UNL A   1      36.741  31.105  28.915  1.00  0.00     0.065 C 
ATOM     21  C   UNL A   1      37.560  31.579  30.047  1.00  0.00     0.280 C 
ATOM     22  C   UNL A   1      37.018  30.095  28.078  1.00  0.00     0.024 C 
ATOM     23  O   UNL A   1      38.703  31.255  30.317  1.00  0.00    -0.267 OA
BRANCH  22  24
ATOM     24  C   UNL A   1      38.182  29.221  28.264  1.00  0.00    -0.025 A 
ATOM     25  C   UNL A   1      38.207  28.243  29.254  1.00  0.00     0.010 A 
ATOM     26  C   UNL A   1      39.274  29.327  27.394  1.00  0.00     0.010 A 
ATOM     27  C   UNL A   1      39.304  27.372  29.355  1.00  0.00     0.026 A 
ATOM     28  C   UNL A   1      40.366  28.460  27.512  1.00  0.00     0.026 A 
ATOM     29  C   UNL A   1      40.407  27.466  28.493  1.00  0.00     0.037 A 
BRANCH  29  30
ATOM     30  N   UNL A   1      41.458  26.580  28.600  1.00  0.00    -0.372 N 
ATOM     31  C   UNL A   1      42.652  26.818  29.403  1.00  0.00     0.116 C 
ATOM     32  C   UNL A   1      41.728  25.663  27.490  1.00  0.00     0.116 C 
ATOM     33  C   UNL A   1      43.789  26.305  28.527  1.00  0.00     0.023 C 
ATOM     34  C   UNL A   1      43.144  25.155  27.769  1.00  0.00     0.023 C 
ENDBRANCH  29  30
ENDBRANCH  22  24
ENDBRANCH  11  16
ENDBRANCH   8  10
ENDBRANCH   7   8
ENDBRANCH   6   7
ENDBRANCH   5   6
ENDBRANCH   4   5
ENDBRANCH   3   4
ENDBRANCH   2   3
ENDBRANCH   1   2
BRANCH   1  35
ATOM     35  C   UNL A   1      39.106  32.352  44.523  1.00  0.00     0.188 C 
BRANCH  35  36
ATOM     36  C   UNL A   1      40.282  32.896  45.371  1.00  0.00     0.188 C 
BRANCH  36  37
ATOM     37  O   UNL A   1      39.980  34.045  46.148  1.00  0.00    -0.376 OA
BRANCH  37  38
ATOM     38  C   UNL A   1      41.069  34.843  46.574  1.00  0.00     0.202 C 
BRANCH  38  39
ATOM     39  C   UNL A   1      41.461  35.998  45.643  1.00  0.00     0.261 C 
BRANCH  39  40
ATOM     40  O   UNL A   1      42.396  35.676  44.604  1.00  0.00    -0.460 OA
BRANCH  40  41
ATOM     41  C   UNL A   1      42.932  36.704  43.911  1.00  0.00     0.338 C 
ATOM     42  O   UNL A   1      43.413  37.726  44.367  1.00  0.00    -0.246 OA
BRANCH  41  43
ATOM     43  C   UNL A   1      43.004  36.293  42.494  1.00  0.00     0.060 A 
ATOM     44  C   UNL A   1      44.248  35.976  41.932  1.00  0.00     0.016 A 
ATOM     45  C   UNL A   1      41.837  36.202  41.731  1.00  0.00     0.016 A 
ATOM     46  C   UNL A   1      44.329  35.597  40.591  1.00  0.00     0.010 A 
ATOM     47  C   UNL A   1      41.924  35.844  40.385  1.00  0.00     0.010 A 
ATOM     48  C   UNL A   1      43.172  35.571  39.801  1.00  0.00    -0.014 A 
BRANCH  48  49
ATOM     49  C   UNL A   1      43.283  35.462  38.325  1.00  0.00     0.031 A 
ATOM     50  C   UNL A   1      43.156  34.095  37.706  1.00  0.00     0.074 A 
ATOM     51  C   UNL A   1      43.480  36.543  37.551  1.00  0.00     0.049 A 
ATOM     52  N   UNL A   1      43.287  33.731  36.458  1.00  0.00    -0.248 NA
ATOM     53  C   UNL A   1      42.837  32.987  38.625  1.00  0.00     0.031 C 
ATOM     54  C   UNL A   1      43.573  37.922  38.028  1.00  0.00     0.029 A 
ATOM     55  N   UNL A   1      43.646  36.647  36.191  1.00  0.00    -0.354 N 
ATOM     56  C   UNL A   1      43.065  32.359  36.439  1.00  0.00     0.074 A 
ATOM     57  C   UNL A   1      42.832  31.947  37.805  1.00  0.00     0.031 C 
ATOM     58  C   UNL A   1      43.789  38.734  36.976  1.00  0.00     0.029 A 
ATOM     59  C   UNL A   1      43.887  37.929  35.759  1.00  0.00     0.049 A 
ATOM     60  H   UNL A   1      43.596  35.875  35.582  1.00  0.00     0.167 HD
ATOM     61  C   UNL A   1      43.046  31.520  35.378  1.00  0.00     0.037 A 
ATOM     62  C   UNL A   1      44.178  38.392  34.526  1.00  0.00     0.037 A 
ATOM     63  C   UNL A   1      43.289  31.934  34.021  1.00  0.00     0.049 A 
ATOM     64  C   UNL A   1      44.247  37.419  33.372  1.00  0.00     0.074 A 
ATOM     65  C   UNL A   1      43.303  31.159  32.875  1.00  0.00     0.029 A 
ATOM     66  N   UNL A   1      43.564  33.235  33.629  1.00  0.00    -0.354 N 
ATOM     67  N   UNL A   1      44.029  36.124  33.366  1.00  0.00    -0.248 NA
ATOM     68  C   UNL A   1      44.603  37.972  32.056  1.00  0.00     0.031 C 
ATOM     69  C   UNL A   1      43.634  31.984  31.796  1.00  0.00     0.029 A 
ATOM     70  C   UNL A   1      43.768  33.283  32.259  1.00  0.00     0.049 A 
ATOM     71  H   UNL A   1      43.609  34.011  34.233  1.00  0.00     0.167 HD
ATOM     72  C   UNL A   1      44.181  35.718  32.042  1.00  0.00     0.074 A 
ATOM     73  C   UNL A   1      44.501  36.905  31.277  1.00  0.00     0.031 C 
ATOM     74  C   UNL A   1      44.064  34.477  31.508  1.00  0.00     0.037 A 
BRANCH  61  75
ATOM     75  C   UNL A   1      42.763  30.067  35.643  1.00  0.00     0.058 A 
ATOM     76  C   UNL A   1      41.452  29.563  35.654  1.00  0.00     0.135 A 
ATOM     77  C   UNL A   1      43.815  29.160  35.846  1.00  0.00     0.135 A 
ATOM     78  F   UNL A   1      40.407  30.390  35.490  1.00  0.00    -0.206 F 
ATOM     79  C   UNL A   1      41.193  28.214  35.875  1.00  0.00     0.059 A 
ATOM     80  C   UNL A   1      43.582  27.801  36.039  1.00  0.00     0.059 A 
ATOM     81  F   UNL A   1      45.086  29.589  35.851  1.00  0.00    -0.206 F 
ATOM     82  C   UNL A   1      42.266  27.340  36.061  1.00  0.00     0.060 A 
BRANCH  82  83
ATOM     83  S   UNL A   1      41.913  25.589  36.323  1.00  0.00     0.124 S 
ATOM     84  O   UNL A   1      42.820  25.269  37.422  1.00  0.00    -0.237 OA
ATOM     85  O   UNL A   1      40.493  25.606  36.659  1.00  0.00    -0.237 OA
ATOM     86  O   UNL A   1      42.244  24.979  35.040  1.00  0.00    -0.744 OA
ENDBRANCH  82  83
ENDBRANCH  61  75
BRANCH  62  87
ATOM     87  C   UNL A   1      44.443  39.842  34.303  1.00  0.00     0.058 A 
ATOM     88  C   UNL A   1      43.424  40.708  33.882  1.00  0.00     0.135 A 
ATOM     89  C   UNL A   1      45.730  40.380  34.462  1.00  0.00     0.135 A 
ATOM     90  F   UNL A   1      42.178  40.241  33.702  1.00  0.00    -0.206 F 
ATOM     91  C   UNL A   1      43.674  42.047  33.596  1.00  0.00     0.059 A 
ATOM     92  C   UNL A   1      45.999  41.723  34.213  1.00  0.00     0.059 A 
ATOM     93  F   UNL A   1      46.742  39.598  34.869  1.00  0.00    -0.206 F 
ATOM     94  C   UNL A   1      44.967  42.545  33.763  1.00  0.00     0.060 A 
BRANCH  94  95
ATOM     95  S   UNL A   1      45.277  44.287  33.403  1.00  0.00     0.124 S 
ATOM     96  O   UNL A   1      46.695  44.406  33.722  1.00  0.00    -0.237 OA
ATOM     97  O   UNL A   1      44.931  44.372  31.988  1.00  0.00    -0.237 OA
ATOM     98  O   UNL A   1      44.366  44.984  34.307  1.00  0.00    -0.744 OA
ENDBRANCH  94  95
ENDBRANCH  62  87
BRANCH  74  99
ATOM     99  C   UNL A   1      44.224  34.339  30.017  1.00  0.00     0.058 A 
ATOM    100  C   UNL A   1      45.411  33.866  29.436  1.00  0.00     0.135 A 
ATOM    101  C   UNL A   1      43.149  34.629  29.160  1.00  0.00     0.135 A 
ATOM    102  F   UNL A   1      46.471  33.577  30.207  1.00  0.00    -0.206 F 
ATOM    103  C   UNL A   1      45.536  33.711  28.060  1.00  0.00     0.059 A 
ATOM    104  C   UNL A   1      43.240  34.452  27.783  1.00  0.00     0.059 A 
ATOM    105  F   UNL A   1      41.985  35.072  29.662  1.00  0.00    -0.206 F 
ATOM    106  C   UNL A   1      44.442  34.004  27.241  1.00  0.00     0.060 A 
BRANCH 106 107
ATOM    107  S   UNL A   1      44.607  33.763  25.459  1.00  0.00     0.124 S 
ATOM    108  O   UNL A   1      44.855  32.327  25.378  1.00  0.00    -0.237 OA
ATOM    109  O   UNL A   1      43.310  34.210  24.962  1.00  0.00    -0.237 OA
ATOM    110  O   UNL A   1      45.736  34.616  25.103  1.00  0.00    -0.744 OA
ENDBRANCH 106 107
ENDBRANCH  74  99
ENDBRANCH  48  49
ENDBRANCH  41  43
ENDBRANCH  40  41
ENDBRANCH  39  40
ENDBRANCH  38  39
ENDBRANCH  37  38
ENDBRANCH  36  37
ENDBRANCH  35  36
ENDBRANCH   1  35
TORSDOF 26
ENDMDL
