MODEL 1
REMARK VINA RESULT:      -8.4      0.000      0.000
REMARK SMILES CNC(=O)C[N@@H+](C)CCn1cc(C(=O)OCCOCCOCCOCCOC(=O)c2ccc(-c3c4nc(c(-c5c(F)cc(S(=O)(=O)[O-])cc5F)c5ccc([nH]5)c(-c5c(F)cc(S(=O)(=O)[O-])cc5F)c5nc(c(-c6c(F)cc(S(=O)(=O)[O-])cc6F)c6ccc3[nH]6)C=C5)C=C4)cc2)nn1
REMARK SMILES IDX 20 1 19 2 18 3 17 4 16 5 15 6 13 7 14 8 12 9 10 10 11 11
REMARK SMILES IDX 97 12 96 13 9 14 8 15 6 16 7 17 5 19 3 20 1 21 2 22 4 24
REMARK SMILES IDX 21 25 22 26 23 27 24 28 25 29 26 30 27 31 28 32 29 33 30 34
REMARK SMILES IDX 31 35 95 36 32 37 94 38 33 39 34 40 35 41 88 42 36 43 93 44
REMARK SMILES IDX 87 45 89 46 37 47 92 48 86 49 85 50 38 52 72 53 51 54 71 55
REMARK SMILES IDX 52 56 55 57 70 58 90 59 53 60 54 61 69 63 91 64 56 65 39 66
REMARK SMILES IDX 40 67 49 68 41 69 42 70 48 71 50 72 43 73 44 74 45 75 46 76
REMARK SMILES IDX 47 77 73 78 74 79 83 80 75 81 76 82 82 83 84 84 77 85 78 86
REMARK SMILES IDX 79 87 80 88 81 89 57 90 58 91 67 92 59 93 60 94 66 95 68 96
REMARK SMILES IDX 61 97 62 98 63 99 64 100 65 101
REMARK H PARENT 6 18 2 23 89 51 55 62
REMARK Flexibility Score: inf
ROOT
ATOM      1  C   UNL A   1      39.990  22.990  27.351  1.00  0.00     0.188 C 
ENDROOT
BRANCH   1   2
ATOM      2  C   UNL A   1      38.822  23.250  26.368  1.00  0.00     0.188 C 
BRANCH   2   3
ATOM      3  O   UNL A   1      38.110  22.196  25.722  1.00  0.00    -0.376 OA
BRANCH   3   4
ATOM      4  C   UNL A   1      37.102  22.425  24.751  1.00  0.00     0.202 C 
BRANCH   4   5
ATOM      5  C   UNL A   1      35.693  22.896  25.143  1.00  0.00     0.261 C 
BRANCH   5   6
ATOM      6  O   UNL A   1      35.238  24.078  24.487  1.00  0.00    -0.458 OA
BRANCH   6   7
ATOM      7  C   UNL A   1      34.208  23.879  23.617  1.00  0.00     0.360 C 
ATOM      8  O   UNL A   1      34.100  24.438  22.529  1.00  0.00    -0.244 OA
BRANCH   7   9
ATOM      9  C   UNL A   1      33.347  22.789  24.041  1.00  0.00     0.190 A 
ATOM     10  N   UNL A   1      32.495  20.879  24.510  1.00  0.00    -0.246 N 
ATOM     11  C   UNL A   1      33.337  21.473  23.620  1.00  0.00     0.147 A 
ATOM     12  N   UNL A   1      31.764  21.788  25.178  1.00  0.00    -0.066 NA
ATOM     13  N   UNL A   1      32.332  22.965  24.959  1.00  0.00    -0.123 NA
BRANCH  10  14
ATOM     14  C   UNL A   1      32.560  19.521  24.986  1.00  0.00     0.207 C 
BRANCH  14  15
ATOM     15  C   UNL A   1      32.259  18.480  23.880  1.00  0.00     0.286 C 
BRANCH  15  16
ATOM     16  N   UNL A   1      32.590  17.044  24.049  1.00  0.00    -0.328 N 
ATOM     17  C   UNL A   1      32.400  16.603  25.431  1.00  0.00     0.333 C 
ATOM     18  H   UNL A   1      31.924  16.572  23.436  1.00  0.00     0.348 HD
BRANCH  16  19
ATOM     19  C   UNL A   1      33.935  16.639  23.574  1.00  0.00     0.363 C 
BRANCH  19  20
ATOM     20  C   UNL A   1      34.893  16.297  24.722  1.00  0.00     0.274 C 
ATOM     21  C   UNL A   1      35.896  18.603  24.799  1.00  0.00     0.143 C 
ATOM     22  N   UNL A   1      35.791  17.219  25.162  1.00  0.00    -0.354 N 
ATOM     23  H   UNL A   1      36.455  16.894  25.812  1.00  0.00     0.163 HD
ATOM     24  O   UNL A   1      34.897  15.208  25.299  1.00  0.00    -0.269 OA
ENDBRANCH  19  20
ENDBRANCH  16  19
ENDBRANCH  15  16
ENDBRANCH  14  15
ENDBRANCH  10  14
ENDBRANCH   7   9
ENDBRANCH   6   7
ENDBRANCH   5   6
ENDBRANCH   4   5
ENDBRANCH   3   4
ENDBRANCH   2   3
ENDBRANCH   1   2
BRANCH   1  25
ATOM     25  O   UNL A   1      40.280  21.623  27.570  1.00  0.00    -0.377 OA
BRANCH  25  26
ATOM     26  C   UNL A   1      41.649  21.256  27.418  1.00  0.00     0.188 C 
BRANCH  26  27
ATOM     27  C   UNL A   1      42.736  22.257  27.896  1.00  0.00     0.188 C 
BRANCH  27  28
ATOM     28  O   UNL A   1      43.679  22.651  26.905  1.00  0.00    -0.376 OA
BRANCH  28  29
ATOM     29  C   UNL A   1      43.280  23.179  25.651  1.00  0.00     0.202 C 
BRANCH  29  30
ATOM     30  C   UNL A   1      43.877  22.542  24.398  1.00  0.00     0.261 C 
BRANCH  30  31
ATOM     31  O   UNL A   1      44.986  23.253  23.885  1.00  0.00    -0.460 OA
BRANCH  31  32
ATOM     32  C   UNL A   1      46.137  23.060  24.547  1.00  0.00     0.338 C 
ATOM     33  O   UNL A   1      46.755  22.005  24.671  1.00  0.00    -0.246 OA
BRANCH  32  34
ATOM     34  C   UNL A   1      46.494  24.306  25.211  1.00  0.00     0.060 A 
ATOM     35  C   UNL A   1      46.805  24.199  26.565  1.00  0.00     0.016 A 
ATOM     36  C   UNL A   1      46.098  25.511  24.609  1.00  0.00     0.016 A 
ATOM     37  C   UNL A   1      46.393  25.218  27.380  1.00  0.00     0.010 A 
ATOM     38  C   UNL A   1      45.662  26.514  25.425  1.00  0.00     0.010 A 
ATOM     39  C   UNL A   1      45.716  26.295  26.797  1.00  0.00    -0.014 A 
BRANCH  39  40
ATOM     40  C   UNL A   1      45.101  27.252  27.678  1.00  0.00     0.031 A 
ATOM     41  C   UNL A   1      45.955  28.435  27.867  1.00  0.00     0.074 A 
ATOM     42  C   UNL A   1      43.860  27.069  28.164  1.00  0.00     0.049 A 
ATOM     43  N   UNL A   1      46.648  28.745  28.909  1.00  0.00    -0.248 NA
ATOM     44  C   UNL A   1      46.275  29.229  26.668  1.00  0.00     0.031 C 
ATOM     45  C   UNL A   1      42.873  26.054  27.783  1.00  0.00     0.029 A 
ATOM     46  N   UNL A   1      43.179  27.838  29.048  1.00  0.00    -0.354 N 
ATOM     47  C   UNL A   1      47.277  29.935  28.571  1.00  0.00     0.074 A 
ATOM     48  C   UNL A   1      47.231  30.029  27.138  1.00  0.00     0.031 C 
ATOM     49  C   UNL A   1      41.659  26.415  28.263  1.00  0.00     0.029 A 
ATOM     50  C   UNL A   1      41.812  27.604  29.084  1.00  0.00     0.049 A 
ATOM     51  H   UNL A   1      43.620  28.508  29.621  1.00  0.00     0.167 HD
ATOM     52  C   UNL A   1      47.483  30.898  29.508  1.00  0.00     0.037 A 
ATOM     53  C   UNL A   1      40.890  28.399  29.686  1.00  0.00     0.037 A 
ATOM     54  C   UNL A   1      47.386  30.352  30.840  1.00  0.00     0.049 A 
ATOM     55  C   UNL A   1      41.627  29.257  30.656  1.00  0.00     0.074 A 
ATOM     56  C   UNL A   1      48.064  29.373  31.540  1.00  0.00     0.029 A 
ATOM     57  N   UNL A   1      46.206  30.557  31.515  1.00  0.00    -0.354 N 
ATOM     58  N   UNL A   1      42.213  28.801  31.728  1.00  0.00    -0.248 NA
ATOM     59  C   UNL A   1      42.101  30.555  30.198  1.00  0.00     0.031 C 
ATOM     60  C   UNL A   1      47.080  28.740  32.354  1.00  0.00     0.029 A 
ATOM     61  C   UNL A   1      45.863  29.394  32.156  1.00  0.00     0.049 A 
ATOM     62  H   UNL A   1      45.694  31.398  31.534  1.00  0.00     0.167 HD
ATOM     63  C   UNL A   1      43.390  29.529  31.832  1.00  0.00     0.074 A 
ATOM     64  C   UNL A   1      43.216  30.661  30.926  1.00  0.00     0.031 C 
ATOM     65  C   UNL A   1      44.498  28.988  32.421  1.00  0.00     0.037 A 
BRANCH  52  66
ATOM     66  C   UNL A   1      47.341  32.373  29.219  1.00  0.00     0.058 A 
ATOM     67  C   UNL A   1      46.106  32.856  28.744  1.00  0.00     0.135 A 
ATOM     68  C   UNL A   1      48.425  33.277  29.119  1.00  0.00     0.135 A 
ATOM     69  F   UNL A   1      45.011  32.080  28.780  1.00  0.00    -0.206 F 
ATOM     70  C   UNL A   1      45.976  34.111  28.151  1.00  0.00     0.059 A 
ATOM     71  C   UNL A   1      48.303  34.553  28.588  1.00  0.00     0.059 A 
ATOM     72  F   UNL A   1      49.682  32.946  29.434  1.00  0.00    -0.206 F 
ATOM     73  C   UNL A   1      47.087  34.946  28.065  1.00  0.00     0.060 A 
BRANCH  73  74
ATOM     74  S   UNL A   1      46.955  36.521  27.208  1.00  0.00     0.124 S 
ATOM     75  O   UNL A   1      46.360  36.109  25.942  1.00  0.00    -0.237 OA
ATOM     76  O   UNL A   1      46.092  37.280  28.107  1.00  0.00    -0.237 OA
ATOM     77  O   UNL A   1      48.338  36.980  27.138  1.00  0.00    -0.744 OA
ENDBRANCH  73  74
ENDBRANCH  52  66
BRANCH  53  78
ATOM     78  C   UNL A   1      39.508  28.718  29.236  1.00  0.00     0.058 A 
ATOM     79  C   UNL A   1      38.440  28.750  30.151  1.00  0.00     0.135 A 
ATOM     80  C   UNL A   1      39.257  29.279  27.968  1.00  0.00     0.135 A 
ATOM     81  F   UNL A   1      38.596  28.254  31.388  1.00  0.00    -0.206 F 
ATOM     82  C   UNL A   1      37.215  29.355  29.847  1.00  0.00     0.059 A 
ATOM     83  C   UNL A   1      38.041  29.879  27.640  1.00  0.00     0.059 A 
ATOM     84  F   UNL A   1      40.220  29.351  27.038  1.00  0.00    -0.206 F 
ATOM     85  C   UNL A   1      37.034  29.939  28.595  1.00  0.00     0.060 A 
BRANCH  85  86
ATOM     86  S   UNL A   1      35.528  30.885  28.263  1.00  0.00     0.124 S 
ATOM     87  O   UNL A   1      36.059  32.083  27.623  1.00  0.00    -0.237 OA
ATOM     88  O   UNL A   1      34.778  29.980  27.400  1.00  0.00    -0.237 OA
ATOM     89  O   UNL A   1      34.956  31.089  29.592  1.00  0.00    -0.744 OA
ENDBRANCH  85  86
ENDBRANCH  53  78
BRANCH  65  90
ATOM     90  C   UNL A   1      44.310  27.744  33.251  1.00  0.00     0.058 A 
ATOM     91  C   UNL A   1      43.915  27.733  34.602  1.00  0.00     0.135 A 
ATOM     92  C   UNL A   1      44.410  26.503  32.604  1.00  0.00     0.135 A 
ATOM     93  F   UNL A   1      43.697  28.878  35.265  1.00  0.00    -0.206 F 
ATOM     94  C   UNL A   1      43.676  26.540  35.289  1.00  0.00     0.059 A 
ATOM     95  C   UNL A   1      44.146  25.305  33.259  1.00  0.00     0.059 A 
ATOM     96  F   UNL A   1      44.723  26.450  31.300  1.00  0.00    -0.206 F 
ATOM     97  C   UNL A   1      43.796  25.329  34.607  1.00  0.00     0.060 A 
BRANCH  97  98
ATOM     98  S   UNL A   1      43.423  23.787  35.472  1.00  0.00     0.124 S 
ATOM     99  O   UNL A   1      41.995  23.922  35.738  1.00  0.00    -0.237 OA
ATOM    100  O   UNL A   1      43.794  22.773  34.489  1.00  0.00    -0.237 OA
ATOM    101  O   UNL A   1      44.285  23.841  36.651  1.00  0.00    -0.744 OA
ENDBRANCH  97  98
ENDBRANCH  65  90
ENDBRANCH  39  40
ENDBRANCH  32  34
ENDBRANCH  31  32
ENDBRANCH  30  31
ENDBRANCH  29  30
ENDBRANCH  28  29
ENDBRANCH  27  28
ENDBRANCH  26  27
ENDBRANCH  25  26
ENDBRANCH   1  25
TORSDOF 28
ENDMDL
MODEL 2
REMARK VINA RESULT:      -7.9      3.181      8.833
REMARK SMILES CNC(=O)C[N@@H+](C)CCn1cc(C(=O)OCCOCCOCCOCCOC(=O)c2ccc(-c3c4nc(c(-c5c(F)cc(S(=O)(=O)[O-])cc5F)c5ccc([nH]5)c(-c5c(F)cc(S(=O)(=O)[O-])cc5F)c5nc(c(-c6c(F)cc(S(=O)(=O)[O-])cc6F)c6ccc3[nH]6)C=C5)C=C4)cc2)nn1
REMARK SMILES IDX 20 1 19 2 18 3 17 4 16 5 15 6 13 7 14 8 12 9 10 10 11 11
REMARK SMILES IDX 97 12 96 13 9 14 8 15 6 16 7 17 5 19 3 20 1 21 2 22 4 24
REMARK SMILES IDX 21 25 22 26 23 27 24 28 25 29 26 30 27 31 28 32 29 33 30 34
REMARK SMILES IDX 31 35 95 36 32 37 94 38 33 39 34 40 35 41 88 42 36 43 93 44
REMARK SMILES IDX 87 45 89 46 37 47 92 48 86 49 85 50 38 52 72 53 51 54 71 55
REMARK SMILES IDX 52 56 55 57 70 58 90 59 53 60 54 61 69 63 91 64 56 65 39 66
REMARK SMILES IDX 40 67 49 68 41 69 42 70 48 71 50 72 43 73 44 74 45 75 46 76
REMARK SMILES IDX 47 77 73 78 74 79 83 80 75 81 76 82 82 83 84 84 77 85 78 86
REMARK SMILES IDX 79 87 80 88 81 89 57 90 58 91 67 92 59 93 60 94 66 95 68 96
REMARK SMILES IDX 61 97 62 98 63 99 64 100 65 101
REMARK H PARENT 6 18 2 23 89 51 55 62
REMARK Flexibility Score: inf
ROOT
ATOM      1  C   UNL A   1      39.696  22.645  26.857  1.00  0.00     0.188 C 
ENDROOT
BRANCH   1   2
ATOM      2  C   UNL A   1      38.470  22.687  25.911  1.00  0.00     0.188 C 
BRANCH   2   3
ATOM      3  O   UNL A   1      37.977  21.529  25.239  1.00  0.00    -0.376 OA
BRANCH   3   4
ATOM      4  C   UNL A   1      36.775  21.526  24.486  1.00  0.00     0.202 C 
BRANCH   4   5
ATOM      5  C   UNL A   1      35.542  20.726  24.932  1.00  0.00     0.261 C 
BRANCH   5   6
ATOM      6  O   UNL A   1      34.381  21.502  25.224  1.00  0.00    -0.458 OA
BRANCH   6   7
ATOM      7  C   UNL A   1      33.513  21.632  24.182  1.00  0.00     0.360 C 
ATOM      8  O   UNL A   1      32.712  20.770  23.833  1.00  0.00    -0.244 OA
BRANCH   7   9
ATOM      9  C   UNL A   1      33.512  22.982  23.646  1.00  0.00     0.190 A 
ATOM     10  N   UNL A   1      33.364  25.100  23.358  1.00  0.00    -0.246 N 
ATOM     11  C   UNL A   1      32.798  24.087  24.069  1.00  0.00     0.147 A 
ATOM     12  N   UNL A   1      34.091  24.634  22.328  1.00  0.00    -0.066 NA
ATOM     13  N   UNL A   1      34.256  23.337  22.539  1.00  0.00    -0.123 NA
BRANCH  10  14
ATOM     14  C   UNL A   1      33.510  26.471  23.776  1.00  0.00     0.207 C 
BRANCH  14  15
ATOM     15  C   UNL A   1      32.508  27.424  23.080  1.00  0.00     0.286 C 
BRANCH  15  16
ATOM     16  N   UNL A   1      32.213  28.774  23.617  1.00  0.00    -0.328 N 
ATOM     17  C   UNL A   1      33.254  29.231  24.539  1.00  0.00     0.333 C 
ATOM     18  H   UNL A   1      32.199  29.365  22.785  1.00  0.00     0.348 HD
BRANCH  16  19
ATOM     19  C   UNL A   1      30.881  28.932  24.249  1.00  0.00     0.363 C 
BRANCH  19  20
ATOM     20  C   UNL A   1      29.738  28.971  23.225  1.00  0.00     0.274 C 
ATOM     21  C   UNL A   1      28.866  26.698  23.861  1.00  0.00     0.143 C 
ATOM     22  N   UNL A   1      28.924  27.893  23.068  1.00  0.00    -0.354 N 
ATOM     23  H   UNL A   1      28.294  27.939  22.313  1.00  0.00     0.163 HD
ATOM     24  O   UNL A   1      29.494  29.951  22.520  1.00  0.00    -0.269 OA
ENDBRANCH  19  20
ENDBRANCH  16  19
ENDBRANCH  15  16
ENDBRANCH  14  15
ENDBRANCH  10  14
ENDBRANCH   7   9
ENDBRANCH   6   7
ENDBRANCH   5   6
ENDBRANCH   4   5
ENDBRANCH   3   4
ENDBRANCH   2   3
ENDBRANCH   1   2
BRANCH   1  25
ATOM     25  O   UNL A   1      40.133  21.342  27.195  1.00  0.00    -0.377 OA
BRANCH  25  26
ATOM     26  C   UNL A   1      41.532  21.111  27.049  1.00  0.00     0.188 C 
BRANCH  26  27
ATOM     27  C   UNL A   1      42.517  22.089  27.746  1.00  0.00     0.188 C 
BRANCH  27  28
ATOM     28  O   UNL A   1      43.467  22.711  26.887  1.00  0.00    -0.376 OA
BRANCH  28  29
ATOM     29  C   UNL A   1      43.091  23.327  25.666  1.00  0.00     0.202 C 
BRANCH  29  30
ATOM     30  C   UNL A   1      43.672  22.746  24.379  1.00  0.00     0.261 C 
BRANCH  30  31
ATOM     31  O   UNL A   1      44.863  23.386  23.966  1.00  0.00    -0.460 OA
BRANCH  31  32
ATOM     32  C   UNL A   1      45.995  22.789  24.368  1.00  0.00     0.338 C 
ATOM     33  O   UNL A   1      46.363  21.645  24.112  1.00  0.00    -0.246 OA
BRANCH  32  34
ATOM     34  C   UNL A   1      46.688  23.693  25.276  1.00  0.00     0.060 A 
ATOM     35  C   UNL A   1      46.713  23.301  26.613  1.00  0.00     0.016 A 
ATOM     36  C   UNL A   1      46.881  25.021  24.863  1.00  0.00     0.016 A 
ATOM     37  C   UNL A   1      46.595  24.288  27.553  1.00  0.00     0.010 A 
ATOM     38  C   UNL A   1      46.734  26.003  25.800  1.00  0.00     0.010 A 
ATOM     39  C   UNL A   1      46.481  25.610  27.109  1.00  0.00    -0.014 A 
BRANCH  39  40
ATOM     40  C   UNL A   1      46.143  26.614  28.083  1.00  0.00     0.031 A 
ATOM     41  C   UNL A   1      44.697  26.885  28.094  1.00  0.00     0.074 A 
ATOM     42  C   UNL A   1      47.066  27.134  28.911  1.00  0.00     0.049 A 
ATOM     43  N   UNL A   1      44.089  27.921  27.625  1.00  0.00    -0.248 NA
ATOM     44  C   UNL A   1      43.806  25.763  28.435  1.00  0.00     0.031 C 
ATOM     45  C   UNL A   1      48.448  26.695  29.126  1.00  0.00     0.029 A 
ATOM     46  N   UNL A   1      46.917  28.125  29.824  1.00  0.00    -0.354 N 
ATOM     47  C   UNL A   1      42.744  27.681  27.872  1.00  0.00     0.074 A 
ATOM     48  C   UNL A   1      42.618  26.269  28.108  1.00  0.00     0.031 C 
ATOM     49  C   UNL A   1      48.924  27.267  30.258  1.00  0.00     0.029 A 
ATOM     50  C   UNL A   1      47.932  28.199  30.767  1.00  0.00     0.049 A 
ATOM     51  H   UNL A   1      46.150  28.743  29.818  1.00  0.00     0.167 HD
ATOM     52  C   UNL A   1      41.907  28.703  28.191  1.00  0.00     0.037 A 
ATOM     53  C   UNL A   1      47.892  28.923  31.915  1.00  0.00     0.037 A 
ATOM     54  C   UNL A   1      42.474  29.973  27.808  1.00  0.00     0.049 A 
ATOM     55  C   UNL A   1      46.819  29.942  31.747  1.00  0.00     0.074 A 
ATOM     56  C   UNL A   1      42.879  30.534  26.613  1.00  0.00     0.029 A 
ATOM     57  N   UNL A   1      43.062  30.719  28.801  1.00  0.00    -0.354 N 
ATOM     58  N   UNL A   1      46.886  30.932  30.900  1.00  0.00    -0.248 NA
ATOM     59  C   UNL A   1      45.476  29.601  32.193  1.00  0.00     0.031 C 
ATOM     60  C   UNL A   1      44.022  31.323  26.934  1.00  0.00     0.029 A 
ATOM     61  C   UNL A   1      44.228  31.251  28.313  1.00  0.00     0.049 A 
ATOM     62  H   UNL A   1      42.706  30.851  29.710  1.00  0.00     0.167 HD
ATOM     63  C   UNL A   1      45.600  31.058  30.390  1.00  0.00     0.074 A 
ATOM     64  C   UNL A   1      44.757  30.284  31.298  1.00  0.00     0.031 C 
ATOM     65  C   UNL A   1      45.393  31.534  29.127  1.00  0.00     0.037 A 
BRANCH  52  66
ATOM     66  C   UNL A   1      40.806  28.576  29.217  1.00  0.00     0.058 A 
ATOM     67  C   UNL A   1      39.502  28.971  28.864  1.00  0.00     0.135 A 
ATOM     68  C   UNL A   1      41.021  28.353  30.598  1.00  0.00     0.135 A 
ATOM     69  F   UNL A   1      39.187  29.221  27.583  1.00  0.00    -0.206 F 
ATOM     70  C   UNL A   1      38.509  29.196  29.817  1.00  0.00     0.059 A 
ATOM     71  C   UNL A   1      40.030  28.512  31.556  1.00  0.00     0.059 A 
ATOM     72  F   UNL A   1      42.222  28.067  31.112  1.00  0.00    -0.206 F 
ATOM     73  C   UNL A   1      38.790  28.977  31.163  1.00  0.00     0.060 A 
BRANCH  73  74
ATOM     74  S   UNL A   1      37.552  29.366  32.407  1.00  0.00     0.124 S 
ATOM     75  O   UNL A   1      37.547  28.142  33.199  1.00  0.00    -0.237 OA
ATOM     76  O   UNL A   1      38.129  30.544  33.046  1.00  0.00    -0.237 OA
ATOM     77  O   UNL A   1      36.350  29.613  31.617  1.00  0.00    -0.744 OA
ENDBRANCH  73  74
ENDBRANCH  52  66
BRANCH  53  78
ATOM     78  C   UNL A   1      48.451  28.573  33.249  1.00  0.00     0.058 A 
ATOM     79  C   UNL A   1      47.985  27.450  33.956  1.00  0.00     0.135 A 
ATOM     80  C   UNL A   1      49.645  29.154  33.723  1.00  0.00     0.135 A 
ATOM     81  F   UNL A   1      46.865  26.824  33.564  1.00  0.00    -0.206 F 
ATOM     82  C   UNL A   1      48.690  26.900  35.033  1.00  0.00     0.059 A 
ATOM     83  C   UNL A   1      50.360  28.628  34.799  1.00  0.00     0.059 A 
ATOM     84  F   UNL A   1      50.209  30.194  33.092  1.00  0.00    -0.206 F 
ATOM     85  C   UNL A   1      49.891  27.483  35.431  1.00  0.00     0.060 A 
BRANCH  85  86
ATOM     86  S   UNL A   1      50.900  26.669  36.693  1.00  0.00     0.124 S 
ATOM     87  O   UNL A   1      50.264  25.361  36.791  1.00  0.00    -0.237 OA
ATOM     88  O   UNL A   1      52.227  26.690  36.087  1.00  0.00    -0.237 OA
ATOM     89  O   UNL A   1      50.740  27.530  37.862  1.00  0.00    -0.744 OA
ENDBRANCH  85  86
ENDBRANCH  53  78
BRANCH  65  90
ATOM     90  C   UNL A   1      46.540  32.238  28.449  1.00  0.00     0.058 A 
ATOM     91  C   UNL A   1      46.888  33.586  28.652  1.00  0.00     0.135 A 
ATOM     92  C   UNL A   1      47.402  31.468  27.654  1.00  0.00     0.135 A 
ATOM     93  F   UNL A   1      46.175  34.364  29.479  1.00  0.00    -0.206 F 
ATOM     94  C   UNL A   1      48.017  34.153  28.055  1.00  0.00     0.059 A 
ATOM     95  C   UNL A   1      48.550  32.003  27.076  1.00  0.00     0.059 A 
ATOM     96  F   UNL A   1      47.159  30.160  27.472  1.00  0.00    -0.206 F 
ATOM     97  C   UNL A   1      48.842  33.351  27.267  1.00  0.00     0.060 A 
BRANCH  97  98
ATOM     98  S   UNL A   1      50.339  34.061  26.547  1.00  0.00     0.124 S 
ATOM     99  O   UNL A   1      50.412  33.381  25.259  1.00  0.00    -0.237 OA
ATOM    100  O   UNL A   1      50.023  35.486  26.497  1.00  0.00    -0.237 OA
ATOM    101  O   UNL A   1      51.383  33.699  27.504  1.00  0.00    -0.744 OA
ENDBRANCH  97  98
ENDBRANCH  65  90
ENDBRANCH  39  40
ENDBRANCH  32  34
ENDBRANCH  31  32
ENDBRANCH  30  31
ENDBRANCH  29  30
ENDBRANCH  28  29
ENDBRANCH  27  28
ENDBRANCH  26  27
ENDBRANCH  25  26
ENDBRANCH   1  25
TORSDOF 28
ENDMDL
MODEL 3
REMARK VINA RESULT:      -7.9      9.219     17.328
REMARK SMILES CNC(=O)C[N@@H+](C)CCn1cc(C(=O)OCCOCCOCCOCCOC(=O)c2ccc(-c3c4nc(c(-c5c(F)cc(S(=O)(=O)[O-])cc5F)c5ccc([nH]5)c(-c5c(F)cc(S(=O)(=O)[O-])cc5F)c5nc(c(-c6c(F)cc(S(=O)(=O)[O-])cc6F)c6ccc3[nH]6)C=C5)C=C4)cc2)nn1
REMARK SMILES IDX 20 1 19 2 18 3 17 4 16 5 15 6 13 7 14 8 12 9 10 10 11 11
REMARK SMILES IDX 97 12 96 13 9 14 8 15 6 16 7 17 5 19 3 20 1 21 2 22 4 24
REMARK SMILES IDX 21 25 22 26 23 27 24 28 25 29 26 30 27 31 28 32 29 33 30 34
REMARK SMILES IDX 31 35 95 36 32 37 94 38 33 39 34 40 35 41 88 42 36 43 93 44
REMARK SMILES IDX 87 45 89 46 37 47 92 48 86 49 85 50 38 52 72 53 51 54 71 55
REMARK SMILES IDX 52 56 55 57 70 58 90 59 53 60 54 61 69 63 91 64 56 65 39 66
REMARK SMILES IDX 40 67 49 68 41 69 42 70 48 71 50 72 43 73 44 74 45 75 46 76
REMARK SMILES IDX 47 77 73 78 74 79 83 80 75 81 76 82 82 83 84 84 77 85 78 86
REMARK SMILES IDX 79 87 80 88 81 89 57 90 58 91 67 92 59 93 60 94 66 95 68 96
REMARK SMILES IDX 61 97 62 98 63 99 64 100 65 101
REMARK H PARENT 6 18 2 23 89 51 55 62
REMARK Flexibility Score: inf
ROOT
ATOM      1  C   UNL A   1      45.828  43.751  25.854  1.00  0.00     0.188 C 
ENDROOT
BRANCH   1   2
ATOM      2  C   UNL A   1      44.340  43.352  25.699  1.00  0.00     0.188 C 
BRANCH   2   3
ATOM      3  O   UNL A   1      43.932  42.049  25.283  1.00  0.00    -0.376 OA
BRANCH   3   4
ATOM      4  C   UNL A   1      42.798  41.819  24.463  1.00  0.00     0.202 C 
BRANCH   4   5
ATOM      5  C   UNL A   1      42.492  42.697  23.240  1.00  0.00     0.261 C 
BRANCH   5   6
ATOM      6  O   UNL A   1      42.142  41.992  22.051  1.00  0.00    -0.458 OA
BRANCH   6   7
ATOM      7  C   UNL A   1      42.014  42.778  20.945  1.00  0.00     0.360 C 
ATOM      8  O   UNL A   1      40.946  43.195  20.509  1.00  0.00    -0.244 OA
BRANCH   7   9
ATOM      9  C   UNL A   1      43.305  43.222  20.448  1.00  0.00     0.190 A 
ATOM     10  N   UNL A   1      44.910  44.249  19.467  1.00  0.00    -0.246 N 
ATOM     11  C   UNL A   1      43.600  43.917  19.291  1.00  0.00     0.147 A 
ATOM     12  N   UNL A   1      45.476  43.520  20.443  1.00  0.00    -0.066 NA
ATOM     13  N   UNL A   1      44.485  42.944  21.108  1.00  0.00    -0.123 NA
BRANCH  10  14
ATOM     14  C   UNL A   1      45.575  45.427  18.974  1.00  0.00     0.207 C 
BRANCH  14  15
ATOM     15  C   UNL A   1      44.589  46.508  18.466  1.00  0.00     0.286 C 
BRANCH  15  16
ATOM     16  N   UNL A   1      44.757  47.941  18.809  1.00  0.00    -0.328 N 
ATOM     17  C   UNL A   1      45.136  48.123  20.210  1.00  0.00     0.333 C 
ATOM     18  H   UNL A   1      45.516  48.245  18.198  1.00  0.00     0.348 HD
BRANCH  16  19
ATOM     19  C   UNL A   1      43.603  48.814  18.485  1.00  0.00     0.363 C 
BRANCH  19  20
ATOM     20  C   UNL A   1      43.881  50.297  18.767  1.00  0.00     0.274 C 
ATOM     21  C   UNL A   1      45.445  50.551  16.813  1.00  0.00     0.143 C 
ATOM     22  N   UNL A   1      44.778  50.981  18.009  1.00  0.00    -0.354 N 
ATOM     23  H   UNL A   1      44.999  51.889  18.321  1.00  0.00     0.163 HD
ATOM     24  O   UNL A   1      43.318  50.933  19.660  1.00  0.00    -0.269 OA
ENDBRANCH  19  20
ENDBRANCH  16  19
ENDBRANCH  15  16
ENDBRANCH  14  15
ENDBRANCH  10  14
ENDBRANCH   7   9
ENDBRANCH   6   7
ENDBRANCH   5   6
ENDBRANCH   4   5
ENDBRANCH   3   4
ENDBRANCH   2   3
ENDBRANCH   1   2
BRANCH   1  25
ATOM     25  O   UNL A   1      46.237  43.984  27.188  1.00  0.00    -0.377 OA
BRANCH  25  26
ATOM     26  C   UNL A   1      45.377  43.451  28.193  1.00  0.00     0.188 C 
BRANCH  26  27
ATOM     27  C   UNL A   1      45.983  43.126  29.585  1.00  0.00     0.188 C 
BRANCH  27  28
ATOM     28  O   UNL A   1      45.377  42.038  30.274  1.00  0.00    -0.376 OA
BRANCH  28  29
ATOM     29  C   UNL A   1      44.300  41.300  29.719  1.00  0.00     0.202 C 
BRANCH  29  30
ATOM     30  C   UNL A   1      44.081  39.880  30.237  1.00  0.00     0.261 C 
BRANCH  30  31
ATOM     31  O   UNL A   1      44.508  39.701  31.573  1.00  0.00    -0.460 OA
BRANCH  31  32
ATOM     32  C   UNL A   1      43.520  39.562  32.469  1.00  0.00     0.338 C 
ATOM     33  O   UNL A   1      42.695  40.409  32.804  1.00  0.00    -0.246 OA
BRANCH  32  34
ATOM     34  C   UNL A   1      43.648  38.248  33.086  1.00  0.00     0.060 A 
ATOM     35  C   UNL A   1      43.727  37.173  32.203  1.00  0.00     0.016 A 
ATOM     36  C   UNL A   1      43.259  38.111  34.428  1.00  0.00     0.016 A 
ATOM     37  C   UNL A   1      43.093  36.018  32.572  1.00  0.00     0.010 A 
ATOM     38  C   UNL A   1      42.602  36.968  34.783  1.00  0.00     0.010 A 
ATOM     39  C   UNL A   1      42.437  35.992  33.807  1.00  0.00    -0.014 A 
BRANCH  39  40
ATOM     40  C   UNL A   1      41.597  34.859  34.092  1.00  0.00     0.031 A 
ATOM     41  C   UNL A   1      42.036  33.665  33.351  1.00  0.00     0.074 A 
ATOM     42  C   UNL A   1      40.607  34.923  35.000  1.00  0.00     0.049 A 
ATOM     43  N   UNL A   1      41.473  33.128  32.324  1.00  0.00    -0.248 NA
ATOM     44  C   UNL A   1      43.393  33.165  33.629  1.00  0.00     0.031 C 
ATOM     45  C   UNL A   1      40.316  35.997  35.956  1.00  0.00     0.029 A 
ATOM     46  N   UNL A   1      39.698  33.973  35.325  1.00  0.00    -0.354 N 
ATOM     47  C   UNL A   1      42.283  32.047  32.004  1.00  0.00     0.074 A 
ATOM     48  C   UNL A   1      43.547  32.281  32.645  1.00  0.00     0.031 C 
ATOM     49  C   UNL A   1      39.455  35.534  36.893  1.00  0.00     0.029 A 
ATOM     50  C   UNL A   1      39.041  34.189  36.529  1.00  0.00     0.049 A 
ATOM     51  H   UNL A   1      39.517  33.191  34.754  1.00  0.00     0.167 HD
ATOM     52  C   UNL A   1      41.742  30.897  31.523  1.00  0.00     0.037 A 
ATOM     53  C   UNL A   1      38.285  33.276  37.191  1.00  0.00     0.037 A 
ATOM     54  C   UNL A   1      40.413  31.126  31.012  1.00  0.00     0.049 A 
ATOM     55  C   UNL A   1      37.918  32.222  36.205  1.00  0.00     0.074 A 
ATOM     56  C   UNL A   1      39.879  31.922  30.017  1.00  0.00     0.029 A 
ATOM     57  N   UNL A   1      39.361  30.770  31.823  1.00  0.00    -0.354 N 
ATOM     58  N   UNL A   1      37.124  32.424  35.189  1.00  0.00    -0.248 NA
ATOM     59  C   UNL A   1      38.791  31.063  36.086  1.00  0.00     0.031 C 
ATOM     60  C   UNL A   1      38.613  32.351  30.514  1.00  0.00     0.029 A 
ATOM     61  C   UNL A   1      38.410  31.756  31.760  1.00  0.00     0.049 A 
ATOM     62  H   UNL A   1      39.302  29.946  32.358  1.00  0.00     0.167 HD
ATOM     63  C   UNL A   1      37.680  31.693  34.148  1.00  0.00     0.074 A 
ATOM     64  C   UNL A   1      38.640  30.797  34.786  1.00  0.00     0.031 C 
ATOM     65  C   UNL A   1      37.516  32.089  32.851  1.00  0.00     0.037 A 
BRANCH  52  66
ATOM     66  C   UNL A   1      42.242  29.526  31.910  1.00  0.00     0.058 A 
ATOM     67  C   UNL A   1      42.226  29.155  33.268  1.00  0.00     0.135 A 
ATOM     68  C   UNL A   1      42.988  28.676  31.058  1.00  0.00     0.135 A 
ATOM     69  F   UNL A   1      41.559  29.895  34.168  1.00  0.00    -0.206 F 
ATOM     70  C   UNL A   1      42.952  28.068  33.752  1.00  0.00     0.059 A 
ATOM     71  C   UNL A   1      43.667  27.554  31.510  1.00  0.00     0.059 A 
ATOM     72  F   UNL A   1      43.185  28.935  29.760  1.00  0.00    -0.206 F 
ATOM     73  C   UNL A   1      43.682  27.283  32.864  1.00  0.00     0.060 A 
BRANCH  73  74
ATOM     74  S   UNL A   1      44.706  25.944  33.491  1.00  0.00     0.124 S 
ATOM     75  O   UNL A   1      43.734  25.176  34.261  1.00  0.00    -0.237 OA
ATOM     76  O   UNL A   1      45.181  25.328  32.257  1.00  0.00    -0.237 OA
ATOM     77  O   UNL A   1      45.724  26.640  34.271  1.00  0.00    -0.744 OA
ENDBRANCH  73  74
ENDBRANCH  52  66
BRANCH  53  78
ATOM     78  C   UNL A   1      38.165  33.066  38.659  1.00  0.00     0.058 A 
ATOM     79  C   UNL A   1      39.292  33.152  39.497  1.00  0.00     0.135 A 
ATOM     80  C   UNL A   1      36.911  33.066  39.303  1.00  0.00     0.135 A 
ATOM     81  F   UNL A   1      40.524  33.176  38.968  1.00  0.00    -0.206 F 
ATOM     82  C   UNL A   1      39.181  33.290  40.885  1.00  0.00     0.059 A 
ATOM     83  C   UNL A   1      36.777  33.193  40.686  1.00  0.00     0.059 A 
ATOM     84  F   UNL A   1      35.770  33.043  38.599  1.00  0.00    -0.206 F 
ATOM     85  C   UNL A   1      37.916  33.334  41.468  1.00  0.00     0.060 A 
BRANCH  85  86
ATOM     86  S   UNL A   1      37.762  33.701  43.233  1.00  0.00     0.124 S 
ATOM     87  O   UNL A   1      39.153  33.669  43.671  1.00  0.00    -0.237 OA
ATOM     88  O   UNL A   1      37.127  35.014  43.220  1.00  0.00    -0.237 OA
ATOM     89  O   UNL A   1      36.925  32.614  43.734  1.00  0.00    -0.744 OA
ENDBRANCH  85  86
ENDBRANCH  53  78
BRANCH  65  90
ATOM     90  C   UNL A   1      36.446  33.111  32.563  1.00  0.00     0.058 A 
ATOM     91  C   UNL A   1      35.163  32.812  32.069  1.00  0.00     0.135 A 
ATOM     92  C   UNL A   1      36.696  34.442  32.929  1.00  0.00     0.135 A 
ATOM     93  F   UNL A   1      34.809  31.550  31.791  1.00  0.00    -0.206 F 
ATOM     94  C   UNL A   1      34.189  33.801  31.905  1.00  0.00     0.059 A 
ATOM     95  C   UNL A   1      35.732  35.437  32.805  1.00  0.00     0.059 A 
ATOM     96  F   UNL A   1      37.881  34.780  33.464  1.00  0.00    -0.206 F 
ATOM     97  C   UNL A   1      34.485  35.113  32.276  1.00  0.00     0.060 A 
BRANCH  97  98
ATOM     98  S   UNL A   1      33.208  36.382  32.129  1.00  0.00     0.124 S 
ATOM     99  O   UNL A   1      31.994  35.632  32.429  1.00  0.00    -0.237 OA
ATOM    100  O   UNL A   1      33.616  37.362  33.132  1.00  0.00    -0.237 OA
ATOM    101  O   UNL A   1      33.335  36.835  30.744  1.00  0.00    -0.744 OA
ENDBRANCH  97  98
ENDBRANCH  65  90
ENDBRANCH  39  40
ENDBRANCH  32  34
ENDBRANCH  31  32
ENDBRANCH  30  31
ENDBRANCH  29  30
ENDBRANCH  28  29
ENDBRANCH  27  28
ENDBRANCH  26  27
ENDBRANCH  25  26
ENDBRANCH   1  25
TORSDOF 28
ENDMDL
