MODEL 1
REMARK VINA RESULT:      -9.2      0.000      0.000
REMARK SMILES CC(C)(C)[NH2+]CC(=O)N[C@](C)(C(=O)OCCOCCOCCOCCOC(=O)c1ccc(-c2c3nc(c(-c4c(F)cc(S(=O)(=O)[O-])cc4F)c4ccc([nH]4)c(-c4c(F)cc(S(=O)(=O)[O-])cc4F)c4nc(c(-c5c(F)cc(S(=O)(=O)[O-])cc5F)c5ccc2[nH]5)C=C4)C=C3)cc1)C1CC1
REMARK SMILES IDX 19 1 18 2 17 3 16 4 15 5 14 6 12 7 13 8 10 9 11 10 9 11 7 12
REMARK SMILES IDX 8 13 6 15 5 16 2 19 1 20 3 21 4 22 95 23 96 24 97 25 20 26
REMARK SMILES IDX 21 27 22 28 23 29 24 30 25 31 26 32 27 33 28 34 29 35 30 36
REMARK SMILES IDX 94 37 31 38 93 39 32 40 33 41 34 42 87 43 35 44 92 45 86 46
REMARK SMILES IDX 88 47 36 48 91 49 85 50 84 51 37 53 71 54 50 55 70 56 51 57
REMARK SMILES IDX 54 58 69 59 89 60 52 61 53 62 68 64 90 65 55 66 38 67 39 68
REMARK SMILES IDX 48 69 40 70 41 71 47 72 49 73 42 74 43 75 44 76 45 77 46 78
REMARK SMILES IDX 72 79 73 80 82 81 74 82 75 83 81 84 83 85 76 86 77 87 78 88
REMARK SMILES IDX 79 89 80 90 56 91 57 92 66 93 58 94 59 95 65 96 67 97 60 98
REMARK SMILES IDX 61 99 62 100 63 101 64 102
REMARK H PARENT 9 14 5 17 5 18 88 52 54 63
REMARK Flexibility Score: inf
ROOT
ATOM      1  C   UNL A   1      33.832  31.299  27.790  1.00  0.00     0.188 C 
ENDROOT
BRANCH   1   2
ATOM      2  C   UNL A   1      33.431  30.005  27.044  1.00  0.00     0.188 C 
BRANCH   2   3
ATOM      3  O   UNL A   1      32.035  29.812  26.920  1.00  0.00    -0.376 OA
BRANCH   3   4
ATOM      4  C   UNL A   1      31.617  29.238  25.691  1.00  0.00     0.202 C 
BRANCH   4   5
ATOM      5  C   UNL A   1      31.149  27.772  25.736  1.00  0.00     0.261 C 
BRANCH   5   6
ATOM      6  O   UNL A   1      32.075  26.856  26.365  1.00  0.00    -0.461 OA
BRANCH   6   7
ATOM      7  C   UNL A   1      31.877  25.526  26.229  1.00  0.00     0.331 C 
ATOM      8  O   UNL A   1      30.961  24.922  26.784  1.00  0.00    -0.249 OA
BRANCH   7   9
ATOM      9  C   UNL A   1      32.879  24.820  25.234  1.00  0.00     0.138 C 
ATOM     10  C   UNL A   1      34.361  24.892  25.640  1.00  0.00     0.048 C 
BRANCH   9  11
ATOM     11  N   UNL A   1      32.435  23.360  25.363  1.00  0.00    -0.335 N 
ATOM     12  C   UNL A   1      32.848  22.111  24.999  1.00  0.00     0.276 C 
ATOM     13  O   UNL A   1      32.090  21.179  25.303  1.00  0.00    -0.268 OA
ATOM     14  H   UNL A   1      31.588  23.306  25.862  1.00  0.00     0.164 HD
BRANCH  12  15
ATOM     15  C   UNL A   1      34.141  21.787  24.224  1.00  0.00     0.362 C 
BRANCH  15  16
ATOM     16  N   UNL A   1      35.284  21.255  25.059  1.00  0.00    -0.334 N 
ATOM     17  H   UNL A   1      35.128  21.550  26.023  1.00  0.00     0.347 HD
ATOM     18  H   UNL A   1      35.275  20.245  24.920  1.00  0.00     0.347 HD
BRANCH  16  19
ATOM     19  C   UNL A   1      36.640  21.694  24.669  1.00  0.00     0.088 C 
ATOM     20  C   UNL A   1      36.480  22.653  23.453  1.00  0.00     0.078 C 
ATOM     21  C   UNL A   1      37.541  20.436  24.720  1.00  0.00     0.078 C 
ATOM     22  C   UNL A   1      37.403  22.618  25.655  1.00  0.00     0.078 C 
ENDBRANCH  16  19
ENDBRANCH  15  16
ENDBRANCH  12  15
ENDBRANCH   9  11
BRANCH   9  23
ATOM     23  C   UNL A   1      32.682  25.241  23.790  1.00  0.00     0.026 C 
ATOM     24  C   UNL A   1      33.756  25.180  22.712  1.00  0.00     0.007 C 
ATOM     25  C   UNL A   1      32.425  24.549  22.465  1.00  0.00     0.007 C 
ENDBRANCH   9  23
ENDBRANCH   7   9
ENDBRANCH   6   7
ENDBRANCH   5   6
ENDBRANCH   4   5
ENDBRANCH   3   4
ENDBRANCH   2   3
ENDBRANCH   1   2
BRANCH   1  26
ATOM     26  O   UNL A   1      34.951  32.030  27.354  1.00  0.00    -0.377 OA
BRANCH  26  27
ATOM     27  C   UNL A   1      35.309  33.144  28.147  1.00  0.00     0.188 C 
BRANCH  27  28
ATOM     28  C   UNL A   1      34.192  33.932  28.872  1.00  0.00     0.188 C 
BRANCH  28  29
ATOM     29  O   UNL A   1      34.135  33.782  30.290  1.00  0.00    -0.376 OA
BRANCH  29  30
ATOM     30  C   UNL A   1      35.361  33.861  31.004  1.00  0.00     0.202 C 
BRANCH  30  31
ATOM     31  C   UNL A   1      35.797  32.587  31.742  1.00  0.00     0.261 C 
BRANCH  31  32
ATOM     32  O   UNL A   1      36.423  31.586  30.928  1.00  0.00    -0.460 OA
BRANCH  32  33
ATOM     33  C   UNL A   1      36.953  30.511  31.574  1.00  0.00     0.338 C 
ATOM     34  O   UNL A   1      36.389  29.757  32.315  1.00  0.00    -0.246 OA
BRANCH  33  35
ATOM     35  C   UNL A   1      38.301  30.292  30.993  1.00  0.00     0.060 A 
ATOM     36  C   UNL A   1      38.413  30.251  29.596  1.00  0.00     0.016 A 
ATOM     37  C   UNL A   1      39.441  30.248  31.801  1.00  0.00     0.016 A 
ATOM     38  C   UNL A   1      39.669  30.168  29.003  1.00  0.00     0.010 A 
ATOM     39  C   UNL A   1      40.697  30.105  31.206  1.00  0.00     0.010 A 
ATOM     40  C   UNL A   1      40.808  30.035  29.807  1.00  0.00    -0.014 A 
BRANCH  40  41
ATOM     41  C   UNL A   1      42.037  29.521  29.165  1.00  0.00     0.031 A 
ATOM     42  C   UNL A   1      43.197  30.475  29.062  1.00  0.00     0.074 A 
ATOM     43  C   UNL A   1      42.162  28.239  28.785  1.00  0.00     0.049 A 
ATOM     44  N   UNL A   1      44.419  30.258  28.655  1.00  0.00    -0.248 NA
ATOM     45  C   UNL A   1      42.942  31.862  29.491  1.00  0.00     0.031 C 
ATOM     46  C   UNL A   1      41.118  27.220  28.874  1.00  0.00     0.029 A 
ATOM     47  N   UNL A   1      43.241  27.573  28.260  1.00  0.00    -0.354 N 
ATOM     48  C   UNL A   1      45.080  31.472  28.796  1.00  0.00     0.074 A 
ATOM     49  C   UNL A   1      44.117  32.433  29.283  1.00  0.00     0.031 C 
ATOM     50  C   UNL A   1      41.609  26.053  28.415  1.00  0.00     0.029 A 
ATOM     51  C   UNL A   1      42.996  26.247  27.993  1.00  0.00     0.049 A 
ATOM     52  H   UNL A   1      44.109  28.005  28.091  1.00  0.00     0.167 HD
ATOM     53  C   UNL A   1      46.378  31.759  28.554  1.00  0.00     0.037 A 
ATOM     54  C   UNL A   1      43.804  25.307  27.465  1.00  0.00     0.037 A 
ATOM     55  C   UNL A   1      47.326  30.804  28.048  1.00  0.00     0.049 A 
ATOM     56  C   UNL A   1      45.233  25.667  27.138  1.00  0.00     0.074 A 
ATOM     57  C   UNL A   1      48.665  30.989  27.761  1.00  0.00     0.029 A 
ATOM     58  N   UNL A   1      47.028  29.484  27.740  1.00  0.00    -0.354 N 
ATOM     59  N   UNL A   1      45.856  26.811  27.303  1.00  0.00    -0.248 NA
ATOM     60  C   UNL A   1      46.072  24.604  26.568  1.00  0.00     0.031 C 
ATOM     61  C   UNL A   1      49.165  29.795  27.229  1.00  0.00     0.029 A 
ATOM     62  C   UNL A   1      48.152  28.849  27.243  1.00  0.00     0.049 A 
ATOM     63  H   UNL A   1      46.146  29.062  27.858  1.00  0.00     0.167 HD
ATOM     64  C   UNL A   1      47.166  26.597  26.883  1.00  0.00     0.074 A 
ATOM     65  C   UNL A   1      47.248  25.209  26.476  1.00  0.00     0.031 C 
ATOM     66  C   UNL A   1      48.210  27.465  26.838  1.00  0.00     0.037 A 
BRANCH  53  67
ATOM     67  C   UNL A   1      46.831  33.170  28.802  1.00  0.00     0.058 A 
ATOM     68  C   UNL A   1      46.755  34.159  27.807  1.00  0.00     0.135 A 
ATOM     69  C   UNL A   1      47.343  33.541  30.056  1.00  0.00     0.135 A 
ATOM     70  F   UNL A   1      46.303  33.851  26.581  1.00  0.00    -0.206 F 
ATOM     71  C   UNL A   1      47.188  35.460  28.041  1.00  0.00     0.059 A 
ATOM     72  C   UNL A   1      47.755  34.842  30.320  1.00  0.00     0.059 A 
ATOM     73  F   UNL A   1      47.453  32.631  31.036  1.00  0.00    -0.206 F 
ATOM     74  C   UNL A   1      47.683  35.792  29.302  1.00  0.00     0.060 A 
BRANCH  74  75
ATOM     75  S   UNL A   1      48.227  37.488  29.595  1.00  0.00     0.124 S 
ATOM     76  O   UNL A   1      48.515  37.460  31.025  1.00  0.00    -0.237 OA
ATOM     77  O   UNL A   1      49.386  37.598  28.717  1.00  0.00    -0.237 OA
ATOM     78  O   UNL A   1      47.070  38.289  29.205  1.00  0.00    -0.744 OA
ENDBRANCH  74  75
ENDBRANCH  53  67
BRANCH  54  79
ATOM     79  C   UNL A   1      43.290  23.932  27.212  1.00  0.00     0.058 A 
ATOM     80  C   UNL A   1      43.286  22.954  28.219  1.00  0.00     0.135 A 
ATOM     81  C   UNL A   1      42.805  23.564  25.947  1.00  0.00     0.135 A 
ATOM     82  F   UNL A   1      43.752  23.249  29.442  1.00  0.00    -0.206 F 
ATOM     83  C   UNL A   1      42.837  21.658  27.977  1.00  0.00     0.059 A 
ATOM     84  C   UNL A   1      42.325  22.285  25.688  1.00  0.00     0.059 A 
ATOM     85  F   UNL A   1      42.779  24.463  24.949  1.00  0.00    -0.206 F 
ATOM     86  C   UNL A   1      42.354  21.335  26.708  1.00  0.00     0.060 A 
BRANCH  86  87
ATOM     87  S   UNL A   1      41.726  19.667  26.418  1.00  0.00     0.124 S 
ATOM     88  O   UNL A   1      40.304  19.918  26.212  1.00  0.00    -0.237 OA
ATOM     89  O   UNL A   1      42.480  19.258  25.236  1.00  0.00    -0.237 OA
ATOM     90  O   UNL A   1      42.072  18.959  27.647  1.00  0.00    -0.744 OA
ENDBRANCH  86  87
ENDBRANCH  54  79
BRANCH  66  91
ATOM     91  C   UNL A   1      49.534  26.928  26.364  1.00  0.00     0.058 A 
ATOM     92  C   UNL A   1      49.961  27.076  25.035  1.00  0.00     0.135 A 
ATOM     93  C   UNL A   1      50.395  26.270  27.258  1.00  0.00     0.135 A 
ATOM     94  F   UNL A   1      49.180  27.698  24.139  1.00  0.00    -0.206 F 
ATOM     95  C   UNL A   1      51.172  26.547  24.598  1.00  0.00     0.059 A 
ATOM     96  C   UNL A   1      51.625  25.764  26.851  1.00  0.00     0.059 A 
ATOM     97  F   UNL A   1      50.046  26.118  28.546  1.00  0.00    -0.206 F 
ATOM     98  C   UNL A   1      51.994  25.886  25.513  1.00  0.00     0.060 A 
BRANCH  98  99
ATOM     99  S   UNL A   1      53.553  25.189  24.931  1.00  0.00     0.124 S 
ATOM    100  O   UNL A   1      53.396  23.783  25.286  1.00  0.00    -0.237 OA
ATOM    101  O   UNL A   1      53.518  25.491  23.504  1.00  0.00    -0.237 OA
ATOM    102  O   UNL A   1      54.558  25.921  25.695  1.00  0.00    -0.744 OA
ENDBRANCH  98  99
ENDBRANCH  66  91
ENDBRANCH  40  41
ENDBRANCH  33  35
ENDBRANCH  32  33
ENDBRANCH  31  32
ENDBRANCH  30  31
ENDBRANCH  29  30
ENDBRANCH  28  29
ENDBRANCH  27  28
ENDBRANCH  26  27
ENDBRANCH   1  26
TORSDOF 28
ENDMDL
MODEL 2
REMARK VINA RESULT:      -8.8      2.440      3.549
REMARK SMILES CC(C)(C)[NH2+]CC(=O)N[C@](C)(C(=O)OCCOCCOCCOCCOC(=O)c1ccc(-c2c3nc(c(-c4c(F)cc(S(=O)(=O)[O-])cc4F)c4ccc([nH]4)c(-c4c(F)cc(S(=O)(=O)[O-])cc4F)c4nc(c(-c5c(F)cc(S(=O)(=O)[O-])cc5F)c5ccc2[nH]5)C=C4)C=C3)cc1)C1CC1
REMARK SMILES IDX 19 1 18 2 17 3 16 4 15 5 14 6 12 7 13 8 10 9 11 10 9 11 7 12
REMARK SMILES IDX 8 13 6 15 5 16 2 19 1 20 3 21 4 22 95 23 96 24 97 25 20 26
REMARK SMILES IDX 21 27 22 28 23 29 24 30 25 31 26 32 27 33 28 34 29 35 30 36
REMARK SMILES IDX 94 37 31 38 93 39 32 40 33 41 34 42 87 43 35 44 92 45 86 46
REMARK SMILES IDX 88 47 36 48 91 49 85 50 84 51 37 53 71 54 50 55 70 56 51 57
REMARK SMILES IDX 54 58 69 59 89 60 52 61 53 62 68 64 90 65 55 66 38 67 39 68
REMARK SMILES IDX 48 69 40 70 41 71 47 72 49 73 42 74 43 75 44 76 45 77 46 78
REMARK SMILES IDX 72 79 73 80 82 81 74 82 75 83 81 84 83 85 76 86 77 87 78 88
REMARK SMILES IDX 79 89 80 90 56 91 57 92 66 93 58 94 59 95 65 96 67 97 60 98
REMARK SMILES IDX 61 99 62 100 63 101 64 102
REMARK H PARENT 9 14 5 17 5 18 88 52 54 63
REMARK Flexibility Score: inf
ROOT
ATOM      1  C   UNL A   1      31.882  29.882  25.571  1.00  0.00     0.188 C 
ENDROOT
BRANCH   1   2
ATOM      2  C   UNL A   1      32.218  28.522  24.916  1.00  0.00     0.188 C 
BRANCH   2   3
ATOM      3  O   UNL A   1      32.237  28.546  23.501  1.00  0.00    -0.376 OA
BRANCH   3   4
ATOM      4  C   UNL A   1      32.899  27.447  22.893  1.00  0.00     0.202 C 
BRANCH   4   5
ATOM      5  C   UNL A   1      32.622  26.055  23.490  1.00  0.00     0.261 C 
BRANCH   5   6
ATOM      6  O   UNL A   1      33.794  25.351  23.960  1.00  0.00    -0.461 OA
BRANCH   6   7
ATOM      7  C   UNL A   1      33.984  24.067  23.582  1.00  0.00     0.331 C 
ATOM      8  O   UNL A   1      34.685  23.745  22.625  1.00  0.00    -0.249 OA
BRANCH   7   9
ATOM      9  C   UNL A   1      33.288  23.005  24.519  1.00  0.00     0.138 C 
ATOM     10  C   UNL A   1      32.081  22.280  23.900  1.00  0.00     0.048 C 
BRANCH   9  11
ATOM     11  N   UNL A   1      34.413  21.977  24.676  1.00  0.00    -0.335 N 
ATOM     12  C   UNL A   1      34.578  20.647  24.937  1.00  0.00     0.276 C 
ATOM     13  O   UNL A   1      35.749  20.252  25.019  1.00  0.00    -0.268 OA
ATOM     14  H   UNL A   1      35.288  22.410  24.551  1.00  0.00     0.164 HD
BRANCH  12  15
ATOM     15  C   UNL A   1      33.439  19.633  25.169  1.00  0.00     0.362 C 
BRANCH  15  16
ATOM     16  N   UNL A   1      33.864  18.183  25.236  1.00  0.00    -0.334 N 
ATOM     17  H   UNL A   1      34.881  18.154  25.172  1.00  0.00     0.347 HD
ATOM     18  H   UNL A   1      33.487  17.830  26.115  1.00  0.00     0.347 HD
BRANCH  16  19
ATOM     19  C   UNL A   1      33.322  17.292  24.190  1.00  0.00     0.088 C 
ATOM     20  C   UNL A   1      32.313  18.131  23.351  1.00  0.00     0.078 C 
ATOM     21  C   UNL A   1      33.023  15.937  24.877  1.00  0.00     0.078 C 
ATOM     22  C   UNL A   1      34.293  16.826  23.074  1.00  0.00     0.078 C 
ENDBRANCH  16  19
ENDBRANCH  15  16
ENDBRANCH  12  15
ENDBRANCH   9  11
BRANCH   9  23
ATOM     23  C   UNL A   1      32.959  23.549  25.896  1.00  0.00     0.026 C 
ATOM     24  C   UNL A   1      31.560  23.922  26.371  1.00  0.00     0.007 C 
ATOM     25  C   UNL A   1      32.398  22.998  27.194  1.00  0.00     0.007 C 
ENDBRANCH   9  23
ENDBRANCH   7   9
ENDBRANCH   6   7
ENDBRANCH   5   6
ENDBRANCH   4   5
ENDBRANCH   3   4
ENDBRANCH   2   3
ENDBRANCH   1   2
BRANCH   1  26
ATOM     26  O   UNL A   1      32.876  30.568  26.290  1.00  0.00    -0.377 OA
BRANCH  26  27
ATOM     27  C   UNL A   1      32.416  31.481  27.265  1.00  0.00     0.188 C 
BRANCH  27  28
ATOM     28  C   UNL A   1      32.200  32.959  26.859  1.00  0.00     0.188 C 
BRANCH  28  29
ATOM     29  O   UNL A   1      32.248  33.915  27.916  1.00  0.00    -0.376 OA
BRANCH  29  30
ATOM     30  C   UNL A   1      33.529  34.392  28.306  1.00  0.00     0.202 C 
BRANCH  30  31
ATOM     31  C   UNL A   1      33.933  34.129  29.764  1.00  0.00     0.261 C 
BRANCH  31  32
ATOM     32  O   UNL A   1      34.034  32.747  30.137  1.00  0.00    -0.460 OA
BRANCH  32  33
ATOM     33  C   UNL A   1      34.761  32.463  31.252  1.00  0.00     0.338 C 
ATOM     34  O   UNL A   1      34.395  32.508  32.391  1.00  0.00    -0.246 OA
BRANCH  33  35
ATOM     35  C   UNL A   1      36.024  31.839  30.784  1.00  0.00     0.060 A 
ATOM     36  C   UNL A   1      36.893  31.314  31.751  1.00  0.00     0.016 A 
ATOM     37  C   UNL A   1      36.288  31.668  29.421  1.00  0.00     0.016 A 
ATOM     38  C   UNL A   1      38.029  30.614  31.356  1.00  0.00     0.010 A 
ATOM     39  C   UNL A   1      37.459  31.017  29.026  1.00  0.00     0.010 A 
ATOM     40  C   UNL A   1      38.345  30.516  29.995  1.00  0.00    -0.014 A 
BRANCH  40  41
ATOM     41  C   UNL A   1      39.738  30.164  29.644  1.00  0.00     0.031 A 
ATOM     42  C   UNL A   1      40.777  31.233  29.842  1.00  0.00     0.074 A 
ATOM     43  C   UNL A   1      40.087  28.923  29.266  1.00  0.00     0.049 A 
ATOM     44  N   UNL A   1      42.076  31.162  29.727  1.00  0.00    -0.248 NA
ATOM     45  C   UNL A   1      40.280  32.562  30.240  1.00  0.00     0.031 C 
ATOM     46  C   UNL A   1      39.169  27.800  29.078  1.00  0.00     0.029 A 
ATOM     47  N   UNL A   1      41.324  28.398  28.988  1.00  0.00    -0.354 N 
ATOM     48  C   UNL A   1      42.549  32.428  30.053  1.00  0.00     0.074 A 
ATOM     49  C   UNL A   1      41.401  33.259  30.329  1.00  0.00     0.031 C 
ATOM     50  C   UNL A   1      39.878  26.716  28.713  1.00  0.00     0.029 A 
ATOM     51  C   UNL A   1      41.295  27.070  28.633  1.00  0.00     0.049 A 
ATOM     52  H   UNL A   1      42.155  28.923  29.040  1.00  0.00     0.167 HD
ATOM     53  C   UNL A   1      43.829  32.856  30.130  1.00  0.00     0.037 A 
ATOM     54  C   UNL A   1      42.301  26.246  28.282  1.00  0.00     0.037 A 
ATOM     55  C   UNL A   1      44.967  32.029  29.832  1.00  0.00     0.049 A 
ATOM     56  C   UNL A   1      43.718  26.765  28.309  1.00  0.00     0.074 A 
ATOM     57  C   UNL A   1      46.307  32.363  29.872  1.00  0.00     0.029 A 
ATOM     58  N   UNL A   1      44.894  30.705  29.424  1.00  0.00    -0.354 N 
ATOM     59  N   UNL A   1      44.157  27.956  28.648  1.00  0.00    -0.248 NA
ATOM     60  C   UNL A   1      44.777  25.824  27.919  1.00  0.00     0.031 C 
ATOM     61  C   UNL A   1      47.045  31.257  29.437  1.00  0.00     0.029 A 
ATOM     62  C   UNL A   1      46.166  30.214  29.186  1.00  0.00     0.049 A 
ATOM     63  H   UNL A   1      44.062  30.190  29.320  1.00  0.00     0.167 HD
ATOM     64  C   UNL A   1      45.543  27.897  28.540  1.00  0.00     0.074 A 
ATOM     65  C   UNL A   1      45.869  26.548  28.123  1.00  0.00     0.031 C 
ATOM     66  C   UNL A   1      46.467  28.867  28.765  1.00  0.00     0.037 A 
BRANCH  53  67
ATOM     67  C   UNL A   1      44.055  34.290  30.518  1.00  0.00     0.058 A 
ATOM     68  C   UNL A   1      44.160  34.686  31.862  1.00  0.00     0.135 A 
ATOM     69  C   UNL A   1      44.175  35.281  29.532  1.00  0.00     0.135 A 
ATOM     70  F   UNL A   1      44.021  33.784  32.846  1.00  0.00    -0.206 F 
ATOM     71  C   UNL A   1      44.357  36.017  32.213  1.00  0.00     0.059 A 
ATOM     72  C   UNL A   1      44.401  36.614  29.860  1.00  0.00     0.059 A 
ATOM     73  F   UNL A   1      44.067  34.959  28.233  1.00  0.00    -0.206 F 
ATOM     74  C   UNL A   1      44.480  36.973  31.204  1.00  0.00     0.060 A 
BRANCH  74  75
ATOM     75  S   UNL A   1      44.750  38.694  31.676  1.00  0.00     0.124 S 
ATOM     76  O   UNL A   1      45.981  39.004  30.957  1.00  0.00    -0.237 OA
ATOM     77  O   UNL A   1      43.543  39.346  31.178  1.00  0.00    -0.237 OA
ATOM     78  O   UNL A   1      44.873  38.634  33.130  1.00  0.00    -0.744 OA
ENDBRANCH  74  75
ENDBRANCH  53  67
BRANCH  54  79
ATOM     79  C   UNL A   1      42.013  24.842  27.876  1.00  0.00     0.058 A 
ATOM     80  C   UNL A   1      42.299  23.760  28.722  1.00  0.00     0.135 A 
ATOM     81  C   UNL A   1      41.458  24.554  26.618  1.00  0.00     0.135 A 
ATOM     82  F   UNL A   1      42.843  23.980  29.929  1.00  0.00    -0.206 F 
ATOM     83  C   UNL A   1      42.063  22.444  28.333  1.00  0.00     0.059 A 
ATOM     84  C   UNL A   1      41.187  23.250  26.217  1.00  0.00     0.059 A 
ATOM     85  F   UNL A   1      41.159  25.551  25.771  1.00  0.00    -0.206 F 
ATOM     86  C   UNL A   1      41.502  22.201  27.078  1.00  0.00     0.060 A 
BRANCH  86  87
ATOM     87  S   UNL A   1      41.151  20.494  26.602  1.00  0.00     0.124 S 
ATOM     88  O   UNL A   1      39.812  20.615  26.036  1.00  0.00    -0.237 OA
ATOM     89  O   UNL A   1      42.224  20.216  25.652  1.00  0.00    -0.237 OA
ATOM     90  O   UNL A   1      41.240  19.768  27.866  1.00  0.00    -0.744 OA
ENDBRANCH  86  87
ENDBRANCH  54  79
BRANCH  66  91
ATOM     91  C   UNL A   1      47.915  28.492  28.598  1.00  0.00     0.058 A 
ATOM     92  C   UNL A   1      48.650  27.887  29.630  1.00  0.00     0.135 A 
ATOM     93  C   UNL A   1      48.573  28.727  27.379  1.00  0.00     0.135 A 
ATOM     94  F   UNL A   1      48.071  27.638  30.815  1.00  0.00    -0.206 F 
ATOM     95  C   UNL A   1      49.997  27.576  29.477  1.00  0.00     0.059 A 
ATOM     96  C   UNL A   1      49.911  28.392  27.192  1.00  0.00     0.059 A 
ATOM     97  F   UNL A   1      47.914  29.284  26.350  1.00  0.00    -0.206 F 
ATOM     98  C   UNL A   1      50.621  27.838  28.256  1.00  0.00     0.060 A 
BRANCH  98  99
ATOM     99  S   UNL A   1      52.372  27.445  28.075  1.00  0.00     0.124 S 
ATOM    100  O   UNL A   1      52.334  25.993  27.938  1.00  0.00    -0.237 OA
ATOM    101  O   UNL A   1      52.738  28.187  26.872  1.00  0.00    -0.237 OA
ATOM    102  O   UNL A   1      52.962  27.943  29.314  1.00  0.00    -0.744 OA
ENDBRANCH  98  99
ENDBRANCH  66  91
ENDBRANCH  40  41
ENDBRANCH  33  35
ENDBRANCH  32  33
ENDBRANCH  31  32
ENDBRANCH  30  31
ENDBRANCH  29  30
ENDBRANCH  28  29
ENDBRANCH  27  28
ENDBRANCH  26  27
ENDBRANCH   1  26
TORSDOF 28
ENDMDL
MODEL 3
REMARK VINA RESULT:      -8.7      6.050     10.805
REMARK SMILES CC(C)(C)[NH2+]CC(=O)N[C@](C)(C(=O)OCCOCCOCCOCCOC(=O)c1ccc(-c2c3nc(c(-c4c(F)cc(S(=O)(=O)[O-])cc4F)c4ccc([nH]4)c(-c4c(F)cc(S(=O)(=O)[O-])cc4F)c4nc(c(-c5c(F)cc(S(=O)(=O)[O-])cc5F)c5ccc2[nH]5)C=C4)C=C3)cc1)C1CC1
REMARK SMILES IDX 19 1 18 2 17 3 16 4 15 5 14 6 12 7 13 8 10 9 11 10 9 11 7 12
REMARK SMILES IDX 8 13 6 15 5 16 2 19 1 20 3 21 4 22 95 23 96 24 97 25 20 26
REMARK SMILES IDX 21 27 22 28 23 29 24 30 25 31 26 32 27 33 28 34 29 35 30 36
REMARK SMILES IDX 94 37 31 38 93 39 32 40 33 41 34 42 87 43 35 44 92 45 86 46
REMARK SMILES IDX 88 47 36 48 91 49 85 50 84 51 37 53 71 54 50 55 70 56 51 57
REMARK SMILES IDX 54 58 69 59 89 60 52 61 53 62 68 64 90 65 55 66 38 67 39 68
REMARK SMILES IDX 48 69 40 70 41 71 47 72 49 73 42 74 43 75 44 76 45 77 46 78
REMARK SMILES IDX 72 79 73 80 82 81 74 82 75 83 81 84 83 85 76 86 77 87 78 88
REMARK SMILES IDX 79 89 80 90 56 91 57 92 66 93 58 94 59 95 65 96 67 97 60 98
REMARK SMILES IDX 61 99 62 100 63 101 64 102
REMARK H PARENT 9 14 5 17 5 18 88 52 54 63
REMARK Flexibility Score: inf
ROOT
ATOM      1  C   UNL A   1      30.725  27.434  23.909  1.00  0.00     0.188 C 
ENDROOT
BRANCH   1   2
ATOM      2  C   UNL A   1      31.800  26.931  22.917  1.00  0.00     0.188 C 
BRANCH   2   3
ATOM      3  O   UNL A   1      31.533  25.657  22.363  1.00  0.00    -0.376 OA
BRANCH   3   4
ATOM      4  C   UNL A   1      30.599  24.872  23.089  1.00  0.00     0.202 C 
BRANCH   4   5
ATOM      5  C   UNL A   1      31.034  23.442  23.456  1.00  0.00     0.261 C 
BRANCH   5   6
ATOM      6  O   UNL A   1      32.194  23.360  24.315  1.00  0.00    -0.461 OA
BRANCH   6   7
ATOM      7  C   UNL A   1      33.426  23.400  23.760  1.00  0.00     0.331 C 
ATOM      8  O   UNL A   1      33.640  23.134  22.579  1.00  0.00    -0.249 OA
BRANCH   7   9
ATOM      9  C   UNL A   1      34.563  23.891  24.739  1.00  0.00     0.138 C 
ATOM     10  C   UNL A   1      34.354  25.297  25.328  1.00  0.00     0.048 C 
BRANCH   9  11
ATOM     11  N   UNL A   1      34.415  22.884  25.883  1.00  0.00    -0.335 N 
ATOM     12  C   UNL A   1      34.317  21.536  26.077  1.00  0.00     0.276 C 
ATOM     13  O   UNL A   1      34.153  21.167  27.248  1.00  0.00    -0.268 OA
ATOM     14  H   UNL A   1      34.378  23.355  26.747  1.00  0.00     0.164 HD
BRANCH  12  15
ATOM     15  C   UNL A   1      34.359  20.467  24.966  1.00  0.00     0.362 C 
BRANCH  15  16
ATOM     16  N   UNL A   1      33.063  19.725  24.730  1.00  0.00    -0.334 N 
ATOM     17  H   UNL A   1      32.547  19.713  25.609  1.00  0.00     0.347 HD
ATOM     18  H   UNL A   1      32.597  20.226  23.974  1.00  0.00     0.347 HD
BRANCH  16  19
ATOM     19  C   UNL A   1      33.184  18.329  24.261  1.00  0.00     0.088 C 
ATOM     20  C   UNL A   1      34.678  17.920  24.418  1.00  0.00     0.078 C 
ATOM     21  C   UNL A   1      32.347  18.228  22.962  1.00  0.00     0.078 C 
ATOM     22  C   UNL A   1      32.502  17.227  25.113  1.00  0.00     0.078 C 
ENDBRANCH  16  19
ENDBRANCH  15  16
ENDBRANCH  12  15
ENDBRANCH   9  11
BRANCH   9  23
ATOM     23  C   UNL A   1      35.956  23.737  24.160  1.00  0.00     0.026 C 
ATOM     24  C   UNL A   1      37.075  22.919  24.793  1.00  0.00     0.007 C 
ATOM     25  C   UNL A   1      36.710  22.689  23.362  1.00  0.00     0.007 C 
ENDBRANCH   9  23
ENDBRANCH   7   9
ENDBRANCH   6   7
ENDBRANCH   5   6
ENDBRANCH   4   5
ENDBRANCH   3   4
ENDBRANCH   2   3
ENDBRANCH   1   2
BRANCH   1  26
ATOM     26  O   UNL A   1      29.829  28.440  23.506  1.00  0.00    -0.377 OA
BRANCH  26  27
ATOM     27  C   UNL A   1      30.210  29.765  23.810  1.00  0.00     0.188 C 
BRANCH  27  28
ATOM     28  C   UNL A   1      31.210  30.006  24.967  1.00  0.00     0.188 C 
BRANCH  28  29
ATOM     29  O   UNL A   1      31.079  31.243  25.665  1.00  0.00    -0.376 OA
BRANCH  29  30
ATOM     30  C   UNL A   1      31.871  31.420  26.832  1.00  0.00     0.202 C 
BRANCH  30  31
ATOM     31  C   UNL A   1      32.149  32.872  27.246  1.00  0.00     0.261 C 
BRANCH  31  32
ATOM     32  O   UNL A   1      33.468  33.130  27.748  1.00  0.00    -0.460 OA
BRANCH  32  33
ATOM     33  C   UNL A   1      33.606  34.178  28.605  1.00  0.00     0.338 C 
ATOM     34  O   UNL A   1      32.927  35.163  28.665  1.00  0.00    -0.246 OA
BRANCH  33  35
ATOM     35  C   UNL A   1      34.601  33.761  29.625  1.00  0.00     0.060 A 
ATOM     36  C   UNL A   1      35.937  34.137  29.428  1.00  0.00     0.016 A 
ATOM     37  C   UNL A   1      34.206  33.121  30.804  1.00  0.00     0.016 A 
ATOM     38  C   UNL A   1      36.884  33.874  30.413  1.00  0.00     0.010 A 
ATOM     39  C   UNL A   1      35.168  32.804  31.766  1.00  0.00     0.010 A 
ATOM     40  C   UNL A   1      36.513  33.155  31.557  1.00  0.00    -0.014 A 
BRANCH  40  41
ATOM     41  C   UNL A   1      37.595  32.528  32.346  1.00  0.00     0.031 A 
ATOM     42  C   UNL A   1      38.316  31.371  31.709  1.00  0.00     0.074 A 
ATOM     43  C   UNL A   1      37.995  33.024  33.529  1.00  0.00     0.049 A 
ATOM     44  N   UNL A   1      39.369  30.717  32.122  1.00  0.00    -0.248 NA
ATOM     45  C   UNL A   1      37.781  30.898  30.420  1.00  0.00     0.031 C 
ATOM     46  C   UNL A   1      37.395  34.163  34.221  1.00  0.00     0.029 A 
ATOM     47  N   UNL A   1      39.023  32.632  34.350  1.00  0.00    -0.354 N 
ATOM     48  C   UNL A   1      39.629  29.771  31.138  1.00  0.00     0.074 A 
ATOM     49  C   UNL A   1      38.604  29.904  30.129  1.00  0.00     0.031 C 
ATOM     50  C   UNL A   1      38.066  34.378  35.368  1.00  0.00     0.029 A 
ATOM     51  C   UNL A   1      39.135  33.387  35.494  1.00  0.00     0.049 A 
ATOM     52  H   UNL A   1      39.624  31.882  34.139  1.00  0.00     0.167 HD
ATOM     53  C   UNL A   1      40.642  28.878  31.073  1.00  0.00     0.037 A 
ATOM     54  C   UNL A   1      40.003  33.281  36.519  1.00  0.00     0.037 A 
ATOM     55  C   UNL A   1      41.647  28.736  32.092  1.00  0.00     0.049 A 
ATOM     56  C   UNL A   1      41.087  32.231  36.457  1.00  0.00     0.074 A 
ATOM     57  C   UNL A   1      42.716  27.860  32.130  1.00  0.00     0.029 A 
ATOM     58  N   UNL A   1      41.698  29.483  33.260  1.00  0.00    -0.354 N 
ATOM     59  N   UNL A   1      41.342  31.361  35.508  1.00  0.00    -0.248 NA
ATOM     60  C   UNL A   1      42.007  32.160  37.600  1.00  0.00     0.031 C 
ATOM     61  C   UNL A   1      43.382  28.040  33.347  1.00  0.00     0.029 A 
ATOM     62  C   UNL A   1      42.766  29.072  34.038  1.00  0.00     0.049 A 
ATOM     63  H   UNL A   1      41.067  30.200  33.500  1.00  0.00     0.167 HD
ATOM     64  C   UNL A   1      42.469  30.659  35.926  1.00  0.00     0.074 A 
ATOM     65  C   UNL A   1      42.855  31.221  37.205  1.00  0.00     0.031 C 
ATOM     66  C   UNL A   1      43.129  29.643  35.313  1.00  0.00     0.037 A 
BRANCH  53  67
ATOM     67  C   UNL A   1      40.686  27.969  29.878  1.00  0.00     0.058 A 
ATOM     68  C   UNL A   1      41.630  28.139  28.851  1.00  0.00     0.135 A 
ATOM     69  C   UNL A   1      39.776  26.907  29.761  1.00  0.00     0.135 A 
ATOM     70  F   UNL A   1      42.503  29.158  28.898  1.00  0.00    -0.206 F 
ATOM     71  C   UNL A   1      41.656  27.301  27.742  1.00  0.00     0.059 A 
ATOM     72  C   UNL A   1      39.802  26.039  28.675  1.00  0.00     0.059 A 
ATOM     73  F   UNL A   1      38.843  26.709  30.706  1.00  0.00    -0.206 F 
ATOM     74  C   UNL A   1      40.739  26.251  27.665  1.00  0.00     0.060 A 
BRANCH  74  75
ATOM     75  S   UNL A   1      40.796  25.162  26.227  1.00  0.00     0.124 S 
ATOM     76  O   UNL A   1      41.743  24.144  26.668  1.00  0.00    -0.237 OA
ATOM     77  O   UNL A   1      39.407  24.729  26.111  1.00  0.00    -0.237 OA
ATOM     78  O   UNL A   1      41.269  26.036  25.156  1.00  0.00    -0.744 OA
ENDBRANCH  74  75
ENDBRANCH  53  67
BRANCH  54  79
ATOM     79  C   UNL A   1      39.892  34.191  37.693  1.00  0.00     0.058 A 
ATOM     80  C   UNL A   1      40.631  35.382  37.771  1.00  0.00     0.135 A 
ATOM     81  C   UNL A   1      39.051  33.876  38.773  1.00  0.00     0.135 A 
ATOM     82  F   UNL A   1      41.459  35.722  36.772  1.00  0.00    -0.206 F 
ATOM     83  C   UNL A   1      40.554  36.218  38.881  1.00  0.00     0.059 A 
ATOM     84  C   UNL A   1      38.936  34.709  39.881  1.00  0.00     0.059 A 
ATOM     85  F   UNL A   1      38.317  32.752  38.747  1.00  0.00    -0.206 F 
ATOM     86  C   UNL A   1      39.700  35.873  39.930  1.00  0.00     0.060 A 
BRANCH  86  87
ATOM     87  S   UNL A   1      39.569  36.990  41.344  1.00  0.00     0.124 S 
ATOM     88  O   UNL A   1      40.971  37.256  41.642  1.00  0.00    -0.237 OA
ATOM     89  O   UNL A   1      38.811  38.105  40.782  1.00  0.00    -0.237 OA
ATOM     90  O   UNL A   1      38.852  36.193  42.335  1.00  0.00    -0.744 OA
ENDBRANCH  86  87
ENDBRANCH  54  79
BRANCH  66  91
ATOM     91  C   UNL A   1      44.353  29.100  36.000  1.00  0.00     0.058 A 
ATOM     92  C   UNL A   1      45.618  29.686  35.837  1.00  0.00     0.135 A 
ATOM     93  C   UNL A   1      44.253  27.985  36.850  1.00  0.00     0.135 A 
ATOM     94  F   UNL A   1      45.770  30.754  35.039  1.00  0.00    -0.206 F 
ATOM     95  C   UNL A   1      46.749  29.156  36.451  1.00  0.00     0.059 A 
ATOM     96  C   UNL A   1      45.365  27.460  37.501  1.00  0.00     0.059 A 
ATOM     97  F   UNL A   1      43.065  27.397  37.059  1.00  0.00    -0.206 F 
ATOM     98  C   UNL A   1      46.613  28.038  37.275  1.00  0.00     0.060 A 
BRANCH  98  99
ATOM     99  S   UNL A   1      48.089  27.350  38.052  1.00  0.00     0.124 S 
ATOM    100  O   UNL A   1      47.900  27.747  39.443  1.00  0.00    -0.237 OA
ATOM    101  O   UNL A   1      47.954  25.924  37.775  1.00  0.00    -0.237 OA
ATOM    102  O   UNL A   1      49.183  28.017  37.353  1.00  0.00    -0.744 OA
ENDBRANCH  98  99
ENDBRANCH  66  91
ENDBRANCH  40  41
ENDBRANCH  33  35
ENDBRANCH  32  33
ENDBRANCH  31  32
ENDBRANCH  30  31
ENDBRANCH  29  30
ENDBRANCH  28  29
ENDBRANCH  27  28
ENDBRANCH  26  27
ENDBRANCH   1  26
TORSDOF 28
ENDMDL
