MODEL 1
REMARK VINA RESULT:      -8.5      0.000      0.000
REMARK SMILES Cc1ccc(-c2cc(Cl)ccc2Cl)c(C(=O)OCCOCCOCCOCCOC(=O)c2ccc(-c3c4nc(c(-c5c(F)cc(S(=O)(=O)[O-])cc5F)c5ccc([nH]5)c(-c5c(F)cc(S(=O)(=O)[O-])cc5F)c5nc(c(-c6c(F)cc(S(=O)(=O)[O-])cc6F)c6ccc3[nH]6)C=C5)C=C4)cc2)c1
REMARK SMILES IDX 24 1 23 2 22 3 21 4 20 5 19 6 18 7 17 8 15 9 16 10 14 11
REMARK SMILES IDX 1 12 2 13 3 14 98 15 4 16 5 17 6 18 7 19 12 20 8 21 11 22
REMARK SMILES IDX 13 23 9 24 10 25 25 26 26 27 27 28 28 29 29 30 30 31 31 32
REMARK SMILES IDX 32 33 33 34 97 35 34 36 96 37 35 38 36 39 37 40 90 41 38 42
REMARK SMILES IDX 95 43 89 44 91 45 39 46 94 47 88 48 87 49 40 51 74 52 53 53
REMARK SMILES IDX 73 54 54 55 57 56 72 57 92 58 55 59 56 60 71 62 93 63 58 64
REMARK SMILES IDX 41 65 42 66 51 67 43 68 44 69 50 70 52 71 45 72 46 73 47 74
REMARK SMILES IDX 48 75 49 76 75 77 76 78 85 79 77 80 78 81 84 82 86 83 79 84
REMARK SMILES IDX 80 85 81 86 82 87 83 88 59 89 60 90 69 91 61 92 62 93 68 94
REMARK SMILES IDX 70 95 63 96 64 97 65 98 66 99 67 100
REMARK H PARENT 91 50 57 61
REMARK Flexibility Score: inf
ROOT
ATOM      1  C   UNL A   1      35.820  34.765  33.132  1.00  0.00     0.188 C 
ENDROOT
BRANCH   1   2
ATOM      2  O   UNL A   1      34.417  35.062  33.174  1.00  0.00    -0.377 OA
BRANCH   2   3
ATOM      3  C   UNL A   1      34.023  36.168  32.360  1.00  0.00     0.188 C 
BRANCH   3   4
ATOM      4  C   UNL A   1      32.603  36.038  31.834  1.00  0.00     0.188 C 
BRANCH   4   5
ATOM      5  O   UNL A   1      32.394  36.593  30.533  1.00  0.00    -0.376 OA
BRANCH   5   6
ATOM      6  C   UNL A   1      33.354  36.129  29.575  1.00  0.00     0.202 C 
BRANCH   6   7
ATOM      7  C   UNL A   1      33.076  34.778  28.908  1.00  0.00     0.261 C 
BRANCH   7   8
ATOM      8  O   UNL A   1      34.304  34.088  28.684  1.00  0.00    -0.460 OA
BRANCH   8   9
ATOM      9  C   UNL A   1      34.552  33.078  29.538  1.00  0.00     0.338 C 
ATOM     10  O   UNL A   1      34.180  32.957  30.677  1.00  0.00    -0.246 OA
BRANCH   9  11
ATOM     11  C   UNL A   1      35.052  31.969  28.708  1.00  0.00     0.068 A 
ATOM     12  C   UNL A   1      33.532  28.990  26.931  1.00  0.00     0.044 C 
ATOM     13  C   UNL A   1      34.546  29.953  27.473  1.00  0.00    -0.050 A 
ATOM     14  C   UNL A   1      35.924  29.694  27.409  1.00  0.00     0.004 A 
ATOM     15  C   UNL A   1      34.117  31.131  28.081  1.00  0.00     0.019 A 
ATOM     16  C   UNL A   1      36.858  30.522  28.064  1.00  0.00     0.010 A 
ATOM     17  C   UNL A   1      36.434  31.648  28.777  1.00  0.00    -0.002 A 
BRANCH  17  18
ATOM     18  C   UNL A   1      37.305  32.357  29.763  1.00  0.00     0.003 A 
ATOM     19  C   UNL A   1      38.138  33.398  29.292  1.00  0.00     0.030 A 
ATOM     20  C   UNL A   1      37.594  31.826  31.036  1.00  0.00     0.049 A 
ATOM     21  C   UNL A   1      39.314  33.746  29.967  1.00  0.00     0.041 A 
ATOM     22  C   UNL A   1      38.789  32.156  31.693  1.00  0.00     0.023 A 
ATOM     23  Cl  UNL A   1      36.540  30.672  31.781  1.00  0.00    -0.084 Cl
ATOM     24  Cl  UNL A   1      40.386  34.910  29.286  1.00  0.00    -0.084 Cl
ATOM     25  C   UNL A   1      39.669  33.087  31.138  1.00  0.00     0.022 A 
ENDBRANCH  17  18
ENDBRANCH   9  11
ENDBRANCH   8   9
ENDBRANCH   7   8
ENDBRANCH   6   7
ENDBRANCH   5   6
ENDBRANCH   4   5
ENDBRANCH   3   4
ENDBRANCH   2   3
ENDBRANCH   1   2
BRANCH   1  26
ATOM     26  C   UNL A   1      36.207  33.688  34.136  1.00  0.00     0.188 C 
BRANCH  26  27
ATOM     27  O   UNL A   1      36.989  34.310  35.162  1.00  0.00    -0.376 OA
BRANCH  27  28
ATOM     28  C   UNL A   1      37.228  33.536  36.329  1.00  0.00     0.202 C 
BRANCH  28  29
ATOM     29  C   UNL A   1      38.694  33.142  36.528  1.00  0.00     0.261 C 
BRANCH  29  30
ATOM     30  O   UNL A   1      39.175  32.341  35.428  1.00  0.00    -0.460 OA
BRANCH  30  31
ATOM     31  C   UNL A   1      39.241  30.999  35.671  1.00  0.00     0.338 C 
ATOM     32  O   UNL A   1      38.459  30.403  36.390  1.00  0.00    -0.246 OA
BRANCH  31  33
ATOM     33  C   UNL A   1      40.372  30.384  34.916  1.00  0.00     0.060 A 
ATOM     34  C   UNL A   1      41.706  30.742  35.164  1.00  0.00     0.016 A 
ATOM     35  C   UNL A   1      40.081  29.582  33.825  1.00  0.00     0.016 A 
ATOM     36  C   UNL A   1      42.720  30.437  34.229  1.00  0.00     0.010 A 
ATOM     37  C   UNL A   1      41.067  29.346  32.887  1.00  0.00     0.010 A 
ATOM     38  C   UNL A   1      42.394  29.789  33.039  1.00  0.00    -0.014 A 
BRANCH  38  39
ATOM     39  C   UNL A   1      43.250  29.600  31.837  1.00  0.00     0.031 A 
ATOM     40  C   UNL A   1      43.672  28.186  31.480  1.00  0.00     0.074 A 
ATOM     41  C   UNL A   1      43.272  30.567  30.875  1.00  0.00     0.049 A 
ATOM     42  N   UNL A   1      44.182  27.816  30.354  1.00  0.00    -0.248 NA
ATOM     43  C   UNL A   1      43.486  27.027  32.363  1.00  0.00     0.031 C 
ATOM     44  C   UNL A   1      43.405  30.340  29.430  1.00  0.00     0.029 A 
ATOM     45  N   UNL A   1      43.087  31.941  30.903  1.00  0.00    -0.354 N 
ATOM     46  C   UNL A   1      43.997  26.453  30.205  1.00  0.00     0.074 A 
ATOM     47  C   UNL A   1      43.651  25.996  31.524  1.00  0.00     0.031 C 
ATOM     48  C   UNL A   1      43.379  31.493  28.746  1.00  0.00     0.029 A 
ATOM     49  C   UNL A   1      43.598  32.519  29.731  1.00  0.00     0.049 A 
ATOM     50  H   UNL A   1      42.658  32.438  31.638  1.00  0.00     0.167 HD
ATOM     51  C   UNL A   1      44.021  25.912  28.947  1.00  0.00     0.037 A 
ATOM     52  C   UNL A   1      44.756  33.256  29.710  1.00  0.00     0.037 A 
ATOM     53  C   UNL A   1      44.530  26.881  27.963  1.00  0.00     0.049 A 
ATOM     54  C   UNL A   1      45.877  32.517  28.964  1.00  0.00     0.074 A 
ATOM     55  C   UNL A   1      44.106  27.326  26.727  1.00  0.00     0.029 A 
ATOM     56  N   UNL A   1      45.645  27.665  28.270  1.00  0.00    -0.354 N 
ATOM     57  N   UNL A   1      45.943  31.208  28.889  1.00  0.00    -0.248 NA
ATOM     58  C   UNL A   1      46.876  33.152  28.100  1.00  0.00     0.031 C 
ATOM     59  C   UNL A   1      44.798  28.533  26.427  1.00  0.00     0.029 A 
ATOM     60  C   UNL A   1      45.780  28.716  27.390  1.00  0.00     0.049 A 
ATOM     61  H   UNL A   1      46.257  27.488  29.021  1.00  0.00     0.167 HD
ATOM     62  C   UNL A   1      46.831  30.834  27.918  1.00  0.00     0.074 A 
ATOM     63  C   UNL A   1      47.445  32.084  27.502  1.00  0.00     0.031 C 
ATOM     64  C   UNL A   1      46.960  29.564  27.429  1.00  0.00     0.037 A 
BRANCH  51  65
ATOM     65  C   UNL A   1      43.411  24.564  28.529  1.00  0.00     0.058 A 
ATOM     66  C   UNL A   1      44.238  23.518  28.049  1.00  0.00     0.135 A 
ATOM     67  C   UNL A   1      42.029  24.275  28.454  1.00  0.00     0.135 A 
ATOM     68  F   UNL A   1      45.574  23.631  28.061  1.00  0.00    -0.206 F 
ATOM     69  C   UNL A   1      43.745  22.309  27.533  1.00  0.00     0.059 A 
ATOM     70  C   UNL A   1      41.514  23.048  28.000  1.00  0.00     0.059 A 
ATOM     71  F   UNL A   1      41.102  25.188  28.773  1.00  0.00    -0.206 F 
ATOM     72  C   UNL A   1      42.378  22.073  27.522  1.00  0.00     0.060 A 
BRANCH  72  73
ATOM     73  S   UNL A   1      41.759  20.492  26.902  1.00  0.00     0.124 S 
ATOM     74  O   UNL A   1      40.327  20.605  27.166  1.00  0.00    -0.237 OA
ATOM     75  O   UNL A   1      42.153  20.526  25.498  1.00  0.00    -0.237 OA
ATOM     76  O   UNL A   1      42.464  19.507  27.718  1.00  0.00    -0.744 OA
ENDBRANCH  72  73
ENDBRANCH  51  65
BRANCH  52  77
ATOM     77  C   UNL A   1      44.804  34.225  30.849  1.00  0.00     0.058 A 
ATOM     78  C   UNL A   1      43.852  35.267  30.758  1.00  0.00     0.135 A 
ATOM     79  C   UNL A   1      45.121  33.762  32.137  1.00  0.00     0.135 A 
ATOM     80  F   UNL A   1      43.554  35.793  29.558  1.00  0.00    -0.206 F 
ATOM     81  C   UNL A   1      43.044  35.615  31.839  1.00  0.00     0.059 A 
ATOM     82  C   UNL A   1      44.332  34.113  33.240  1.00  0.00     0.059 A 
ATOM     83  F   UNL A   1      46.036  32.796  32.299  1.00  0.00    -0.206 F 
ATOM     84  C   UNL A   1      43.243  34.971  33.058  1.00  0.00     0.060 A 
BRANCH  84  85
ATOM     85  S   UNL A   1      41.929  35.079  34.307  1.00  0.00     0.124 S 
ATOM     86  O   UNL A   1      42.044  36.462  34.751  1.00  0.00    -0.237 OA
ATOM     87  O   UNL A   1      40.741  34.756  33.523  1.00  0.00    -0.237 OA
ATOM     88  O   UNL A   1      42.316  34.064  35.279  1.00  0.00    -0.744 OA
ENDBRANCH  84  85
ENDBRANCH  52  77
BRANCH  64  89
ATOM     89  C   UNL A   1      48.239  28.983  26.869  1.00  0.00     0.058 A 
ATOM     90  C   UNL A   1      49.455  29.035  27.567  1.00  0.00     0.135 A 
ATOM     91  C   UNL A   1      48.227  28.132  25.729  1.00  0.00     0.135 A 
ATOM     92  F   UNL A   1      49.574  29.716  28.716  1.00  0.00    -0.206 F 
ATOM     93  C   UNL A   1      50.585  28.342  27.144  1.00  0.00     0.059 A 
ATOM     94  C   UNL A   1      49.328  27.388  25.323  1.00  0.00     0.059 A 
ATOM     95  F   UNL A   1      47.129  27.958  24.980  1.00  0.00    -0.206 F 
ATOM     96  C   UNL A   1      50.512  27.520  26.024  1.00  0.00     0.060 A 
BRANCH  96  97
ATOM     97  S   UNL A   1      51.970  26.601  25.519  1.00  0.00     0.124 S 
ATOM     98  O   UNL A   1      52.149  27.079  24.152  1.00  0.00    -0.237 OA
ATOM     99  O   UNL A   1      52.974  27.048  26.481  1.00  0.00    -0.237 OA
ATOM    100  O   UNL A   1      51.562  25.206  25.653  1.00  0.00    -0.744 OA
ENDBRANCH  96  97
ENDBRANCH  64  89
ENDBRANCH  38  39
ENDBRANCH  31  33
ENDBRANCH  30  31
ENDBRANCH  29  30
ENDBRANCH  28  29
ENDBRANCH  27  28
ENDBRANCH  26  27
ENDBRANCH   1  26
TORSDOF 24
ENDMDL
MODEL 2
REMARK VINA RESULT:      -8.2      4.167     11.225
REMARK SMILES Cc1ccc(-c2cc(Cl)ccc2Cl)c(C(=O)OCCOCCOCCOCCOC(=O)c2ccc(-c3c4nc(c(-c5c(F)cc(S(=O)(=O)[O-])cc5F)c5ccc([nH]5)c(-c5c(F)cc(S(=O)(=O)[O-])cc5F)c5nc(c(-c6c(F)cc(S(=O)(=O)[O-])cc6F)c6ccc3[nH]6)C=C5)C=C4)cc2)c1
REMARK SMILES IDX 24 1 23 2 22 3 21 4 20 5 19 6 18 7 17 8 15 9 16 10 14 11
REMARK SMILES IDX 1 12 2 13 3 14 98 15 4 16 5 17 6 18 7 19 12 20 8 21 11 22
REMARK SMILES IDX 13 23 9 24 10 25 25 26 26 27 27 28 28 29 29 30 30 31 31 32
REMARK SMILES IDX 32 33 33 34 97 35 34 36 96 37 35 38 36 39 37 40 90 41 38 42
REMARK SMILES IDX 95 43 89 44 91 45 39 46 94 47 88 48 87 49 40 51 74 52 53 53
REMARK SMILES IDX 73 54 54 55 57 56 72 57 92 58 55 59 56 60 71 62 93 63 58 64
REMARK SMILES IDX 41 65 42 66 51 67 43 68 44 69 50 70 52 71 45 72 46 73 47 74
REMARK SMILES IDX 48 75 49 76 75 77 76 78 85 79 77 80 78 81 84 82 86 83 79 84
REMARK SMILES IDX 80 85 81 86 82 87 83 88 59 89 60 90 69 91 61 92 62 93 68 94
REMARK SMILES IDX 70 95 63 96 64 97 65 98 66 99 67 100
REMARK H PARENT 91 50 57 61
REMARK Flexibility Score: inf
ROOT
ATOM      1  C   UNL A   1      42.411  18.699  26.237  1.00  0.00     0.188 C 
ENDROOT
BRANCH   1   2
ATOM      2  O   UNL A   1      41.928  20.045  26.138  1.00  0.00    -0.377 OA
BRANCH   2   3
ATOM      3  C   UNL A   1      40.680  20.275  26.794  1.00  0.00     0.188 C 
BRANCH   3   4
ATOM      4  C   UNL A   1      40.348  21.751  26.932  1.00  0.00     0.188 C 
BRANCH   4   5
ATOM      5  O   UNL A   1      39.360  22.231  26.016  1.00  0.00    -0.376 OA
BRANCH   5   6
ATOM      6  C   UNL A   1      38.757  23.458  26.449  1.00  0.00     0.202 C 
BRANCH   6   7
ATOM      7  C   UNL A   1      37.329  23.738  25.970  1.00  0.00     0.261 C 
BRANCH   7   8
ATOM      8  O   UNL A   1      36.641  22.507  25.757  1.00  0.00    -0.460 OA
BRANCH   8   9
ATOM      9  C   UNL A   1      36.030  22.398  24.563  1.00  0.00     0.338 C 
ATOM     10  O   UNL A   1      36.529  22.403  23.467  1.00  0.00    -0.246 OA
BRANCH   9  11
ATOM     11  C   UNL A   1      34.676  21.896  24.854  1.00  0.00     0.068 A 
ATOM     12  C   UNL A   1      32.996  18.505  25.003  1.00  0.00     0.044 C 
ATOM     13  C   UNL A   1      33.197  19.992  25.025  1.00  0.00    -0.050 A 
ATOM     14  C   UNL A   1      32.116  20.886  25.077  1.00  0.00     0.004 A 
ATOM     15  C   UNL A   1      34.489  20.510  24.969  1.00  0.00     0.019 A 
ATOM     16  C   UNL A   1      32.306  22.275  24.932  1.00  0.00     0.010 A 
ATOM     17  C   UNL A   1      33.589  22.805  24.760  1.00  0.00    -0.002 A 
BRANCH  17  18
ATOM     18  C   UNL A   1      33.831  24.193  24.261  1.00  0.00     0.003 A 
ATOM     19  C   UNL A   1      34.078  25.210  25.212  1.00  0.00     0.030 A 
ATOM     20  C   UNL A   1      33.488  24.598  22.957  1.00  0.00     0.049 A 
ATOM     21  C   UNL A   1      33.798  26.552  24.925  1.00  0.00     0.041 A 
ATOM     22  C   UNL A   1      33.178  25.940  22.684  1.00  0.00     0.023 A 
ATOM     23  Cl  UNL A   1      33.332  23.444  21.675  1.00  0.00    -0.084 Cl
ATOM     24  Cl  UNL A   1      33.963  27.747  26.154  1.00  0.00    -0.084 Cl
ATOM     25  C   UNL A   1      33.295  26.911  23.680  1.00  0.00     0.022 A 
ENDBRANCH  17  18
ENDBRANCH   9  11
ENDBRANCH   8   9
ENDBRANCH   7   8
ENDBRANCH   6   7
ENDBRANCH   5   6
ENDBRANCH   4   5
ENDBRANCH   3   4
ENDBRANCH   2   3
ENDBRANCH   1   2
BRANCH   1  26
ATOM     26  C   UNL A   1      43.485  18.398  25.200  1.00  0.00     0.188 C 
BRANCH  26  27
ATOM     27  O   UNL A   1      44.742  18.333  25.882  1.00  0.00    -0.376 OA
BRANCH  27  28
ATOM     28  C   UNL A   1      45.886  18.724  25.135  1.00  0.00     0.202 C 
BRANCH  28  29
ATOM     29  C   UNL A   1      45.901  20.204  24.745  1.00  0.00     0.261 C 
BRANCH  29  30
ATOM     30  O   UNL A   1      44.964  20.964  25.537  1.00  0.00    -0.460 OA
BRANCH  30  31
ATOM     31  C   UNL A   1      44.631  22.188  25.032  1.00  0.00     0.338 C 
ATOM     32  O   UNL A   1      43.869  22.347  24.095  1.00  0.00    -0.246 OA
BRANCH  31  33
ATOM     33  C   UNL A   1      45.302  23.274  25.802  1.00  0.00     0.060 A 
ATOM     34  C   UNL A   1      45.231  23.340  27.201  1.00  0.00     0.016 A 
ATOM     35  C   UNL A   1      45.851  24.339  25.104  1.00  0.00     0.016 A 
ATOM     36  C   UNL A   1      45.553  24.535  27.884  1.00  0.00     0.010 A 
ATOM     37  C   UNL A   1      46.099  25.520  25.774  1.00  0.00     0.010 A 
ATOM     38  C   UNL A   1      45.928  25.666  27.163  1.00  0.00    -0.014 A 
BRANCH  38  39
ATOM     39  C   UNL A   1      46.065  27.062  27.659  1.00  0.00     0.031 A 
ATOM     40  C   UNL A   1      44.796  27.873  27.858  1.00  0.00     0.074 A 
ATOM     41  C   UNL A   1      47.202  27.428  28.317  1.00  0.00     0.049 A 
ATOM     42  N   UNL A   1      44.708  28.981  28.513  1.00  0.00    -0.248 NA
ATOM     43  C   UNL A   1      43.472  27.455  27.379  1.00  0.00     0.031 C 
ATOM     44  C   UNL A   1      47.282  28.381  29.432  1.00  0.00     0.029 A 
ATOM     45  N   UNL A   1      48.519  27.000  28.251  1.00  0.00    -0.354 N 
ATOM     46  C   UNL A   1      43.391  29.176  28.890  1.00  0.00     0.074 A 
ATOM     47  C   UNL A   1      42.650  28.252  28.075  1.00  0.00     0.031 C 
ATOM     48  C   UNL A   1      48.540  28.518  29.873  1.00  0.00     0.029 A 
ATOM     49  C   UNL A   1      49.364  27.952  28.838  1.00  0.00     0.049 A 
ATOM     50  H   UNL A   1      48.816  26.150  27.851  1.00  0.00     0.167 HD
ATOM     51  C   UNL A   1      43.117  29.996  29.952  1.00  0.00     0.037 A 
ATOM     52  C   UNL A   1      50.197  28.761  28.104  1.00  0.00     0.037 A 
ATOM     53  C   UNL A   1      44.307  30.769  30.346  1.00  0.00     0.049 A 
ATOM     54  C   UNL A   1      49.731  30.224  28.138  1.00  0.00     0.074 A 
ATOM     55  C   UNL A   1      44.948  31.025  31.541  1.00  0.00     0.029 A 
ATOM     56  N   UNL A   1      45.115  31.351  29.366  1.00  0.00    -0.354 N 
ATOM     57  N   UNL A   1      48.475  30.570  28.304  1.00  0.00    -0.248 NA
ATOM     58  C   UNL A   1      50.616  31.390  28.188  1.00  0.00     0.031 C 
ATOM     59  C   UNL A   1      46.251  31.520  31.250  1.00  0.00     0.029 A 
ATOM     60  C   UNL A   1      46.329  31.746  29.883  1.00  0.00     0.049 A 
ATOM     61  H   UNL A   1      44.850  31.464  28.424  1.00  0.00     0.167 HD
ATOM     62  C   UNL A   1      48.388  31.899  28.615  1.00  0.00     0.074 A 
ATOM     63  C   UNL A   1      49.748  32.387  28.458  1.00  0.00     0.031 C 
ATOM     64  C   UNL A   1      47.259  32.518  29.075  1.00  0.00     0.037 A 
BRANCH  51  65
ATOM     65  C   UNL A   1      41.829  29.993  30.790  1.00  0.00     0.058 A 
ATOM     66  C   UNL A   1      41.544  28.917  31.668  1.00  0.00     0.135 A 
ATOM     67  C   UNL A   1      40.782  30.939  30.693  1.00  0.00     0.135 A 
ATOM     68  F   UNL A   1      42.437  27.941  31.879  1.00  0.00    -0.206 F 
ATOM     69  C   UNL A   1      40.335  28.783  32.369  1.00  0.00     0.059 A 
ATOM     70  C   UNL A   1      39.589  30.859  31.433  1.00  0.00     0.059 A 
ATOM     71  F   UNL A   1      40.842  31.967  29.836  1.00  0.00    -0.206 F 
ATOM     72  C   UNL A   1      39.363  29.766  32.258  1.00  0.00     0.060 A 
BRANCH  72  73
ATOM     73  S   UNL A   1      37.832  29.608  33.205  1.00  0.00     0.124 S 
ATOM     74  O   UNL A   1      37.531  28.187  33.057  1.00  0.00    -0.237 OA
ATOM     75  O   UNL A   1      38.238  30.038  34.538  1.00  0.00    -0.237 OA
ATOM     76  O   UNL A   1      36.912  30.512  32.518  1.00  0.00    -0.744 OA
ENDBRANCH  72  73
ENDBRANCH  51  65
BRANCH  52  77
ATOM     77  C   UNL A   1      50.918  27.982  27.050  1.00  0.00     0.058 A 
ATOM     78  C   UNL A   1      50.452  28.223  25.736  1.00  0.00     0.135 A 
ATOM     79  C   UNL A   1      52.290  27.720  27.201  1.00  0.00     0.135 A 
ATOM     80  F   UNL A   1      49.141  28.418  25.521  1.00  0.00    -0.206 F 
ATOM     81  C   UNL A   1      51.330  28.491  24.687  1.00  0.00     0.059 A 
ATOM     82  C   UNL A   1      53.188  27.967  26.154  1.00  0.00     0.059 A 
ATOM     83  F   UNL A   1      52.795  27.455  28.414  1.00  0.00    -0.206 F 
ATOM     84  C   UNL A   1      52.700  28.438  24.931  1.00  0.00     0.060 A 
BRANCH  84  85
ATOM     85  S   UNL A   1      53.814  29.217  23.727  1.00  0.00     0.124 S 
ATOM     86  O   UNL A   1      54.418  28.061  23.078  1.00  0.00    -0.237 OA
ATOM     87  O   UNL A   1      52.882  29.993  22.914  1.00  0.00    -0.237 OA
ATOM     88  O   UNL A   1      54.702  30.011  24.568  1.00  0.00    -0.744 OA
ENDBRANCH  84  85
ENDBRANCH  52  77
BRANCH  64  89
ATOM     89  C   UNL A   1      46.924  33.976  28.850  1.00  0.00     0.058 A 
ATOM     90  C   UNL A   1      46.174  34.411  27.749  1.00  0.00     0.135 A 
ATOM     91  C   UNL A   1      47.131  34.946  29.870  1.00  0.00     0.135 A 
ATOM     92  F   UNL A   1      45.818  33.570  26.767  1.00  0.00    -0.206 F 
ATOM     93  C   UNL A   1      45.706  35.718  27.637  1.00  0.00     0.059 A 
ATOM     94  C   UNL A   1      46.625  36.239  29.803  1.00  0.00     0.059 A 
ATOM     95  F   UNL A   1      47.804  34.668  30.995  1.00  0.00    -0.206 F 
ATOM     96  C   UNL A   1      45.934  36.623  28.669  1.00  0.00     0.060 A 
BRANCH  96  97
ATOM     97  S   UNL A   1      45.286  38.292  28.525  1.00  0.00     0.124 S 
ATOM     98  O   UNL A   1      46.355  39.067  29.146  1.00  0.00    -0.237 OA
ATOM     99  O   UNL A   1      45.148  38.453  27.080  1.00  0.00    -0.237 OA
ATOM    100  O   UNL A   1      44.030  38.239  29.265  1.00  0.00    -0.744 OA
ENDBRANCH  96  97
ENDBRANCH  64  89
ENDBRANCH  38  39
ENDBRANCH  31  33
ENDBRANCH  30  31
ENDBRANCH  29  30
ENDBRANCH  28  29
ENDBRANCH  27  28
ENDBRANCH  26  27
ENDBRANCH   1  26
TORSDOF 24
ENDMDL
MODEL 3
REMARK VINA RESULT:      -8.2      5.499     12.444
REMARK SMILES Cc1ccc(-c2cc(Cl)ccc2Cl)c(C(=O)OCCOCCOCCOCCOC(=O)c2ccc(-c3c4nc(c(-c5c(F)cc(S(=O)(=O)[O-])cc5F)c5ccc([nH]5)c(-c5c(F)cc(S(=O)(=O)[O-])cc5F)c5nc(c(-c6c(F)cc(S(=O)(=O)[O-])cc6F)c6ccc3[nH]6)C=C5)C=C4)cc2)c1
REMARK SMILES IDX 24 1 23 2 22 3 21 4 20 5 19 6 18 7 17 8 15 9 16 10 14 11
REMARK SMILES IDX 1 12 2 13 3 14 98 15 4 16 5 17 6 18 7 19 12 20 8 21 11 22
REMARK SMILES IDX 13 23 9 24 10 25 25 26 26 27 27 28 28 29 29 30 30 31 31 32
REMARK SMILES IDX 32 33 33 34 97 35 34 36 96 37 35 38 36 39 37 40 90 41 38 42
REMARK SMILES IDX 95 43 89 44 91 45 39 46 94 47 88 48 87 49 40 51 74 52 53 53
REMARK SMILES IDX 73 54 54 55 57 56 72 57 92 58 55 59 56 60 71 62 93 63 58 64
REMARK SMILES IDX 41 65 42 66 51 67 43 68 44 69 50 70 52 71 45 72 46 73 47 74
REMARK SMILES IDX 48 75 49 76 75 77 76 78 85 79 77 80 78 81 84 82 86 83 79 84
REMARK SMILES IDX 80 85 81 86 82 87 83 88 59 89 60 90 69 91 61 92 62 93 68 94
REMARK SMILES IDX 70 95 63 96 64 97 65 98 66 99 67 100
REMARK H PARENT 91 50 57 61
REMARK Flexibility Score: inf
ROOT
ATOM      1  C   UNL A   1      42.844  22.834  26.110  1.00  0.00     0.188 C 
ENDROOT
BRANCH   1   2
ATOM      2  O   UNL A   1      41.840  21.940  25.611  1.00  0.00    -0.377 OA
BRANCH   2   3
ATOM      3  C   UNL A   1      40.700  21.799  26.459  1.00  0.00     0.188 C 
BRANCH   3   4
ATOM      4  C   UNL A   1      39.444  22.416  25.869  1.00  0.00     0.188 C 
BRANCH   4   5
ATOM      5  O   UNL A   1      38.315  21.539  25.813  1.00  0.00    -0.376 OA
BRANCH   5   6
ATOM      6  C   UNL A   1      37.069  22.247  25.783  1.00  0.00     0.202 C 
BRANCH   6   7
ATOM      7  C   UNL A   1      36.905  23.323  24.705  1.00  0.00     0.261 C 
BRANCH   7   8
ATOM      8  O   UNL A   1      36.090  22.824  23.645  1.00  0.00    -0.460 OA
BRANCH   8   9
ATOM      9  C   UNL A   1      34.949  23.507  23.438  1.00  0.00     0.338 C 
ATOM     10  O   UNL A   1      34.681  24.254  22.533  1.00  0.00    -0.246 OA
BRANCH   9  11
ATOM     11  C   UNL A   1      33.947  22.884  24.321  1.00  0.00     0.068 A 
ATOM     12  C   UNL A   1      32.416  19.441  24.710  1.00  0.00     0.044 C 
ATOM     13  C   UNL A   1      32.689  20.904  24.905  1.00  0.00    -0.050 A 
ATOM     14  C   UNL A   1      31.871  21.710  25.713  1.00  0.00     0.004 A 
ATOM     15  C   UNL A   1      33.768  21.494  24.250  1.00  0.00     0.019 A 
ATOM     16  C   UNL A   1      32.037  23.109  25.759  1.00  0.00     0.010 A 
ATOM     17  C   UNL A   1      33.045  23.733  25.017  1.00  0.00    -0.002 A 
BRANCH  17  18
ATOM     18  C   UNL A   1      33.061  25.203  24.747  1.00  0.00     0.003 A 
ATOM     19  C   UNL A   1      33.820  26.031  25.604  1.00  0.00     0.030 A 
ATOM     20  C   UNL A   1      32.107  25.829  23.922  1.00  0.00     0.049 A 
ATOM     21  C   UNL A   1      33.500  27.383  25.774  1.00  0.00     0.041 A 
ATOM     22  C   UNL A   1      31.769  27.177  24.118  1.00  0.00     0.023 A 
ATOM     23  Cl  UNL A   1      31.245  24.935  22.715  1.00  0.00    -0.084 Cl
ATOM     24  Cl  UNL A   1      34.345  28.328  26.941  1.00  0.00    -0.084 Cl
ATOM     25  C   UNL A   1      32.439  27.944  25.073  1.00  0.00     0.022 A 
ENDBRANCH  17  18
ENDBRANCH   9  11
ENDBRANCH   8   9
ENDBRANCH   7   8
ENDBRANCH   6   7
ENDBRANCH   5   6
ENDBRANCH   4   5
ENDBRANCH   3   4
ENDBRANCH   2   3
ENDBRANCH   1   2
BRANCH   1  26
ATOM     26  C   UNL A   1      42.735  24.221  25.491  1.00  0.00     0.188 C 
BRANCH  26  27
ATOM     27  O   UNL A   1      43.220  25.166  26.450  1.00  0.00    -0.376 OA
BRANCH  27  28
ATOM     28  C   UNL A   1      42.680  26.478  26.371  1.00  0.00     0.202 C 
BRANCH  28  29
ATOM     29  C   UNL A   1      41.183  26.519  26.051  1.00  0.00     0.261 C 
BRANCH  29  30
ATOM     30  O   UNL A   1      40.522  27.576  26.776  1.00  0.00    -0.460 OA
BRANCH  30  31
ATOM     31  C   UNL A   1      39.705  27.166  27.790  1.00  0.00     0.338 C 
ATOM     32  O   UNL A   1      39.233  26.045  27.865  1.00  0.00    -0.246 OA
BRANCH  31  33
ATOM     33  C   UNL A   1      39.507  28.262  28.782  1.00  0.00     0.060 A 
ATOM     34  C   UNL A   1      40.448  29.289  28.944  1.00  0.00     0.016 A 
ATOM     35  C   UNL A   1      38.462  28.156  29.686  1.00  0.00     0.016 A 
ATOM     36  C   UNL A   1      40.436  30.102  30.100  1.00  0.00     0.010 A 
ATOM     37  C   UNL A   1      38.499  28.912  30.841  1.00  0.00     0.010 A 
ATOM     38  C   UNL A   1      39.493  29.873  31.099  1.00  0.00    -0.014 A 
BRANCH  38  39
ATOM     39  C   UNL A   1      39.464  30.438  32.475  1.00  0.00     0.031 A 
ATOM     40  C   UNL A   1      40.374  29.816  33.519  1.00  0.00     0.074 A 
ATOM     41  C   UNL A   1      38.996  31.706  32.665  1.00  0.00     0.049 A 
ATOM     42  N   UNL A   1      40.665  30.333  34.664  1.00  0.00    -0.248 NA
ATOM     43  C   UNL A   1      41.105  28.557  33.324  1.00  0.00     0.031 C 
ATOM     44  C   UNL A   1      39.496  32.666  33.658  1.00  0.00     0.029 A 
ATOM     45  N   UNL A   1      38.068  32.488  31.996  1.00  0.00    -0.354 N 
ATOM     46  C   UNL A   1      41.841  29.767  35.125  1.00  0.00     0.074 A 
ATOM     47  C   UNL A   1      42.018  28.600  34.304  1.00  0.00     0.031 C 
ATOM     48  C   UNL A   1      38.839  33.833  33.587  1.00  0.00     0.029 A 
ATOM     49  C   UNL A   1      37.660  33.554  32.811  1.00  0.00     0.049 A 
ATOM     50  H   UNL A   1      37.743  32.319  31.081  1.00  0.00     0.167 HD
ATOM     51  C   UNL A   1      42.589  30.446  36.050  1.00  0.00     0.037 A 
ATOM     52  C   UNL A   1      36.422  33.608  33.400  1.00  0.00     0.037 A 
ATOM     53  C   UNL A   1      41.836  31.579  36.612  1.00  0.00     0.049 A 
ATOM     54  C   UNL A   1      36.517  33.437  34.923  1.00  0.00     0.074 A 
ATOM     55  C   UNL A   1      42.105  32.916  36.823  1.00  0.00     0.029 A 
ATOM     56  N   UNL A   1      40.495  31.416  36.968  1.00  0.00    -0.354 N 
ATOM     57  N   UNL A   1      37.482  32.763  35.507  1.00  0.00    -0.248 NA
ATOM     58  C   UNL A   1      35.689  34.142  35.905  1.00  0.00     0.031 C 
ATOM     59  C   UNL A   1      40.870  33.589  37.047  1.00  0.00     0.029 A 
ATOM     60  C   UNL A   1      39.874  32.630  37.164  1.00  0.00     0.049 A 
ATOM     61  H   UNL A   1      40.049  30.543  37.066  1.00  0.00     0.167 HD
ATOM     62  C   UNL A   1      37.507  33.039  36.846  1.00  0.00     0.074 A 
ATOM     63  C   UNL A   1      36.320  33.849  37.062  1.00  0.00     0.031 C 
ATOM     64  C   UNL A   1      38.522  32.690  37.694  1.00  0.00     0.037 A 
BRANCH  51  65
ATOM     65  C   UNL A   1      44.083  30.231  36.342  1.00  0.00     0.058 A 
ATOM     66  C   UNL A   1      44.522  29.077  37.039  1.00  0.00     0.135 A 
ATOM     67  C   UNL A   1      45.113  31.165  36.082  1.00  0.00     0.135 A 
ATOM     68  F   UNL A   1      43.669  28.092  37.352  1.00  0.00    -0.206 F 
ATOM     69  C   UNL A   1      45.849  28.873  37.450  1.00  0.00     0.059 A 
ATOM     70  C   UNL A   1      46.460  30.953  36.429  1.00  0.00     0.059 A 
ATOM     71  F   UNL A   1      44.859  32.354  35.520  1.00  0.00    -0.206 F 
ATOM     72  C   UNL A   1      46.819  29.811  37.130  1.00  0.00     0.060 A 
BRANCH  72  73
ATOM     73  S   UNL A   1      48.533  29.513  37.621  1.00  0.00     0.124 S 
ATOM     74  O   UNL A   1      49.187  30.749  37.202  1.00  0.00    -0.237 OA
ATOM     75  O   UNL A   1      48.419  29.308  39.061  1.00  0.00    -0.237 OA
ATOM     76  O   UNL A   1      48.904  28.325  36.856  1.00  0.00    -0.744 OA
ENDBRANCH  72  73
ENDBRANCH  51  65
BRANCH  52  77
ATOM     77  C   UNL A   1      35.344  33.231  32.433  1.00  0.00     0.058 A 
ATOM     78  C   UNL A   1      34.918  34.295  31.604  1.00  0.00     0.135 A 
ATOM     79  C   UNL A   1      35.339  31.944  31.870  1.00  0.00     0.135 A 
ATOM     80  F   UNL A   1      34.842  35.539  32.106  1.00  0.00    -0.206 F 
ATOM     81  C   UNL A   1      34.789  34.141  30.225  1.00  0.00     0.059 A 
ATOM     82  C   UNL A   1      35.195  31.765  30.489  1.00  0.00     0.059 A 
ATOM     83  F   UNL A   1      35.704  30.886  32.608  1.00  0.00    -0.206 F 
ATOM     84  C   UNL A   1      35.009  32.883  29.669  1.00  0.00     0.060 A 
BRANCH  84  85
ATOM     85  S   UNL A   1      35.293  32.777  27.879  1.00  0.00     0.124 S 
ATOM     86  O   UNL A   1      34.410  31.684  27.494  1.00  0.00    -0.237 OA
ATOM     87  O   UNL A   1      34.894  34.109  27.432  1.00  0.00    -0.237 OA
ATOM     88  O   UNL A   1      36.722  32.503  27.789  1.00  0.00    -0.744 OA
ENDBRANCH  84  85
ENDBRANCH  52  77
BRANCH  64  89
ATOM     89  C   UNL A   1      38.352  32.410  39.171  1.00  0.00     0.058 A 
ATOM     90  C   UNL A   1      38.846  33.273  40.159  1.00  0.00     0.135 A 
ATOM     91  C   UNL A   1      37.467  31.396  39.633  1.00  0.00     0.135 A 
ATOM     92  F   UNL A   1      39.607  34.332  39.847  1.00  0.00    -0.206 F 
ATOM     93  C   UNL A   1      38.532  33.118  41.507  1.00  0.00     0.059 A 
ATOM     94  C   UNL A   1      37.097  31.260  40.965  1.00  0.00     0.059 A 
ATOM     95  F   UNL A   1      36.893  30.516  38.801  1.00  0.00    -0.206 F 
ATOM     96  C   UNL A   1      37.656  32.111  41.900  1.00  0.00     0.060 A 
BRANCH  96  97
ATOM     97  S   UNL A   1      37.230  31.954  43.637  1.00  0.00     0.124 S 
ATOM     98  O   UNL A   1      35.805  31.654  43.555  1.00  0.00    -0.237 OA
ATOM     99  O   UNL A   1      38.084  30.852  44.073  1.00  0.00    -0.237 OA
ATOM    100  O   UNL A   1      37.571  33.259  44.195  1.00  0.00    -0.744 OA
ENDBRANCH  96  97
ENDBRANCH  64  89
ENDBRANCH  38  39
ENDBRANCH  31  33
ENDBRANCH  30  31
ENDBRANCH  29  30
ENDBRANCH  28  29
ENDBRANCH  27  28
ENDBRANCH  26  27
ENDBRANCH   1  26
TORSDOF 24
ENDMDL
