MODEL 1
REMARK VINA RESULT:     -10.7      0.000      0.000
REMARK SMILES O=C(Cn1c2c(sc1=O)C[C@H](c1ccccc1)CC2)OCCOCCOCCOCCOC(=O)c1ccc(-c2c3nc(c(-c4c(F)cc(S(=O)(=O)[O-])cc4F)c4ccc([nH]4)c(-c4c(F)cc(S(=O)(=O)[O-])cc4F)c4nc(c(-c5c(F)cc(S(=O)(=O)[O-])cc5F)c5ccc2[nH]5)C=C4)C=C3)cc1
REMARK SMILES IDX 27 1 26 2 25 3 24 4 23 5 22 6 21 7 20 8 2 9 1 10 3 11 4 12
REMARK SMILES IDX 5 13 8 14 6 15 19 16 7 17 9 18 10 19 18 20 11 21 12 22 13 23
REMARK SMILES IDX 17 24 14 25 16 26 15 27 28 28 29 29 30 30 31 31 32 32 33 33
REMARK SMILES IDX 34 34 35 35 36 36 100 37 37 38 99 39 38 40 39 41 40 42 93 43
REMARK SMILES IDX 41 44 98 45 92 46 94 47 42 48 97 49 91 50 90 51 43 53 77 54
REMARK SMILES IDX 56 55 76 56 57 57 60 58 75 59 95 60 58 61 59 62 74 64 96 65
REMARK SMILES IDX 61 66 44 67 45 68 54 69 46 70 47 71 53 72 55 73 48 74 49 75
REMARK SMILES IDX 50 76 51 77 52 78 78 79 79 80 88 81 80 82 81 83 87 84 89 85
REMARK SMILES IDX 82 86 83 87 84 88 85 89 86 90 62 91 63 92 72 93 64 94 65 95
REMARK SMILES IDX 71 96 73 97 66 98 67 99 68 100 69 101 70 102
REMARK H PARENT 94 52 60 63
REMARK Flexibility Score: inf
ROOT
ATOM      1  C   UNL A   1      37.897  20.985  24.971  1.00  0.00     0.188 C 
ENDROOT
BRANCH   1   2
ATOM      2  O   UNL A   1      36.590  20.715  25.422  1.00  0.00    -0.377 OA
BRANCH   2   3
ATOM      3  C   UNL A   1      35.848  21.807  25.928  1.00  0.00     0.188 C 
BRANCH   3   4
ATOM      4  C   UNL A   1      34.531  21.518  26.652  1.00  0.00     0.188 C 
BRANCH   4   5
ATOM      5  O   UNL A   1      33.322  21.583  25.912  1.00  0.00    -0.376 OA
BRANCH   5   6
ATOM      6  C   UNL A   1      32.093  22.138  26.362  1.00  0.00     0.202 C 
BRANCH   6   7
ATOM      7  C   UNL A   1      32.024  23.596  26.797  1.00  0.00     0.261 C 
BRANCH   7   8
ATOM      8  O   UNL A   1      30.777  24.282  26.603  1.00  0.00    -0.462 OA
BRANCH   8   9
ATOM      9  C   UNL A   1      30.390  24.802  25.417  1.00  0.00     0.326 C 
ATOM     10  O   UNL A   1      30.767  24.292  24.364  1.00  0.00    -0.250 OA
BRANCH   9  11
ATOM     11  C   UNL A   1      29.665  26.140  25.435  1.00  0.00     0.249 C 
BRANCH  11  12
ATOM     12  N   UNL A   1      30.035  27.149  24.485  1.00  0.00    -0.292 N 
ATOM     13  C   UNL A   1      31.262  27.763  24.526  1.00  0.00     0.036 A 
ATOM     14  C   UNL A   1      29.157  27.643  23.531  1.00  0.00     0.308 A 
ATOM     15  C   UNL A   1      31.515  28.480  23.426  1.00  0.00     0.030 A 
ATOM     16  C   UNL A   1      32.246  27.560  25.645  1.00  0.00     0.056 C 
ATOM     17  S   UNL A   1      30.109  28.663  22.431  1.00  0.00    -0.079 S 
ATOM     18  O   UNL A   1      27.970  27.450  23.428  1.00  0.00    -0.257 OA
ATOM     19  C   UNL A   1      32.905  28.845  23.031  1.00  0.00     0.057 C 
ATOM     20  C   UNL A   1      33.644  28.074  25.272  1.00  0.00     0.015 C 
ATOM     21  C   UNL A   1      33.921  27.892  23.755  1.00  0.00     0.025 C 
BRANCH  21  22
ATOM     22  C   UNL A   1      33.850  26.419  23.289  1.00  0.00    -0.045 A 
ATOM     23  C   UNL A   1      33.258  26.080  22.063  1.00  0.00     0.004 A 
ATOM     24  C   UNL A   1      34.324  25.355  24.083  1.00  0.00     0.004 A 
ATOM     25  C   UNL A   1      33.057  24.744  21.696  1.00  0.00     0.000 A 
ATOM     26  C   UNL A   1      34.097  24.019  23.734  1.00  0.00     0.000 A 
ATOM     27  C   UNL A   1      33.452  23.714  22.544  1.00  0.00     0.000 A 
ENDBRANCH  21  22
ENDBRANCH  11  12
ENDBRANCH   9  11
ENDBRANCH   8   9
ENDBRANCH   7   8
ENDBRANCH   6   7
ENDBRANCH   5   6
ENDBRANCH   4   5
ENDBRANCH   3   4
ENDBRANCH   2   3
ENDBRANCH   1   2
BRANCH   1  28
ATOM     28  C   UNL A   1      38.791  21.742  25.979  1.00  0.00     0.188 C 
BRANCH  28  29
ATOM     29  O   UNL A   1      40.100  21.330  26.364  1.00  0.00    -0.376 OA
BRANCH  29  30
ATOM     30  C   UNL A   1      40.655  20.026  26.285  1.00  0.00     0.202 C 
BRANCH  30  31
ATOM     31  C   UNL A   1      42.121  19.682  26.040  1.00  0.00     0.261 C 
BRANCH  31  32
ATOM     32  O   UNL A   1      42.938  20.809  25.899  1.00  0.00    -0.460 OA
BRANCH  32  33
ATOM     33  C   UNL A   1      43.964  20.593  25.061  1.00  0.00     0.338 C 
ATOM     34  O   UNL A   1      44.298  19.534  24.557  1.00  0.00    -0.246 OA
BRANCH  33  35
ATOM     35  C   UNL A   1      44.668  21.866  24.870  1.00  0.00     0.060 A 
ATOM     36  C   UNL A   1      45.638  22.101  25.832  1.00  0.00     0.016 A 
ATOM     37  C   UNL A   1      44.005  22.890  24.172  1.00  0.00     0.016 A 
ATOM     38  C   UNL A   1      45.551  23.305  26.462  1.00  0.00     0.010 A 
ATOM     39  C   UNL A   1      43.926  24.097  24.791  1.00  0.00     0.010 A 
ATOM     40  C   UNL A   1      44.583  24.212  26.007  1.00  0.00    -0.014 A 
BRANCH  40  41
ATOM     41  C   UNL A   1      44.328  25.357  26.830  1.00  0.00     0.031 A 
ATOM     42  C   UNL A   1      45.400  26.345  26.650  1.00  0.00     0.074 A 
ATOM     43  C   UNL A   1      43.229  25.446  27.598  1.00  0.00     0.049 A 
ATOM     44  N   UNL A   1      46.377  26.584  27.456  1.00  0.00    -0.248 NA
ATOM     45  C   UNL A   1      45.587  26.884  25.292  1.00  0.00     0.031 C 
ATOM     46  C   UNL A   1      42.040  24.588  27.622  1.00  0.00     0.029 A 
ATOM     47  N   UNL A   1      42.915  26.425  28.481  1.00  0.00    -0.354 N 
ATOM     48  C   UNL A   1      47.139  27.539  26.803  1.00  0.00     0.074 A 
ATOM     49  C   UNL A   1      46.781  27.463  25.414  1.00  0.00     0.031 C 
ATOM     50  C   UNL A   1      41.048  25.221  28.291  1.00  0.00     0.029 A 
ATOM     51  C   UNL A   1      41.574  26.452  28.853  1.00  0.00     0.049 A 
ATOM     52  H   UNL A   1      43.579  27.062  28.831  1.00  0.00     0.167 HD
ATOM     53  C   UNL A   1      47.721  28.540  27.512  1.00  0.00     0.037 A 
ATOM     54  C   UNL A   1      40.976  27.501  29.476  1.00  0.00     0.037 A 
ATOM     55  C   UNL A   1      47.858  28.168  28.902  1.00  0.00     0.049 A 
ATOM     56  C   UNL A   1      42.073  28.295  30.111  1.00  0.00     0.074 A 
ATOM     57  C   UNL A   1      48.495  27.132  29.561  1.00  0.00     0.029 A 
ATOM     58  N   UNL A   1      46.932  28.666  29.791  1.00  0.00    -0.354 N 
ATOM     59  N   UNL A   1      42.820  27.837  31.083  1.00  0.00    -0.248 NA
ATOM     60  C   UNL A   1      42.674  29.361  29.319  1.00  0.00     0.031 C 
ATOM     61  C   UNL A   1      47.612  26.761  30.617  1.00  0.00     0.029 A 
ATOM     62  C   UNL A   1      46.524  27.635  30.601  1.00  0.00     0.049 A 
ATOM     63  H   UNL A   1      46.619  29.598  29.838  1.00  0.00     0.167 HD
ATOM     64  C   UNL A   1      44.112  28.249  30.773  1.00  0.00     0.074 A 
ATOM     65  C   UNL A   1      43.949  29.229  29.699  1.00  0.00     0.031 C 
ATOM     66  C   UNL A   1      45.206  27.549  31.199  1.00  0.00     0.037 A 
BRANCH  53  67
ATOM     67  C   UNL A   1      47.740  29.971  27.030  1.00  0.00     0.058 A 
ATOM     68  C   UNL A   1      48.945  30.690  27.109  1.00  0.00     0.135 A 
ATOM     69  C   UNL A   1      46.586  30.746  26.757  1.00  0.00     0.135 A 
ATOM     70  F   UNL A   1      50.103  30.059  27.360  1.00  0.00    -0.206 F 
ATOM     71  C   UNL A   1      48.989  32.081  27.011  1.00  0.00     0.059 A 
ATOM     72  C   UNL A   1      46.615  32.123  26.603  1.00  0.00     0.059 A 
ATOM     73  F   UNL A   1      45.351  30.238  26.717  1.00  0.00    -0.206 F 
ATOM     74  C   UNL A   1      47.813  32.787  26.776  1.00  0.00     0.060 A 
BRANCH  74  75
ATOM     75  S   UNL A   1      47.843  34.584  26.753  1.00  0.00     0.124 S 
ATOM     76  O   UNL A   1      46.689  34.880  25.912  1.00  0.00    -0.237 OA
ATOM     77  O   UNL A   1      47.704  34.901  28.170  1.00  0.00    -0.237 OA
ATOM     78  O   UNL A   1      49.146  34.892  26.172  1.00  0.00    -0.744 OA
ENDBRANCH  74  75
ENDBRANCH  53  67
BRANCH  54  79
ATOM     79  C   UNL A   1      39.635  28.075  29.174  1.00  0.00     0.058 A 
ATOM     80  C   UNL A   1      38.641  28.175  30.165  1.00  0.00     0.135 A 
ATOM     81  C   UNL A   1      39.391  28.791  27.983  1.00  0.00     0.135 A 
ATOM     82  F   UNL A   1      38.800  27.549  31.341  1.00  0.00    -0.206 F 
ATOM     83  C   UNL A   1      37.498  28.969  30.002  1.00  0.00     0.059 A 
ATOM     84  C   UNL A   1      38.257  29.580  27.794  1.00  0.00     0.059 A 
ATOM     85  F   UNL A   1      40.295  28.819  26.993  1.00  0.00    -0.206 F 
ATOM     86  C   UNL A   1      37.323  29.684  28.817  1.00  0.00     0.060 A 
BRANCH  86  87
ATOM     87  S   UNL A   1      35.937  30.836  28.658  1.00  0.00     0.124 S 
ATOM     88  O   UNL A   1      34.929  30.007  28.005  1.00  0.00    -0.237 OA
ATOM     89  O   UNL A   1      35.668  31.189  30.048  1.00  0.00    -0.237 OA
ATOM     90  O   UNL A   1      36.483  31.914  27.839  1.00  0.00    -0.744 OA
ENDBRANCH  86  87
ENDBRANCH  54  79
BRANCH  66  91
ATOM     91  C   UNL A   1      45.006  26.465  32.230  1.00  0.00     0.058 A 
ATOM     92  C   UNL A   1      44.697  25.123  31.933  1.00  0.00     0.135 A 
ATOM     93  C   UNL A   1      45.305  26.766  33.566  1.00  0.00     0.135 A 
ATOM     94  F   UNL A   1      44.497  24.729  30.668  1.00  0.00    -0.206 F 
ATOM     95  C   UNL A   1      44.655  24.138  32.925  1.00  0.00     0.059 A 
ATOM     96  C   UNL A   1      45.300  25.797  34.565  1.00  0.00     0.059 A 
ATOM     97  F   UNL A   1      45.669  28.015  33.906  1.00  0.00    -0.206 F 
ATOM     98  C   UNL A   1      44.961  24.487  34.242  1.00  0.00     0.060 A 
BRANCH  98  99
ATOM     99  S   UNL A   1      44.976  23.209  35.519  1.00  0.00     0.124 S 
ATOM    100  O   UNL A   1      46.379  22.809  35.538  1.00  0.00    -0.237 OA
ATOM    101  O   UNL A   1      44.508  23.932  36.699  1.00  0.00    -0.237 OA
ATOM    102  O   UNL A   1      44.049  22.203  35.008  1.00  0.00    -0.744 OA
ENDBRANCH  98  99
ENDBRANCH  66  91
ENDBRANCH  40  41
ENDBRANCH  33  35
ENDBRANCH  32  33
ENDBRANCH  31  32
ENDBRANCH  30  31
ENDBRANCH  29  30
ENDBRANCH  28  29
ENDBRANCH   1  28
TORSDOF 25
ENDMDL
MODEL 2
REMARK VINA RESULT:     -10.3      1.274      2.404
REMARK SMILES O=C(Cn1c2c(sc1=O)C[C@H](c1ccccc1)CC2)OCCOCCOCCOCCOC(=O)c1ccc(-c2c3nc(c(-c4c(F)cc(S(=O)(=O)[O-])cc4F)c4ccc([nH]4)c(-c4c(F)cc(S(=O)(=O)[O-])cc4F)c4nc(c(-c5c(F)cc(S(=O)(=O)[O-])cc5F)c5ccc2[nH]5)C=C4)C=C3)cc1
REMARK SMILES IDX 27 1 26 2 25 3 24 4 23 5 22 6 21 7 20 8 2 9 1 10 3 11 4 12
REMARK SMILES IDX 5 13 8 14 6 15 19 16 7 17 9 18 10 19 18 20 11 21 12 22 13 23
REMARK SMILES IDX 17 24 14 25 16 26 15 27 28 28 29 29 30 30 31 31 32 32 33 33
REMARK SMILES IDX 34 34 35 35 36 36 100 37 37 38 99 39 38 40 39 41 40 42 93 43
REMARK SMILES IDX 41 44 98 45 92 46 94 47 42 48 97 49 91 50 90 51 43 53 77 54
REMARK SMILES IDX 56 55 76 56 57 57 60 58 75 59 95 60 58 61 59 62 74 64 96 65
REMARK SMILES IDX 61 66 44 67 45 68 54 69 46 70 47 71 53 72 55 73 48 74 49 75
REMARK SMILES IDX 50 76 51 77 52 78 78 79 79 80 88 81 80 82 81 83 87 84 89 85
REMARK SMILES IDX 82 86 83 87 84 88 85 89 86 90 62 91 63 92 72 93 64 94 65 95
REMARK SMILES IDX 71 96 73 97 66 98 67 99 68 100 69 101 70 102
REMARK H PARENT 94 52 60 63
REMARK Flexibility Score: inf
ROOT
ATOM      1  C   UNL A   1      41.084  21.558  26.065  1.00  0.00     0.188 C 
ENDROOT
BRANCH   1   2
ATOM      2  O   UNL A   1      39.880  22.285  26.143  1.00  0.00    -0.377 OA
BRANCH   2   3
ATOM      3  C   UNL A   1      38.720  21.660  25.633  1.00  0.00     0.188 C 
BRANCH   3   4
ATOM      4  C   UNL A   1      37.356  22.119  26.156  1.00  0.00     0.188 C 
BRANCH   4   5
ATOM      5  O   UNL A   1      36.203  21.379  25.784  1.00  0.00    -0.376 OA
BRANCH   5   6
ATOM      6  C   UNL A   1      34.878  21.885  25.690  1.00  0.00     0.202 C 
BRANCH   6   7
ATOM      7  C   UNL A   1      34.633  23.308  25.208  1.00  0.00     0.261 C 
BRANCH   7   8
ATOM      8  O   UNL A   1      33.549  24.031  25.813  1.00  0.00    -0.462 OA
BRANCH   8   9
ATOM      9  C   UNL A   1      32.247  23.727  25.609  1.00  0.00     0.326 C 
ATOM     10  O   UNL A   1      31.483  23.606  26.565  1.00  0.00    -0.250 OA
BRANCH   9  11
ATOM     11  C   UNL A   1      31.824  23.337  24.201  1.00  0.00     0.249 C 
BRANCH  11  12
ATOM     12  N   UNL A   1      31.909  24.308  23.150  1.00  0.00    -0.292 N 
ATOM     13  C   UNL A   1      31.014  25.345  23.052  1.00  0.00     0.036 A 
ATOM     14  C   UNL A   1      32.826  24.218  22.113  1.00  0.00     0.308 A 
ATOM     15  C   UNL A   1      31.400  26.276  22.171  1.00  0.00     0.030 A 
ATOM     16  C   UNL A   1      29.791  25.461  23.918  1.00  0.00     0.056 C 
ATOM     17  S   UNL A   1      32.741  25.746  21.211  1.00  0.00    -0.079 S 
ATOM     18  O   UNL A   1      33.558  23.300  21.834  1.00  0.00    -0.257 OA
ATOM     19  C   UNL A   1      30.868  27.667  22.219  1.00  0.00     0.057 C 
ATOM     20  C   UNL A   1      29.172  26.864  23.843  1.00  0.00     0.015 C 
ATOM     21  C   UNL A   1      30.265  27.948  23.641  1.00  0.00     0.025 C 
BRANCH  21  22
ATOM     22  C   UNL A   1      31.313  27.985  24.778  1.00  0.00    -0.045 A 
ATOM     23  C   UNL A   1      32.613  28.457  24.543  1.00  0.00     0.004 A 
ATOM     24  C   UNL A   1      31.034  27.506  26.075  1.00  0.00     0.004 A 
ATOM     25  C   UNL A   1      33.611  28.361  25.521  1.00  0.00     0.000 A 
ATOM     26  C   UNL A   1      32.036  27.381  27.043  1.00  0.00     0.000 A 
ATOM     27  C   UNL A   1      33.328  27.798  26.762  1.00  0.00     0.000 A 
ENDBRANCH  21  22
ENDBRANCH  11  12
ENDBRANCH   9  11
ENDBRANCH   8   9
ENDBRANCH   7   8
ENDBRANCH   6   7
ENDBRANCH   5   6
ENDBRANCH   4   5
ENDBRANCH   3   4
ENDBRANCH   2   3
ENDBRANCH   1   2
BRANCH   1  28
ATOM     28  C   UNL A   1      41.156  20.317  26.983  1.00  0.00     0.188 C 
BRANCH  28  29
ATOM     29  O   UNL A   1      42.317  19.509  27.158  1.00  0.00    -0.376 OA
BRANCH  29  30
ATOM     30  C   UNL A   1      43.027  18.788  26.162  1.00  0.00     0.202 C 
BRANCH  30  31
ATOM     31  C   UNL A   1      43.860  19.387  25.034  1.00  0.00     0.261 C 
BRANCH  31  32
ATOM     32  O   UNL A   1      43.992  20.778  25.122  1.00  0.00    -0.460 OA
BRANCH  32  33
ATOM     33  C   UNL A   1      45.269  21.176  25.010  1.00  0.00     0.338 C 
ATOM     34  O   UNL A   1      46.272  20.508  25.195  1.00  0.00    -0.246 OA
BRANCH  33  35
ATOM     35  C   UNL A   1      45.269  22.599  24.654  1.00  0.00     0.060 A 
ATOM     36  C   UNL A   1      46.389  23.275  25.113  1.00  0.00     0.016 A 
ATOM     37  C   UNL A   1      44.031  23.222  24.418  1.00  0.00     0.016 A 
ATOM     38  C   UNL A   1      46.133  24.403  25.830  1.00  0.00     0.010 A 
ATOM     39  C   UNL A   1      43.776  24.355  25.122  1.00  0.00     0.010 A 
ATOM     40  C   UNL A   1      44.799  24.823  25.934  1.00  0.00    -0.014 A 
BRANCH  40  41
ATOM     41  C   UNL A   1      44.513  25.850  26.892  1.00  0.00     0.031 A 
ATOM     42  C   UNL A   1      45.567  26.873  26.849  1.00  0.00     0.074 A 
ATOM     43  C   UNL A   1      43.407  25.820  27.653  1.00  0.00     0.049 A 
ATOM     44  N   UNL A   1      46.532  27.027  27.689  1.00  0.00    -0.248 NA
ATOM     45  C   UNL A   1      45.754  27.583  25.572  1.00  0.00     0.031 C 
ATOM     46  C   UNL A   1      42.236  24.943  27.556  1.00  0.00     0.029 A 
ATOM     47  N   UNL A   1      43.065  26.673  28.649  1.00  0.00    -0.354 N 
ATOM     48  C   UNL A   1      47.280  28.071  27.170  1.00  0.00     0.074 A 
ATOM     49  C   UNL A   1      46.935  28.164  25.779  1.00  0.00     0.031 C 
ATOM     50  C   UNL A   1      41.226  25.468  28.289  1.00  0.00     0.029 A 
ATOM     51  C   UNL A   1      41.721  26.627  29.007  1.00  0.00     0.049 A 
ATOM     52  H   UNL A   1      43.713  27.274  29.083  1.00  0.00     0.167 HD
ATOM     53  C   UNL A   1      47.836  28.986  28.006  1.00  0.00     0.037 A 
ATOM     54  C   UNL A   1      41.096  27.578  29.750  1.00  0.00     0.037 A 
ATOM     55  C   UNL A   1      47.968  28.445  29.340  1.00  0.00     0.049 A 
ATOM     56  C   UNL A   1      42.172  28.306  30.492  1.00  0.00     0.074 A 
ATOM     57  C   UNL A   1      48.621  27.346  29.870  1.00  0.00     0.029 A 
ATOM     58  N   UNL A   1      47.025  28.808  30.274  1.00  0.00    -0.354 N 
ATOM     59  N   UNL A   1      42.920  27.744  31.407  1.00  0.00    -0.248 NA
ATOM     60  C   UNL A   1      42.757  29.475  29.847  1.00  0.00     0.031 C 
ATOM     61  C   UNL A   1      47.737  26.828  30.861  1.00  0.00     0.029 A 
ATOM     62  C   UNL A   1      46.631  27.676  30.944  1.00  0.00     0.049 A 
ATOM     63  H   UNL A   1      46.692  29.721  30.435  1.00  0.00     0.167 HD
ATOM     64  C   UNL A   1      44.206  28.217  31.165  1.00  0.00     0.074 A 
ATOM     65  C   UNL A   1      44.031  29.321  30.222  1.00  0.00     0.031 C 
ATOM     66  C   UNL A   1      45.311  27.490  31.512  1.00  0.00     0.037 A 
BRANCH  53  67
ATOM     67  C   UNL A   1      47.828  30.466  27.708  1.00  0.00     0.058 A 
ATOM     68  C   UNL A   1      46.599  31.088  27.425  1.00  0.00     0.135 A 
ATOM     69  C   UNL A   1      48.980  31.238  27.420  1.00  0.00     0.135 A 
ATOM     70  F   UNL A   1      45.441  30.451  27.661  1.00  0.00    -0.206 F 
ATOM     71  C   UNL A   1      46.522  32.343  26.821  1.00  0.00     0.059 A 
ATOM     72  C   UNL A   1      48.925  32.509  26.870  1.00  0.00     0.059 A 
ATOM     73  F   UNL A   1      50.227  30.780  27.561  1.00  0.00    -0.206 F 
ATOM     74  C   UNL A   1      47.694  33.036  26.532  1.00  0.00     0.060 A 
BRANCH  74  75
ATOM     75  S   UNL A   1      47.609  34.604  25.660  1.00  0.00     0.124 S 
ATOM     76  O   UNL A   1      46.359  34.456  24.923  1.00  0.00    -0.237 OA
ATOM     77  O   UNL A   1      47.596  35.557  26.763  1.00  0.00    -0.237 OA
ATOM     78  O   UNL A   1      48.825  34.606  24.851  1.00  0.00    -0.744 OA
ENDBRANCH  74  75
ENDBRANCH  53  67
BRANCH  54  79
ATOM     79  C   UNL A   1      39.746  28.159  29.509  1.00  0.00     0.058 A 
ATOM     80  C   UNL A   1      38.828  28.338  30.559  1.00  0.00     0.135 A 
ATOM     81  C   UNL A   1      39.430  28.807  28.297  1.00  0.00     0.135 A 
ATOM     82  F   UNL A   1      39.060  27.780  31.757  1.00  0.00    -0.206 F 
ATOM     83  C   UNL A   1      37.688  29.143  30.428  1.00  0.00     0.059 A 
ATOM     84  C   UNL A   1      38.298  29.606  28.139  1.00  0.00     0.059 A 
ATOM     85  F   UNL A   1      40.262  28.759  27.245  1.00  0.00    -0.206 F 
ATOM     86  C   UNL A   1      37.441  29.790  29.216  1.00  0.00     0.060 A 
BRANCH  86  87
ATOM     87  S   UNL A   1      36.065  30.958  29.086  1.00  0.00     0.124 S 
ATOM     88  O   UNL A   1      35.589  31.018  30.464  1.00  0.00    -0.237 OA
ATOM     89  O   UNL A   1      36.725  32.159  28.587  1.00  0.00    -0.237 OA
ATOM     90  O   UNL A   1      35.159  30.310  28.141  1.00  0.00    -0.744 OA
ENDBRANCH  86  87
ENDBRANCH  54  79
BRANCH  66  91
ATOM     91  C   UNL A   1      45.124  26.280  32.396  1.00  0.00     0.058 A 
ATOM     92  C   UNL A   1      44.711  25.012  31.943  1.00  0.00     0.135 A 
ATOM     93  C   UNL A   1      45.543  26.372  33.730  1.00  0.00     0.135 A 
ATOM     94  F   UNL A   1      44.390  24.813  30.657  1.00  0.00    -0.206 F 
ATOM     95  C   UNL A   1      44.686  23.899  32.789  1.00  0.00     0.059 A 
ATOM     96  C   UNL A   1      45.555  25.272  34.582  1.00  0.00     0.059 A 
ATOM     97  F   UNL A   1      46.008  27.540  34.207  1.00  0.00    -0.206 F 
ATOM     98  C   UNL A   1      45.113  24.040  34.110  1.00  0.00     0.060 A 
BRANCH  98  99
ATOM     99  S   UNL A   1      45.148  22.593  35.192  1.00  0.00     0.124 S 
ATOM    100  O   UNL A   1      44.498  21.578  34.370  1.00  0.00    -0.237 OA
ATOM    101  O   UNL A   1      46.578  22.401  35.422  1.00  0.00    -0.237 OA
ATOM    102  O   UNL A   1      44.390  23.024  36.364  1.00  0.00    -0.744 OA
ENDBRANCH  98  99
ENDBRANCH  66  91
ENDBRANCH  40  41
ENDBRANCH  33  35
ENDBRANCH  32  33
ENDBRANCH  31  32
ENDBRANCH  30  31
ENDBRANCH  29  30
ENDBRANCH  28  29
ENDBRANCH   1  28
TORSDOF 25
ENDMDL
MODEL 3
REMARK VINA RESULT:      -9.9      2.297      3.485
REMARK SMILES O=C(Cn1c2c(sc1=O)C[C@H](c1ccccc1)CC2)OCCOCCOCCOCCOC(=O)c1ccc(-c2c3nc(c(-c4c(F)cc(S(=O)(=O)[O-])cc4F)c4ccc([nH]4)c(-c4c(F)cc(S(=O)(=O)[O-])cc4F)c4nc(c(-c5c(F)cc(S(=O)(=O)[O-])cc5F)c5ccc2[nH]5)C=C4)C=C3)cc1
REMARK SMILES IDX 27 1 26 2 25 3 24 4 23 5 22 6 21 7 20 8 2 9 1 10 3 11 4 12
REMARK SMILES IDX 5 13 8 14 6 15 19 16 7 17 9 18 10 19 18 20 11 21 12 22 13 23
REMARK SMILES IDX 17 24 14 25 16 26 15 27 28 28 29 29 30 30 31 31 32 32 33 33
REMARK SMILES IDX 34 34 35 35 36 36 100 37 37 38 99 39 38 40 39 41 40 42 93 43
REMARK SMILES IDX 41 44 98 45 92 46 94 47 42 48 97 49 91 50 90 51 43 53 77 54
REMARK SMILES IDX 56 55 76 56 57 57 60 58 75 59 95 60 58 61 59 62 74 64 96 65
REMARK SMILES IDX 61 66 44 67 45 68 54 69 46 70 47 71 53 72 55 73 48 74 49 75
REMARK SMILES IDX 50 76 51 77 52 78 78 79 79 80 88 81 80 82 81 83 87 84 89 85
REMARK SMILES IDX 82 86 83 87 84 88 85 89 86 90 62 91 63 92 72 93 64 94 65 95
REMARK SMILES IDX 71 96 73 97 66 98 67 99 68 100 69 101 70 102
REMARK H PARENT 94 52 60 63
REMARK Flexibility Score: inf
ROOT
ATOM      1  C   UNL A   1      37.134  22.807  24.820  1.00  0.00     0.188 C 
ENDROOT
BRANCH   1   2
ATOM      2  O   UNL A   1      36.623  21.659  24.183  1.00  0.00    -0.377 OA
BRANCH   2   3
ATOM      3  C   UNL A   1      35.507  21.035  24.784  1.00  0.00     0.188 C 
BRANCH   3   4
ATOM      4  C   UNL A   1      34.231  21.857  24.979  1.00  0.00     0.188 C 
BRANCH   4   5
ATOM      5  O   UNL A   1      33.380  22.063  23.862  1.00  0.00    -0.376 OA
BRANCH   5   6
ATOM      6  C   UNL A   1      33.640  22.921  22.759  1.00  0.00     0.202 C 
BRANCH   6   7
ATOM      7  C   UNL A   1      34.318  24.267  22.977  1.00  0.00     0.261 C 
BRANCH   7   8
ATOM      8  O   UNL A   1      34.005  25.320  22.051  1.00  0.00    -0.462 OA
BRANCH   8   9
ATOM      9  C   UNL A   1      32.954  25.277  21.202  1.00  0.00     0.326 C 
ATOM     10  O   UNL A   1      33.101  24.856  20.056  1.00  0.00    -0.250 OA
BRANCH   9  11
ATOM     11  C   UNL A   1      31.664  25.955  21.639  1.00  0.00     0.249 C 
BRANCH  11  12
ATOM     12  N   UNL A   1      31.362  26.048  23.038  1.00  0.00    -0.292 N 
ATOM     13  C   UNL A   1      31.859  27.063  23.817  1.00  0.00     0.036 A 
ATOM     14  C   UNL A   1      30.638  25.080  23.719  1.00  0.00     0.308 A 
ATOM     15  C   UNL A   1      31.272  27.124  25.018  1.00  0.00     0.030 A 
ATOM     16  C   UNL A   1      32.879  28.053  23.326  1.00  0.00     0.056 C 
ATOM     17  S   UNL A   1      30.292  25.732  25.335  1.00  0.00    -0.079 S 
ATOM     18  O   UNL A   1      30.290  23.991  23.333  1.00  0.00    -0.257 OA
ATOM     19  C   UNL A   1      31.296  28.368  25.838  1.00  0.00     0.057 C 
ATOM     20  C   UNL A   1      32.992  29.264  24.263  1.00  0.00     0.015 C 
ATOM     21  C   UNL A   1      31.623  29.597  24.917  1.00  0.00     0.025 C 
BRANCH  21  22
ATOM     22  C   UNL A   1      30.516  29.931  23.890  1.00  0.00    -0.045 A 
ATOM     23  C   UNL A   1      29.398  30.694  24.261  1.00  0.00     0.004 A 
ATOM     24  C   UNL A   1      30.550  29.454  22.564  1.00  0.00     0.004 A 
ATOM     25  C   UNL A   1      28.322  30.881  23.385  1.00  0.00     0.000 A 
ATOM     26  C   UNL A   1      29.464  29.613  21.698  1.00  0.00     0.000 A 
ATOM     27  C   UNL A   1      28.343  30.318  22.113  1.00  0.00     0.000 A 
ENDBRANCH  21  22
ENDBRANCH  11  12
ENDBRANCH   9  11
ENDBRANCH   8   9
ENDBRANCH   7   8
ENDBRANCH   6   7
ENDBRANCH   5   6
ENDBRANCH   4   5
ENDBRANCH   3   4
ENDBRANCH   2   3
ENDBRANCH   1   2
BRANCH   1  28
ATOM     28  C   UNL A   1      38.072  22.526  26.015  1.00  0.00     0.188 C 
BRANCH  28  29
ATOM     29  O   UNL A   1      39.402  22.027  25.897  1.00  0.00    -0.376 OA
BRANCH  29  30
ATOM     30  C   UNL A   1      39.824  20.672  25.937  1.00  0.00     0.202 C 
BRANCH  30  31
ATOM     31  C   UNL A   1      41.221  20.171  26.288  1.00  0.00     0.261 C 
BRANCH  31  32
ATOM     32  O   UNL A   1      42.209  21.155  26.165  1.00  0.00    -0.460 OA
BRANCH  32  33
ATOM     33  C   UNL A   1      42.357  21.871  27.291  1.00  0.00     0.338 C 
ATOM     34  O   UNL A   1      41.962  21.584  28.408  1.00  0.00    -0.246 OA
BRANCH  33  35
ATOM     35  C   UNL A   1      43.060  23.111  26.948  1.00  0.00     0.060 A 
ATOM     36  C   UNL A   1      43.992  23.491  27.902  1.00  0.00     0.016 A 
ATOM     37  C   UNL A   1      42.419  24.019  26.088  1.00  0.00     0.016 A 
ATOM     38  C   UNL A   1      43.874  24.770  28.351  1.00  0.00     0.010 A 
ATOM     39  C   UNL A   1      42.311  25.300  26.525  1.00  0.00     0.010 A 
ATOM     40  C   UNL A   1      42.920  25.594  27.737  1.00  0.00    -0.014 A 
BRANCH  40  41
ATOM     41  C   UNL A   1      42.627  26.841  28.379  1.00  0.00     0.031 A 
ATOM     42  C   UNL A   1      43.755  27.765  28.201  1.00  0.00     0.074 A 
ATOM     43  C   UNL A   1      41.457  27.059  29.001  1.00  0.00     0.049 A 
ATOM     44  N   UNL A   1      44.649  28.075  29.077  1.00  0.00    -0.248 NA
ATOM     45  C   UNL A   1      44.111  28.123  26.817  1.00  0.00     0.031 C 
ATOM     46  C   UNL A   1      40.237  26.246  28.996  1.00  0.00     0.029 A 
ATOM     47  N   UNL A   1      41.092  28.150  29.717  1.00  0.00    -0.354 N 
ATOM     48  C   UNL A   1      45.518  28.917  28.401  1.00  0.00     0.074 A 
ATOM     49  C   UNL A   1      45.309  28.676  27.001  1.00  0.00     0.031 C 
ATOM     50  C   UNL A   1      39.207  26.989  29.467  1.00  0.00     0.029 A 
ATOM     51  C   UNL A   1      39.722  28.264  29.929  1.00  0.00     0.049 A 
ATOM     52  H   UNL A   1      41.742  28.807  30.058  1.00  0.00     0.167 HD
ATOM     53  C   UNL A   1      46.063  29.982  29.043  1.00  0.00     0.037 A 
ATOM     54  C   UNL A   1      39.106  29.401  30.347  1.00  0.00     0.037 A 
ATOM     55  C   UNL A   1      46.033  29.785  30.475  1.00  0.00     0.049 A 
ATOM     56  C   UNL A   1      40.162  30.236  30.999  1.00  0.00     0.074 A 
ATOM     57  C   UNL A   1      46.549  28.823  31.324  1.00  0.00     0.029 A 
ATOM     58  N   UNL A   1      45.039  30.419  31.186  1.00  0.00    -0.354 N 
ATOM     59  N   UNL A   1      40.779  29.883  32.098  1.00  0.00    -0.248 NA
ATOM     60  C   UNL A   1      40.890  31.175  30.155  1.00  0.00     0.031 C 
ATOM     61  C   UNL A   1      45.541  28.615  32.311  1.00  0.00     0.029 A 
ATOM     62  C   UNL A   1      44.500  29.512  32.066  1.00  0.00     0.049 A 
ATOM     63  H   UNL A   1      44.763  31.358  31.083  1.00  0.00     0.167 HD
ATOM     64  C   UNL A   1      42.114  30.214  31.887  1.00  0.00     0.074 A 
ATOM     65  C   UNL A   1      42.110  31.055  30.690  1.00  0.00     0.031 C 
ATOM     66  C   UNL A   1      43.123  29.542  32.517  1.00  0.00     0.037 A 
BRANCH  53  67
ATOM     67  C   UNL A   1      46.196  31.339  28.395  1.00  0.00     0.058 A 
ATOM     68  C   UNL A   1      45.027  31.998  27.972  1.00  0.00     0.135 A 
ATOM     69  C   UNL A   1      47.411  31.895  27.924  1.00  0.00     0.135 A 
ATOM     70  F   UNL A   1      43.819  31.560  28.358  1.00  0.00    -0.206 F 
ATOM     71  C   UNL A   1      45.060  33.071  27.081  1.00  0.00     0.059 A 
ATOM     72  C   UNL A   1      47.467  32.994  27.082  1.00  0.00     0.059 A 
ATOM     73  F   UNL A   1      48.609  31.358  28.170  1.00  0.00    -0.206 F 
ATOM     74  C   UNL A   1      46.286  33.548  26.629  1.00  0.00     0.060 A 
BRANCH  74  75
ATOM     75  S   UNL A   1      46.335  34.859  25.402  1.00  0.00     0.124 S 
ATOM     76  O   UNL A   1      45.909  36.008  26.192  1.00  0.00    -0.237 OA
ATOM     77  O   UNL A   1      47.737  34.839  25.001  1.00  0.00    -0.237 OA
ATOM     78  O   UNL A   1      45.391  34.404  24.386  1.00  0.00    -0.744 OA
ENDBRANCH  74  75
ENDBRANCH  53  67
BRANCH  54  79
ATOM     79  C   UNL A   1      37.832  29.972  29.828  1.00  0.00     0.058 A 
ATOM     80  C   UNL A   1      36.844  30.468  30.698  1.00  0.00     0.135 A 
ATOM     81  C   UNL A   1      37.672  30.298  28.465  1.00  0.00     0.135 A 
ATOM     82  F   UNL A   1      36.928  30.230  32.016  1.00  0.00    -0.206 F 
ATOM     83  C   UNL A   1      35.787  31.272  30.250  1.00  0.00     0.059 A 
ATOM     84  C   UNL A   1      36.624  31.089  27.994  1.00  0.00     0.059 A 
ATOM     85  F   UNL A   1      38.584  29.932  27.552  1.00  0.00    -0.206 F 
ATOM     86  C   UNL A   1      35.696  31.593  28.895  1.00  0.00     0.060 A 
BRANCH  86  87
ATOM     87  S   UNL A   1      34.432  32.759  28.331  1.00  0.00     0.124 S 
ATOM     88  O   UNL A   1      33.519  31.885  27.602  1.00  0.00    -0.237 OA
ATOM     89  O   UNL A   1      33.928  33.301  29.588  1.00  0.00    -0.237 OA
ATOM     90  O   UNL A   1      35.184  33.701  27.507  1.00  0.00    -0.744 OA
ENDBRANCH  86  87
ENDBRANCH  54  79
BRANCH  66  91
ATOM     91  C   UNL A   1      42.766  28.603  33.644  1.00  0.00     0.058 A 
ATOM     92  C   UNL A   1      42.732  27.199  33.538  1.00  0.00     0.135 A 
ATOM     93  C   UNL A   1      42.614  29.147  34.927  1.00  0.00     0.135 A 
ATOM     94  F   UNL A   1      42.968  26.593  32.366  1.00  0.00    -0.206 F 
ATOM     95  C   UNL A   1      42.523  26.380  34.652  1.00  0.00     0.059 A 
ATOM     96  C   UNL A   1      42.436  28.350  36.055  1.00  0.00     0.059 A 
ATOM     97  F   UNL A   1      42.699  30.476  35.106  1.00  0.00    -0.206 F 
ATOM     98  C   UNL A   1      42.378  26.967  35.910  1.00  0.00     0.060 A 
BRANCH  98  99
ATOM     99  S   UNL A   1      42.175  25.915  37.365  1.00  0.00     0.124 S 
ATOM    100  O   UNL A   1      43.049  26.563  38.337  1.00  0.00    -0.237 OA
ATOM    101  O   UNL A   1      40.743  26.016  37.635  1.00  0.00    -0.237 OA
ATOM    102  O   UNL A   1      42.621  24.603  36.903  1.00  0.00    -0.744 OA
ENDBRANCH  98  99
ENDBRANCH  66  91
ENDBRANCH  40  41
ENDBRANCH  33  35
ENDBRANCH  32  33
ENDBRANCH  31  32
ENDBRANCH  30  31
ENDBRANCH  29  30
ENDBRANCH  28  29
ENDBRANCH   1  28
TORSDOF 25
ENDMDL
