MODEL 1
REMARK VINA RESULT:     -10.2      0.000      0.000
REMARK SMILES O=C(OCCOCCOCCOCCOC(=O)c1ccc(-c2c3nc(c(-c4c(F)cc(S(=O)(=O)[O-])cc4F)c4ccc([nH]4)c(-c4c(F)cc(S(=O)(=O)[O-])cc4F)c4nc(c(-c5c(F)cc(S(=O)(=O)[O-])cc5F)c5ccc2[nH]5)C=C4)C=C3)cc1)C1=Cc2cc(C(F)(F)F)ccc2O[C@@H]1C(F)(F)F
REMARK SMILES IDX 10 1 9 2 8 3 7 4 6 5 5 6 4 7 3 8 2 9 1 10 84 11 85 12 97 13
REMARK SMILES IDX 86 14 96 15 87 16 95 17 88 18 94 19 93 20 98 21 99 22 100 23
REMARK SMILES IDX 101 24 89 25 90 26 91 27 92 28 11 29 12 30 13 31 14 32 15 33
REMARK SMILES IDX 16 34 17 35 18 36 19 37 83 38 20 39 82 40 21 41 22 42 23 43
REMARK SMILES IDX 76 44 24 45 81 46 75 47 77 48 25 49 80 50 74 51 73 52 26 54
REMARK SMILES IDX 60 55 39 56 59 57 40 58 43 59 58 60 78 61 41 62 42 63 57 65
REMARK SMILES IDX 79 66 44 67 27 68 28 69 37 70 29 71 30 72 36 73 38 74 31 75
REMARK SMILES IDX 32 76 33 77 34 78 35 79 61 80 62 81 71 82 63 83 64 84 70 85
REMARK SMILES IDX 72 86 65 87 66 88 67 89 68 90 69 91 45 92 46 93 55 94 47 95
REMARK SMILES IDX 48 96 54 97 56 98 49 99 50 100 51 101 52 102 53 103
REMARK H PARENT 77 53 43 64
REMARK Flexibility Score: inf
ROOT
ATOM      1  C   UNL A   1      39.184  22.048  26.123  1.00  0.00     0.188 C 
ENDROOT
BRANCH   1   2
ATOM      2  O   UNL A   1      38.146  21.283  25.523  1.00  0.00    -0.377 OA
BRANCH   2   3
ATOM      3  C   UNL A   1      36.897  21.952  25.396  1.00  0.00     0.188 C 
BRANCH   3   4
ATOM      4  C   UNL A   1      35.732  20.977  25.324  1.00  0.00     0.188 C 
BRANCH   4   5
ATOM      5  O   UNL A   1      34.632  21.459  24.568  1.00  0.00    -0.376 OA
BRANCH   5   6
ATOM      6  C   UNL A   1      34.546  22.847  24.288  1.00  0.00     0.202 C 
BRANCH   6   7
ATOM      7  C   UNL A   1      34.079  23.221  22.881  1.00  0.00     0.261 C 
BRANCH   7   8
ATOM      8  O   UNL A   1      32.905  24.056  22.888  1.00  0.00    -0.460 OA
BRANCH   8   9
ATOM      9  C   UNL A   1      33.062  25.363  23.205  1.00  0.00     0.338 C 
ATOM     10  O   UNL A   1      33.860  26.091  22.635  1.00  0.00    -0.246 OA
BRANCH   9  11
ATOM     11  C   UNL A   1      32.322  25.784  24.426  1.00  0.00     0.087 C 
ATOM     12  C   UNL A   1      33.151  26.028  25.455  1.00  0.00     0.027 C 
ATOM     13  C   UNL A   1      31.063  26.584  24.215  1.00  0.00     0.316 C 
ATOM     14  C   UNL A   1      33.214  27.433  25.854  1.00  0.00     0.018 A 
ATOM     15  O   UNL A   1      31.104  27.929  24.751  1.00  0.00    -0.475 OA
ATOM     16  C   UNL A   1      34.302  27.903  26.601  1.00  0.00     0.025 A 
ATOM     17  C   UNL A   1      32.250  28.327  25.385  1.00  0.00     0.128 A 
ATOM     18  C   UNL A   1      34.471  29.281  26.812  1.00  0.00     0.056 A 
ATOM     19  C   UNL A   1      32.447  29.697  25.530  1.00  0.00     0.048 A 
ATOM     20  C   UNL A   1      33.569  30.174  26.211  1.00  0.00     0.017 A 
BRANCH  13  21
ATOM     21  C   UNL A   1      29.820  25.816  24.673  1.00  0.00     0.430 C 
ATOM     22  F   UNL A   1      28.710  26.241  24.023  1.00  0.00    -0.167 F 
ATOM     23  F   UNL A   1      29.936  24.491  24.401  1.00  0.00    -0.167 F 
ATOM     24  F   UNL A   1      29.591  25.932  25.999  1.00  0.00    -0.167 F 
ENDBRANCH  13  21
BRANCH  18  25
ATOM     25  C   UNL A   1      35.543  29.811  27.733  1.00  0.00     0.416 C 
ATOM     26  F   UNL A   1      36.783  29.659  27.186  1.00  0.00    -0.166 F 
ATOM     27  F   UNL A   1      35.422  31.139  28.008  1.00  0.00    -0.166 F 
ATOM     28  F   UNL A   1      35.584  29.175  28.934  1.00  0.00    -0.166 F 
ENDBRANCH  18  25
ENDBRANCH   9  11
ENDBRANCH   8   9
ENDBRANCH   7   8
ENDBRANCH   6   7
ENDBRANCH   5   6
ENDBRANCH   4   5
ENDBRANCH   3   4
ENDBRANCH   2   3
ENDBRANCH   1   2
BRANCH   1  29
ATOM     29  C   UNL A   1      40.591  21.404  26.152  1.00  0.00     0.188 C 
BRANCH  29  30
ATOM     30  O   UNL A   1      41.726  21.969  25.505  1.00  0.00    -0.376 OA
BRANCH  30  31
ATOM     31  C   UNL A   1      42.782  22.499  26.280  1.00  0.00     0.202 C 
BRANCH  31  32
ATOM     32  C   UNL A   1      42.604  23.942  26.779  1.00  0.00     0.261 C 
BRANCH  32  33
ATOM     33  O   UNL A   1      41.502  24.657  26.193  1.00  0.00    -0.460 OA
BRANCH  33  34
ATOM     34  C   UNL A   1      41.681  25.998  26.016  1.00  0.00     0.338 C 
ATOM     35  O   UNL A   1      41.738  26.589  24.967  1.00  0.00    -0.246 OA
BRANCH  34  36
ATOM     36  C   UNL A   1      41.587  26.681  27.345  1.00  0.00     0.060 A 
ATOM     37  C   UNL A   1      40.519  26.331  28.186  1.00  0.00     0.016 A 
ATOM     38  C   UNL A   1      42.554  27.581  27.801  1.00  0.00     0.016 A 
ATOM     39  C   UNL A   1      40.414  26.871  29.473  1.00  0.00     0.010 A 
ATOM     40  C   UNL A   1      42.433  28.145  29.080  1.00  0.00     0.010 A 
ATOM     41  C   UNL A   1      41.352  27.811  29.917  1.00  0.00    -0.014 A 
BRANCH  41  42
ATOM     42  C   UNL A   1      41.091  28.614  31.144  1.00  0.00     0.031 A 
ATOM     43  C   UNL A   1      39.994  29.643  31.080  1.00  0.00     0.074 A 
ATOM     44  C   UNL A   1      41.806  28.467  32.277  1.00  0.00     0.049 A 
ATOM     45  N   UNL A   1      39.666  30.564  31.947  1.00  0.00    -0.248 NA
ATOM     46  C   UNL A   1      39.156  29.632  29.868  1.00  0.00     0.031 C 
ATOM     47  C   UNL A   1      42.856  27.474  32.499  1.00  0.00     0.029 A 
ATOM     48  N   UNL A   1      41.771  29.181  33.454  1.00  0.00    -0.354 N 
ATOM     49  C   UNL A   1      38.607  31.260  31.375  1.00  0.00     0.074 A 
ATOM     50  C   UNL A   1      38.345  30.656  30.088  1.00  0.00     0.031 C 
ATOM     51  C   UNL A   1      43.390  27.668  33.719  1.00  0.00     0.029 A 
ATOM     52  C   UNL A   1      42.753  28.824  34.350  1.00  0.00     0.049 A 
ATOM     53  H   UNL A   1      41.104  29.883  33.637  1.00  0.00     0.167 HD
ATOM     54  C   UNL A   1      37.920  32.312  31.873  1.00  0.00     0.037 A 
ATOM     55  C   UNL A   1      43.124  29.394  35.518  1.00  0.00     0.037 A 
ATOM     56  C   UNL A   1      38.168  32.904  33.160  1.00  0.00     0.049 A 
ATOM     57  C   UNL A   1      42.388  30.618  36.018  1.00  0.00     0.074 A 
ATOM     58  C   UNL A   1      37.486  33.942  33.770  1.00  0.00     0.029 A 
ATOM     59  N   UNL A   1      39.180  32.525  34.026  1.00  0.00    -0.354 N 
ATOM     60  N   UNL A   1      41.360  31.238  35.488  1.00  0.00    -0.248 NA
ATOM     61  C   UNL A   1      42.868  31.227  37.269  1.00  0.00     0.031 C 
ATOM     62  C   UNL A   1      38.127  34.235  34.975  1.00  0.00     0.029 A 
ATOM     63  C   UNL A   1      39.170  33.339  35.145  1.00  0.00     0.049 A 
ATOM     64  H   UNL A   1      39.812  31.786  33.868  1.00  0.00     0.167 HD
ATOM     65  C   UNL A   1      41.064  32.293  36.348  1.00  0.00     0.074 A 
ATOM     66  C   UNL A   1      42.002  32.217  37.445  1.00  0.00     0.031 C 
ATOM     67  C   UNL A   1      40.104  33.245  36.238  1.00  0.00     0.037 A 
BRANCH  54  68
ATOM     68  C   UNL A   1      36.849  32.927  31.018  1.00  0.00     0.058 A 
ATOM     69  C   UNL A   1      37.151  33.775  29.944  1.00  0.00     0.135 A 
ATOM     70  C   UNL A   1      35.503  32.583  31.228  1.00  0.00     0.135 A 
ATOM     71  F   UNL A   1      38.419  34.154  29.717  1.00  0.00    -0.206 F 
ATOM     72  C   UNL A   1      36.156  34.259  29.101  1.00  0.00     0.059 A 
ATOM     73  C   UNL A   1      34.495  33.034  30.383  1.00  0.00     0.059 A 
ATOM     74  F   UNL A   1      35.161  31.783  32.250  1.00  0.00    -0.206 F 
ATOM     75  C   UNL A   1      34.832  33.872  29.322  1.00  0.00     0.060 A 
BRANCH  75  76
ATOM     76  S   UNL A   1      33.564  34.455  28.179  1.00  0.00     0.124 S 
ATOM     77  O   UNL A   1      34.371  35.126  27.165  1.00  0.00    -0.237 OA
ATOM     78  O   UNL A   1      32.928  33.210  27.760  1.00  0.00    -0.237 OA
ATOM     79  O   UNL A   1      32.738  35.332  29.003  1.00  0.00    -0.744 OA
ENDBRANCH  75  76
ENDBRANCH  54  68
BRANCH  55  80
ATOM     80  C   UNL A   1      44.299  28.876  36.280  1.00  0.00     0.058 A 
ATOM     81  C   UNL A   1      45.570  29.459  36.156  1.00  0.00     0.135 A 
ATOM     82  C   UNL A   1      44.185  27.737  37.095  1.00  0.00     0.135 A 
ATOM     83  F   UNL A   1      45.738  30.535  35.373  1.00  0.00    -0.206 F 
ATOM     84  C   UNL A   1      46.688  28.918  36.785  1.00  0.00     0.059 A 
ATOM     85  C   UNL A   1      45.283  27.196  37.760  1.00  0.00     0.059 A 
ATOM     86  F   UNL A   1      42.995  27.138  37.256  1.00  0.00    -0.206 F 
ATOM     87  C   UNL A   1      46.534  27.784  37.584  1.00  0.00     0.060 A 
BRANCH  87  88
ATOM     88  S   UNL A   1      47.986  27.098  38.412  1.00  0.00     0.124 S 
ATOM     89  O   UNL A   1      47.377  26.146  39.334  1.00  0.00    -0.237 OA
ATOM     90  O   UNL A   1      48.730  26.522  37.297  1.00  0.00    -0.237 OA
ATOM     91  O   UNL A   1      48.603  28.269  39.028  1.00  0.00    -0.744 OA
ENDBRANCH  87  88
ENDBRANCH  55  80
BRANCH  67  92
ATOM     92  C   UNL A   1      39.996  34.272  37.333  1.00  0.00     0.058 A 
ATOM     93  C   UNL A   1      40.661  35.505  37.255  1.00  0.00     0.135 A 
ATOM     94  C   UNL A   1      39.146  34.056  38.433  1.00  0.00     0.135 A 
ATOM     95  F   UNL A   1      41.488  35.762  36.228  1.00  0.00    -0.206 F 
ATOM     96  C   UNL A   1      40.500  36.483  38.232  1.00  0.00     0.059 A 
ATOM     97  C   UNL A   1      38.948  35.030  39.406  1.00  0.00     0.059 A 
ATOM     98  F   UNL A   1      38.476  32.899  38.551  1.00  0.00    -0.206 F 
ATOM     99  C   UNL A   1      39.635  36.238  39.301  1.00  0.00     0.060 A 
BRANCH  99 100
ATOM    100  S   UNL A   1      39.396  37.536  40.533  1.00  0.00     0.124 S 
ATOM    101  O   UNL A   1      40.639  38.290  40.412  1.00  0.00    -0.237 OA
ATOM    102  O   UNL A   1      38.196  38.210  40.046  1.00  0.00    -0.237 OA
ATOM    103  O   UNL A   1      39.230  36.797  41.781  1.00  0.00    -0.744 OA
ENDBRANCH  99 100
ENDBRANCH  67  92
ENDBRANCH  41  42
ENDBRANCH  34  36
ENDBRANCH  33  34
ENDBRANCH  32  33
ENDBRANCH  31  32
ENDBRANCH  30  31
ENDBRANCH  29  30
ENDBRANCH   1  29
TORSDOF 25
ENDMDL
MODEL 2
REMARK VINA RESULT:     -10.1      1.379      2.528
REMARK SMILES O=C(OCCOCCOCCOCCOC(=O)c1ccc(-c2c3nc(c(-c4c(F)cc(S(=O)(=O)[O-])cc4F)c4ccc([nH]4)c(-c4c(F)cc(S(=O)(=O)[O-])cc4F)c4nc(c(-c5c(F)cc(S(=O)(=O)[O-])cc5F)c5ccc2[nH]5)C=C4)C=C3)cc1)C1=Cc2cc(C(F)(F)F)ccc2O[C@@H]1C(F)(F)F
REMARK SMILES IDX 10 1 9 2 8 3 7 4 6 5 5 6 4 7 3 8 2 9 1 10 84 11 85 12 97 13
REMARK SMILES IDX 86 14 96 15 87 16 95 17 88 18 94 19 93 20 98 21 99 22 100 23
REMARK SMILES IDX 101 24 89 25 90 26 91 27 92 28 11 29 12 30 13 31 14 32 15 33
REMARK SMILES IDX 16 34 17 35 18 36 19 37 83 38 20 39 82 40 21 41 22 42 23 43
REMARK SMILES IDX 76 44 24 45 81 46 75 47 77 48 25 49 80 50 74 51 73 52 26 54
REMARK SMILES IDX 60 55 39 56 59 57 40 58 43 59 58 60 78 61 41 62 42 63 57 65
REMARK SMILES IDX 79 66 44 67 27 68 28 69 37 70 29 71 30 72 36 73 38 74 31 75
REMARK SMILES IDX 32 76 33 77 34 78 35 79 61 80 62 81 71 82 63 83 64 84 70 85
REMARK SMILES IDX 72 86 65 87 66 88 67 89 68 90 69 91 45 92 46 93 55 94 47 95
REMARK SMILES IDX 48 96 54 97 56 98 49 99 50 100 51 101 52 102 53 103
REMARK H PARENT 77 53 43 64
REMARK Flexibility Score: inf
ROOT
ATOM      1  C   UNL A   1      39.144  21.997  26.068  1.00  0.00     0.188 C 
ENDROOT
BRANCH   1   2
ATOM      2  O   UNL A   1      38.103  21.244  25.460  1.00  0.00    -0.377 OA
BRANCH   2   3
ATOM      3  C   UNL A   1      36.887  21.949  25.252  1.00  0.00     0.188 C 
BRANCH   3   4
ATOM      4  C   UNL A   1      35.679  21.024  25.263  1.00  0.00     0.188 C 
BRANCH   4   5
ATOM      5  O   UNL A   1      34.609  21.474  24.448  1.00  0.00    -0.376 OA
BRANCH   5   6
ATOM      6  C   UNL A   1      34.620  22.811  23.974  1.00  0.00     0.202 C 
BRANCH   6   7
ATOM      7  C   UNL A   1      34.039  23.034  22.578  1.00  0.00     0.261 C 
BRANCH   7   8
ATOM      8  O   UNL A   1      32.941  23.967  22.575  1.00  0.00    -0.460 OA
BRANCH   8   9
ATOM      9  C   UNL A   1      33.232  25.283  22.708  1.00  0.00     0.338 C 
ATOM     10  O   UNL A   1      34.043  25.857  21.996  1.00  0.00    -0.246 OA
BRANCH   9  11
ATOM     11  C   UNL A   1      32.626  25.920  23.909  1.00  0.00     0.087 C 
ATOM     12  C   UNL A   1      32.347  27.218  23.699  1.00  0.00     0.027 C 
ATOM     13  C   UNL A   1      31.749  25.050  24.770  1.00  0.00     0.316 C 
ATOM     14  C   UNL A   1      30.918  27.528  23.673  1.00  0.00     0.018 A 
ATOM     15  O   UNL A   1      30.364  25.467  24.841  1.00  0.00    -0.475 OA
ATOM     16  C   UNL A   1      30.465  28.709  23.071  1.00  0.00     0.025 A 
ATOM     17  C   UNL A   1      30.000  26.586  24.141  1.00  0.00     0.128 A 
ATOM     18  C   UNL A   1      29.092  28.914  22.863  1.00  0.00     0.056 A 
ATOM     19  C   UNL A   1      28.643  26.750  23.876  1.00  0.00     0.048 A 
ATOM     20  C   UNL A   1      28.194  27.892  23.210  1.00  0.00     0.017 A 
BRANCH  13  21
ATOM     21  C   UNL A   1      32.358  24.829  26.158  1.00  0.00     0.430 C 
ATOM     22  F   UNL A   1      33.510  25.527  26.309  1.00  0.00    -0.167 F 
ATOM     23  F   UNL A   1      31.520  25.263  27.134  1.00  0.00    -0.167 F 
ATOM     24  F   UNL A   1      32.628  23.530  26.412  1.00  0.00    -0.167 F 
ENDBRANCH  13  21
BRANCH  18  25
ATOM     25  C   UNL A   1      28.561  30.233  22.355  1.00  0.00     0.416 C 
ATOM     26  F   UNL A   1      27.199  30.268  22.402  1.00  0.00    -0.166 F 
ATOM     27  F   UNL A   1      28.982  31.308  23.077  1.00  0.00    -0.166 F 
ATOM     28  F   UNL A   1      28.898  30.486  21.062  1.00  0.00    -0.166 F 
ENDBRANCH  18  25
ENDBRANCH   9  11
ENDBRANCH   8   9
ENDBRANCH   7   8
ENDBRANCH   6   7
ENDBRANCH   5   6
ENDBRANCH   4   5
ENDBRANCH   3   4
ENDBRANCH   2   3
ENDBRANCH   1   2
BRANCH   1  29
ATOM     29  C   UNL A   1      40.532  21.318  26.156  1.00  0.00     0.188 C 
BRANCH  29  30
ATOM     30  O   UNL A   1      41.702  21.840  25.537  1.00  0.00    -0.376 OA
BRANCH  30  31
ATOM     31  C   UNL A   1      42.751  22.345  26.337  1.00  0.00     0.202 C 
BRANCH  31  32
ATOM     32  C   UNL A   1      42.583  23.784  26.852  1.00  0.00     0.261 C 
BRANCH  32  33
ATOM     33  O   UNL A   1      41.479  24.509  26.284  1.00  0.00    -0.460 OA
BRANCH  33  34
ATOM     34  C   UNL A   1      41.670  25.846  26.092  1.00  0.00     0.338 C 
ATOM     35  O   UNL A   1      41.737  26.424  25.037  1.00  0.00    -0.246 OA
BRANCH  34  36
ATOM     36  C   UNL A   1      41.576  26.545  27.413  1.00  0.00     0.060 A 
ATOM     37  C   UNL A   1      40.492  26.227  28.245  1.00  0.00     0.016 A 
ATOM     38  C   UNL A   1      42.557  27.430  27.870  1.00  0.00     0.016 A 
ATOM     39  C   UNL A   1      40.385  26.784  29.526  1.00  0.00     0.010 A 
ATOM     40  C   UNL A   1      42.434  28.010  29.141  1.00  0.00     0.010 A 
ATOM     41  C   UNL A   1      41.338  27.708  29.970  1.00  0.00    -0.014 A 
BRANCH  41  42
ATOM     42  C   UNL A   1      41.081  28.530  31.185  1.00  0.00     0.031 A 
ATOM     43  C   UNL A   1      39.983  29.558  31.109  1.00  0.00     0.074 A 
ATOM     44  C   UNL A   1      41.799  28.401  32.318  1.00  0.00     0.049 A 
ATOM     45  N   UNL A   1      39.658  30.492  31.963  1.00  0.00    -0.248 NA
ATOM     46  C   UNL A   1      39.141  29.528  29.900  1.00  0.00     0.031 C 
ATOM     47  C   UNL A   1      42.850  27.411  32.552  1.00  0.00     0.029 A 
ATOM     48  N   UNL A   1      41.768  29.133  33.484  1.00  0.00    -0.354 N 
ATOM     49  C   UNL A   1      38.597  31.179  31.383  1.00  0.00     0.074 A 
ATOM     50  C   UNL A   1      38.330  30.555  30.107  1.00  0.00     0.031 C 
ATOM     51  C   UNL A   1      43.388  27.624  33.768  1.00  0.00     0.029 A 
ATOM     52  C   UNL A   1      42.752  28.789  34.383  1.00  0.00     0.049 A 
ATOM     53  H   UNL A   1      41.101  29.837  33.658  1.00  0.00     0.167 HD
ATOM     54  C   UNL A   1      37.911  32.239  31.867  1.00  0.00     0.037 A 
ATOM     55  C   UNL A   1      43.127  29.377  35.541  1.00  0.00     0.037 A 
ATOM     56  C   UNL A   1      38.163  32.850  33.144  1.00  0.00     0.049 A 
ATOM     57  C   UNL A   1      42.393  30.609  36.024  1.00  0.00     0.074 A 
ATOM     58  C   UNL A   1      37.483  33.898  33.740  1.00  0.00     0.029 A 
ATOM     59  N   UNL A   1      39.178  32.485  34.012  1.00  0.00    -0.354 N 
ATOM     60  N   UNL A   1      41.363  31.221  35.487  1.00  0.00    -0.248 NA
ATOM     61  C   UNL A   1      42.877  31.238  37.264  1.00  0.00     0.031 C 
ATOM     62  C   UNL A   1      38.128  34.209  34.939  1.00  0.00     0.029 A 
ATOM     63  C   UNL A   1      39.171  33.316  35.119  1.00  0.00     0.049 A 
ATOM     64  H   UNL A   1      39.810  31.744  33.864  1.00  0.00     0.167 HD
ATOM     65  C   UNL A   1      41.069  32.289  36.333  1.00  0.00     0.074 A 
ATOM     66  C   UNL A   1      42.011  32.229  37.427  1.00  0.00     0.031 C 
ATOM     67  C   UNL A   1      40.109  33.239  36.210  1.00  0.00     0.037 A 
BRANCH  54  68
ATOM     68  C   UNL A   1      36.837  32.840  31.007  1.00  0.00     0.058 A 
ATOM     69  C   UNL A   1      37.134  33.715  29.952  1.00  0.00     0.135 A 
ATOM     70  C   UNL A   1      35.498  32.458  31.190  1.00  0.00     0.135 A 
ATOM     71  F   UNL A   1      38.394  34.131  29.752  1.00  0.00    -0.206 F 
ATOM     72  C   UNL A   1      36.139  34.187  29.102  1.00  0.00     0.059 A 
ATOM     73  C   UNL A   1      34.492  32.896  30.337  1.00  0.00     0.059 A 
ATOM     74  F   UNL A   1      35.162  31.630  32.193  1.00  0.00    -0.206 F 
ATOM     75  C   UNL A   1      34.822  33.762  29.296  1.00  0.00     0.060 A 
BRANCH  75  76
ATOM     76  S   UNL A   1      33.557  34.331  28.143  1.00  0.00     0.124 S 
ATOM     77  O   UNL A   1      32.694  35.116  29.021  1.00  0.00    -0.237 OA
ATOM     78  O   UNL A   1      34.339  35.095  27.176  1.00  0.00    -0.237 OA
ATOM     79  O   UNL A   1      32.974  33.093  27.636  1.00  0.00    -0.744 OA
ENDBRANCH  75  76
ENDBRANCH  54  68
BRANCH  55  80
ATOM     80  C   UNL A   1      44.304  28.871  36.307  1.00  0.00     0.058 A 
ATOM     81  C   UNL A   1      45.578  29.443  36.158  1.00  0.00     0.135 A 
ATOM     82  C   UNL A   1      44.190  27.753  37.151  1.00  0.00     0.135 A 
ATOM     83  F   UNL A   1      45.747  30.499  35.349  1.00  0.00    -0.206 F 
ATOM     84  C   UNL A   1      46.698  28.911  36.793  1.00  0.00     0.059 A 
ATOM     85  C   UNL A   1      45.290  27.223  37.820  1.00  0.00     0.059 A 
ATOM     86  F   UNL A   1      42.998  27.166  37.334  1.00  0.00    -0.206 F 
ATOM     87  C   UNL A   1      46.543  27.798  37.621  1.00  0.00     0.060 A 
BRANCH  87  88
ATOM     88  S   UNL A   1      47.997  27.124  38.455  1.00  0.00     0.124 S 
ATOM     89  O   UNL A   1      48.457  28.276  39.222  1.00  0.00    -0.237 OA
ATOM     90  O   UNL A   1      47.424  26.027  39.229  1.00  0.00    -0.237 OA
ATOM     91  O   UNL A   1      48.857  26.717  37.348  1.00  0.00    -0.744 OA
ENDBRANCH  87  88
ENDBRANCH  55  80
BRANCH  67  92
ATOM     92  C   UNL A   1      40.004  34.283  37.290  1.00  0.00     0.058 A 
ATOM     93  C   UNL A   1      40.655  35.521  37.183  1.00  0.00     0.135 A 
ATOM     94  C   UNL A   1      39.172  34.076  38.404  1.00  0.00     0.135 A 
ATOM     95  F   UNL A   1      41.466  35.770  36.141  1.00  0.00    -0.206 F 
ATOM     96  C   UNL A   1      40.497  36.513  38.146  1.00  0.00     0.059 A 
ATOM     97  C   UNL A   1      38.975  35.063  39.364  1.00  0.00     0.059 A 
ATOM     98  F   UNL A   1      38.515  32.914  38.551  1.00  0.00    -0.206 F 
ATOM     99  C   UNL A   1      39.649  36.276  39.231  1.00  0.00     0.060 A 
BRANCH  99 100
ATOM    100  S   UNL A   1      39.411  37.592  40.443  1.00  0.00     0.124 S 
ATOM    101  O   UNL A   1      40.674  38.316  40.344  1.00  0.00    -0.237 OA
ATOM    102  O   UNL A   1      38.238  38.289  39.923  1.00  0.00    -0.237 OA
ATOM    103  O   UNL A   1      39.201  36.870  41.695  1.00  0.00    -0.744 OA
ENDBRANCH  99 100
ENDBRANCH  67  92
ENDBRANCH  41  42
ENDBRANCH  34  36
ENDBRANCH  33  34
ENDBRANCH  32  33
ENDBRANCH  31  32
ENDBRANCH  30  31
ENDBRANCH  29  30
ENDBRANCH   1  29
TORSDOF 25
ENDMDL
MODEL 3
REMARK VINA RESULT:     -10.0      1.705      3.137
REMARK SMILES O=C(OCCOCCOCCOCCOC(=O)c1ccc(-c2c3nc(c(-c4c(F)cc(S(=O)(=O)[O-])cc4F)c4ccc([nH]4)c(-c4c(F)cc(S(=O)(=O)[O-])cc4F)c4nc(c(-c5c(F)cc(S(=O)(=O)[O-])cc5F)c5ccc2[nH]5)C=C4)C=C3)cc1)C1=Cc2cc(C(F)(F)F)ccc2O[C@@H]1C(F)(F)F
REMARK SMILES IDX 10 1 9 2 8 3 7 4 6 5 5 6 4 7 3 8 2 9 1 10 84 11 85 12 97 13
REMARK SMILES IDX 86 14 96 15 87 16 95 17 88 18 94 19 93 20 98 21 99 22 100 23
REMARK SMILES IDX 101 24 89 25 90 26 91 27 92 28 11 29 12 30 13 31 14 32 15 33
REMARK SMILES IDX 16 34 17 35 18 36 19 37 83 38 20 39 82 40 21 41 22 42 23 43
REMARK SMILES IDX 76 44 24 45 81 46 75 47 77 48 25 49 80 50 74 51 73 52 26 54
REMARK SMILES IDX 60 55 39 56 59 57 40 58 43 59 58 60 78 61 41 62 42 63 57 65
REMARK SMILES IDX 79 66 44 67 27 68 28 69 37 70 29 71 30 72 36 73 38 74 31 75
REMARK SMILES IDX 32 76 33 77 34 78 35 79 61 80 62 81 71 82 63 83 64 84 70 85
REMARK SMILES IDX 72 86 65 87 66 88 67 89 68 90 69 91 45 92 46 93 55 94 47 95
REMARK SMILES IDX 48 96 54 97 56 98 49 99 50 100 51 101 52 102 53 103
REMARK H PARENT 77 53 43 64
REMARK Flexibility Score: inf
ROOT
ATOM      1  C   UNL A   1      36.745  22.219  25.991  1.00  0.00     0.188 C 
ENDROOT
BRANCH   1   2
ATOM      2  O   UNL A   1      36.023  23.152  25.198  1.00  0.00    -0.377 OA
BRANCH   2   3
ATOM      3  C   UNL A   1      34.983  23.846  25.875  1.00  0.00     0.188 C 
BRANCH   3   4
ATOM      4  C   UNL A   1      34.308  22.981  26.929  1.00  0.00     0.188 C 
BRANCH   4   5
ATOM      5  O   UNL A   1      33.060  22.449  26.516  1.00  0.00    -0.376 OA
BRANCH   5   6
ATOM      6  C   UNL A   1      31.925  22.636  27.347  1.00  0.00     0.202 C 
BRANCH   6   7
ATOM      7  C   UNL A   1      30.608  22.929  26.629  1.00  0.00     0.261 C 
BRANCH   7   8
ATOM      8  O   UNL A   1      30.212  24.311  26.734  1.00  0.00    -0.460 OA
BRANCH   8   9
ATOM      9  C   UNL A   1      30.957  25.232  26.078  1.00  0.00     0.338 C 
ATOM     10  O   UNL A   1      31.577  26.114  26.653  1.00  0.00    -0.246 OA
BRANCH   9  11
ATOM     11  C   UNL A   1      30.805  25.192  24.598  1.00  0.00     0.087 C 
ATOM     12  C   UNL A   1      29.720  25.872  24.189  1.00  0.00     0.027 C 
ATOM     13  C   UNL A   1      32.072  25.157  23.785  1.00  0.00     0.316 C 
ATOM     14  C   UNL A   1      30.024  27.083  23.427  1.00  0.00     0.018 A 
ATOM     15  O   UNL A   1      32.274  26.307  22.929  1.00  0.00    -0.475 OA
ATOM     16  C   UNL A   1      29.059  28.090  23.295  1.00  0.00     0.025 A 
ATOM     17  C   UNL A   1      31.316  27.285  22.939  1.00  0.00     0.128 A 
ATOM     18  C   UNL A   1      29.407  29.334  22.744  1.00  0.00     0.056 A 
ATOM     19  C   UNL A   1      31.686  28.537  22.456  1.00  0.00     0.048 A 
ATOM     20  C   UNL A   1      30.746  29.567  22.389  1.00  0.00     0.017 A 
BRANCH  13  21
ATOM     21  C   UNL A   1      32.220  23.836  23.024  1.00  0.00     0.430 C 
ATOM     22  F   UNL A   1      32.596  24.046  21.739  1.00  0.00    -0.167 F 
ATOM     23  F   UNL A   1      33.184  23.057  23.580  1.00  0.00    -0.167 F 
ATOM     24  F   UNL A   1      31.081  23.110  23.006  1.00  0.00    -0.167 F 
ENDBRANCH  13  21
BRANCH  18  25
ATOM     25  C   UNL A   1      28.364  30.385  22.450  1.00  0.00     0.416 C 
ATOM     26  F   UNL A   1      27.572  30.016  21.404  1.00  0.00    -0.166 F 
ATOM     27  F   UNL A   1      27.517  30.621  23.489  1.00  0.00    -0.166 F 
ATOM     28  F   UNL A   1      28.896  31.589  22.109  1.00  0.00    -0.166 F 
ENDBRANCH  18  25
ENDBRANCH   9  11
ENDBRANCH   8   9
ENDBRANCH   7   8
ENDBRANCH   6   7
ENDBRANCH   5   6
ENDBRANCH   4   5
ENDBRANCH   3   4
ENDBRANCH   2   3
ENDBRANCH   1   2
BRANCH   1  29
ATOM     29  C   UNL A   1      37.935  21.503  25.309  1.00  0.00     0.188 C 
BRANCH  29  30
ATOM     30  O   UNL A   1      39.249  21.471  25.855  1.00  0.00    -0.376 OA
BRANCH  30  31
ATOM     31  C   UNL A   1      39.638  22.447  26.799  1.00  0.00     0.202 C 
BRANCH  31  32
ATOM     32  C   UNL A   1      40.600  23.536  26.296  1.00  0.00     0.261 C 
BRANCH  32  33
ATOM     33  O   UNL A   1      40.012  24.839  26.133  1.00  0.00    -0.460 OA
BRANCH  33  34
ATOM     34  C   UNL A   1      40.883  25.886  26.049  1.00  0.00     0.338 C 
ATOM     35  O   UNL A   1      41.445  26.283  25.060  1.00  0.00    -0.246 OA
BRANCH  34  36
ATOM     36  C   UNL A   1      40.884  26.623  27.353  1.00  0.00     0.060 A 
ATOM     37  C   UNL A   1      40.095  26.110  28.394  1.00  0.00     0.016 A 
ATOM     38  C   UNL A   1      41.692  27.738  27.588  1.00  0.00     0.016 A 
ATOM     39  C   UNL A   1      40.109  26.704  29.662  1.00  0.00     0.010 A 
ATOM     40  C   UNL A   1      41.685  28.350  28.851  1.00  0.00     0.010 A 
ATOM     41  C   UNL A   1      40.879  27.850  29.891  1.00  0.00    -0.014 A 
BRANCH  41  42
ATOM     42  C   UNL A   1      40.676  28.661  31.123  1.00  0.00     0.031 A 
ATOM     43  C   UNL A   1      39.599  29.714  31.092  1.00  0.00     0.074 A 
ATOM     44  C   UNL A   1      41.423  28.502  32.233  1.00  0.00     0.049 A 
ATOM     45  N   UNL A   1      39.319  30.644  31.966  1.00  0.00    -0.248 NA
ATOM     46  C   UNL A   1      38.723  29.718  29.907  1.00  0.00     0.031 C 
ATOM     47  C   UNL A   1      42.458  27.487  32.424  1.00  0.00     0.029 A 
ATOM     48  N   UNL A   1      41.441  29.219  33.408  1.00  0.00    -0.354 N 
ATOM     49  C   UNL A   1      38.258  31.361  31.426  1.00  0.00     0.074 A 
ATOM     50  C   UNL A   1      37.941  30.760  30.150  1.00  0.00     0.031 C 
ATOM     51  C   UNL A   1      43.035  27.672  33.626  1.00  0.00     0.029 A 
ATOM     52  C   UNL A   1      42.443  28.843  34.274  1.00  0.00     0.049 A 
ATOM     53  H   UNL A   1      40.795  29.935  33.610  1.00  0.00     0.167 HD
ATOM     54  C   UNL A   1      37.609  32.429  31.943  1.00  0.00     0.037 A 
ATOM     55  C   UNL A   1      42.864  29.407  35.428  1.00  0.00     0.037 A 
ATOM     56  C   UNL A   1      37.911  33.018  33.219  1.00  0.00     0.049 A 
ATOM     57  C   UNL A   1      42.171  30.648  35.947  1.00  0.00     0.074 A 
ATOM     58  C   UNL A   1      37.271  34.072  33.848  1.00  0.00     0.029 A 
ATOM     59  N   UNL A   1      38.942  32.619  34.053  1.00  0.00    -0.354 N 
ATOM     60  N   UNL A   1      41.140  31.289  35.448  1.00  0.00    -0.248 NA
ATOM     61  C   UNL A   1      42.704  31.250  37.180  1.00  0.00     0.031 C 
ATOM     62  C   UNL A   1      37.958  34.353  35.031  1.00  0.00     0.029 A 
ATOM     63  C   UNL A   1      38.986  33.436  35.170  1.00  0.00     0.049 A 
ATOM     64  H   UNL A   1      39.553  31.867  33.878  1.00  0.00     0.167 HD
ATOM     65  C   UNL A   1      40.894  32.352  36.315  1.00  0.00     0.074 A 
ATOM     66  C   UNL A   1      41.865  32.258  37.381  1.00  0.00     0.031 C 
ATOM     67  C   UNL A   1      39.952  33.324  36.233  1.00  0.00     0.037 A 
BRANCH  54  68
ATOM     68  C   UNL A   1      36.525  33.065  31.121  1.00  0.00     0.058 A 
ATOM     69  C   UNL A   1      35.176  33.005  31.497  1.00  0.00     0.135 A 
ATOM     70  C   UNL A   1      36.861  33.824  29.988  1.00  0.00     0.135 A 
ATOM     71  F   UNL A   1      34.801  32.272  32.557  1.00  0.00    -0.206 F 
ATOM     72  C   UNL A   1      34.194  33.681  30.780  1.00  0.00     0.059 A 
ATOM     73  C   UNL A   1      35.900  34.529  29.272  1.00  0.00     0.059 A 
ATOM     74  F   UNL A   1      38.138  33.904  29.581  1.00  0.00    -0.206 F 
ATOM     75  C   UNL A   1      34.569  34.451  29.676  1.00  0.00     0.060 A 
BRANCH  75  76
ATOM     76  S   UNL A   1      33.291  35.374  28.799  1.00  0.00     0.124 S 
ATOM     77  O   UNL A   1      32.507  35.912  29.906  1.00  0.00    -0.237 OA
ATOM     78  O   UNL A   1      34.074  36.349  28.046  1.00  0.00    -0.237 OA
ATOM     79  O   UNL A   1      32.623  34.355  27.995  1.00  0.00    -0.744 OA
ENDBRANCH  75  76
ENDBRANCH  54  68
BRANCH  55  80
ATOM     80  C   UNL A   1      44.051  28.865  36.153  1.00  0.00     0.058 A 
ATOM     81  C   UNL A   1      43.933  27.807  37.067  1.00  0.00     0.135 A 
ATOM     82  C   UNL A   1      45.320  29.449  35.998  1.00  0.00     0.135 A 
ATOM     83  F   UNL A   1      42.741  27.227  37.269  1.00  0.00    -0.206 F 
ATOM     84  C   UNL A   1      45.018  27.365  37.820  1.00  0.00     0.059 A 
ATOM     85  C   UNL A   1      46.427  29.004  36.716  1.00  0.00     0.059 A 
ATOM     86  F   UNL A   1      45.495  30.463  35.136  1.00  0.00    -0.206 F 
ATOM     87  C   UNL A   1      46.262  27.973  37.639  1.00  0.00     0.060 A 
BRANCH  87  88
ATOM     88  S   UNL A   1      47.669  27.383  38.606  1.00  0.00     0.124 S 
ATOM     89  O   UNL A   1      48.582  26.941  37.558  1.00  0.00    -0.237 OA
ATOM     90  O   UNL A   1      48.064  28.585  39.334  1.00  0.00    -0.237 OA
ATOM     91  O   UNL A   1      47.089  26.325  39.427  1.00  0.00    -0.744 OA
ENDBRANCH  87  88
ENDBRANCH  55  80
BRANCH  67  92
ATOM     92  C   UNL A   1      39.901  34.356  37.328  1.00  0.00     0.058 A 
ATOM     93  C   UNL A   1      40.519  35.607  37.189  1.00  0.00     0.135 A 
ATOM     94  C   UNL A   1      39.151  34.122  38.494  1.00  0.00     0.135 A 
ATOM     95  F   UNL A   1      41.252  35.882  36.098  1.00  0.00    -0.206 F 
ATOM     96  C   UNL A   1      40.408  36.587  38.172  1.00  0.00     0.059 A 
ATOM     97  C   UNL A   1      39.002  35.097  39.475  1.00  0.00     0.059 A 
ATOM     98  F   UNL A   1      38.529  32.946  38.673  1.00  0.00    -0.206 F 
ATOM     99  C   UNL A   1      39.641  36.324  39.309  1.00  0.00     0.060 A 
BRANCH  99 100
ATOM    100  S   UNL A   1      39.462  37.624  40.549  1.00  0.00     0.124 S 
ATOM    101  O   UNL A   1      38.987  36.868  41.702  1.00  0.00    -0.237 OA
ATOM    102  O   UNL A   1      40.821  38.147  40.651  1.00  0.00    -0.237 OA
ATOM    103  O   UNL A   1      38.488  38.533  39.952  1.00  0.00    -0.744 OA
ENDBRANCH  99 100
ENDBRANCH  67  92
ENDBRANCH  41  42
ENDBRANCH  34  36
ENDBRANCH  33  34
ENDBRANCH  32  33
ENDBRANCH  31  32
ENDBRANCH  30  31
ENDBRANCH  29  30
ENDBRANCH   1  29
TORSDOF 25
ENDMDL
