MODEL 1
REMARK VINA RESULT:      -9.1      0.000      0.000
REMARK SMILES CSCC[C@H](NC(=O)N[C@@H]1CCCCC1(C)C)C(=O)OCCOCCOCCOCCOC(=O)c1ccc(-c2c3nc(c(-c4c(F)cc(S(=O)(=O)[O-])cc4F)c4ccc([nH]4)c(-c4c(F)cc(S(=O)(=O)[O-])cc4F)c4nc(c(-c5c(F)cc(S(=O)(=O)[O-])cc5F)c5ccc2[nH]5)C=C4)C=C3)cc1
REMARK SMILES IDX 26 1 25 2 24 3 23 4 22 5 21 6 20 7 18 8 19 9 5 10 4 11 3 12
REMARK SMILES IDX 2 13 1 14 6 15 7 16 8 18 9 19 10 21 11 22 15 23 12 24 14 25
REMARK SMILES IDX 16 26 17 27 13 28 27 29 28 30 29 31 30 32 31 33 32 34 33 35
REMARK SMILES IDX 34 36 35 37 36 38 100 39 37 40 99 41 38 42 39 43 40 44 93 45
REMARK SMILES IDX 41 46 98 47 92 48 94 49 42 50 97 51 91 52 90 53 43 55 77 56
REMARK SMILES IDX 56 57 76 58 57 59 60 60 75 61 95 62 58 63 59 64 74 66 96 67
REMARK SMILES IDX 61 68 44 69 45 70 54 71 46 72 47 73 53 74 55 75 48 76 49 77
REMARK SMILES IDX 50 78 51 79 52 80 78 81 79 82 88 83 80 84 81 85 87 86 89 87
REMARK SMILES IDX 82 88 83 89 84 90 85 91 86 92 62 93 63 94 72 95 64 96 65 97
REMARK SMILES IDX 71 98 73 99 66 100 67 101 68 102 69 103 70 104
REMARK H PARENT 6 17 9 20 94 54 60 65
REMARK Flexibility Score: inf
ROOT
ATOM      1  O   UNL A   1      35.803  32.775  28.056  1.00  0.00    -0.377 OA
ENDROOT
BRANCH   1   2
ATOM      2  C   UNL A   1      36.317  31.483  28.326  1.00  0.00     0.188 C 
BRANCH   2   3
ATOM      3  C   UNL A   1      35.353  30.281  28.234  1.00  0.00     0.188 C 
BRANCH   3   4
ATOM      4  O   UNL A   1      34.755  30.142  26.951  1.00  0.00    -0.376 OA
BRANCH   4   5
ATOM      5  C   UNL A   1      34.128  28.919  26.594  1.00  0.00     0.202 C 
BRANCH   5   6
ATOM      6  C   UNL A   1      33.253  28.896  25.328  1.00  0.00     0.261 C 
BRANCH   6   7
ATOM      7  O   UNL A   1      32.446  27.714  25.162  1.00  0.00    -0.462 OA
BRANCH   7   8
ATOM      8  C   UNL A   1      32.781  26.887  24.148  1.00  0.00     0.328 C 
ATOM      9  O   UNL A   1      33.793  27.039  23.473  1.00  0.00    -0.250 OA
BRANCH   8  10
ATOM     10  C   UNL A   1      31.868  25.627  24.052  1.00  0.00     0.194 C 
BRANCH  10  11
ATOM     11  C   UNL A   1      30.864  25.819  22.912  1.00  0.00     0.048 C 
BRANCH  11  12
ATOM     12  C   UNL A   1      30.568  27.230  22.409  1.00  0.00     0.072 C 
BRANCH  12  13
ATOM     13  S   UNL A   1      29.220  28.052  23.302  1.00  0.00    -0.165 SA
ATOM     14  C   UNL A   1      29.862  29.735  23.281  1.00  0.00     0.085 C 
ENDBRANCH  12  13
ENDBRANCH  11  12
ENDBRANCH  10  11
BRANCH  10  15
ATOM     15  N   UNL A   1      31.320  25.013  25.314  1.00  0.00    -0.325 N 
ATOM     16  C   UNL A   1      31.415  23.962  26.140  1.00  0.00     0.315 C 
ATOM     17  H   UNL A   1      30.627  25.616  25.668  1.00  0.00     0.166 HD
ATOM     18  O   UNL A   1      30.682  23.975  27.133  1.00  0.00    -0.249 OA
ATOM     19  N   UNL A   1      32.239  22.916  25.995  1.00  0.00    -0.335 N 
ATOM     20  H   UNL A   1      32.255  22.285  26.750  1.00  0.00     0.165 HD
BRANCH  19  21
ATOM     21  C   UNL A   1      33.103  22.580  24.895  1.00  0.00     0.089 C 
ATOM     22  C   UNL A   1      32.412  21.538  24.009  1.00  0.00     0.025 C 
ATOM     23  C   UNL A   1      34.589  22.246  25.196  1.00  0.00    -0.015 C 
ATOM     24  C   UNL A   1      32.564  20.134  24.571  1.00  0.00     0.002 C 
ATOM     25  C   UNL A   1      34.747  20.785  25.656  1.00  0.00     0.008 C 
ATOM     26  C   UNL A   1      35.393  22.487  23.885  1.00  0.00     0.013 C 
ATOM     27  C   UNL A   1      35.182  23.201  26.251  1.00  0.00     0.013 C 
ATOM     28  C   UNL A   1      34.032  19.781  24.751  1.00  0.00     0.001 C 
ENDBRANCH  19  21
ENDBRANCH  10  15
ENDBRANCH   8  10
ENDBRANCH   7   8
ENDBRANCH   6   7
ENDBRANCH   5   6
ENDBRANCH   4   5
ENDBRANCH   3   4
ENDBRANCH   2   3
ENDBRANCH   1   2
BRANCH   1  29
ATOM     29  C   UNL A   1      34.555  33.068  28.675  1.00  0.00     0.188 C 
BRANCH  29  30
ATOM     30  C   UNL A   1      34.635  34.372  29.487  1.00  0.00     0.188 C 
BRANCH  30  31
ATOM     31  O   UNL A   1      34.646  34.181  30.891  1.00  0.00    -0.376 OA
BRANCH  31  32
ATOM     32  C   UNL A   1      34.576  32.881  31.461  1.00  0.00     0.202 C 
BRANCH  32  33
ATOM     33  C   UNL A   1      35.647  32.193  32.339  1.00  0.00     0.261 C 
BRANCH  33  34
ATOM     34  O   UNL A   1      36.839  31.687  31.740  1.00  0.00    -0.460 OA
BRANCH  34  35
ATOM     35  C   UNL A   1      38.024  32.227  32.107  1.00  0.00     0.338 C 
ATOM     36  O   UNL A   1      38.219  33.037  32.972  1.00  0.00    -0.246 OA
BRANCH  35  37
ATOM     37  C   UNL A   1      39.061  31.437  31.391  1.00  0.00     0.060 A 
ATOM     38  C   UNL A   1      39.901  30.601  32.139  1.00  0.00     0.016 A 
ATOM     39  C   UNL A   1      39.148  31.458  29.995  1.00  0.00     0.016 A 
ATOM     40  C   UNL A   1      40.849  29.806  31.497  1.00  0.00     0.010 A 
ATOM     41  C   UNL A   1      40.127  30.696  29.354  1.00  0.00     0.010 A 
ATOM     42  C   UNL A   1      41.003  29.897  30.108  1.00  0.00    -0.014 A 
BRANCH  42  43
ATOM     43  C   UNL A   1      42.255  29.394  29.499  1.00  0.00     0.031 A 
ATOM     44  C   UNL A   1      43.400  30.365  29.387  1.00  0.00     0.074 A 
ATOM     45  C   UNL A   1      42.393  28.119  29.098  1.00  0.00     0.049 A 
ATOM     46  N   UNL A   1      44.591  30.191  28.882  1.00  0.00    -0.248 NA
ATOM     47  C   UNL A   1      43.165  31.717  29.925  1.00  0.00     0.031 C 
ATOM     48  C   UNL A   1      41.370  27.081  29.203  1.00  0.00     0.029 A 
ATOM     49  N   UNL A   1      43.459  27.484  28.513  1.00  0.00    -0.354 N 
ATOM     50  C   UNL A   1      45.244  31.409  29.036  1.00  0.00     0.074 A 
ATOM     51  C   UNL A   1      44.311  32.320  29.657  1.00  0.00     0.031 C 
ATOM     52  C   UNL A   1      41.853  25.939  28.682  1.00  0.00     0.029 A 
ATOM     53  C   UNL A   1      43.208  26.174  28.180  1.00  0.00     0.049 A 
ATOM     54  H   UNL A   1      44.323  27.925  28.347  1.00  0.00     0.167 HD
ATOM     55  C   UNL A   1      46.511  31.735  28.697  1.00  0.00     0.037 A 
ATOM     56  C   UNL A   1      43.979  25.283  27.525  1.00  0.00     0.037 A 
ATOM     57  C   UNL A   1      47.428  30.825  28.067  1.00  0.00     0.049 A 
ATOM     58  C   UNL A   1      45.362  25.693  27.083  1.00  0.00     0.074 A 
ATOM     59  C   UNL A   1      48.737  31.052  27.685  1.00  0.00     0.029 A 
ATOM     60  N   UNL A   1      47.126  29.518  27.716  1.00  0.00    -0.354 N 
ATOM     61  N   UNL A   1      45.979  26.839  27.255  1.00  0.00    -0.248 NA
ATOM     62  C   UNL A   1      46.158  24.689  26.361  1.00  0.00     0.031 C 
ATOM     63  C   UNL A   1      49.209  29.898  27.052  1.00  0.00     0.029 A 
ATOM     64  C   UNL A   1      48.216  28.932  27.096  1.00  0.00     0.049 A 
ATOM     65  H   UNL A   1      46.264  29.073  27.882  1.00  0.00     0.167 HD
ATOM     66  C   UNL A   1      47.242  26.684  26.691  1.00  0.00     0.074 A 
ATOM     67  C   UNL A   1      47.305  25.329  26.182  1.00  0.00     0.031 C 
ATOM     68  C   UNL A   1      48.260  27.577  26.604  1.00  0.00     0.037 A 
BRANCH  55  69
ATOM     69  C   UNL A   1      46.960  33.144  28.965  1.00  0.00     0.058 A 
ATOM     70  C   UNL A   1      47.594  33.504  30.165  1.00  0.00     0.135 A 
ATOM     71  C   UNL A   1      46.768  34.145  28.000  1.00  0.00     0.135 A 
ATOM     72  F   UNL A   1      47.776  32.592  31.134  1.00  0.00    -0.206 F 
ATOM     73  C   UNL A   1      48.005  34.810  30.406  1.00  0.00     0.059 A 
ATOM     74  C   UNL A   1      47.197  35.451  28.206  1.00  0.00     0.059 A 
ATOM     75  F   UNL A   1      46.156  33.856  26.840  1.00  0.00    -0.206 F 
ATOM     76  C   UNL A   1      47.805  35.777  29.418  1.00  0.00     0.060 A 
BRANCH  76  77
ATOM     77  S   UNL A   1      48.361  37.464  29.738  1.00  0.00     0.124 S 
ATOM     78  O   UNL A   1      49.784  37.366  29.428  1.00  0.00    -0.237 OA
ATOM     79  O   UNL A   1      47.559  38.238  28.797  1.00  0.00    -0.237 OA
ATOM     80  O   UNL A   1      48.039  37.667  31.147  1.00  0.00    -0.744 OA
ENDBRANCH  76  77
ENDBRANCH  55  69
BRANCH  56  81
ATOM     81  C   UNL A   1      43.457  23.920  27.224  1.00  0.00     0.058 A 
ATOM     82  C   UNL A   1      43.031  23.570  25.934  1.00  0.00     0.135 A 
ATOM     83  C   UNL A   1      43.362  22.943  28.228  1.00  0.00     0.135 A 
ATOM     84  F   UNL A   1      43.085  24.472  24.943  1.00  0.00    -0.206 F 
ATOM     85  C   UNL A   1      42.517  22.308  25.653  1.00  0.00     0.059 A 
ATOM     86  C   UNL A   1      42.879  21.665  27.965  1.00  0.00     0.059 A 
ATOM     87  F   UNL A   1      43.762  23.224  29.479  1.00  0.00    -0.206 F 
ATOM     88  C   UNL A   1      42.450  21.359  26.676  1.00  0.00     0.060 A 
BRANCH  88  89
ATOM     89  S   UNL A   1      41.831  19.708  26.287  1.00  0.00     0.124 S 
ATOM     90  O   UNL A   1      42.187  18.968  27.491  1.00  0.00    -0.237 OA
ATOM     91  O   UNL A   1      40.406  19.955  26.086  1.00  0.00    -0.237 OA
ATOM     92  O   UNL A   1      42.572  19.349  25.080  1.00  0.00    -0.744 OA
ENDBRANCH  88  89
ENDBRANCH  56  81
BRANCH  68  93
ATOM     93  C   UNL A   1      49.546  27.112  25.975  1.00  0.00     0.058 A 
ATOM     94  C   UNL A   1      49.764  27.192  24.592  1.00  0.00     0.135 A 
ATOM     95  C   UNL A   1      50.598  26.645  26.779  1.00  0.00     0.135 A 
ATOM     96  F   UNL A   1      48.791  27.629  23.777  1.00  0.00    -0.206 F 
ATOM     97  C   UNL A   1      50.974  26.802  24.023  1.00  0.00     0.059 A 
ATOM     98  C   UNL A   1      51.825  26.279  26.237  1.00  0.00     0.059 A 
ATOM     99  F   UNL A   1      50.447  26.563  28.111  1.00  0.00    -0.206 F 
ATOM    100  C   UNL A   1      51.999  26.348  24.856  1.00  0.00     0.060 A 
BRANCH 100 101
ATOM    101  S   UNL A   1      53.575  25.877  24.110  1.00  0.00     0.124 S 
ATOM    102  O   UNL A   1      54.467  26.905  24.634  1.00  0.00    -0.237 OA
ATOM    103  O   UNL A   1      53.779  24.531  24.637  1.00  0.00    -0.237 OA
ATOM    104  O   UNL A   1      53.307  25.947  22.677  1.00  0.00    -0.744 OA
ENDBRANCH 100 101
ENDBRANCH  68  93
ENDBRANCH  42  43
ENDBRANCH  35  37
ENDBRANCH  34  35
ENDBRANCH  33  34
ENDBRANCH  32  33
ENDBRANCH  31  32
ENDBRANCH  30  31
ENDBRANCH  29  30
ENDBRANCH   1  29
TORSDOF 28
ENDMDL
MODEL 2
REMARK VINA RESULT:      -8.8      5.510     12.096
REMARK SMILES CSCC[C@H](NC(=O)N[C@@H]1CCCCC1(C)C)C(=O)OCCOCCOCCOCCOC(=O)c1ccc(-c2c3nc(c(-c4c(F)cc(S(=O)(=O)[O-])cc4F)c4ccc([nH]4)c(-c4c(F)cc(S(=O)(=O)[O-])cc4F)c4nc(c(-c5c(F)cc(S(=O)(=O)[O-])cc5F)c5ccc2[nH]5)C=C4)C=C3)cc1
REMARK SMILES IDX 26 1 25 2 24 3 23 4 22 5 21 6 20 7 18 8 19 9 5 10 4 11 3 12
REMARK SMILES IDX 2 13 1 14 6 15 7 16 8 18 9 19 10 21 11 22 15 23 12 24 14 25
REMARK SMILES IDX 16 26 17 27 13 28 27 29 28 30 29 31 30 32 31 33 32 34 33 35
REMARK SMILES IDX 34 36 35 37 36 38 100 39 37 40 99 41 38 42 39 43 40 44 93 45
REMARK SMILES IDX 41 46 98 47 92 48 94 49 42 50 97 51 91 52 90 53 43 55 77 56
REMARK SMILES IDX 56 57 76 58 57 59 60 60 75 61 95 62 58 63 59 64 74 66 96 67
REMARK SMILES IDX 61 68 44 69 45 70 54 71 46 72 47 73 53 74 55 75 48 76 49 77
REMARK SMILES IDX 50 78 51 79 52 80 78 81 79 82 88 83 80 84 81 85 87 86 89 87
REMARK SMILES IDX 82 88 83 89 84 90 85 91 86 92 62 93 63 94 72 95 64 96 65 97
REMARK SMILES IDX 71 98 73 99 66 100 67 101 68 102 69 103 70 104
REMARK H PARENT 6 17 9 20 94 54 60 65
REMARK Flexibility Score: inf
ROOT
ATOM      1  O   UNL A   1      40.777  22.956  27.789  1.00  0.00    -0.377 OA
ENDROOT
BRANCH   1   2
ATOM      2  C   UNL A   1      40.561  24.351  27.675  1.00  0.00     0.188 C 
BRANCH   2   3
ATOM      3  C   UNL A   1      39.114  24.876  27.780  1.00  0.00     0.188 C 
BRANCH   3   4
ATOM      4  O   UNL A   1      38.153  23.976  27.243  1.00  0.00    -0.376 OA
BRANCH   4   5
ATOM      5  C   UNL A   1      38.019  23.843  25.836  1.00  0.00     0.202 C 
BRANCH   5   6
ATOM      6  C   UNL A   1      36.888  22.949  25.296  1.00  0.00     0.261 C 
BRANCH   6   7
ATOM      7  O   UNL A   1      35.650  23.630  25.012  1.00  0.00    -0.462 OA
BRANCH   7   8
ATOM      8  C   UNL A   1      35.247  23.644  23.724  1.00  0.00     0.328 C 
ATOM      9  O   UNL A   1      35.779  22.965  22.853  1.00  0.00    -0.250 OA
BRANCH   8  10
ATOM     10  C   UNL A   1      33.929  24.447  23.498  1.00  0.00     0.194 C 
BRANCH  10  11
ATOM     11  C   UNL A   1      32.799  23.792  24.295  1.00  0.00     0.048 C 
BRANCH  11  12
ATOM     12  C   UNL A   1      31.684  23.065  23.549  1.00  0.00     0.072 C 
BRANCH  12  13
ATOM     13  S   UNL A   1      32.240  21.565  22.693  1.00  0.00    -0.165 SA
ATOM     14  C   UNL A   1      32.417  20.482  24.121  1.00  0.00     0.085 C 
ENDBRANCH  12  13
ENDBRANCH  11  12
ENDBRANCH  10  11
BRANCH  10  15
ATOM     15  N   UNL A   1      33.573  24.908  22.109  1.00  0.00    -0.325 N 
ATOM     16  C   UNL A   1      32.836  25.782  21.411  1.00  0.00     0.315 C 
ATOM     17  H   UNL A   1      34.076  24.356  21.468  1.00  0.00     0.166 HD
ATOM     18  O   UNL A   1      32.951  25.742  20.182  1.00  0.00    -0.249 OA
ATOM     19  N   UNL A   1      32.004  26.699  21.923  1.00  0.00    -0.335 N 
ATOM     20  H   UNL A   1      31.623  27.331  21.272  1.00  0.00     0.165 HD
BRANCH  19  21
ATOM     21  C   UNL A   1      31.587  26.895  23.286  1.00  0.00     0.089 C 
ATOM     22  C   UNL A   1      30.057  26.869  23.354  1.00  0.00     0.025 C 
ATOM     23  C   UNL A   1      32.222  28.058  24.094  1.00  0.00    -0.015 C 
ATOM     24  C   UNL A   1      29.454  28.209  22.967  1.00  0.00     0.002 C 
ATOM     25  C   UNL A   1      31.527  29.395  23.780  1.00  0.00     0.008 C 
ATOM     26  C   UNL A   1      32.064  27.712  25.604  1.00  0.00     0.013 C 
ATOM     27  C   UNL A   1      33.736  28.172  23.831  1.00  0.00     0.013 C 
ATOM     28  C   UNL A   1      30.001  29.321  23.848  1.00  0.00     0.001 C 
ENDBRANCH  19  21
ENDBRANCH  10  15
ENDBRANCH   8  10
ENDBRANCH   7   8
ENDBRANCH   6   7
ENDBRANCH   5   6
ENDBRANCH   4   5
ENDBRANCH   3   4
ENDBRANCH   2   3
ENDBRANCH   1   2
BRANCH   1  29
ATOM     29  C   UNL A   1      41.497  22.368  26.710  1.00  0.00     0.188 C 
BRANCH  29  30
ATOM     30  C   UNL A   1      43.013  22.441  26.954  1.00  0.00     0.188 C 
BRANCH  30  31
ATOM     31  O   UNL A   1      43.773  22.750  25.797  1.00  0.00    -0.376 OA
BRANCH  31  32
ATOM     32  C   UNL A   1      43.434  23.849  24.963  1.00  0.00     0.202 C 
BRANCH  32  33
ATOM     33  C   UNL A   1      43.161  25.305  25.410  1.00  0.00     0.261 C 
BRANCH  33  34
ATOM     34  O   UNL A   1      44.237  26.117  25.881  1.00  0.00    -0.460 OA
BRANCH  34  35
ATOM     35  C   UNL A   1      44.794  25.818  27.077  1.00  0.00     0.338 C 
ATOM     36  O   UNL A   1      45.754  25.126  27.283  1.00  0.00    -0.246 OA
BRANCH  35  37
ATOM     37  C   UNL A   1      44.126  26.712  28.062  1.00  0.00     0.060 A 
ATOM     38  C   UNL A   1      44.320  28.095  27.948  1.00  0.00     0.016 A 
ATOM     39  C   UNL A   1      43.257  26.197  29.030  1.00  0.00     0.016 A 
ATOM     40  C   UNL A   1      43.668  28.966  28.819  1.00  0.00     0.010 A 
ATOM     41  C   UNL A   1      42.638  27.066  29.931  1.00  0.00     0.010 A 
ATOM     42  C   UNL A   1      42.872  28.449  29.850  1.00  0.00    -0.014 A 
BRANCH  42  43
ATOM     43  C   UNL A   1      42.541  29.324  30.997  1.00  0.00     0.031 A 
ATOM     44  C   UNL A   1      41.270  30.124  30.903  1.00  0.00     0.074 A 
ATOM     45  C   UNL A   1      43.311  29.381  32.098  1.00  0.00     0.049 A 
ATOM     46  N   UNL A   1      40.759  30.976  31.751  1.00  0.00    -0.248 NA
ATOM     47  C   UNL A   1      40.465  29.930  29.684  1.00  0.00     0.031 C 
ATOM     48  C   UNL A   1      44.536  28.615  32.318  1.00  0.00     0.029 A 
ATOM     49  N   UNL A   1      43.170  30.129  33.239  1.00  0.00    -0.354 N 
ATOM     50  C   UNL A   1      39.578  31.421  31.167  1.00  0.00     0.074 A 
ATOM     51  C   UNL A   1      39.461  30.768  29.884  1.00  0.00     0.031 C 
ATOM     52  C   UNL A   1      45.046  28.946  33.518  1.00  0.00     0.029 A 
ATOM     53  C   UNL A   1      44.200  29.968  34.136  1.00  0.00     0.049 A 
ATOM     54  H   UNL A   1      42.404  30.725  33.402  1.00  0.00     0.167 HD
ATOM     55  C   UNL A   1      38.669  32.292  31.660  1.00  0.00     0.037 A 
ATOM     56  C   UNL A   1      44.437  30.595  35.306  1.00  0.00     0.037 A 
ATOM     57  C   UNL A   1      38.802  32.947  32.933  1.00  0.00     0.049 A 
ATOM     58  C   UNL A   1      43.450  31.624  35.801  1.00  0.00     0.074 A 
ATOM     59  C   UNL A   1      37.937  33.844  33.531  1.00  0.00     0.029 A 
ATOM     60  N   UNL A   1      39.875  32.784  33.796  1.00  0.00    -0.354 N 
ATOM     61  N   UNL A   1      42.324  32.020  35.253  1.00  0.00    -0.248 NA
ATOM     62  C   UNL A   1      43.760  32.288  37.075  1.00  0.00     0.031 C 
ATOM     63  C   UNL A   1      38.513  34.265  34.733  1.00  0.00     0.029 A 
ATOM     64  C   UNL A   1      39.707  33.584  34.913  1.00  0.00     0.049 A 
ATOM     65  H   UNL A   1      40.642  32.187  33.639  1.00  0.00     0.167 HD
ATOM     66  C   UNL A   1      41.780  32.956  36.128  1.00  0.00     0.074 A 
ATOM     67  C   UNL A   1      42.694  33.058  37.247  1.00  0.00     0.031 C 
ATOM     68  C   UNL A   1      40.627  33.664  36.021  1.00  0.00     0.037 A 
BRANCH  55  69
ATOM     69  C   UNL A   1      37.478  32.611  30.803  1.00  0.00     0.058 A 
ATOM     70  C   UNL A   1      36.267  31.912  30.926  1.00  0.00     0.135 A 
ATOM     71  C   UNL A   1      37.545  33.644  29.854  1.00  0.00     0.135 A 
ATOM     72  F   UNL A   1      36.158  30.896  31.797  1.00  0.00    -0.206 F 
ATOM     73  C   UNL A   1      35.169  32.214  30.127  1.00  0.00     0.059 A 
ATOM     74  C   UNL A   1      36.451  33.983  29.066  1.00  0.00     0.059 A 
ATOM     75  F   UNL A   1      38.683  34.336  29.688  1.00  0.00    -0.206 F 
ATOM     76  C   UNL A   1      35.270  33.254  29.201  1.00  0.00     0.060 A 
BRANCH  76  77
ATOM     77  S   UNL A   1      33.831  33.645  28.185  1.00  0.00     0.124 S 
ATOM     78  O   UNL A   1      33.410  32.317  27.752  1.00  0.00    -0.237 OA
ATOM     79  O   UNL A   1      32.950  34.310  29.138  1.00  0.00    -0.237 OA
ATOM     80  O   UNL A   1      34.377  34.502  27.137  1.00  0.00    -0.744 OA
ENDBRANCH  76  77
ENDBRANCH  55  69
BRANCH  56  81
ATOM     81  C   UNL A   1      45.670  30.289  36.082  1.00  0.00     0.058 A 
ATOM     82  C   UNL A   1      45.677  29.307  37.084  1.00  0.00     0.135 A 
ATOM     83  C   UNL A   1      46.867  30.984  35.846  1.00  0.00     0.135 A 
ATOM     84  F   UNL A   1      44.555  28.624  37.360  1.00  0.00    -0.206 F 
ATOM     85  C   UNL A   1      46.818  29.034  37.831  1.00  0.00     0.059 A 
ATOM     86  C   UNL A   1      48.029  30.710  36.560  1.00  0.00     0.059 A 
ATOM     87  F   UNL A   1      46.918  31.931  34.894  1.00  0.00    -0.206 F 
ATOM     88  C   UNL A   1      47.992  29.739  37.559  1.00  0.00     0.060 A 
BRANCH  88  89
ATOM     89  S   UNL A   1      49.481  29.340  38.499  1.00  0.00     0.124 S 
ATOM     90  O   UNL A   1      50.275  30.550  38.323  1.00  0.00    -0.237 OA
ATOM     91  O   UNL A   1      48.946  29.115  39.838  1.00  0.00    -0.237 OA
ATOM     92  O   UNL A   1      49.991  28.146  37.828  1.00  0.00    -0.744 OA
ENDBRANCH  88  89
ENDBRANCH  56  81
BRANCH  68  93
ATOM     93  C   UNL A   1      40.262  34.581  37.157  1.00  0.00     0.058 A 
ATOM     94  C   UNL A   1      39.414  34.171  38.196  1.00  0.00     0.135 A 
ATOM     95  C   UNL A   1      40.826  35.864  37.239  1.00  0.00     0.135 A 
ATOM     96  F   UNL A   1      38.845  32.956  38.167  1.00  0.00    -0.206 F 
ATOM     97  C   UNL A   1      39.117  35.012  39.266  1.00  0.00     0.059 A 
ATOM     98  C   UNL A   1      40.569  36.709  38.312  1.00  0.00     0.059 A 
ATOM     99  F   UNL A   1      41.657  36.301  36.277  1.00  0.00    -0.206 F 
ATOM    100  C   UNL A   1      39.702  36.279  39.315  1.00  0.00     0.060 A 
BRANCH 100 101
ATOM    101  S   UNL A   1      39.337  37.347  40.725  1.00  0.00     0.124 S 
ATOM    102  O   UNL A   1      38.305  38.218  40.173  1.00  0.00    -0.237 OA
ATOM    103  O   UNL A   1      38.888  36.391  41.732  1.00  0.00    -0.237 OA
ATOM    104  O   UNL A   1      40.617  37.989  41.007  1.00  0.00    -0.744 OA
ENDBRANCH 100 101
ENDBRANCH  68  93
ENDBRANCH  42  43
ENDBRANCH  35  37
ENDBRANCH  34  35
ENDBRANCH  33  34
ENDBRANCH  32  33
ENDBRANCH  31  32
ENDBRANCH  30  31
ENDBRANCH  29  30
ENDBRANCH   1  29
TORSDOF 28
ENDMDL
MODEL 3
REMARK VINA RESULT:      -8.3      1.504      8.140
REMARK SMILES CSCC[C@H](NC(=O)N[C@@H]1CCCCC1(C)C)C(=O)OCCOCCOCCOCCOC(=O)c1ccc(-c2c3nc(c(-c4c(F)cc(S(=O)(=O)[O-])cc4F)c4ccc([nH]4)c(-c4c(F)cc(S(=O)(=O)[O-])cc4F)c4nc(c(-c5c(F)cc(S(=O)(=O)[O-])cc5F)c5ccc2[nH]5)C=C4)C=C3)cc1
REMARK SMILES IDX 26 1 25 2 24 3 23 4 22 5 21 6 20 7 18 8 19 9 5 10 4 11 3 12
REMARK SMILES IDX 2 13 1 14 6 15 7 16 8 18 9 19 10 21 11 22 15 23 12 24 14 25
REMARK SMILES IDX 16 26 17 27 13 28 27 29 28 30 29 31 30 32 31 33 32 34 33 35
REMARK SMILES IDX 34 36 35 37 36 38 100 39 37 40 99 41 38 42 39 43 40 44 93 45
REMARK SMILES IDX 41 46 98 47 92 48 94 49 42 50 97 51 91 52 90 53 43 55 77 56
REMARK SMILES IDX 56 57 76 58 57 59 60 60 75 61 95 62 58 63 59 64 74 66 96 67
REMARK SMILES IDX 61 68 44 69 45 70 54 71 46 72 47 73 53 74 55 75 48 76 49 77
REMARK SMILES IDX 50 78 51 79 52 80 78 81 79 82 88 83 80 84 81 85 87 86 89 87
REMARK SMILES IDX 82 88 83 89 84 90 85 91 86 92 62 93 63 94 72 95 64 96 65 97
REMARK SMILES IDX 71 98 73 99 66 100 67 101 68 102 69 103 70 104
REMARK H PARENT 6 17 9 20 94 54 60 65
REMARK Flexibility Score: inf
ROOT
ATOM      1  O   UNL A   1      32.177  30.588  27.266  1.00  0.00    -0.377 OA
ENDROOT
BRANCH   1   2
ATOM      2  C   UNL A   1      31.532  30.916  26.049  1.00  0.00     0.188 C 
BRANCH   2   3
ATOM      3  C   UNL A   1      31.258  29.779  25.041  1.00  0.00     0.188 C 
BRANCH   3   4
ATOM      4  O   UNL A   1      30.175  30.060  24.163  1.00  0.00    -0.376 OA
BRANCH   4   5
ATOM      5  C   UNL A   1      29.676  29.042  23.309  1.00  0.00     0.202 C 
BRANCH   5   6
ATOM      6  C   UNL A   1      30.493  27.744  23.174  1.00  0.00     0.261 C 
BRANCH   6   7
ATOM      7  O   UNL A   1      29.859  26.563  23.704  1.00  0.00    -0.462 OA
BRANCH   7   8
ATOM      8  C   UNL A   1      30.600  25.434  23.725  1.00  0.00     0.328 C 
ATOM      9  O   UNL A   1      30.729  24.706  22.748  1.00  0.00    -0.250 OA
BRANCH   8  10
ATOM     10  C   UNL A   1      31.421  25.259  25.039  1.00  0.00     0.194 C 
BRANCH  10  11
ATOM     11  C   UNL A   1      32.901  25.094  24.688  1.00  0.00     0.048 C 
BRANCH  11  12
ATOM     12  C   UNL A   1      33.960  25.640  25.642  1.00  0.00     0.072 C 
BRANCH  12  13
ATOM     13  S   UNL A   1      33.890  27.441  25.853  1.00  0.00    -0.165 SA
ATOM     14  C   UNL A   1      34.024  27.926  24.124  1.00  0.00     0.085 C 
ENDBRANCH  12  13
ENDBRANCH  11  12
ENDBRANCH  10  11
BRANCH  10  15
ATOM     15  N   UNL A   1      30.897  24.355  26.123  1.00  0.00    -0.325 N 
ATOM     16  C   UNL A   1      31.042  23.154  26.700  1.00  0.00     0.315 C 
ATOM     17  H   UNL A   1      30.168  24.827  26.587  1.00  0.00     0.166 HD
ATOM     18  O   UNL A   1      30.301  22.910  27.657  1.00  0.00    -0.249 OA
ATOM     19  N   UNL A   1      31.924  22.210  26.346  1.00  0.00    -0.335 N 
ATOM     20  H   UNL A   1      31.969  21.430  26.945  1.00  0.00     0.165 HD
BRANCH  19  21
ATOM     21  C   UNL A   1      32.816  22.170  25.218  1.00  0.00     0.089 C 
ATOM     22  C   UNL A   1      32.135  21.432  24.061  1.00  0.00     0.025 C 
ATOM     23  C   UNL A   1      34.286  21.729  25.452  1.00  0.00    -0.015 C 
ATOM     24  C   UNL A   1      32.245  19.924  24.214  1.00  0.00     0.002 C 
ATOM     25  C   UNL A   1      34.405  20.194  25.491  1.00  0.00     0.008 C 
ATOM     26  C   UNL A   1      35.134  22.303  24.279  1.00  0.00     0.013 C 
ATOM     27  C   UNL A   1      34.863  22.339  26.744  1.00  0.00     0.013 C 
ATOM     28  C   UNL A   1      33.700  19.498  24.326  1.00  0.00     0.001 C 
ENDBRANCH  19  21
ENDBRANCH  10  15
ENDBRANCH   8  10
ENDBRANCH   7   8
ENDBRANCH   6   7
ENDBRANCH   5   6
ENDBRANCH   4   5
ENDBRANCH   3   4
ENDBRANCH   2   3
ENDBRANCH   1   2
BRANCH   1  29
ATOM     29  C   UNL A   1      33.600  30.595  27.215  1.00  0.00     0.188 C 
BRANCH  29  30
ATOM     30  C   UNL A   1      34.167  31.891  27.818  1.00  0.00     0.188 C 
BRANCH  30  31
ATOM     31  O   UNL A   1      34.902  31.701  29.015  1.00  0.00    -0.376 OA
BRANCH  31  32
ATOM     32  C   UNL A   1      35.910  30.705  29.113  1.00  0.00     0.202 C 
BRANCH  32  33
ATOM     33  C   UNL A   1      36.224  29.820  30.342  1.00  0.00     0.261 C 
BRANCH  33  34
ATOM     34  O   UNL A   1      36.827  30.399  31.499  1.00  0.00    -0.460 OA
BRANCH  34  35
ATOM     35  C   UNL A   1      37.499  29.589  32.349  1.00  0.00     0.338 C 
ATOM     36  O   UNL A   1      37.034  28.873  33.195  1.00  0.00    -0.246 OA
BRANCH  35  37
ATOM     37  C   UNL A   1      38.905  29.580  31.865  1.00  0.00     0.060 A 
ATOM     38  C   UNL A   1      39.177  30.096  30.590  1.00  0.00     0.016 A 
ATOM     39  C   UNL A   1      39.950  29.147  32.689  1.00  0.00     0.016 A 
ATOM     40  C   UNL A   1      40.489  30.153  30.125  1.00  0.00     0.010 A 
ATOM     41  C   UNL A   1      41.260  29.164  32.206  1.00  0.00     0.010 A 
ATOM     42  C   UNL A   1      41.527  29.632  30.908  1.00  0.00    -0.014 A 
BRANCH  42  43
ATOM     43  C   UNL A   1      42.815  29.311  30.256  1.00  0.00     0.031 A 
ATOM     44  C   UNL A   1      42.920  27.978  29.565  1.00  0.00     0.074 A 
ATOM     45  C   UNL A   1      43.842  30.178  30.236  1.00  0.00     0.049 A 
ATOM     46  N   UNL A   1      43.932  27.442  28.938  1.00  0.00    -0.248 NA
ATOM     47  C   UNL A   1      41.710  27.135  29.585  1.00  0.00     0.031 C 
ATOM     48  C   UNL A   1      43.837  31.514  30.829  1.00  0.00     0.029 A 
ATOM     49  N   UNL A   1      45.098  30.053  29.696  1.00  0.00    -0.354 N 
ATOM     50  C   UNL A   1      43.484  26.204  28.493  1.00  0.00     0.074 A 
ATOM     51  C   UNL A   1      42.120  26.053  28.944  1.00  0.00     0.031 C 
ATOM     52  C   UNL A   1      45.041  32.081  30.633  1.00  0.00     0.029 A 
ATOM     53  C   UNL A   1      45.910  31.137  29.929  1.00  0.00     0.049 A 
ATOM     54  H   UNL A   1      45.389  29.262  29.188  1.00  0.00     0.167 HD
ATOM     55  C   UNL A   1      44.150  25.277  27.767  1.00  0.00     0.037 A 
ATOM     56  C   UNL A   1      47.210  31.327  29.628  1.00  0.00     0.037 A 
ATOM     57  C   UNL A   1      45.512  25.430  27.335  1.00  0.00     0.049 A 
ATOM     58  C   UNL A   1      47.958  30.245  28.887  1.00  0.00     0.074 A 
ATOM     59  C   UNL A   1      46.280  24.555  26.591  1.00  0.00     0.029 A 
ATOM     60  N   UNL A   1      46.311  26.527  27.620  1.00  0.00    -0.354 N 
ATOM     61  N   UNL A   1      47.519  29.087  28.449  1.00  0.00    -0.248 NA
ATOM     62  C   UNL A   1      49.377  30.496  28.593  1.00  0.00     0.031 C 
ATOM     63  C   UNL A   1      47.563  25.098  26.472  1.00  0.00     0.029 A 
ATOM     64  C   UNL A   1      47.576  26.339  27.088  1.00  0.00     0.049 A 
ATOM     65  H   UNL A   1      46.023  27.321  28.125  1.00  0.00     0.167 HD
ATOM     66  C   UNL A   1      48.596  28.487  27.806  1.00  0.00     0.074 A 
ATOM     67  C   UNL A   1      49.705  29.414  27.900  1.00  0.00     0.031 C 
ATOM     68  C   UNL A   1      48.664  27.281  27.187  1.00  0.00     0.037 A 
BRANCH  55  69
ATOM     69  C   UNL A   1      43.423  24.005  27.433  1.00  0.00     0.058 A 
ATOM     70  C   UNL A   1      43.393  22.915  28.318  1.00  0.00     0.135 A 
ATOM     71  C   UNL A   1      42.733  23.882  26.217  1.00  0.00     0.135 A 
ATOM     72  F   UNL A   1      44.060  22.970  29.482  1.00  0.00    -0.206 F 
ATOM     73  C   UNL A   1      42.718  21.741  28.001  1.00  0.00     0.059 A 
ATOM     74  C   UNL A   1      42.028  22.729  25.892  1.00  0.00     0.059 A 
ATOM     75  F   UNL A   1      42.741  24.890  25.331  1.00  0.00    -0.206 F 
ATOM     76  C   UNL A   1      42.036  21.659  26.785  1.00  0.00     0.060 A 
BRANCH  76  77
ATOM     77  S   UNL A   1      41.150  20.135  26.396  1.00  0.00     0.124 S 
ATOM     78  O   UNL A   1      39.915  20.655  25.819  1.00  0.00    -0.237 OA
ATOM     79  O   UNL A   1      42.059  19.478  25.462  1.00  0.00    -0.237 OA
ATOM     80  O   UNL A   1      41.009  19.481  27.694  1.00  0.00    -0.744 OA
ENDBRANCH  76  77
ENDBRANCH  55  69
BRANCH  56  81
ATOM     81  C   UNL A   1      47.900  32.580  30.044  1.00  0.00     0.058 A 
ATOM     82  C   UNL A   1      47.956  33.697  29.197  1.00  0.00     0.135 A 
ATOM     83  C   UNL A   1      48.528  32.680  31.295  1.00  0.00     0.135 A 
ATOM     84  F   UNL A   1      47.386  33.648  27.984  1.00  0.00    -0.206 F 
ATOM     85  C   UNL A   1      48.621  34.862  29.569  1.00  0.00     0.059 A 
ATOM     86  C   UNL A   1      49.175  33.843  31.701  1.00  0.00     0.059 A 
ATOM     87  F   UNL A   1      48.499  31.642  32.147  1.00  0.00    -0.206 F 
ATOM     88  C   UNL A   1      49.225  34.926  30.826  1.00  0.00     0.060 A 
BRANCH  88  89
ATOM     89  S   UNL A   1      50.040  36.461  31.319  1.00  0.00     0.124 S 
ATOM     90  O   UNL A   1      50.603  36.915  30.054  1.00  0.00    -0.237 OA
ATOM     91  O   UNL A   1      48.925  37.245  31.841  1.00  0.00    -0.237 OA
ATOM     92  O   UNL A   1      51.007  36.019  32.321  1.00  0.00    -0.744 OA
ENDBRANCH  88  89
ENDBRANCH  56  81
BRANCH  68  93
ATOM     93  C   UNL A   1      49.963  26.906  26.527  1.00  0.00     0.058 A 
ATOM     94  C   UNL A   1      50.931  26.131  27.183  1.00  0.00     0.135 A 
ATOM     95  C   UNL A   1      50.209  27.270  25.193  1.00  0.00     0.135 A 
ATOM     96  F   UNL A   1      50.748  25.758  28.459  1.00  0.00    -0.206 F 
ATOM     97  C   UNL A   1      52.111  25.752  26.548  1.00  0.00     0.059 A 
ATOM     98  C   UNL A   1      51.366  26.877  24.529  1.00  0.00     0.059 A 
ATOM     99  F   UNL A   1      49.309  27.999  24.513  1.00  0.00    -0.206 F 
ATOM    100  C   UNL A   1      52.317  26.128  25.219  1.00  0.00     0.060 A 
BRANCH 100 101
ATOM    101  S   UNL A   1      53.836  25.601  24.396  1.00  0.00     0.124 S 
ATOM    102  O   UNL A   1      53.440  25.645  22.993  1.00  0.00    -0.237 OA
ATOM    103  O   UNL A   1      54.790  26.622  24.819  1.00  0.00    -0.237 OA
ATOM    104  O   UNL A   1      54.073  24.268  24.941  1.00  0.00    -0.744 OA
ENDBRANCH 100 101
ENDBRANCH  68  93
ENDBRANCH  42  43
ENDBRANCH  35  37
ENDBRANCH  34  35
ENDBRANCH  33  34
ENDBRANCH  32  33
ENDBRANCH  31  32
ENDBRANCH  30  31
ENDBRANCH  29  30
ENDBRANCH   1  29
TORSDOF 28
ENDMDL
