MODEL 1
REMARK VINA RESULT:      -9.4      0.000      0.000
REMARK SMILES C[C@@H](Sc1nc(-c2ccc3c(c2)OCO3)ccc1C#N)C(=O)OCCOCCOCCOCCOC(=O)c1ccc(-c2c3nc(c(-c4c(F)cc(S(=O)(=O)[O-])cc4F)c4ccc([nH]4)c(-c4c(F)cc(S(=O)(=O)[O-])cc4F)c4nc(c(-c5c(F)cc(S(=O)(=O)[O-])cc5F)c5ccc2[nH]5)C=C4)C=C3)cc1
REMARK SMILES IDX 29 1 28 2 27 3 26 4 25 5 24 6 23 7 21 8 22 9 2 10 1 11 3 12
REMARK SMILES IDX 4 13 5 14 18 15 6 16 17 17 16 18 19 19 20 20 7 21 8 22 12 23
REMARK SMILES IDX 9 24 11 25 10 26 13 27 15 28 14 29 30 30 31 31 32 32 33 33
REMARK SMILES IDX 34 34 35 35 36 36 37 37 38 38 39 39 103 40 40 41 102 42
REMARK SMILES IDX 41 43 42 44 43 45 96 46 44 47 101 48 95 49 97 50 45 51
REMARK SMILES IDX 100 52 94 53 93 54 46 56 80 57 59 58 79 59 60 60 63 61 78 62
REMARK SMILES IDX 98 63 61 64 62 65 77 67 99 68 64 69 47 70 48 71 57 72 49 73
REMARK SMILES IDX 50 74 56 75 58 76 51 77 52 78 53 79 54 80 55 81 81 82 82 83
REMARK SMILES IDX 91 84 83 85 84 86 90 87 92 88 85 89 86 90 87 91 88 92 89 93
REMARK SMILES IDX 65 94 66 95 75 96 67 97 68 98 74 99 76 100 69 101 70 102
REMARK SMILES IDX 71 103 72 104 73 105
REMARK H PARENT 97 55 63 66
REMARK Flexibility Score: inf
ROOT
ATOM      1  O   UNL A   1      30.992  29.034  24.747  1.00  0.00    -0.377 OA
ENDROOT
BRANCH   1   2
ATOM      2  C   UNL A   1      30.831  29.196  23.355  1.00  0.00     0.188 C 
BRANCH   2   3
ATOM      3  C   UNL A   1      31.950  28.666  22.443  1.00  0.00     0.188 C 
BRANCH   3   4
ATOM      4  O   UNL A   1      32.118  27.272  22.310  1.00  0.00    -0.376 OA
BRANCH   4   5
ATOM      5  C   UNL A   1      33.279  26.573  22.725  1.00  0.00     0.202 C 
BRANCH   5   6
ATOM      6  C   UNL A   1      33.576  25.997  24.121  1.00  0.00     0.261 C 
BRANCH   6   7
ATOM      7  O   UNL A   1      32.588  25.170  24.729  1.00  0.00    -0.462 OA
BRANCH   7   8
ATOM      8  C   UNL A   1      32.995  24.525  25.844  1.00  0.00     0.319 C 
ATOM      9  O   UNL A   1      33.952  24.889  26.525  1.00  0.00    -0.251 OA
BRANCH   8  10
ATOM     10  C   UNL A   1      32.073  23.377  26.265  1.00  0.00     0.160 C 
ATOM     11  C   UNL A   1      30.709  23.233  25.578  1.00  0.00     0.032 C 
BRANCH  10  12
ATOM     12  S   UNL A   1      33.110  21.865  26.141  1.00  0.00    -0.090 SA
BRANCH  12  13
ATOM     13  C   UNL A   1      34.410  22.374  25.061  1.00  0.00     0.115 A 
ATOM     14  N   UNL A   1      35.570  22.540  25.738  1.00  0.00    -0.240 NA
ATOM     15  C   UNL A   1      34.334  22.520  23.681  1.00  0.00     0.084 A 
ATOM     16  C   UNL A   1      36.697  22.844  25.064  1.00  0.00     0.072 A 
ATOM     17  C   UNL A   1      35.511  22.809  22.985  1.00  0.00     0.024 A 
ATOM     18  C   UNL A   1      36.707  22.967  23.682  1.00  0.00     0.030 A 
BRANCH  15  19
ATOM     19  C   UNL A   1      33.118  22.391  22.938  1.00  0.00     0.102 C 
ATOM     20  N   UNL A   1      32.120  22.226  22.376  1.00  0.00    -0.192 NA
ENDBRANCH  15  19
BRANCH  16  21
ATOM     21  C   UNL A   1      37.895  23.000  25.894  1.00  0.00     0.004 A 
ATOM     22  C   UNL A   1      38.131  24.191  26.623  1.00  0.00     0.014 A 
ATOM     23  C   UNL A   1      38.833  21.952  25.985  1.00  0.00     0.061 A 
ATOM     24  C   UNL A   1      39.285  24.355  27.397  1.00  0.00     0.051 A 
ATOM     25  C   UNL A   1      39.969  22.148  26.738  1.00  0.00     0.166 A 
ATOM     26  C   UNL A   1      40.191  23.318  27.421  1.00  0.00     0.165 A 
ATOM     27  O   UNL A   1      40.985  21.258  26.886  1.00  0.00    -0.454 OA
ATOM     28  O   UNL A   1      41.376  23.314  28.086  1.00  0.00    -0.454 OA
ATOM     29  C   UNL A   1      41.881  22.008  27.730  1.00  0.00     0.468 C 
ENDBRANCH  16  21
ENDBRANCH  12  13
ENDBRANCH  10  12
ENDBRANCH   8  10
ENDBRANCH   7   8
ENDBRANCH   6   7
ENDBRANCH   5   6
ENDBRANCH   4   5
ENDBRANCH   3   4
ENDBRANCH   2   3
ENDBRANCH   1   2
BRANCH   1  30
ATOM     30  C   UNL A   1      31.563  30.086  25.521  1.00  0.00     0.188 C 
BRANCH  30  31
ATOM     31  C   UNL A   1      33.036  30.045  25.986  1.00  0.00     0.188 C 
BRANCH  31  32
ATOM     32  O   UNL A   1      33.235  30.204  27.377  1.00  0.00    -0.376 OA
BRANCH  32  33
ATOM     33  C   UNL A   1      33.855  31.383  27.858  1.00  0.00     0.202 C 
BRANCH  33  34
ATOM     34  C   UNL A   1      33.234  32.756  27.552  1.00  0.00     0.261 C 
BRANCH  34  35
ATOM     35  O   UNL A   1      32.644  33.472  28.648  1.00  0.00    -0.460 OA
BRANCH  35  36
ATOM     36  C   UNL A   1      33.246  34.611  29.059  1.00  0.00     0.338 C 
ATOM     37  O   UNL A   1      32.813  35.742  28.948  1.00  0.00    -0.246 OA
BRANCH  36  38
ATOM     38  C   UNL A   1      34.440  34.230  29.853  1.00  0.00     0.060 A 
ATOM     39  C   UNL A   1      35.715  34.573  29.383  1.00  0.00     0.016 A 
ATOM     40  C   UNL A   1      34.301  33.553  31.066  1.00  0.00     0.016 A 
ATOM     41  C   UNL A   1      36.853  34.228  30.115  1.00  0.00     0.010 A 
ATOM     42  C   UNL A   1      35.445  33.181  31.783  1.00  0.00     0.010 A 
ATOM     43  C   UNL A   1      36.729  33.498  31.303  1.00  0.00    -0.014 A 
BRANCH  43  44
ATOM     44  C   UNL A   1      37.938  32.954  31.974  1.00  0.00     0.031 A 
ATOM     45  C   UNL A   1      38.828  32.010  31.212  1.00  0.00     0.074 A 
ATOM     46  C   UNL A   1      38.245  33.301  33.239  1.00  0.00     0.049 A 
ATOM     47  N   UNL A   1      39.880  31.350  31.621  1.00  0.00    -0.248 NA
ATOM     48  C   UNL A   1      38.487  31.778  29.798  1.00  0.00     0.031 C 
ATOM     49  C   UNL A   1      37.488  34.241  34.064  1.00  0.00     0.029 A 
ATOM     50  N   UNL A   1      39.267  32.885  34.058  1.00  0.00    -0.354 N 
ATOM     51  C   UNL A   1      40.316  30.612  30.526  1.00  0.00     0.074 A 
ATOM     52  C   UNL A   1      39.404  30.892  29.438  1.00  0.00     0.031 C 
ATOM     53  C   UNL A   1      38.060  34.314  35.279  1.00  0.00     0.029 A 
ATOM     54  C   UNL A   1      39.193  33.394  35.334  1.00  0.00     0.049 A 
ATOM     55  H   UNL A   1      39.985  32.281  33.759  1.00  0.00     0.167 HD
ATOM     56  C   UNL A   1      41.380  29.780  30.438  1.00  0.00     0.037 A 
ATOM     57  C   UNL A   1      39.930  33.118  36.430  1.00  0.00     0.037 A 
ATOM     58  C   UNL A   1      42.286  29.511  31.526  1.00  0.00     0.049 A 
ATOM     59  C   UNL A   1      41.063  32.123  36.324  1.00  0.00     0.074 A 
ATOM     60  C   UNL A   1      43.412  28.707  31.526  1.00  0.00     0.029 A 
ATOM     61  N   UNL A   1      42.164  30.026  32.809  1.00  0.00    -0.354 N 
ATOM     62  N   UNL A   1      41.487  31.463  35.273  1.00  0.00    -0.248 NA
ATOM     63  C   UNL A   1      41.816  31.837  37.554  1.00  0.00     0.031 C 
ATOM     64  C   UNL A   1      43.926  28.674  32.825  1.00  0.00     0.029 A 
ATOM     65  C   UNL A   1      43.169  29.521  33.617  1.00  0.00     0.049 A 
ATOM     66  H   UNL A   1      41.466  30.656  33.102  1.00  0.00     0.167 HD
ATOM     67  C   UNL A   1      42.573  30.708  35.708  1.00  0.00     0.074 A 
ATOM     68  C   UNL A   1      42.755  31.012  37.112  1.00  0.00     0.031 C 
ATOM     69  C   UNL A   1      43.347  29.837  35.013  1.00  0.00     0.037 A 
BRANCH  56  70
ATOM     70  C   UNL A   1      41.620  29.063  29.136  1.00  0.00     0.058 A 
ATOM     71  C   UNL A   1      42.420  29.609  28.121  1.00  0.00     0.135 A 
ATOM     72  C   UNL A   1      41.112  27.766  28.942  1.00  0.00     0.135 A 
ATOM     73  F   UNL A   1      42.915  30.852  28.243  1.00  0.00    -0.206 F 
ATOM     74  C   UNL A   1      42.707  28.898  26.960  1.00  0.00     0.059 A 
ATOM     75  C   UNL A   1      41.412  27.026  27.803  1.00  0.00     0.059 A 
ATOM     76  F   UNL A   1      40.336  27.198  29.878  1.00  0.00    -0.206 F 
ATOM     77  C   UNL A   1      42.208  27.602  26.816  1.00  0.00     0.060 A 
BRANCH  77  78
ATOM     78  S   UNL A   1      42.636  26.675  25.327  1.00  0.00     0.124 S 
ATOM     79  O   UNL A   1      42.785  27.747  24.348  1.00  0.00    -0.237 OA
ATOM     80  O   UNL A   1      43.869  26.004  25.725  1.00  0.00    -0.237 OA
ATOM     81  O   UNL A   1      41.485  25.800  25.126  1.00  0.00    -0.744 OA
ENDBRANCH  77  78
ENDBRANCH  56  70
BRANCH  57  82
ATOM     82  C   UNL A   1      39.605  33.750  37.740  1.00  0.00     0.058 A 
ATOM     83  C   UNL A   1      40.284  34.893  38.189  1.00  0.00     0.135 A 
ATOM     84  C   UNL A   1      38.638  33.194  38.595  1.00  0.00     0.135 A 
ATOM     85  F   UNL A   1      41.227  35.458  37.420  1.00  0.00    -0.206 F 
ATOM     86  C   UNL A   1      40.044  35.441  39.447  1.00  0.00     0.059 A 
ATOM     87  C   UNL A   1      38.353  33.745  39.840  1.00  0.00     0.059 A 
ATOM     88  F   UNL A   1      37.952  32.104  38.216  1.00  0.00    -0.206 F 
ATOM     89  C   UNL A   1      39.075  34.859  40.265  1.00  0.00     0.060 A 
BRANCH  89  90
ATOM     90  S   UNL A   1      38.763  35.587  41.887  1.00  0.00     0.124 S 
ATOM     91  O   UNL A   1      39.027  36.998  41.632  1.00  0.00    -0.237 OA
ATOM     92  O   UNL A   1      37.368  35.227  42.118  1.00  0.00    -0.237 OA
ATOM     93  O   UNL A   1      39.729  34.912  42.750  1.00  0.00    -0.744 OA
ENDBRANCH  89  90
ENDBRANCH  57  82
BRANCH  69  94
ATOM     94  C   UNL A   1      44.489  29.176  35.743  1.00  0.00     0.058 A 
ATOM     95  C   UNL A   1      44.325  27.965  36.434  1.00  0.00     0.135 A 
ATOM     96  C   UNL A   1      45.777  29.736  35.705  1.00  0.00     0.135 A 
ATOM     97  F   UNL A   1      43.115  27.387  36.508  1.00  0.00    -0.206 F 
ATOM     98  C   UNL A   1      45.389  27.349  37.086  1.00  0.00     0.059 A 
ATOM     99  C   UNL A   1      46.864  29.118  36.316  1.00  0.00     0.059 A 
ATOM    100  F   UNL A   1      45.996  30.887  35.049  1.00  0.00    -0.206 F 
ATOM    101  C   UNL A   1      46.656  27.930  37.016  1.00  0.00     0.060 A 
BRANCH 101 102
ATOM    102  S   UNL A   1      48.033  27.098  37.835  1.00  0.00     0.124 S 
ATOM    103  O   UNL A   1      48.666  26.405  36.718  1.00  0.00    -0.237 OA
ATOM    104  O   UNL A   1      48.783  28.218  38.395  1.00  0.00    -0.237 OA
ATOM    105  O   UNL A   1      47.376  26.237  38.815  1.00  0.00    -0.744 OA
ENDBRANCH 101 102
ENDBRANCH  69  94
ENDBRANCH  43  44
ENDBRANCH  36  38
ENDBRANCH  35  36
ENDBRANCH  34  35
ENDBRANCH  33  34
ENDBRANCH  32  33
ENDBRANCH  31  32
ENDBRANCH  30  31
ENDBRANCH   1  30
TORSDOF 27
ENDMDL
MODEL 2
REMARK VINA RESULT:      -9.4      2.234      3.478
REMARK SMILES C[C@@H](Sc1nc(-c2ccc3c(c2)OCO3)ccc1C#N)C(=O)OCCOCCOCCOCCOC(=O)c1ccc(-c2c3nc(c(-c4c(F)cc(S(=O)(=O)[O-])cc4F)c4ccc([nH]4)c(-c4c(F)cc(S(=O)(=O)[O-])cc4F)c4nc(c(-c5c(F)cc(S(=O)(=O)[O-])cc5F)c5ccc2[nH]5)C=C4)C=C3)cc1
REMARK SMILES IDX 29 1 28 2 27 3 26 4 25 5 24 6 23 7 21 8 22 9 2 10 1 11 3 12
REMARK SMILES IDX 4 13 5 14 18 15 6 16 17 17 16 18 19 19 20 20 7 21 8 22 12 23
REMARK SMILES IDX 9 24 11 25 10 26 13 27 15 28 14 29 30 30 31 31 32 32 33 33
REMARK SMILES IDX 34 34 35 35 36 36 37 37 38 38 39 39 103 40 40 41 102 42
REMARK SMILES IDX 41 43 42 44 43 45 96 46 44 47 101 48 95 49 97 50 45 51
REMARK SMILES IDX 100 52 94 53 93 54 46 56 80 57 59 58 79 59 60 60 63 61 78 62
REMARK SMILES IDX 98 63 61 64 62 65 77 67 99 68 64 69 47 70 48 71 57 72 49 73
REMARK SMILES IDX 50 74 56 75 58 76 51 77 52 78 53 79 54 80 55 81 81 82 82 83
REMARK SMILES IDX 91 84 83 85 84 86 90 87 92 88 85 89 86 90 87 91 88 92 89 93
REMARK SMILES IDX 65 94 66 95 75 96 67 97 68 98 74 99 76 100 69 101 70 102
REMARK SMILES IDX 71 103 72 104 73 105
REMARK H PARENT 97 55 63 66
REMARK Flexibility Score: inf
ROOT
ATOM      1  O   UNL A   1      31.218  28.120  24.229  1.00  0.00    -0.377 OA
ENDROOT
BRANCH   1   2
ATOM      2  C   UNL A   1      30.986  28.102  22.838  1.00  0.00     0.188 C 
BRANCH   2   3
ATOM      3  C   UNL A   1      31.696  27.016  22.012  1.00  0.00     0.188 C 
BRANCH   3   4
ATOM      4  O   UNL A   1      31.170  25.709  22.008  1.00  0.00    -0.376 OA
BRANCH   4   5
ATOM      5  C   UNL A   1      31.728  24.630  22.738  1.00  0.00     0.202 C 
BRANCH   5   6
ATOM      6  C   UNL A   1      32.990  23.819  22.392  1.00  0.00     0.261 C 
BRANCH   6   7
ATOM      7  O   UNL A   1      34.258  24.440  22.576  1.00  0.00    -0.462 OA
BRANCH   7   8
ATOM      8  C   UNL A   1      34.951  24.012  23.654  1.00  0.00     0.319 C 
ATOM      9  O   UNL A   1      35.596  22.965  23.671  1.00  0.00    -0.251 OA
BRANCH   8  10
ATOM     10  C   UNL A   1      34.977  25.015  24.810  1.00  0.00     0.160 C 
ATOM     11  C   UNL A   1      34.096  26.267  24.724  1.00  0.00     0.032 C 
BRANCH  10  12
ATOM     12  S   UNL A   1      34.663  24.011  26.317  1.00  0.00    -0.090 SA
BRANCH  12  13
ATOM     13  C   UNL A   1      33.109  23.254  25.962  1.00  0.00     0.115 A 
ATOM     14  N   UNL A   1      33.273  21.990  25.506  1.00  0.00    -0.240 NA
ATOM     15  C   UNL A   1      31.850  23.802  26.180  1.00  0.00     0.084 A 
ATOM     16  C   UNL A   1      32.192  21.224  25.264  1.00  0.00     0.072 A 
ATOM     17  C   UNL A   1      30.733  22.992  25.951  1.00  0.00     0.024 A 
ATOM     18  C   UNL A   1      30.905  21.688  25.495  1.00  0.00     0.030 A 
BRANCH  15  19
ATOM     19  C   UNL A   1      31.638  25.146  26.622  1.00  0.00     0.102 C 
ATOM     20  N   UNL A   1      31.421  26.242  26.922  1.00  0.00    -0.192 NA
ENDBRANCH  15  19
BRANCH  16  21
ATOM     21  C   UNL A   1      32.484  19.873  24.776  1.00  0.00     0.004 A 
ATOM     22  C   UNL A   1      32.453  19.572  23.392  1.00  0.00     0.014 A 
ATOM     23  C   UNL A   1      32.812  18.848  25.685  1.00  0.00     0.061 A 
ATOM     24  C   UNL A   1      32.707  18.279  22.921  1.00  0.00     0.051 A 
ATOM     25  C   UNL A   1      33.039  17.580  25.196  1.00  0.00     0.166 A 
ATOM     26  C   UNL A   1      32.982  17.303  23.853  1.00  0.00     0.165 A 
ATOM     27  O   UNL A   1      33.317  16.481  25.944  1.00  0.00    -0.454 OA
ATOM     28  O   UNL A   1      33.217  15.992  23.584  1.00  0.00    -0.454 OA
ATOM     29  C   UNL A   1      33.415  15.474  24.917  1.00  0.00     0.468 C 
ENDBRANCH  16  21
ENDBRANCH  12  13
ENDBRANCH  10  12
ENDBRANCH   8  10
ENDBRANCH   7   8
ENDBRANCH   6   7
ENDBRANCH   5   6
ENDBRANCH   4   5
ENDBRANCH   3   4
ENDBRANCH   2   3
ENDBRANCH   1   2
BRANCH   1  30
ATOM     30  C   UNL A   1      31.402  29.364  24.899  1.00  0.00     0.188 C 
BRANCH  30  31
ATOM     31  C   UNL A   1      32.790  29.817  25.407  1.00  0.00     0.188 C 
BRANCH  31  32
ATOM     32  O   UNL A   1      32.950  29.813  26.812  1.00  0.00    -0.376 OA
BRANCH  32  33
ATOM     33  C   UNL A   1      33.464  30.965  27.454  1.00  0.00     0.202 C 
BRANCH  33  34
ATOM     34  C   UNL A   1      32.825  32.339  27.192  1.00  0.00     0.261 C 
BRANCH  34  35
ATOM     35  O   UNL A   1      32.951  33.333  28.221  1.00  0.00    -0.460 OA
BRANCH  35  36
ATOM     36  C   UNL A   1      33.944  34.243  28.106  1.00  0.00     0.338 C 
ATOM     37  O   UNL A   1      33.900  35.291  27.490  1.00  0.00    -0.246 OA
BRANCH  36  38
ATOM     38  C   UNL A   1      35.034  33.843  29.030  1.00  0.00     0.060 A 
ATOM     39  C   UNL A   1      36.346  34.257  28.763  1.00  0.00     0.016 A 
ATOM     40  C   UNL A   1      34.760  33.075  30.163  1.00  0.00     0.016 A 
ATOM     41  C   UNL A   1      37.388  33.895  29.620  1.00  0.00     0.010 A 
ATOM     42  C   UNL A   1      35.811  32.688  31.004  1.00  0.00     0.010 A 
ATOM     43  C   UNL A   1      37.134  33.078  30.727  1.00  0.00    -0.014 A 
BRANCH  43  44
ATOM     44  C   UNL A   1      38.262  32.525  31.520  1.00  0.00     0.031 A 
ATOM     45  C   UNL A   1      38.988  31.312  31.002  1.00  0.00     0.074 A 
ATOM     46  C   UNL A   1      38.642  33.096  32.679  1.00  0.00     0.049 A 
ATOM     47  N   UNL A   1      39.938  30.611  31.563  1.00  0.00    -0.248 NA
ATOM     48  C   UNL A   1      38.587  30.823  29.671  1.00  0.00     0.031 C 
ATOM     49  C   UNL A   1      38.050  34.299  33.262  1.00  0.00     0.029 A 
ATOM     50  N   UNL A   1      39.607  32.727  33.584  1.00  0.00    -0.354 N 
ATOM     51  C   UNL A   1      40.238  29.591  30.667  1.00  0.00     0.074 A 
ATOM     52  C   UNL A   1      39.355  29.753  29.531  1.00  0.00     0.031 C 
ATOM     53  C   UNL A   1      38.650  34.556  34.437  1.00  0.00     0.029 A 
ATOM     54  C   UNL A   1      39.635  33.513  34.713  1.00  0.00     0.049 A 
ATOM     55  H   UNL A   1      40.222  31.971  33.439  1.00  0.00     0.167 HD
ATOM     56  C   UNL A   1      41.165  28.611  30.783  1.00  0.00     0.037 A 
ATOM     57  C   UNL A   1      40.345  33.383  35.853  1.00  0.00     0.037 A 
ATOM     58  C   UNL A   1      42.042  28.461  31.916  1.00  0.00     0.049 A 
ATOM     59  C   UNL A   1      41.315  32.232  35.988  1.00  0.00     0.074 A 
ATOM     60  C   UNL A   1      43.036  27.518  32.112  1.00  0.00     0.029 A 
ATOM     61  N   UNL A   1      42.023  29.262  33.049  1.00  0.00    -0.354 N 
ATOM     62  N   UNL A   1      41.617  31.298  35.118  1.00  0.00    -0.248 NA
ATOM     63  C   UNL A   1      42.043  32.119  37.261  1.00  0.00     0.031 C 
ATOM     64  C   UNL A   1      43.566  27.701  33.392  1.00  0.00     0.029 A 
ATOM     65  C   UNL A   1      42.959  28.807  33.964  1.00  0.00     0.049 A 
ATOM     66  H   UNL A   1      41.433  30.038  33.183  1.00  0.00     0.167 HD
ATOM     67  C   UNL A   1      42.587  30.507  35.727  1.00  0.00     0.074 A 
ATOM     68  C   UNL A   1      42.840  31.086  37.029  1.00  0.00     0.031 C 
ATOM     69  C   UNL A   1      43.210  29.397  35.255  1.00  0.00     0.037 A 
BRANCH  56  70
ATOM     70  C   UNL A   1      41.269  27.593  29.678  1.00  0.00     0.058 A 
ATOM     71  C   UNL A   1      42.383  27.530  28.827  1.00  0.00     0.135 A 
ATOM     72  C   UNL A   1      40.277  26.608  29.531  1.00  0.00     0.135 A 
ATOM     73  F   UNL A   1      43.352  28.457  28.908  1.00  0.00    -0.206 F 
ATOM     74  C   UNL A   1      42.509  26.529  27.868  1.00  0.00     0.059 A 
ATOM     75  C   UNL A   1      40.398  25.581  28.601  1.00  0.00     0.059 A 
ATOM     76  F   UNL A   1      39.188  26.625  30.315  1.00  0.00    -0.206 F 
ATOM     77  C   UNL A   1      41.516  25.551  27.772  1.00  0.00     0.060 A 
BRANCH  77  78
ATOM     78  S   UNL A   1      41.724  24.230  26.559  1.00  0.00     0.124 S 
ATOM     79  O   UNL A   1      40.390  23.639  26.540  1.00  0.00    -0.237 OA
ATOM     80  O   UNL A   1      42.108  24.970  25.361  1.00  0.00    -0.237 OA
ATOM     81  O   UNL A   1      42.770  23.395  27.139  1.00  0.00    -0.744 OA
ENDBRANCH  77  78
ENDBRANCH  56  70
BRANCH  57  82
ATOM     82  C   UNL A   1      40.143  34.333  36.983  1.00  0.00     0.058 A 
ATOM     83  C   UNL A   1      40.959  35.464  37.142  1.00  0.00     0.135 A 
ATOM     84  C   UNL A   1      39.159  34.103  37.959  1.00  0.00     0.135 A 
ATOM     85  F   UNL A   1      41.925  35.725  36.248  1.00  0.00    -0.206 F 
ATOM     86  C   UNL A   1      40.831  36.311  38.240  1.00  0.00     0.059 A 
ATOM     87  C   UNL A   1      38.985  34.956  39.044  1.00  0.00     0.059 A 
ATOM     88  F   UNL A   1      38.345  33.040  37.856  1.00  0.00    -0.206 F 
ATOM     89  C   UNL A   1      39.839  36.048  39.186  1.00  0.00     0.060 A 
BRANCH  89  90
ATOM     90  S   UNL A   1      39.674  37.162  40.597  1.00  0.00     0.124 S 
ATOM     91  O   UNL A   1      39.895  36.253  41.716  1.00  0.00    -0.237 OA
ATOM     92  O   UNL A   1      40.733  38.133  40.342  1.00  0.00    -0.237 OA
ATOM     93  O   UNL A   1      38.314  37.676  40.462  1.00  0.00    -0.744 OA
ENDBRANCH  89  90
ENDBRANCH  57  82
BRANCH  69  94
ATOM     94  C   UNL A   1      44.255  28.754  36.131  1.00  0.00     0.058 A 
ATOM     95  C   UNL A   1      43.979  27.610  36.897  1.00  0.00     0.135 A 
ATOM     96  C   UNL A   1      45.566  29.259  36.162  1.00  0.00     0.135 A 
ATOM     97  F   UNL A   1      42.743  27.086  36.910  1.00  0.00    -0.206 F 
ATOM     98  C   UNL A   1      44.957  27.008  37.684  1.00  0.00     0.059 A 
ATOM     99  C   UNL A   1      46.569  28.651  36.911  1.00  0.00     0.059 A 
ATOM    100  F   UNL A   1      45.891  30.343  35.440  1.00  0.00    -0.206 F 
ATOM    101  C   UNL A   1      46.250  27.533  37.680  1.00  0.00     0.060 A 
BRANCH 101 102
ATOM    102  S   UNL A   1      47.514  26.717  38.678  1.00  0.00     0.124 S 
ATOM    103  O   UNL A   1      48.167  27.856  39.315  1.00  0.00    -0.237 OA
ATOM    104  O   UNL A   1      46.715  25.870  39.557  1.00  0.00    -0.237 OA
ATOM    105  O   UNL A   1      48.321  26.004  37.691  1.00  0.00    -0.744 OA
ENDBRANCH 101 102
ENDBRANCH  69  94
ENDBRANCH  43  44
ENDBRANCH  36  38
ENDBRANCH  35  36
ENDBRANCH  34  35
ENDBRANCH  33  34
ENDBRANCH  32  33
ENDBRANCH  31  32
ENDBRANCH  30  31
ENDBRANCH   1  30
TORSDOF 27
ENDMDL
MODEL 3
REMARK VINA RESULT:      -9.1      6.284      9.165
REMARK SMILES C[C@@H](Sc1nc(-c2ccc3c(c2)OCO3)ccc1C#N)C(=O)OCCOCCOCCOCCOC(=O)c1ccc(-c2c3nc(c(-c4c(F)cc(S(=O)(=O)[O-])cc4F)c4ccc([nH]4)c(-c4c(F)cc(S(=O)(=O)[O-])cc4F)c4nc(c(-c5c(F)cc(S(=O)(=O)[O-])cc5F)c5ccc2[nH]5)C=C4)C=C3)cc1
REMARK SMILES IDX 29 1 28 2 27 3 26 4 25 5 24 6 23 7 21 8 22 9 2 10 1 11 3 12
REMARK SMILES IDX 4 13 5 14 18 15 6 16 17 17 16 18 19 19 20 20 7 21 8 22 12 23
REMARK SMILES IDX 9 24 11 25 10 26 13 27 15 28 14 29 30 30 31 31 32 32 33 33
REMARK SMILES IDX 34 34 35 35 36 36 37 37 38 38 39 39 103 40 40 41 102 42
REMARK SMILES IDX 41 43 42 44 43 45 96 46 44 47 101 48 95 49 97 50 45 51
REMARK SMILES IDX 100 52 94 53 93 54 46 56 80 57 59 58 79 59 60 60 63 61 78 62
REMARK SMILES IDX 98 63 61 64 62 65 77 67 99 68 64 69 47 70 48 71 57 72 49 73
REMARK SMILES IDX 50 74 56 75 58 76 51 77 52 78 53 79 54 80 55 81 81 82 82 83
REMARK SMILES IDX 91 84 83 85 84 86 90 87 92 88 85 89 86 90 87 91 88 92 89 93
REMARK SMILES IDX 65 94 66 95 75 96 67 97 68 98 74 99 76 100 69 101 70 102
REMARK SMILES IDX 71 103 72 104 73 105
REMARK H PARENT 97 55 63 66
REMARK Flexibility Score: inf
ROOT
ATOM      1  O   UNL A   1      33.909  29.996  26.901  1.00  0.00    -0.377 OA
ENDROOT
BRANCH   1   2
ATOM      2  C   UNL A   1      33.549  29.709  25.568  1.00  0.00     0.188 C 
BRANCH   2   3
ATOM      3  C   UNL A   1      32.125  29.186  25.313  1.00  0.00     0.188 C 
BRANCH   3   4
ATOM      4  O   UNL A   1      31.142  30.084  24.852  1.00  0.00    -0.376 OA
BRANCH   4   5
ATOM      5  C   UNL A   1      30.211  29.780  23.826  1.00  0.00     0.202 C 
BRANCH   5   6
ATOM      6  C   UNL A   1      30.516  29.262  22.410  1.00  0.00     0.261 C 
BRANCH   6   7
ATOM      7  O   UNL A   1      31.195  28.016  22.283  1.00  0.00    -0.462 OA
BRANCH   7   8
ATOM      8  C   UNL A   1      30.606  26.980  22.919  1.00  0.00     0.319 C 
ATOM      9  O   UNL A   1      29.530  27.071  23.507  1.00  0.00    -0.251 OA
BRANCH   8  10
ATOM     10  C   UNL A   1      31.330  25.644  22.726  1.00  0.00     0.160 C 
ATOM     11  C   UNL A   1      32.754  25.488  23.275  1.00  0.00     0.032 C 
BRANCH  10  12
ATOM     12  S   UNL A   1      30.164  24.375  23.363  1.00  0.00    -0.090 SA
BRANCH  12  13
ATOM     13  C   UNL A   1      31.132  23.534  24.576  1.00  0.00     0.115 A 
ATOM     14  N   UNL A   1      31.498  22.305  24.144  1.00  0.00    -0.240 NA
ATOM     15  C   UNL A   1      31.562  24.047  25.795  1.00  0.00     0.084 A 
ATOM     16  C   UNL A   1      32.314  21.548  24.902  1.00  0.00     0.072 A 
ATOM     17  C   UNL A   1      32.431  23.266  26.564  1.00  0.00     0.024 A 
ATOM     18  C   UNL A   1      32.817  22.007  26.112  1.00  0.00     0.030 A 
BRANCH  15  19
ATOM     19  C   UNL A   1      31.163  25.323  26.302  1.00  0.00     0.102 C 
ATOM     20  N   UNL A   1      30.887  26.346  26.767  1.00  0.00    -0.192 NA
ENDBRANCH  15  19
BRANCH  16  21
ATOM     21  C   UNL A   1      32.649  20.237  24.338  1.00  0.00     0.004 A 
ATOM     22  C   UNL A   1      32.164  19.841  23.067  1.00  0.00     0.014 A 
ATOM     23  C   UNL A   1      33.472  19.348  25.057  1.00  0.00     0.061 A 
ATOM     24  C   UNL A   1      32.460  18.582  22.535  1.00  0.00     0.051 A 
ATOM     25  C   UNL A   1      33.731  18.107  24.518  1.00  0.00     0.166 A 
ATOM     26  C   UNL A   1      33.234  17.733  23.294  1.00  0.00     0.165 A 
ATOM     27  O   UNL A   1      34.463  17.125  25.105  1.00  0.00    -0.454 OA
ATOM     28  O   UNL A   1      33.591  16.466  22.955  1.00  0.00    -0.454 OA
ATOM     29  C   UNL A   1      34.359  16.082  24.116  1.00  0.00     0.468 C 
ENDBRANCH  16  21
ENDBRANCH  12  13
ENDBRANCH  10  12
ENDBRANCH   8  10
ENDBRANCH   7   8
ENDBRANCH   6   7
ENDBRANCH   5   6
ENDBRANCH   4   5
ENDBRANCH   3   4
ENDBRANCH   2   3
ENDBRANCH   1   2
BRANCH   1  30
ATOM     30  C   UNL A   1      33.327  31.113  27.567  1.00  0.00     0.188 C 
BRANCH  30  31
ATOM     31  C   UNL A   1      34.194  32.183  28.269  1.00  0.00     0.188 C 
BRANCH  31  32
ATOM     32  O   UNL A   1      35.410  32.498  27.619  1.00  0.00    -0.376 OA
BRANCH  32  33
ATOM     33  C   UNL A   1      36.599  32.588  28.381  1.00  0.00     0.202 C 
BRANCH  33  34
ATOM     34  C   UNL A   1      36.559  32.342  29.899  1.00  0.00     0.261 C 
BRANCH  34  35
ATOM     35  O   UNL A   1      37.331  31.245  30.410  1.00  0.00    -0.460 OA
BRANCH  35  36
ATOM     36  C   UNL A   1      37.278  30.068  29.746  1.00  0.00     0.338 C 
ATOM     37  O   UNL A   1      36.275  29.457  29.430  1.00  0.00    -0.246 OA
BRANCH  36  38
ATOM     38  C   UNL A   1      38.652  29.746  29.287  1.00  0.00     0.060 A 
ATOM     39  C   UNL A   1      39.674  29.592  30.235  1.00  0.00     0.016 A 
ATOM     40  C   UNL A   1      38.928  29.580  27.929  1.00  0.00     0.016 A 
ATOM     41  C   UNL A   1      40.973  29.285  29.827  1.00  0.00     0.010 A 
ATOM     42  C   UNL A   1      40.239  29.303  27.520  1.00  0.00     0.010 A 
ATOM     43  C   UNL A   1      41.274  29.174  28.464  1.00  0.00    -0.014 A 
BRANCH  43  44
ATOM     44  C   UNL A   1      42.686  29.052  28.020  1.00  0.00     0.031 A 
ATOM     45  C   UNL A   1      43.168  27.730  27.487  1.00  0.00     0.074 A 
ATOM     46  C   UNL A   1      43.526  30.103  28.080  1.00  0.00     0.049 A 
ATOM     47  N   UNL A   1      44.371  27.370  27.125  1.00  0.00    -0.248 NA
ATOM     48  C   UNL A   1      42.156  26.669  27.343  1.00  0.00     0.031 C 
ATOM     49  C   UNL A   1      43.167  31.446  28.532  1.00  0.00     0.029 A 
ATOM     50  N   UNL A   1      44.863  30.199  27.777  1.00  0.00    -0.354 N 
ATOM     51  C   UNL A   1      44.268  26.041  26.729  1.00  0.00     0.074 A 
ATOM     52  C   UNL A   1      42.886  25.652  26.911  1.00  0.00     0.031 C 
ATOM     53  C   UNL A   1      44.261  32.226  28.497  1.00  0.00     0.029 A 
ATOM     54  C   UNL A   1      45.407  31.430  28.065  1.00  0.00     0.049 A 
ATOM     55  H   UNL A   1      45.382  29.458  27.388  1.00  0.00     0.167 HD
ATOM     56  C   UNL A   1      45.238  25.223  26.256  1.00  0.00     0.037 A 
ATOM     57  C   UNL A   1      46.688  31.851  28.022  1.00  0.00     0.037 A 
ATOM     58  C   UNL A   1      46.611  25.622  26.073  1.00  0.00     0.049 A 
ATOM     59  C   UNL A   1      47.764  30.893  27.567  1.00  0.00     0.074 A 
ATOM     60  C   UNL A   1      47.661  24.875  25.570  1.00  0.00     0.029 A 
ATOM     61  N   UNL A   1      47.128  26.867  26.399  1.00  0.00    -0.354 N 
ATOM     62  N   UNL A   1      47.646  29.651  27.158  1.00  0.00    -0.248 NA
ATOM     63  C   UNL A   1      49.146  31.393  27.566  1.00  0.00     0.031 C 
ATOM     64  C   UNL A   1      48.826  25.640  25.662  1.00  0.00     0.029 A 
ATOM     65  C   UNL A   1      48.490  26.894  26.148  1.00  0.00     0.049 A 
ATOM     66  H   UNL A   1      46.605  27.621  26.756  1.00  0.00     0.167 HD
ATOM     67  C   UNL A   1      48.932  29.235  26.825  1.00  0.00     0.074 A 
ATOM     68  C   UNL A   1      49.808  30.364  27.056  1.00  0.00     0.031 C 
ATOM     69  C   UNL A   1      49.353  28.026  26.374  1.00  0.00     0.037 A 
BRANCH  56  70
ATOM     70  C   UNL A   1      44.874  23.800  25.927  1.00  0.00     0.058 A 
ATOM     71  C   UNL A   1      44.152  23.463  24.772  1.00  0.00     0.135 A 
ATOM     72  C   UNL A   1      45.337  22.749  26.738  1.00  0.00     0.135 A 
ATOM     73  F   UNL A   1      43.668  24.426  23.971  1.00  0.00    -0.206 F 
ATOM     74  C   UNL A   1      43.900  22.137  24.434  1.00  0.00     0.059 A 
ATOM     75  C   UNL A   1      45.123  21.416  26.403  1.00  0.00     0.059 A 
ATOM     76  F   UNL A   1      46.027  23.015  27.859  1.00  0.00    -0.206 F 
ATOM     77  C   UNL A   1      44.401  21.120  25.249  1.00  0.00     0.060 A 
BRANCH  77  78
ATOM     78  S   UNL A   1      44.110  19.405  24.765  1.00  0.00     0.124 S 
ATOM     79  O   UNL A   1      42.706  19.234  25.127  1.00  0.00    -0.237 OA
ATOM     80  O   UNL A   1      44.397  19.437  23.334  1.00  0.00    -0.237 OA
ATOM     81  O   UNL A   1      45.061  18.655  25.577  1.00  0.00    -0.744 OA
ENDBRANCH  77  78
ENDBRANCH  56  70
BRANCH  57  82
ATOM     82  C   UNL A   1      47.047  33.229  28.463  1.00  0.00     0.058 A 
ATOM     83  C   UNL A   1      47.325  33.518  29.807  1.00  0.00     0.135 A 
ATOM     84  C   UNL A   1      47.071  34.299  27.553  1.00  0.00     0.135 A 
ATOM     85  F   UNL A   1      47.302  32.537  30.723  1.00  0.00    -0.206 F 
ATOM     86  C   UNL A   1      47.579  34.817  30.240  1.00  0.00     0.059 A 
ATOM     87  C   UNL A   1      47.360  35.600  27.953  1.00  0.00     0.059 A 
ATOM     88  F   UNL A   1      46.819  34.083  26.252  1.00  0.00    -0.206 F 
ATOM     89  C   UNL A   1      47.595  35.851  29.304  1.00  0.00     0.060 A 
BRANCH  89  90
ATOM     90  S   UNL A   1      47.940  37.529  29.876  1.00  0.00     0.124 S 
ATOM     91  O   UNL A   1      48.816  38.024  28.821  1.00  0.00    -0.237 OA
ATOM     92  O   UNL A   1      46.603  38.113  29.924  1.00  0.00    -0.237 OA
ATOM     93  O   UNL A   1      48.573  37.318  31.174  1.00  0.00    -0.744 OA
ENDBRANCH  89  90
ENDBRANCH  57  82
BRANCH  69  94
ATOM     94  C   UNL A   1      50.819  27.867  26.061  1.00  0.00     0.058 A 
ATOM     95  C   UNL A   1      51.335  28.115  24.779  1.00  0.00     0.135 A 
ATOM     96  C   UNL A   1      51.728  27.513  27.073  1.00  0.00     0.135 A 
ATOM     97  F   UNL A   1      50.513  28.451  23.772  1.00  0.00    -0.206 F 
ATOM     98  C   UNL A   1      52.694  27.988  24.505  1.00  0.00     0.059 A 
ATOM     99  C   UNL A   1      53.095  27.418  26.830  1.00  0.00     0.059 A 
ATOM    100  F   UNL A   1      51.294  27.276  28.321  1.00  0.00    -0.206 F 
ATOM    101  C   UNL A   1      53.566  27.645  25.538  1.00  0.00     0.060 A 
BRANCH 101 102
ATOM    102  S   UNL A   1      55.330  27.522  25.173  1.00  0.00     0.124 S 
ATOM    103  O   UNL A   1      55.366  26.369  24.278  1.00  0.00    -0.237 OA
ATOM    104  O   UNL A   1      55.609  28.814  24.555  1.00  0.00    -0.237 OA
ATOM    105  O   UNL A   1      55.937  27.314  26.485  1.00  0.00    -0.744 OA
ENDBRANCH 101 102
ENDBRANCH  69  94
ENDBRANCH  43  44
ENDBRANCH  36  38
ENDBRANCH  35  36
ENDBRANCH  34  35
ENDBRANCH  33  34
ENDBRANCH  32  33
ENDBRANCH  31  32
ENDBRANCH  30  31
ENDBRANCH   1  30
TORSDOF 27
ENDMDL
