MODEL 1
REMARK VINA RESULT:      -9.5      0.000      0.000
REMARK SMILES C[C@H]1SCCC[C@]1(Nc1ccc(Cl)cc1)C(=O)OCCOCCOCCOCCOC(=O)c1ccc(-c2c3nc(c(-c4c(F)cc(S(=O)(=O)[O-])cc4F)c4ccc([nH]4)c(-c4c(F)cc(S(=O)(=O)[O-])cc4F)c4nc(c(-c5c(F)cc(S(=O)(=O)[O-])cc5F)c5ccc2[nH]5)C=C4)C=C3)cc1
REMARK SMILES IDX 25 1 24 2 23 3 22 4 21 5 20 6 19 7 18 8 16 9 17 10 7 11 1 12
REMARK SMILES IDX 2 13 3 14 4 15 6 16 5 17 8 18 9 20 10 21 15 22 11 23 14 24
REMARK SMILES IDX 12 25 13 26 26 27 27 28 28 29 29 30 30 31 31 32 32 33 33 34
REMARK SMILES IDX 34 35 98 36 35 37 97 38 36 39 37 40 38 41 91 42 39 43 96 44
REMARK SMILES IDX 90 45 92 46 40 47 95 48 89 49 88 50 41 52 75 53 54 54 74 55
REMARK SMILES IDX 55 56 58 57 73 58 93 59 56 60 57 61 72 63 94 64 59 65 42 66
REMARK SMILES IDX 43 67 52 68 44 69 45 70 51 71 53 72 46 73 47 74 48 75 49 76
REMARK SMILES IDX 50 77 76 78 77 79 86 80 78 81 79 82 85 83 87 84 80 85 81 86
REMARK SMILES IDX 82 87 83 88 84 89 60 90 61 91 70 92 62 93 63 94 69 95 71 96
REMARK SMILES IDX 64 97 65 98 66 99 67 100 68 101
REMARK H PARENT 8 19 92 51 58 62
REMARK Flexibility Score: inf
ROOT
ATOM      1  C   UNL A   1      34.716  21.116  25.034  1.00  0.00     0.188 C 
ENDROOT
BRANCH   1   2
ATOM      2  O   UNL A   1      33.687  22.090  24.970  1.00  0.00    -0.377 OA
BRANCH   2   3
ATOM      3  C   UNL A   1      32.435  21.668  24.476  1.00  0.00     0.188 C 
BRANCH   3   4
ATOM      4  C   UNL A   1      32.138  21.995  23.003  1.00  0.00     0.188 C 
BRANCH   4   5
ATOM      5  O   UNL A   1      33.091  22.620  22.148  1.00  0.00    -0.376 OA
BRANCH   5   6
ATOM      6  C   UNL A   1      33.124  24.026  21.979  1.00  0.00     0.202 C 
BRANCH   6   7
ATOM      7  C   UNL A   1      33.991  24.853  22.947  1.00  0.00     0.261 C 
BRANCH   7   8
ATOM      8  O   UNL A   1      33.316  25.747  23.853  1.00  0.00    -0.461 OA
BRANCH   8   9
ATOM      9  C   UNL A   1      32.984  26.950  23.318  1.00  0.00     0.333 C 
ATOM     10  O   UNL A   1      33.773  27.623  22.652  1.00  0.00    -0.249 OA
BRANCH   9  11
ATOM     11  C   UNL A   1      31.544  27.472  23.708  1.00  0.00     0.147 C 
ATOM     12  C   UNL A   1      30.218  25.157  23.778  1.00  0.00     0.022 C 
ATOM     13  C   UNL A   1      30.313  26.597  23.266  1.00  0.00     0.080 C 
ATOM     14  S   UNL A   1      28.705  27.437  23.659  1.00  0.00    -0.156 SA
ATOM     15  C   UNL A   1      28.931  28.882  22.595  1.00  0.00     0.070 C 
ATOM     16  C   UNL A   1      31.468  28.823  22.912  1.00  0.00     0.042 C 
ATOM     17  C   UNL A   1      30.184  29.639  22.995  1.00  0.00     0.014 C 
BRANCH  11  18
ATOM     18  N   UNL A   1      31.446  27.772  25.180  1.00  0.00    -0.369 N 
ATOM     19  H   UNL A   1      30.779  27.318  25.745  1.00  0.00     0.161 HD
BRANCH  18  20
ATOM     20  C   UNL A   1      32.325  28.712  25.725  1.00  0.00     0.035 A 
ATOM     21  C   UNL A   1      33.620  28.329  26.100  1.00  0.00     0.027 A 
ATOM     22  C   UNL A   1      31.859  29.971  26.121  1.00  0.00     0.027 A 
ATOM     23  C   UNL A   1      34.402  29.144  26.922  1.00  0.00     0.022 A 
ATOM     24  C   UNL A   1      32.643  30.796  26.936  1.00  0.00     0.022 A 
ATOM     25  C   UNL A   1      33.902  30.368  27.351  1.00  0.00     0.041 A 
ATOM     26  Cl  UNL A   1      34.824  31.327  28.439  1.00  0.00    -0.084 Cl
ENDBRANCH  18  20
ENDBRANCH  11  18
ENDBRANCH   9  11
ENDBRANCH   8   9
ENDBRANCH   7   8
ENDBRANCH   6   7
ENDBRANCH   5   6
ENDBRANCH   4   5
ENDBRANCH   3   4
ENDBRANCH   2   3
ENDBRANCH   1   2
BRANCH   1  27
ATOM     27  C   UNL A   1      35.982  21.503  25.814  1.00  0.00     0.188 C 
BRANCH  27  28
ATOM     28  O   UNL A   1      36.104  22.905  26.028  1.00  0.00    -0.376 OA
BRANCH  28  29
ATOM     29  C   UNL A   1      37.134  23.624  25.369  1.00  0.00     0.202 C 
BRANCH  29  30
ATOM     30  C   UNL A   1      38.450  23.850  26.133  1.00  0.00     0.261 C 
BRANCH  30  31
ATOM     31  O   UNL A   1      38.938  25.197  26.199  1.00  0.00    -0.460 OA
BRANCH  31  32
ATOM     32  C   UNL A   1      40.269  25.370  26.361  1.00  0.00     0.338 C 
ATOM     33  O   UNL A   1      41.139  25.101  25.558  1.00  0.00    -0.246 OA
BRANCH  32  34
ATOM     34  C   UNL A   1      40.485  26.160  27.594  1.00  0.00     0.060 A 
ATOM     35  C   UNL A   1      39.760  25.810  28.741  1.00  0.00     0.016 A 
ATOM     36  C   UNL A   1      41.379  27.234  27.624  1.00  0.00     0.016 A 
ATOM     37  C   UNL A   1      39.874  26.574  29.899  1.00  0.00     0.010 A 
ATOM     38  C   UNL A   1      41.472  28.018  28.778  1.00  0.00     0.010 A 
ATOM     39  C   UNL A   1      40.678  27.720  29.900  1.00  0.00    -0.014 A 
BRANCH  39  40
ATOM     40  C   UNL A   1      40.461  28.730  30.965  1.00  0.00     0.031 A 
ATOM     41  C   UNL A   1      41.348  28.667  32.183  1.00  0.00     0.074 A 
ATOM     42  C   UNL A   1      39.567  29.723  30.825  1.00  0.00     0.049 A 
ATOM     43  N   UNL A   1      41.384  29.452  33.228  1.00  0.00    -0.248 NA
ATOM     44  C   UNL A   1      42.332  27.572  32.221  1.00  0.00     0.031 C 
ATOM     45  C   UNL A   1      38.689  29.915  29.673  1.00  0.00     0.029 A 
ATOM     46  N   UNL A   1      39.257  30.765  31.662  1.00  0.00    -0.354 N 
ATOM     47  C   UNL A   1      42.388  28.944  34.045  1.00  0.00     0.074 A 
ATOM     48  C   UNL A   1      42.911  27.764  33.395  1.00  0.00     0.031 C 
ATOM     49  C   UNL A   1      37.932  31.008  29.879  1.00  0.00     0.029 A 
ATOM     50  C   UNL A   1      38.257  31.578  31.188  1.00  0.00     0.049 A 
ATOM     51  H   UNL A   1      39.709  30.916  32.525  1.00  0.00     0.167 HD
ATOM     52  C   UNL A   1      42.844  29.426  35.226  1.00  0.00     0.037 A 
ATOM     53  C   UNL A   1      37.663  32.648  31.753  1.00  0.00     0.037 A 
ATOM     54  C   UNL A   1      42.319  30.601  35.868  1.00  0.00     0.049 A 
ATOM     55  C   UNL A   1      38.141  33.127  33.102  1.00  0.00     0.074 A 
ATOM     56  C   UNL A   1      42.715  31.180  37.060  1.00  0.00     0.029 A 
ATOM     57  N   UNL A   1      41.276  31.373  35.375  1.00  0.00    -0.354 N 
ATOM     58  N   UNL A   1      39.105  32.651  33.855  1.00  0.00    -0.248 NA
ATOM     59  C   UNL A   1      37.456  34.296  33.672  1.00  0.00     0.031 C 
ATOM     60  C   UNL A   1      41.874  32.267  37.318  1.00  0.00     0.029 A 
ATOM     61  C   UNL A   1      40.996  32.407  36.253  1.00  0.00     0.049 A 
ATOM     62  H   UNL A   1      40.804  31.209  34.527  1.00  0.00     0.167 HD
ATOM     63  C   UNL A   1      39.162  33.480  34.973  1.00  0.00     0.074 A 
ATOM     64  C   UNL A   1      38.145  34.495  34.787  1.00  0.00     0.031 C 
ATOM     65  C   UNL A   1      39.981  33.411  36.053  1.00  0.00     0.037 A 
BRANCH  52  66
ATOM     66  C   UNL A   1      43.944  28.661  35.911  1.00  0.00     0.058 A 
ATOM     67  C   UNL A   1      45.300  28.968  35.711  1.00  0.00     0.135 A 
ATOM     68  C   UNL A   1      43.635  27.617  36.798  1.00  0.00     0.135 A 
ATOM     69  F   UNL A   1      45.655  29.941  34.856  1.00  0.00    -0.206 F 
ATOM     70  C   UNL A   1      46.309  28.253  36.347  1.00  0.00     0.059 A 
ATOM     71  C   UNL A   1      44.626  26.908  37.467  1.00  0.00     0.059 A 
ATOM     72  F   UNL A   1      42.355  27.276  37.019  1.00  0.00    -0.206 F 
ATOM     73  C   UNL A   1      45.962  27.225  37.225  1.00  0.00     0.060 A 
BRANCH  73  74
ATOM     74  S   UNL A   1      47.283  26.311  38.048  1.00  0.00     0.124 S 
ATOM     75  O   UNL A   1      46.846  26.358  39.440  1.00  0.00    -0.237 OA
ATOM     76  O   UNL A   1      47.206  25.004  37.403  1.00  0.00    -0.237 OA
ATOM     77  O   UNL A   1      48.479  27.089  37.740  1.00  0.00    -0.744 OA
ENDBRANCH  73  74
ENDBRANCH  52  66
BRANCH  53  78
ATOM     78  C   UNL A   1      36.544  33.337  31.054  1.00  0.00     0.058 A 
ATOM     79  C   UNL A   1      36.774  34.165  29.945  1.00  0.00     0.135 A 
ATOM     80  C   UNL A   1      35.218  33.188  31.491  1.00  0.00     0.135 A 
ATOM     81  F   UNL A   1      38.025  34.352  29.497  1.00  0.00    -0.206 F 
ATOM     82  C   UNL A   1      35.735  34.835  29.307  1.00  0.00     0.059 A 
ATOM     83  C   UNL A   1      34.159  33.823  30.851  1.00  0.00     0.059 A 
ATOM     84  F   UNL A   1      34.941  32.401  32.542  1.00  0.00    -0.206 F 
ATOM     85  C   UNL A   1      34.429  34.655  29.765  1.00  0.00     0.060 A 
BRANCH  85  86
ATOM     86  S   UNL A   1      33.082  35.491  28.900  1.00  0.00     0.124 S 
ATOM     87  O   UNL A   1      32.271  35.971  30.014  1.00  0.00    -0.237 OA
ATOM     88  O   UNL A   1      33.796  36.512  28.141  1.00  0.00    -0.237 OA
ATOM     89  O   UNL A   1      32.486  34.426  28.099  1.00  0.00    -0.744 OA
ENDBRANCH  85  86
ENDBRANCH  53  78
BRANCH  65  90
ATOM     90  C   UNL A   1      39.840  34.484  37.100  1.00  0.00     0.058 A 
ATOM     91  C   UNL A   1      38.919  34.377  38.155  1.00  0.00     0.135 A 
ATOM     92  C   UNL A   1      40.665  35.620  37.067  1.00  0.00     0.135 A 
ATOM     93  F   UNL A   1      38.105  33.312  38.236  1.00  0.00    -0.206 F 
ATOM     94  C   UNL A   1      38.792  35.378  39.114  1.00  0.00     0.059 A 
ATOM     95  C   UNL A   1      40.580  36.617  38.035  1.00  0.00     0.059 A 
ATOM     96  F   UNL A   1      41.576  35.767  36.092  1.00  0.00    -0.206 F 
ATOM     97  C   UNL A   1      39.626  36.495  39.044  1.00  0.00     0.060 A 
BRANCH  97  98
ATOM     98  S   UNL A   1      39.455  37.784  40.297  1.00  0.00     0.124 S 
ATOM     99  O   UNL A   1      39.048  37.007  41.463  1.00  0.00    -0.237 OA
ATOM    100  O   UNL A   1      40.800  38.348  40.349  1.00  0.00    -0.237 OA
ATOM    101  O   UNL A   1      38.433  38.666  39.741  1.00  0.00    -0.744 OA
ENDBRANCH  97  98
ENDBRANCH  65  90
ENDBRANCH  39  40
ENDBRANCH  32  34
ENDBRANCH  31  32
ENDBRANCH  30  31
ENDBRANCH  29  30
ENDBRANCH  28  29
ENDBRANCH  27  28
ENDBRANCH   1  27
TORSDOF 25
ENDMDL
MODEL 2
REMARK VINA RESULT:      -9.4      6.404     12.022
REMARK SMILES C[C@H]1SCCC[C@]1(Nc1ccc(Cl)cc1)C(=O)OCCOCCOCCOCCOC(=O)c1ccc(-c2c3nc(c(-c4c(F)cc(S(=O)(=O)[O-])cc4F)c4ccc([nH]4)c(-c4c(F)cc(S(=O)(=O)[O-])cc4F)c4nc(c(-c5c(F)cc(S(=O)(=O)[O-])cc5F)c5ccc2[nH]5)C=C4)C=C3)cc1
REMARK SMILES IDX 25 1 24 2 23 3 22 4 21 5 20 6 19 7 18 8 16 9 17 10 7 11 1 12
REMARK SMILES IDX 2 13 3 14 4 15 6 16 5 17 8 18 9 20 10 21 15 22 11 23 14 24
REMARK SMILES IDX 12 25 13 26 26 27 27 28 28 29 29 30 30 31 31 32 32 33 33 34
REMARK SMILES IDX 34 35 98 36 35 37 97 38 36 39 37 40 38 41 91 42 39 43 96 44
REMARK SMILES IDX 90 45 92 46 40 47 95 48 89 49 88 50 41 52 75 53 54 54 74 55
REMARK SMILES IDX 55 56 58 57 73 58 93 59 56 60 57 61 72 63 94 64 59 65 42 66
REMARK SMILES IDX 43 67 52 68 44 69 45 70 51 71 53 72 46 73 47 74 48 75 49 76
REMARK SMILES IDX 50 77 76 78 77 79 86 80 78 81 79 82 85 83 87 84 80 85 81 86
REMARK SMILES IDX 82 87 83 88 84 89 60 90 61 91 70 92 62 93 63 94 69 95 71 96
REMARK SMILES IDX 64 97 65 98 66 99 67 100 68 101
REMARK H PARENT 8 19 92 51 58 62
REMARK Flexibility Score: inf
ROOT
ATOM      1  C   UNL A   1      33.979  34.528  30.268  1.00  0.00     0.188 C 
ENDROOT
BRANCH   1   2
ATOM      2  O   UNL A   1      33.008  34.551  29.234  1.00  0.00    -0.377 OA
BRANCH   2   3
ATOM      3  C   UNL A   1      33.353  33.923  28.018  1.00  0.00     0.188 C 
BRANCH   3   4
ATOM      4  C   UNL A   1      33.778  32.447  28.110  1.00  0.00     0.188 C 
BRANCH   4   5
ATOM      5  O   UNL A   1      33.019  31.392  27.527  1.00  0.00    -0.376 OA
BRANCH   5   6
ATOM      6  C   UNL A   1      33.645  30.309  26.862  1.00  0.00     0.202 C 
BRANCH   6   7
ATOM      7  C   UNL A   1      33.217  28.879  27.240  1.00  0.00     0.261 C 
BRANCH   7   8
ATOM      8  O   UNL A   1      33.215  27.883  26.199  1.00  0.00    -0.461 OA
BRANCH   8   9
ATOM      9  C   UNL A   1      32.272  26.917  26.343  1.00  0.00     0.333 C 
ATOM     10  O   UNL A   1      31.333  27.017  27.135  1.00  0.00    -0.249 OA
BRANCH   9  11
ATOM     11  C   UNL A   1      32.532  25.607  25.498  1.00  0.00     0.147 C 
ATOM     12  C   UNL A   1      30.628  24.028  26.500  1.00  0.00     0.022 C 
ATOM     13  C   UNL A   1      32.102  24.236  26.139  1.00  0.00     0.080 C 
ATOM     14  S   UNL A   1      32.627  22.799  25.087  1.00  0.00    -0.156 SA
ATOM     15  C   UNL A   1      34.411  23.072  25.195  1.00  0.00     0.070 C 
ATOM     16  C   UNL A   1      34.098  25.602  25.389  1.00  0.00     0.042 C 
ATOM     17  C   UNL A   1      34.768  24.445  24.658  1.00  0.00     0.014 C 
BRANCH  11  18
ATOM     18  N   UNL A   1      31.951  25.720  24.113  1.00  0.00    -0.369 N 
ATOM     19  H   UNL A   1      32.199  25.079  23.408  1.00  0.00     0.161 HD
BRANCH  18  20
ATOM     20  C   UNL A   1      31.051  26.757  23.854  1.00  0.00     0.035 A 
ATOM     21  C   UNL A   1      29.676  26.559  24.039  1.00  0.00     0.027 A 
ATOM     22  C   UNL A   1      31.476  27.914  23.190  1.00  0.00     0.027 A 
ATOM     23  C   UNL A   1      28.742  27.447  23.500  1.00  0.00     0.022 A 
ATOM     24  C   UNL A   1      30.544  28.813  22.658  1.00  0.00     0.022 A 
ATOM     25  C   UNL A   1      29.181  28.562  22.796  1.00  0.00     0.041 A 
ATOM     26  Cl  UNL A   1      28.033  29.602  22.052  1.00  0.00    -0.084 Cl
ENDBRANCH  18  20
ENDBRANCH  11  18
ENDBRANCH   9  11
ENDBRANCH   8   9
ENDBRANCH   7   8
ENDBRANCH   6   7
ENDBRANCH   5   6
ENDBRANCH   4   5
ENDBRANCH   3   4
ENDBRANCH   2   3
ENDBRANCH   1   2
BRANCH   1  27
ATOM     27  C   UNL A   1      33.749  35.485  31.448  1.00  0.00     0.188 C 
BRANCH  27  28
ATOM     28  O   UNL A   1      34.884  35.614  32.297  1.00  0.00    -0.376 OA
BRANCH  28  29
ATOM     29  C   UNL A   1      35.558  34.447  32.740  1.00  0.00     0.202 C 
BRANCH  29  30
ATOM     30  C   UNL A   1      36.838  34.034  31.992  1.00  0.00     0.261 C 
BRANCH  30  31
ATOM     31  O   UNL A   1      37.318  32.701  32.217  1.00  0.00    -0.460 OA
BRANCH  31  32
ATOM     32  C   UNL A   1      36.721  31.700  31.531  1.00  0.00     0.338 C 
ATOM     33  O   UNL A   1      35.533  31.577  31.314  1.00  0.00    -0.246 OA
BRANCH  32  34
ATOM     34  C   UNL A   1      37.778  30.890  30.883  1.00  0.00     0.060 A 
ATOM     35  C   UNL A   1      38.750  30.295  31.698  1.00  0.00     0.016 A 
ATOM     36  C   UNL A   1      37.820  30.724  29.495  1.00  0.00     0.016 A 
ATOM     37  C   UNL A   1      39.805  29.591  31.125  1.00  0.00     0.010 A 
ATOM     38  C   UNL A   1      38.895  30.041  28.919  1.00  0.00     0.010 A 
ATOM     39  C   UNL A   1      39.919  29.521  29.731  1.00  0.00    -0.014 A 
BRANCH  39  40
ATOM     40  C   UNL A   1      41.233  29.150  29.150  1.00  0.00     0.031 A 
ATOM     41  C   UNL A   1      42.299  30.213  29.092  1.00  0.00     0.074 A 
ATOM     42  C   UNL A   1      41.503  27.892  28.764  1.00  0.00     0.049 A 
ATOM     43  N   UNL A   1      43.533  30.132  28.668  1.00  0.00    -0.248 NA
ATOM     44  C   UNL A   1      41.922  31.549  29.586  1.00  0.00     0.031 C 
ATOM     45  C   UNL A   1      40.569  26.770  28.818  1.00  0.00     0.029 A 
ATOM     46  N   UNL A   1      42.655  27.347  28.253  1.00  0.00    -0.354 N 
ATOM     47  C   UNL A   1      44.075  31.401  28.841  1.00  0.00     0.074 A 
ATOM     48  C   UNL A   1      43.027  32.243  29.372  1.00  0.00     0.031 C 
ATOM     49  C   UNL A   1      41.184  25.667  28.352  1.00  0.00     0.029 A 
ATOM     50  C   UNL A   1      42.547  26.013  27.945  1.00  0.00     0.049 A 
ATOM     51  H   UNL A   1      43.482  27.865  28.120  1.00  0.00     0.167 HD
ATOM     52  C   UNL A   1      45.337  31.825  28.593  1.00  0.00     0.037 A 
ATOM     53  C   UNL A   1      43.441  25.174  27.386  1.00  0.00     0.037 A 
ATOM     54  C   UNL A   1      46.375  30.982  28.063  1.00  0.00     0.049 A 
ATOM     55  C   UNL A   1      44.821  25.685  27.053  1.00  0.00     0.074 A 
ATOM     56  C   UNL A   1      47.690  31.308  27.783  1.00  0.00     0.029 A 
ATOM     57  N   UNL A   1      46.214  29.645  27.724  1.00  0.00    -0.354 N 
ATOM     58  N   UNL A   1      45.329  26.882  27.241  1.00  0.00    -0.248 NA
ATOM     59  C   UNL A   1      45.755  24.728  26.442  1.00  0.00     0.031 C 
ATOM     60  C   UNL A   1      48.308  30.187  27.221  1.00  0.00     0.029 A 
ATOM     61  C   UNL A   1      47.397  29.141  27.212  1.00  0.00     0.049 A 
ATOM     62  H   UNL A   1      45.381  29.132  27.831  1.00  0.00     0.167 HD
ATOM     63  C   UNL A   1      46.648  26.812  26.799  1.00  0.00     0.074 A 
ATOM     64  C   UNL A   1      46.862  25.452  26.351  1.00  0.00     0.031 C 
ATOM     65  C   UNL A   1      47.596  27.783  26.769  1.00  0.00     0.037 A 
BRANCH  52  66
ATOM     66  C   UNL A   1      45.651  33.271  28.862  1.00  0.00     0.058 A 
ATOM     67  C   UNL A   1      46.175  33.703  30.092  1.00  0.00     0.135 A 
ATOM     68  C   UNL A   1      45.444  34.239  27.865  1.00  0.00     0.135 A 
ATOM     69  F   UNL A   1      46.370  32.824  31.090  1.00  0.00    -0.206 F 
ATOM     70  C   UNL A   1      46.458  35.043  30.333  1.00  0.00     0.059 A 
ATOM     71  C   UNL A   1      45.749  35.580  28.073  1.00  0.00     0.059 A 
ATOM     72  F   UNL A   1      44.938  33.883  26.674  1.00  0.00    -0.206 F 
ATOM     73  C   UNL A   1      46.243  35.974  29.316  1.00  0.00     0.060 A 
BRANCH  73  74
ATOM     74  S   UNL A   1      46.623  37.709  29.640  1.00  0.00     0.124 S 
ATOM     75  O   UNL A   1      47.070  38.159  28.326  1.00  0.00    -0.237 OA
ATOM     76  O   UNL A   1      45.336  38.232  30.086  1.00  0.00    -0.237 OA
ATOM     77  O   UNL A   1      47.660  37.644  30.666  1.00  0.00    -0.744 OA
ENDBRANCH  73  74
ENDBRANCH  52  66
BRANCH  53  78
ATOM     78  C   UNL A   1      43.061  23.764  27.093  1.00  0.00     0.058 A 
ATOM     79  C   UNL A   1      42.736  23.349  25.794  1.00  0.00     0.135 A 
ATOM     80  C   UNL A   1      43.007  22.804  28.116  1.00  0.00     0.135 A 
ATOM     81  F   UNL A   1      42.760  24.232  24.783  1.00  0.00    -0.206 F 
ATOM     82  C   UNL A   1      42.353  22.040  25.520  1.00  0.00     0.059 A 
ATOM     83  C   UNL A   1      42.656  21.482  27.863  1.00  0.00     0.059 A 
ATOM     84  F   UNL A   1      43.316  23.145  29.377  1.00  0.00    -0.206 F 
ATOM     85  C   UNL A   1      42.319  21.112  26.562  1.00  0.00     0.060 A 
BRANCH  85  86
ATOM     86  S   UNL A   1      41.865  19.404  26.188  1.00  0.00     0.124 S 
ATOM     87  O   UNL A   1      42.274  18.718  27.409  1.00  0.00    -0.237 OA
ATOM     88  O   UNL A   1      40.428  19.513  25.967  1.00  0.00    -0.237 OA
ATOM     89  O   UNL A   1      42.655  19.100  24.999  1.00  0.00    -0.744 OA
ENDBRANCH  85  86
ENDBRANCH  53  78
BRANCH  65  90
ATOM     90  C   UNL A   1      48.965  27.400  26.272  1.00  0.00     0.058 A 
ATOM     91  C   UNL A   1      49.279  27.381  24.903  1.00  0.00     0.135 A 
ATOM     92  C   UNL A   1      49.988  27.083  27.180  1.00  0.00     0.135 A 
ATOM     93  F   UNL A   1      48.340  27.675  23.989  1.00  0.00    -0.206 F 
ATOM     94  C   UNL A   1      50.546  27.019  24.452  1.00  0.00     0.059 A 
ATOM     95  C   UNL A   1      51.270  26.752  26.754  1.00  0.00     0.059 A 
ATOM     96  F   UNL A   1      49.749  27.103  28.501  1.00  0.00    -0.206 F 
ATOM     97  C   UNL A   1      51.534  26.704  25.386  1.00  0.00     0.060 A 
BRANCH  97  98
ATOM     98  S   UNL A   1      53.174  26.242  24.790  1.00  0.00     0.124 S 
ATOM     99  O   UNL A   1      53.153  26.775  23.432  1.00  0.00    -0.237 OA
ATOM    100  O   UNL A   1      54.053  26.932  25.729  1.00  0.00    -0.237 OA
ATOM    101  O   UNL A   1      53.176  24.786  24.894  1.00  0.00    -0.744 OA
ENDBRANCH  97  98
ENDBRANCH  65  90
ENDBRANCH  39  40
ENDBRANCH  32  34
ENDBRANCH  31  32
ENDBRANCH  30  31
ENDBRANCH  29  30
ENDBRANCH  28  29
ENDBRANCH  27  28
ENDBRANCH   1  27
TORSDOF 25
ENDMDL
MODEL 3
REMARK VINA RESULT:      -9.1      5.149      6.516
REMARK SMILES C[C@H]1SCCC[C@]1(Nc1ccc(Cl)cc1)C(=O)OCCOCCOCCOCCOC(=O)c1ccc(-c2c3nc(c(-c4c(F)cc(S(=O)(=O)[O-])cc4F)c4ccc([nH]4)c(-c4c(F)cc(S(=O)(=O)[O-])cc4F)c4nc(c(-c5c(F)cc(S(=O)(=O)[O-])cc5F)c5ccc2[nH]5)C=C4)C=C3)cc1
REMARK SMILES IDX 25 1 24 2 23 3 22 4 21 5 20 6 19 7 18 8 16 9 17 10 7 11 1 12
REMARK SMILES IDX 2 13 3 14 4 15 6 16 5 17 8 18 9 20 10 21 15 22 11 23 14 24
REMARK SMILES IDX 12 25 13 26 26 27 27 28 28 29 29 30 30 31 31 32 32 33 33 34
REMARK SMILES IDX 34 35 98 36 35 37 97 38 36 39 37 40 38 41 91 42 39 43 96 44
REMARK SMILES IDX 90 45 92 46 40 47 95 48 89 49 88 50 41 52 75 53 54 54 74 55
REMARK SMILES IDX 55 56 58 57 73 58 93 59 56 60 57 61 72 63 94 64 59 65 42 66
REMARK SMILES IDX 43 67 52 68 44 69 45 70 51 71 53 72 46 73 47 74 48 75 49 76
REMARK SMILES IDX 50 77 76 78 77 79 86 80 78 81 79 82 85 83 87 84 80 85 81 86
REMARK SMILES IDX 82 87 83 88 84 89 60 90 61 91 70 92 62 93 63 94 69 95 71 96
REMARK SMILES IDX 64 97 65 98 66 99 67 100 68 101
REMARK H PARENT 8 19 92 51 58 62
REMARK Flexibility Score: inf
ROOT
ATOM      1  C   UNL A   1      34.413  20.951  25.005  1.00  0.00     0.188 C 
ENDROOT
BRANCH   1   2
ATOM      2  O   UNL A   1      33.520  22.002  24.675  1.00  0.00    -0.377 OA
BRANCH   2   3
ATOM      3  C   UNL A   1      32.423  21.675  23.850  1.00  0.00     0.188 C 
BRANCH   3   4
ATOM      4  C   UNL A   1      32.470  22.213  22.409  1.00  0.00     0.188 C 
BRANCH   4   5
ATOM      5  O   UNL A   1      33.499  23.083  21.948  1.00  0.00    -0.376 OA
BRANCH   5   6
ATOM      6  C   UNL A   1      33.411  24.487  22.112  1.00  0.00     0.202 C 
BRANCH   6   7
ATOM      7  C   UNL A   1      34.145  25.125  23.307  1.00  0.00     0.261 C 
BRANCH   7   8
ATOM      8  O   UNL A   1      33.358  25.871  24.255  1.00  0.00    -0.461 OA
BRANCH   8   9
ATOM      9  C   UNL A   1      32.978  27.103  23.829  1.00  0.00     0.333 C 
ATOM     10  O   UNL A   1      33.771  27.915  23.349  1.00  0.00    -0.249 OA
BRANCH   9  11
ATOM     11  C   UNL A   1      31.462  27.458  24.099  1.00  0.00     0.147 C 
ATOM     12  C   UNL A   1      30.370  25.035  23.846  1.00  0.00     0.022 C 
ATOM     13  C   UNL A   1      30.374  26.517  23.460  1.00  0.00     0.080 C 
ATOM     14  S   UNL A   1      28.659  27.172  23.740  1.00  0.00    -0.156 SA
ATOM     15  C   UNL A   1      28.848  28.718  22.822  1.00  0.00     0.070 C 
ATOM     16  C   UNL A   1      31.333  28.860  23.407  1.00  0.00     0.042 C 
ATOM     17  C   UNL A   1      29.973  29.547  23.413  1.00  0.00     0.014 C 
BRANCH  11  18
ATOM     18  N   UNL A   1      31.186  27.618  25.571  1.00  0.00    -0.369 N 
ATOM     19  H   UNL A   1      30.432  27.150  25.998  1.00  0.00     0.161 HD
BRANCH  18  20
ATOM     20  C   UNL A   1      32.029  28.447  26.316  1.00  0.00     0.035 A 
ATOM     21  C   UNL A   1      31.773  29.822  26.398  1.00  0.00     0.027 A 
ATOM     22  C   UNL A   1      33.257  27.968  26.788  1.00  0.00     0.027 A 
ATOM     23  C   UNL A   1      32.747  30.711  26.858  1.00  0.00     0.022 A 
ATOM     24  C   UNL A   1      34.233  28.853  27.260  1.00  0.00     0.022 A 
ATOM     25  C   UNL A   1      33.980  30.223  27.271  1.00  0.00     0.041 A 
ATOM     26  Cl  UNL A   1      35.212  31.323  27.747  1.00  0.00    -0.084 Cl
ENDBRANCH  18  20
ENDBRANCH  11  18
ENDBRANCH   9  11
ENDBRANCH   8   9
ENDBRANCH   7   8
ENDBRANCH   6   7
ENDBRANCH   5   6
ENDBRANCH   4   5
ENDBRANCH   3   4
ENDBRANCH   2   3
ENDBRANCH   1   2
BRANCH   1  27
ATOM     27  C   UNL A   1      35.533  21.288  26.001  1.00  0.00     0.188 C 
BRANCH  27  28
ATOM     28  O   UNL A   1      36.161  22.539  25.739  1.00  0.00    -0.376 OA
BRANCH  28  29
ATOM     29  C   UNL A   1      37.378  22.568  25.011  1.00  0.00     0.202 C 
BRANCH  29  30
ATOM     30  C   UNL A   1      38.422  21.480  25.319  1.00  0.00     0.261 C 
BRANCH  30  31
ATOM     31  O   UNL A   1      39.214  21.657  26.501  1.00  0.00    -0.460 OA
BRANCH  31  32
ATOM     32  C   UNL A   1      40.496  22.054  26.338  1.00  0.00     0.338 C 
ATOM     33  O   UNL A   1      41.321  21.559  25.598  1.00  0.00    -0.246 OA
BRANCH  32  34
ATOM     34  C   UNL A   1      40.673  23.345  27.043  1.00  0.00     0.060 A 
ATOM     35  C   UNL A   1      40.102  24.492  26.478  1.00  0.00     0.016 A 
ATOM     36  C   UNL A   1      41.398  23.429  28.236  1.00  0.00     0.016 A 
ATOM     37  C   UNL A   1      40.310  25.737  27.065  1.00  0.00     0.010 A 
ATOM     38  C   UNL A   1      41.630  24.683  28.810  1.00  0.00     0.010 A 
ATOM     39  C   UNL A   1      41.132  25.845  28.194  1.00  0.00    -0.014 A 
BRANCH  39  40
ATOM     40  C   UNL A   1      41.676  27.181  28.543  1.00  0.00     0.031 A 
ATOM     41  C   UNL A   1      43.121  27.457  28.215  1.00  0.00     0.074 A 
ATOM     42  C   UNL A   1      40.897  28.148  29.055  1.00  0.00     0.049 A 
ATOM     43  N   UNL A   1      43.819  28.549  28.384  1.00  0.00    -0.248 NA
ATOM     44  C   UNL A   1      43.879  26.349  27.609  1.00  0.00     0.031 C 
ATOM     45  C   UNL A   1      39.476  28.014  29.368  1.00  0.00     0.029 A 
ATOM     46  N   UNL A   1      41.196  29.443  29.395  1.00  0.00    -0.354 N 
ATOM     47  C   UNL A   1      45.093  28.259  27.909  1.00  0.00     0.074 A 
ATOM     48  C   UNL A   1      45.085  26.879  27.481  1.00  0.00     0.031 C 
ATOM     49  C   UNL A   1      39.026  29.182  29.862  1.00  0.00     0.029 A 
ATOM     50  C   UNL A   1      40.134  30.137  29.921  1.00  0.00     0.049 A 
ATOM     51  H   UNL A   1      42.090  29.839  29.274  1.00  0.00     0.167 HD
ATOM     52  C   UNL A   1      46.172  29.074  27.824  1.00  0.00     0.037 A 
ATOM     53  C   UNL A   1      40.069  31.392  30.408  1.00  0.00     0.037 A 
ATOM     54  C   UNL A   1      46.174  30.447  28.253  1.00  0.00     0.049 A 
ATOM     55  C   UNL A   1      41.302  32.261  30.366  1.00  0.00     0.074 A 
ATOM     56  C   UNL A   1      47.209  31.363  28.203  1.00  0.00     0.029 A 
ATOM     57  N   UNL A   1      45.088  31.101  28.821  1.00  0.00    -0.354 N 
ATOM     58  N   UNL A   1      42.496  31.983  29.896  1.00  0.00    -0.248 NA
ATOM     59  C   UNL A   1      41.176  33.620  30.913  1.00  0.00     0.031 C 
ATOM     60  C   UNL A   1      46.770  32.552  28.793  1.00  0.00     0.029 A 
ATOM     61  C   UNL A   1      45.438  32.400  29.150  1.00  0.00     0.049 A 
ATOM     62  H   UNL A   1      44.201  30.700  28.967  1.00  0.00     0.167 HD
ATOM     63  C   UNL A   1      43.252  33.140  30.062  1.00  0.00     0.074 A 
ATOM     64  C   UNL A   1      42.376  34.125  30.662  1.00  0.00     0.031 C 
ATOM     65  C   UNL A   1      44.553  33.369  29.746  1.00  0.00     0.037 A 
BRANCH  52  66
ATOM     66  C   UNL A   1      47.444  28.489  27.276  1.00  0.00     0.058 A 
ATOM     67  C   UNL A   1      47.686  28.395  25.895  1.00  0.00     0.135 A 
ATOM     68  C   UNL A   1      48.448  28.033  28.147  1.00  0.00     0.135 A 
ATOM     69  F   UNL A   1      46.752  28.793  25.016  1.00  0.00    -0.206 F 
ATOM     70  C   UNL A   1      48.865  27.849  25.398  1.00  0.00     0.059 A 
ATOM     71  C   UNL A   1      49.646  27.511  27.673  1.00  0.00     0.059 A 
ATOM     72  F   UNL A   1      48.265  28.091  29.475  1.00  0.00    -0.206 F 
ATOM     73  C   UNL A   1      49.840  27.411  26.296  1.00  0.00     0.060 A 
BRANCH  73  74
ATOM     74  S   UNL A   1      51.368  26.712  25.635  1.00  0.00     0.124 S 
ATOM     75  O   UNL A   1      52.334  27.751  25.977  1.00  0.00    -0.237 OA
ATOM     76  O   UNL A   1      51.487  25.464  26.383  1.00  0.00    -0.237 OA
ATOM     77  O   UNL A   1      51.087  26.562  24.211  1.00  0.00    -0.744 OA
ENDBRANCH  73  74
ENDBRANCH  52  66
BRANCH  53  78
ATOM     78  C   UNL A   1      38.797  31.905  30.986  1.00  0.00     0.058 A 
ATOM     79  C   UNL A   1      37.849  32.569  30.194  1.00  0.00     0.135 A 
ATOM     80  C   UNL A   1      38.509  31.748  32.352  1.00  0.00     0.135 A 
ATOM     81  F   UNL A   1      38.082  32.757  28.886  1.00  0.00    -0.206 F 
ATOM     82  C   UNL A   1      36.672  33.075  30.736  1.00  0.00     0.059 A 
ATOM     83  C   UNL A   1      37.326  32.219  32.911  1.00  0.00     0.059 A 
ATOM     84  F   UNL A   1      39.378  31.113  33.154  1.00  0.00    -0.206 F 
ATOM     85  C   UNL A   1      36.417  32.892  32.096  1.00  0.00     0.060 A 
BRANCH  85  86
ATOM     86  S   UNL A   1      34.865  33.512  32.780  1.00  0.00     0.124 S 
ATOM     87  O   UNL A   1      33.886  32.689  32.078  1.00  0.00    -0.237 OA
ATOM     88  O   UNL A   1      35.028  33.237  34.203  1.00  0.00    -0.237 OA
ATOM     89  O   UNL A   1      34.878  34.925  32.415  1.00  0.00    -0.744 OA
ENDBRANCH  85  86
ENDBRANCH  53  78
BRANCH  65  90
ATOM     90  C   UNL A   1      45.097  34.750  30.005  1.00  0.00     0.058 A 
ATOM     91  C   UNL A   1      45.007  35.775  29.050  1.00  0.00     0.135 A 
ATOM     92  C   UNL A   1      45.685  35.061  31.242  1.00  0.00     0.135 A 
ATOM     93  F   UNL A   1      44.455  35.534  27.849  1.00  0.00    -0.206 F 
ATOM     94  C   UNL A   1      45.519  37.046  29.296  1.00  0.00     0.059 A 
ATOM     95  C   UNL A   1      46.172  36.334  31.523  1.00  0.00     0.059 A 
ATOM     96  F   UNL A   1      45.781  34.124  32.200  1.00  0.00    -0.206 F 
ATOM     97  C   UNL A   1      46.102  37.314  30.535  1.00  0.00     0.060 A 
BRANCH  97  98
ATOM     98  S   UNL A   1      46.758  38.967  30.845  1.00  0.00     0.124 S 
ATOM     99  O   UNL A   1      46.235  39.246  32.178  1.00  0.00    -0.237 OA
ATOM    100  O   UNL A   1      48.199  38.751  30.761  1.00  0.00    -0.237 OA
ATOM    101  O   UNL A   1      46.187  39.768  29.766  1.00  0.00    -0.744 OA
ENDBRANCH  97  98
ENDBRANCH  65  90
ENDBRANCH  39  40
ENDBRANCH  32  34
ENDBRANCH  31  32
ENDBRANCH  30  31
ENDBRANCH  29  30
ENDBRANCH  28  29
ENDBRANCH  27  28
ENDBRANCH   1  27
TORSDOF 25
ENDMDL
