MODEL 1
REMARK VINA RESULT:      -9.9      0.000      0.000
REMARK SMILES O=C(C[N@@H+]1C[C@@]2([N+](=O)[O-])CC=C(Cl)[C@@]([N+](=O)[O-])(C1)C2)OCCOCCOCCOCCOC(=O)c1ccc(-c2c3nc(c(-c4c(F)cc(S(=O)(=O)[O-])cc4F)c4ccc([nH]4)c(-c4c(F)cc(S(=O)(=O)[O-])cc4F)c4nc(c(-c5c(F)cc(S(=O)(=O)[O-])cc5F)c5ccc2[nH]5)C=C4)C=C3)cc1
REMARK SMILES IDX 27 1 26 2 25 3 24 4 23 5 22 6 21 7 20 8 2 9 1 10 3 11 4 12
REMARK SMILES IDX 5 13 18 14 6 16 14 17 10 18 19 19 12 20 11 21 13 22 7 23
REMARK SMILES IDX 8 24 9 25 15 26 16 27 17 28 28 29 29 30 30 31 31 32 32 33
REMARK SMILES IDX 33 34 34 35 35 36 36 37 100 38 37 39 99 40 38 41 39 42 40 43
REMARK SMILES IDX 93 44 41 45 98 46 92 47 94 48 42 49 97 50 91 51 90 52 43 54
REMARK SMILES IDX 77 55 56 56 76 57 57 58 60 59 75 60 95 61 58 62 59 63 74 65
REMARK SMILES IDX 96 66 61 67 44 68 45 69 54 70 46 71 47 72 53 73 55 74 48 75
REMARK SMILES IDX 49 76 50 77 51 78 52 79 78 80 79 81 88 82 80 83 81 84 87 85
REMARK SMILES IDX 89 86 82 87 83 88 84 89 85 90 86 91 62 92 63 93 72 94 64 95
REMARK SMILES IDX 65 96 71 97 73 98 66 99 67 100 68 101 69 102 70 103
REMARK H PARENT 4 15 94 53 60 64
REMARK Flexibility Score: inf
ROOT
ATOM      1  C   UNL A   1      33.464  28.396  25.373  1.00  0.00     0.188 C 
ENDROOT
BRANCH   1   2
ATOM      2  O   UNL A   1      33.144  29.398  24.421  1.00  0.00    -0.377 OA
BRANCH   2   3
ATOM      3  C   UNL A   1      32.888  28.912  23.111  1.00  0.00     0.188 C 
BRANCH   3   4
ATOM      4  C   UNL A   1      31.416  28.984  22.727  1.00  0.00     0.188 C 
BRANCH   4   5
ATOM      5  O   UNL A   1      30.777  27.749  22.447  1.00  0.00    -0.376 OA
BRANCH   5   6
ATOM      6  C   UNL A   1      30.232  26.894  23.437  1.00  0.00     0.202 C 
BRANCH   6   7
ATOM      7  C   UNL A   1      30.617  25.423  23.540  1.00  0.00     0.261 C 
BRANCH   7   8
ATOM      8  O   UNL A   1      31.335  24.810  22.449  1.00  0.00    -0.459 OA
BRANCH   8   9
ATOM      9  C   UNL A   1      32.643  24.498  22.351  1.00  0.00     0.361 C 
ATOM     10  O   UNL A   1      33.479  25.394  22.244  1.00  0.00    -0.245 OA
BRANCH   9  11
ATOM     11  C   UNL A   1      33.047  23.044  22.236  1.00  0.00     0.386 C 
BRANCH  11  12
ATOM     12  N   UNL A   1      33.186  22.320  23.500  1.00  0.00    -0.313 N 
ATOM     13  C   UNL A   1      32.640  20.958  23.364  1.00  0.00     0.350 C 
ATOM     14  C   UNL A   1      32.712  22.974  24.741  1.00  0.00     0.356 C 
ATOM     15  H   UNL A   1      34.195  22.305  23.652  1.00  0.00     0.349 HD
ATOM     16  C   UNL A   1      33.041  20.092  24.571  1.00  0.00     0.280 C 
ATOM     17  C   UNL A   1      33.107  22.136  25.985  1.00  0.00     0.311 C 
ATOM     18  C   UNL A   1      34.580  19.927  24.700  1.00  0.00     0.121 C 
ATOM     19  C   UNL A   1      32.482  20.727  25.855  1.00  0.00     0.191 C 
ATOM     20  C   UNL A   1      34.620  22.050  26.045  1.00  0.00     0.097 C 
ATOM     21  C   UNL A   1      35.282  21.046  25.441  1.00  0.00     0.004 C 
ATOM     22  Cl  UNL A   1      35.508  23.373  26.715  1.00  0.00    -0.081 Cl
BRANCH  16  23
ATOM     23  N   UNL A   1      32.406  18.737  24.323  1.00  0.00     0.032 N 
ATOM     24  O   UNL A   1      32.231  18.393  23.147  1.00  0.00    -0.264 OA
ATOM     25  O   UNL A   1      32.039  18.088  25.310  1.00  0.00    -0.264 OA
ENDBRANCH  16  23
BRANCH  17  26
ATOM     26  N   UNL A   1      32.531  22.756  27.251  1.00  0.00     0.038 N 
ATOM     27  O   UNL A   1      32.817  22.227  28.335  1.00  0.00    -0.263 OA
ATOM     28  O   UNL A   1      31.889  23.808  27.125  1.00  0.00    -0.263 OA
ENDBRANCH  17  26
ENDBRANCH  11  12
ENDBRANCH   9  11
ENDBRANCH   8   9
ENDBRANCH   7   8
ENDBRANCH   6   7
ENDBRANCH   5   6
ENDBRANCH   4   5
ENDBRANCH   3   4
ENDBRANCH   2   3
ENDBRANCH   1   2
BRANCH   1  29
ATOM     29  C   UNL A   1      32.906  28.596  26.805  1.00  0.00     0.188 C 
BRANCH  29  30
ATOM     30  O   UNL A   1      33.215  29.742  27.586  1.00  0.00    -0.376 OA
BRANCH  30  31
ATOM     31  C   UNL A   1      34.523  30.284  27.556  1.00  0.00     0.202 C 
BRANCH  31  32
ATOM     32  C   UNL A   1      35.590  29.706  28.499  1.00  0.00     0.261 C 
BRANCH  32  33
ATOM     33  O   UNL A   1      36.021  30.590  29.546  1.00  0.00    -0.460 OA
BRANCH  33  34
ATOM     34  C   UNL A   1      36.770  30.033  30.532  1.00  0.00     0.338 C 
ATOM     35  O   UNL A   1      36.362  29.539  31.571  1.00  0.00    -0.246 OA
BRANCH  34  36
ATOM     36  C   UNL A   1      38.169  29.891  30.057  1.00  0.00     0.060 A 
ATOM     37  C   UNL A   1      38.422  30.043  28.684  1.00  0.00     0.016 A 
ATOM     38  C   UNL A   1      39.230  29.698  30.945  1.00  0.00     0.016 A 
ATOM     39  C   UNL A   1      39.729  30.000  28.196  1.00  0.00     0.010 A 
ATOM     40  C   UNL A   1      40.536  29.614  30.450  1.00  0.00     0.010 A 
ATOM     41  C   UNL A   1      40.791  29.745  29.073  1.00  0.00    -0.014 A 
BRANCH  41  42
ATOM     42  C   UNL A   1      42.128  29.390  28.537  1.00  0.00     0.031 A 
ATOM     43  C   UNL A   1      42.360  27.958  28.137  1.00  0.00     0.074 A 
ATOM     44  C   UNL A   1      43.119  30.294  28.429  1.00  0.00     0.049 A 
ATOM     45  N   UNL A   1      43.463  27.372  27.756  1.00  0.00    -0.248 NA
ATOM     46  C   UNL A   1      41.186  27.068  28.175  1.00  0.00     0.031 C 
ATOM     47  C   UNL A   1      43.010  31.718  28.741  1.00  0.00     0.029 A 
ATOM     48  N   UNL A   1      44.431  30.135  28.048  1.00  0.00    -0.354 N 
ATOM     49  C   UNL A   1      43.123  26.045  27.527  1.00  0.00     0.074 A 
ATOM     50  C   UNL A   1      41.713  25.908  27.812  1.00  0.00     0.031 C 
ATOM     51  C   UNL A   1      44.214  32.296  28.574  1.00  0.00     0.029 A 
ATOM     52  C   UNL A   1      45.188  31.276  28.180  1.00  0.00     0.049 A 
ATOM     53  H   UNL A   1      44.794  29.284  27.712  1.00  0.00     0.167 HD
ATOM     54  C   UNL A   1      43.917  25.029  27.119  1.00  0.00     0.037 A 
ATOM     55  C   UNL A   1      46.517  31.463  28.041  1.00  0.00     0.037 A 
ATOM     56  C   UNL A   1      45.318  25.164  26.835  1.00  0.00     0.049 A 
ATOM     57  C   UNL A   1      47.396  30.292  27.665  1.00  0.00     0.074 A 
ATOM     58  C   UNL A   1      46.196  24.200  26.373  1.00  0.00     0.029 A 
ATOM     59  N   UNL A   1      46.051  26.328  27.004  1.00  0.00    -0.354 N 
ATOM     60  N   UNL A   1      47.053  29.053  27.402  1.00  0.00    -0.248 NA
ATOM     61  C   UNL A   1      48.844  30.541  27.578  1.00  0.00     0.031 C 
ATOM     62  C   UNL A   1      47.473  24.767  26.315  1.00  0.00     0.029 A 
ATOM     63  C   UNL A   1      47.379  26.096  26.693  1.00  0.00     0.049 A 
ATOM     64  H   UNL A   1      45.681  27.191  27.300  1.00  0.00     0.167 HD
ATOM     65  C   UNL A   1      48.238  28.384  27.104  1.00  0.00     0.074 A 
ATOM     66  C   UNL A   1      49.304  29.357  27.199  1.00  0.00     0.031 C 
ATOM     67  C   UNL A   1      48.429  27.079  26.786  1.00  0.00     0.037 A 
BRANCH  54  68
ATOM     68  C   UNL A   1      43.301  23.668  26.983  1.00  0.00     0.058 A 
ATOM     69  C   UNL A   1      43.074  23.084  25.728  1.00  0.00     0.135 A 
ATOM     70  C   UNL A   1      43.003  22.911  28.127  1.00  0.00     0.135 A 
ATOM     71  F   UNL A   1      43.318  23.778  24.604  1.00  0.00    -0.206 F 
ATOM     72  C   UNL A   1      42.576  21.791  25.611  1.00  0.00     0.059 A 
ATOM     73  C   UNL A   1      42.525  21.609  28.035  1.00  0.00     0.059 A 
ATOM     74  F   UNL A   1      43.190  23.433  29.350  1.00  0.00    -0.206 F 
ATOM     75  C   UNL A   1      42.314  21.058  26.771  1.00  0.00     0.060 A 
BRANCH  75  76
ATOM     76  S   UNL A   1      41.722  19.361  26.601  1.00  0.00     0.124 S 
ATOM     77  O   UNL A   1      40.342  19.487  27.059  1.00  0.00    -0.237 OA
ATOM     78  O   UNL A   1      41.896  19.114  25.174  1.00  0.00    -0.237 OA
ATOM     79  O   UNL A   1      42.608  18.602  27.479  1.00  0.00    -0.744 OA
ENDBRANCH  75  76
ENDBRANCH  54  68
BRANCH  55  80
ATOM     80  C   UNL A   1      47.131  32.791  28.322  1.00  0.00     0.058 A 
ATOM     81  C   UNL A   1      47.324  33.737  27.305  1.00  0.00     0.135 A 
ATOM     82  C   UNL A   1      47.597  33.114  29.608  1.00  0.00     0.135 A 
ATOM     83  F   UNL A   1      46.913  33.470  26.056  1.00  0.00    -0.206 F 
ATOM     84  C   UNL A   1      47.981  34.941  27.541  1.00  0.00     0.059 A 
ATOM     85  C   UNL A   1      48.233  34.323  29.874  1.00  0.00     0.059 A 
ATOM     86  F   UNL A   1      47.435  32.248  30.620  1.00  0.00    -0.206 F 
ATOM     87  C   UNL A   1      48.436  35.223  28.830  1.00  0.00     0.060 A 
BRANCH  87  88
ATOM     88  S   UNL A   1      49.281  36.791  29.133  1.00  0.00     0.124 S 
ATOM     89  O   UNL A   1      50.157  36.441  30.244  1.00  0.00    -0.237 OA
ATOM     90  O   UNL A   1      49.936  37.038  27.854  1.00  0.00    -0.237 OA
ATOM     91  O   UNL A   1      48.185  37.702  29.454  1.00  0.00    -0.744 OA
ENDBRANCH  87  88
ENDBRANCH  55  80
BRANCH  67  92
ATOM     92  C   UNL A   1      49.833  26.623  26.500  1.00  0.00     0.058 A 
ATOM     93  C   UNL A   1      50.621  26.012  27.487  1.00  0.00     0.135 A 
ATOM     94  C   UNL A   1      50.366  26.725  25.204  1.00  0.00     0.135 A 
ATOM     95  F   UNL A   1      50.160  25.895  28.742  1.00  0.00    -0.206 F 
ATOM     96  C   UNL A   1      51.894  25.529  27.204  1.00  0.00     0.059 A 
ATOM     97  C   UNL A   1      51.626  26.224  24.891  1.00  0.00     0.059 A 
ATOM     98  F   UNL A   1      49.648  27.290  24.219  1.00  0.00    -0.206 F 
ATOM     99  C   UNL A   1      52.386  25.634  25.900  1.00  0.00     0.060 A 
BRANCH  99 100
ATOM    100  S   UNL A   1      54.019  24.956  25.535  1.00  0.00     0.124 S 
ATOM    101  O   UNL A   1      54.732  25.218  26.781  1.00  0.00    -0.237 OA
ATOM    102  O   UNL A   1      53.722  23.555  25.257  1.00  0.00    -0.237 OA
ATOM    103  O   UNL A   1      54.461  25.737  24.383  1.00  0.00    -0.744 OA
ENDBRANCH  99 100
ENDBRANCH  67  92
ENDBRANCH  41  42
ENDBRANCH  34  36
ENDBRANCH  33  34
ENDBRANCH  32  33
ENDBRANCH  31  32
ENDBRANCH  30  31
ENDBRANCH  29  30
ENDBRANCH   1  29
TORSDOF 26
ENDMDL
MODEL 2
REMARK VINA RESULT:      -9.7      1.514      8.205
REMARK SMILES O=C(C[N@@H+]1C[C@@]2([N+](=O)[O-])CC=C(Cl)[C@@]([N+](=O)[O-])(C1)C2)OCCOCCOCCOCCOC(=O)c1ccc(-c2c3nc(c(-c4c(F)cc(S(=O)(=O)[O-])cc4F)c4ccc([nH]4)c(-c4c(F)cc(S(=O)(=O)[O-])cc4F)c4nc(c(-c5c(F)cc(S(=O)(=O)[O-])cc5F)c5ccc2[nH]5)C=C4)C=C3)cc1
REMARK SMILES IDX 27 1 26 2 25 3 24 4 23 5 22 6 21 7 20 8 2 9 1 10 3 11 4 12
REMARK SMILES IDX 5 13 18 14 6 16 14 17 10 18 19 19 12 20 11 21 13 22 7 23
REMARK SMILES IDX 8 24 9 25 15 26 16 27 17 28 28 29 29 30 30 31 31 32 32 33
REMARK SMILES IDX 33 34 34 35 35 36 36 37 100 38 37 39 99 40 38 41 39 42 40 43
REMARK SMILES IDX 93 44 41 45 98 46 92 47 94 48 42 49 97 50 91 51 90 52 43 54
REMARK SMILES IDX 77 55 56 56 76 57 57 58 60 59 75 60 95 61 58 62 59 63 74 65
REMARK SMILES IDX 96 66 61 67 44 68 45 69 54 70 46 71 47 72 53 73 55 74 48 75
REMARK SMILES IDX 49 76 50 77 51 78 52 79 78 80 79 81 88 82 80 83 81 84 87 85
REMARK SMILES IDX 89 86 82 87 83 88 84 89 85 90 86 91 62 92 63 93 72 94 64 95
REMARK SMILES IDX 65 96 71 97 73 98 66 99 67 100 68 101 69 102 70 103
REMARK H PARENT 4 15 94 53 60 64
REMARK Flexibility Score: inf
ROOT
ATOM      1  C   UNL A   1      34.352  29.908  27.623  1.00  0.00     0.188 C 
ENDROOT
BRANCH   1   2
ATOM      2  O   UNL A   1      34.339  28.982  26.549  1.00  0.00    -0.377 OA
BRANCH   2   3
ATOM      3  C   UNL A   1      33.449  29.310  25.492  1.00  0.00     0.188 C 
BRANCH   3   4
ATOM      4  C   UNL A   1      32.021  29.541  25.966  1.00  0.00     0.188 C 
BRANCH   4   5
ATOM      5  O   UNL A   1      31.026  29.614  24.958  1.00  0.00    -0.376 OA
BRANCH   5   6
ATOM      6  C   UNL A   1      31.061  28.869  23.753  1.00  0.00     0.202 C 
BRANCH   6   7
ATOM      7  C   UNL A   1      30.532  27.442  23.665  1.00  0.00     0.261 C 
BRANCH   7   8
ATOM      8  O   UNL A   1      31.074  26.557  22.664  1.00  0.00    -0.459 OA
BRANCH   8   9
ATOM      9  C   UNL A   1      32.324  26.067  22.538  1.00  0.00     0.361 C 
ATOM     10  O   UNL A   1      32.669  25.536  21.483  1.00  0.00    -0.245 OA
BRANCH   9  11
ATOM     11  C   UNL A   1      33.238  26.058  23.745  1.00  0.00     0.386 C 
BRANCH  11  12
ATOM     12  N   UNL A   1      33.563  24.739  24.287  1.00  0.00    -0.313 N 
ATOM     13  C   UNL A   1      34.779  24.215  23.640  1.00  0.00     0.350 C 
ATOM     14  C   UNL A   1      32.493  23.717  24.342  1.00  0.00     0.356 C 
ATOM     15  H   UNL A   1      33.717  24.924  25.279  1.00  0.00     0.349 HD
ATOM     16  C   UNL A   1      35.303  22.980  24.396  1.00  0.00     0.280 C 
ATOM     17  C   UNL A   1      32.978  22.458  25.106  1.00  0.00     0.311 C 
ATOM     18  C   UNL A   1      35.701  23.305  25.862  1.00  0.00     0.121 C 
ATOM     19  C   UNL A   1      34.222  21.886  24.386  1.00  0.00     0.191 C 
ATOM     20  C   UNL A   1      33.318  22.862  26.528  1.00  0.00     0.097 C 
ATOM     21  C   UNL A   1      34.560  23.261  26.857  1.00  0.00     0.004 C 
ATOM     22  Cl  UNL A   1      32.041  23.012  27.684  1.00  0.00    -0.081 Cl
BRANCH  16  23
ATOM     23  N   UNL A   1      36.530  22.528  23.626  1.00  0.00     0.032 N 
ATOM     24  O   UNL A   1      36.639  22.902  22.451  1.00  0.00    -0.264 OA
ATOM     25  O   UNL A   1      37.312  21.759  24.198  1.00  0.00    -0.264 OA
ENDBRANCH  16  23
BRANCH  17  26
ATOM     26  N   UNL A   1      31.914  21.370  25.072  1.00  0.00     0.038 N 
ATOM     27  O   UNL A   1      30.771  21.669  25.449  1.00  0.00    -0.263 OA
ATOM     28  O   UNL A   1      32.233  20.279  24.580  1.00  0.00    -0.263 OA
ENDBRANCH  17  26
ENDBRANCH  11  12
ENDBRANCH   9  11
ENDBRANCH   8   9
ENDBRANCH   7   8
ENDBRANCH   6   7
ENDBRANCH   5   6
ENDBRANCH   4   5
ENDBRANCH   3   4
ENDBRANCH   2   3
ENDBRANCH   1   2
BRANCH   1  29
ATOM     29  C   UNL A   1      35.422  31.027  27.563  1.00  0.00     0.188 C 
BRANCH  29  30
ATOM     30  O   UNL A   1      35.215  32.307  28.146  1.00  0.00    -0.376 OA
BRANCH  30  31
ATOM     31  C   UNL A   1      35.065  32.426  29.549  1.00  0.00     0.202 C 
BRANCH  31  32
ATOM     32  C   UNL A   1      36.299  32.751  30.405  1.00  0.00     0.261 C 
BRANCH  32  33
ATOM     33  O   UNL A   1      36.554  31.834  31.481  1.00  0.00    -0.460 OA
BRANCH  33  34
ATOM     34  C   UNL A   1      36.650  30.523  31.142  1.00  0.00     0.338 C 
ATOM     35  O   UNL A   1      35.731  29.730  31.011  1.00  0.00    -0.246 OA
BRANCH  34  36
ATOM     36  C   UNL A   1      38.042  30.235  30.712  1.00  0.00     0.060 A 
ATOM     37  C   UNL A   1      38.323  30.229  29.336  1.00  0.00     0.016 A 
ATOM     38  C   UNL A   1      39.074  30.059  31.637  1.00  0.00     0.016 A 
ATOM     39  C   UNL A   1      39.630  30.044  28.882  1.00  0.00     0.010 A 
ATOM     40  C   UNL A   1      40.377  29.833  31.180  1.00  0.00     0.010 A 
ATOM     41  C   UNL A   1      40.659  29.805  29.802  1.00  0.00    -0.014 A 
BRANCH  41  42
ATOM     42  C   UNL A   1      41.974  29.304  29.331  1.00  0.00     0.031 A 
ATOM     43  C   UNL A   1      43.096  30.300  29.212  1.00  0.00     0.074 A 
ATOM     44  C   UNL A   1      42.170  28.016  28.993  1.00  0.00     0.049 A 
ATOM     45  N   UNL A   1      44.294  30.142  28.717  1.00  0.00    -0.248 NA
ATOM     46  C   UNL A   1      42.825  31.658  29.717  1.00  0.00     0.031 C 
ATOM     47  C   UNL A   1      41.180  26.946  29.105  1.00  0.00     0.029 A 
ATOM     48  N   UNL A   1      43.274  27.395  28.459  1.00  0.00    -0.354 N 
ATOM     49  C   UNL A   1      44.914  31.380  28.834  1.00  0.00     0.074 A 
ATOM     50  C   UNL A   1      43.962  32.280  29.444  1.00  0.00     0.031 C 
ATOM     51  C   UNL A   1      41.709  25.809  28.618  1.00  0.00     0.029 A 
ATOM     52  C   UNL A   1      43.061  26.077  28.126  1.00  0.00     0.049 A 
ATOM     53  H   UNL A   1      44.136  27.851  28.326  1.00  0.00     0.167 HD
ATOM     54  C   UNL A   1      46.164  31.735  28.463  1.00  0.00     0.037 A 
ATOM     55  C   UNL A   1      43.849  25.205  27.463  1.00  0.00     0.037 A 
ATOM     56  C   UNL A   1      47.111  30.842  27.857  1.00  0.00     0.049 A 
ATOM     57  C   UNL A   1      45.212  25.652  26.984  1.00  0.00     0.074 A 
ATOM     58  C   UNL A   1      48.419  31.100  27.486  1.00  0.00     0.029 A 
ATOM     59  N   UNL A   1      46.849  29.525  27.516  1.00  0.00    -0.354 N 
ATOM     60  N   UNL A   1      45.805  26.812  27.147  1.00  0.00    -0.248 NA
ATOM     61  C   UNL A   1      46.008  24.677  26.222  1.00  0.00     0.031 C 
ATOM     62  C   UNL A   1      48.931  29.955  26.870  1.00  0.00     0.029 A 
ATOM     63  C   UNL A   1      47.958  28.969  26.902  1.00  0.00     0.049 A 
ATOM     64  H   UNL A   1      46.001  29.055  27.686  1.00  0.00     0.167 HD
ATOM     65  C   UNL A   1      47.045  26.697  26.522  1.00  0.00     0.074 A 
ATOM     66  C   UNL A   1      47.127  25.352  25.998  1.00  0.00     0.031 C 
ATOM     67  C   UNL A   1      48.026  27.624  26.390  1.00  0.00     0.037 A 
BRANCH  54  68
ATOM     68  C   UNL A   1      46.579  33.163  28.670  1.00  0.00     0.058 A 
ATOM     69  C   UNL A   1      47.228  33.580  29.840  1.00  0.00     0.135 A 
ATOM     70  C   UNL A   1      46.388  34.107  27.648  1.00  0.00     0.135 A 
ATOM     71  F   UNL A   1      47.410  32.720  30.856  1.00  0.00    -0.206 F 
ATOM     72  C   UNL A   1      47.679  34.886  29.991  1.00  0.00     0.059 A 
ATOM     73  C   UNL A   1      46.850  35.413  27.768  1.00  0.00     0.059 A 
ATOM     74  F   UNL A   1      45.759  33.759  26.515  1.00  0.00    -0.206 F 
ATOM     75  C   UNL A   1      47.494  35.793  28.945  1.00  0.00     0.060 A 
BRANCH  75  76
ATOM     76  S   UNL A   1      48.136  37.469  29.135  1.00  0.00     0.124 S 
ATOM     77  O   UNL A   1      46.918  38.263  29.010  1.00  0.00    -0.237 OA
ATOM     78  O   UNL A   1      48.730  37.424  30.467  1.00  0.00    -0.237 OA
ATOM     79  O   UNL A   1      49.085  37.597  28.033  1.00  0.00    -0.744 OA
ENDBRANCH  75  76
ENDBRANCH  54  68
BRANCH  55  80
ATOM     80  C   UNL A   1      43.363  23.835  27.140  1.00  0.00     0.058 A 
ATOM     81  C   UNL A   1      43.475  22.783  28.061  1.00  0.00     0.135 A 
ATOM     82  C   UNL A   1      42.832  23.536  25.874  1.00  0.00     0.135 A 
ATOM     83  F   UNL A   1      43.991  23.012  29.278  1.00  0.00    -0.206 F 
ATOM     84  C   UNL A   1      43.108  21.481  27.733  1.00  0.00     0.059 A 
ATOM     85  C   UNL A   1      42.434  22.248  25.531  1.00  0.00     0.059 A 
ATOM     86  F   UNL A   1      42.698  24.505  24.955  1.00  0.00    -0.206 F 
ATOM     87  C   UNL A   1      42.593  21.223  26.462  1.00  0.00     0.060 A 
BRANCH  87  88
ATOM     88  S   UNL A   1      42.111  19.533  26.044  1.00  0.00     0.124 S 
ATOM     89  O   UNL A   1      42.947  19.270  24.878  1.00  0.00    -0.237 OA
ATOM     90  O   UNL A   1      42.460  18.805  27.259  1.00  0.00    -0.237 OA
ATOM     91  O   UNL A   1      40.679  19.651  25.782  1.00  0.00    -0.744 OA
ENDBRANCH  87  88
ENDBRANCH  55  80
BRANCH  67  92
ATOM     92  C   UNL A   1      49.281  27.220  25.667  1.00  0.00     0.058 A 
ATOM     93  C   UNL A   1      49.412  27.381  24.279  1.00  0.00     0.135 A 
ATOM     94  C   UNL A   1      50.395  26.744  26.380  1.00  0.00     0.135 A 
ATOM     95  F   UNL A   1      48.376  27.828  23.551  1.00  0.00    -0.206 F 
ATOM     96  C   UNL A   1      50.597  27.072  23.620  1.00  0.00     0.059 A 
ATOM     97  C   UNL A   1      51.598  26.453  25.746  1.00  0.00     0.059 A 
ATOM     98  F   UNL A   1      50.327  26.583  27.711  1.00  0.00    -0.206 F 
ATOM     99  C   UNL A   1      51.688  26.614  24.363  1.00  0.00     0.060 A 
BRANCH  99 100
ATOM    100  S   UNL A   1      53.236  26.265  23.502  1.00  0.00     0.124 S 
ATOM    101  O   UNL A   1      53.960  27.520  23.678  1.00  0.00    -0.237 OA
ATOM    102  O   UNL A   1      53.758  25.123  24.246  1.00  0.00    -0.237 OA
ATOM    103  O   UNL A   1      52.808  25.974  22.138  1.00  0.00    -0.744 OA
ENDBRANCH  99 100
ENDBRANCH  67  92
ENDBRANCH  41  42
ENDBRANCH  34  36
ENDBRANCH  33  34
ENDBRANCH  32  33
ENDBRANCH  31  32
ENDBRANCH  30  31
ENDBRANCH  29  30
ENDBRANCH   1  29
TORSDOF 26
ENDMDL
MODEL 3
REMARK VINA RESULT:      -9.6      6.130      8.514
REMARK SMILES O=C(C[N@@H+]1C[C@@]2([N+](=O)[O-])CC=C(Cl)[C@@]([N+](=O)[O-])(C1)C2)OCCOCCOCCOCCOC(=O)c1ccc(-c2c3nc(c(-c4c(F)cc(S(=O)(=O)[O-])cc4F)c4ccc([nH]4)c(-c4c(F)cc(S(=O)(=O)[O-])cc4F)c4nc(c(-c5c(F)cc(S(=O)(=O)[O-])cc5F)c5ccc2[nH]5)C=C4)C=C3)cc1
REMARK SMILES IDX 27 1 26 2 25 3 24 4 23 5 22 6 21 7 20 8 2 9 1 10 3 11 4 12
REMARK SMILES IDX 5 13 18 14 6 16 14 17 10 18 19 19 12 20 11 21 13 22 7 23
REMARK SMILES IDX 8 24 9 25 15 26 16 27 17 28 28 29 29 30 30 31 31 32 32 33
REMARK SMILES IDX 33 34 34 35 35 36 36 37 100 38 37 39 99 40 38 41 39 42 40 43
REMARK SMILES IDX 93 44 41 45 98 46 92 47 94 48 42 49 97 50 91 51 90 52 43 54
REMARK SMILES IDX 77 55 56 56 76 57 57 58 60 59 75 60 95 61 58 62 59 63 74 65
REMARK SMILES IDX 96 66 61 67 44 68 45 69 54 70 46 71 47 72 53 73 55 74 48 75
REMARK SMILES IDX 49 76 50 77 51 78 52 79 78 80 79 81 88 82 80 83 81 84 87 85
REMARK SMILES IDX 89 86 82 87 83 88 84 89 85 90 86 91 62 92 63 93 72 94 64 95
REMARK SMILES IDX 65 96 71 97 73 98 66 99 67 100 68 101 69 102 70 103
REMARK H PARENT 4 15 94 53 60 64
REMARK Flexibility Score: inf
ROOT
ATOM      1  C   UNL A   1      33.501  28.961  24.714  1.00  0.00     0.188 C 
ENDROOT
BRANCH   1   2
ATOM      2  O   UNL A   1      32.281  29.520  24.254  1.00  0.00    -0.377 OA
BRANCH   2   3
ATOM      3  C   UNL A   1      31.994  29.275  22.885  1.00  0.00     0.188 C 
BRANCH   3   4
ATOM      4  C   UNL A   1      30.519  29.002  22.625  1.00  0.00     0.188 C 
BRANCH   4   5
ATOM      5  O   UNL A   1      30.153  27.645  22.433  1.00  0.00    -0.376 OA
BRANCH   5   6
ATOM      6  C   UNL A   1      30.026  26.702  23.483  1.00  0.00     0.202 C 
BRANCH   6   7
ATOM      7  C   UNL A   1      31.238  26.034  24.123  1.00  0.00     0.261 C 
BRANCH   7   8
ATOM      8  O   UNL A   1      31.922  24.989  23.402  1.00  0.00    -0.459 OA
BRANCH   8   9
ATOM      9  C   UNL A   1      32.881  25.085  22.459  1.00  0.00     0.361 C 
ATOM     10  O   UNL A   1      32.862  26.020  21.660  1.00  0.00    -0.245 OA
BRANCH   9  11
ATOM     11  C   UNL A   1      33.887  23.963  22.314  1.00  0.00     0.386 C 
BRANCH  11  12
ATOM     12  N   UNL A   1      33.952  23.018  23.430  1.00  0.00    -0.313 N 
ATOM     13  C   UNL A   1      35.358  22.736  23.769  1.00  0.00     0.350 C 
ATOM     14  C   UNL A   1      33.152  21.775  23.347  1.00  0.00     0.356 C 
ATOM     15  H   UNL A   1      33.477  23.514  24.185  1.00  0.00     0.349 HD
ATOM     16  C   UNL A   1      35.450  21.990  25.112  1.00  0.00     0.280 C 
ATOM     17  C   UNL A   1      33.210  20.998  24.688  1.00  0.00     0.311 C 
ATOM     18  C   UNL A   1      34.882  22.822  26.295  1.00  0.00     0.121 C 
ATOM     19  C   UNL A   1      34.686  20.660  25.004  1.00  0.00     0.191 C 
ATOM     20  C   UNL A   1      32.613  21.871  25.774  1.00  0.00     0.097 C 
ATOM     21  C   UNL A   1      33.383  22.711  26.490  1.00  0.00     0.004 C 
ATOM     22  Cl  UNL A   1      30.894  21.939  25.944  1.00  0.00    -0.081 Cl
BRANCH  16  23
ATOM     23  N   UNL A   1      36.930  21.741  25.334  1.00  0.00     0.032 N 
ATOM     24  O   UNL A   1      37.619  22.695  25.719  1.00  0.00    -0.264 OA
ATOM     25  O   UNL A   1      37.370  20.620  25.052  1.00  0.00    -0.264 OA
ENDBRANCH  16  23
BRANCH  17  26
ATOM     26  N   UNL A   1      32.473  19.671  24.567  1.00  0.00     0.038 N 
ATOM     27  O   UNL A   1      32.222  19.252  23.428  1.00  0.00    -0.263 OA
ATOM     28  O   UNL A   1      32.254  19.047  25.615  1.00  0.00    -0.263 OA
ENDBRANCH  17  26
ENDBRANCH  11  12
ENDBRANCH   9  11
ENDBRANCH   8   9
ENDBRANCH   7   8
ENDBRANCH   6   7
ENDBRANCH   5   6
ENDBRANCH   4   5
ENDBRANCH   3   4
ENDBRANCH   2   3
ENDBRANCH   1   2
BRANCH   1  29
ATOM     29  C   UNL A   1      33.614  28.698  26.237  1.00  0.00     0.188 C 
BRANCH  29  30
ATOM     30  O   UNL A   1      32.823  29.398  27.188  1.00  0.00    -0.376 OA
BRANCH  30  31
ATOM     31  C   UNL A   1      32.652  30.799  27.068  1.00  0.00     0.202 C 
BRANCH  31  32
ATOM     32  C   UNL A   1      33.732  31.732  27.636  1.00  0.00     0.261 C 
BRANCH  32  33
ATOM     33  O   UNL A   1      33.557  33.125  27.330  1.00  0.00    -0.460 OA
BRANCH  33  34
ATOM     34  C   UNL A   1      33.528  33.974  28.389  1.00  0.00     0.338 C 
ATOM     35  O   UNL A   1      32.627  34.740  28.688  1.00  0.00    -0.246 OA
BRANCH  34  36
ATOM     36  C   UNL A   1      34.668  33.666  29.288  1.00  0.00     0.060 A 
ATOM     37  C   UNL A   1      35.946  34.119  28.918  1.00  0.00     0.016 A 
ATOM     38  C   UNL A   1      34.483  33.022  30.514  1.00  0.00     0.016 A 
ATOM     39  C   UNL A   1      37.038  33.927  29.767  1.00  0.00     0.010 A 
ATOM     40  C   UNL A   1      35.586  32.793  31.345  1.00  0.00     0.010 A 
ATOM     41  C   UNL A   1      36.870  33.227  30.968  1.00  0.00    -0.014 A 
BRANCH  41  42
ATOM     42  C   UNL A   1      38.056  32.748  31.720  1.00  0.00     0.031 A 
ATOM     43  C   UNL A   1      38.861  31.630  31.113  1.00  0.00     0.074 A 
ATOM     44  C   UNL A   1      38.401  33.261  32.915  1.00  0.00     0.049 A 
ATOM     45  N   UNL A   1      39.860  30.959  31.618  1.00  0.00    -0.248 NA
ATOM     46  C   UNL A   1      38.482  31.213  29.751  1.00  0.00     0.031 C 
ATOM     47  C   UNL A   1      37.732  34.373  33.590  1.00  0.00     0.029 A 
ATOM     48  N   UNL A   1      39.397  32.891  33.788  1.00  0.00    -0.354 N 
ATOM     49  C   UNL A   1      40.219  30.032  30.648  1.00  0.00     0.074 A 
ATOM     50  C   UNL A   1      39.330  30.223  29.524  1.00  0.00     0.031 C 
ATOM     51  C   UNL A   1      38.312  34.569  34.788  1.00  0.00     0.029 A 
ATOM     52  C   UNL A   1      39.369  33.575  34.982  1.00  0.00     0.049 A 
ATOM     53  H   UNL A   1      40.066  32.200  33.579  1.00  0.00     0.167 HD
ATOM     54  C   UNL A   1      41.198  29.102  30.692  1.00  0.00     0.037 A 
ATOM     55  C   UNL A   1      40.083  33.389  36.112  1.00  0.00     0.037 A 
ATOM     56  C   UNL A   1      42.082  28.912  31.808  1.00  0.00     0.049 A 
ATOM     57  C   UNL A   1      41.116  32.287  36.164  1.00  0.00     0.074 A 
ATOM     58  C   UNL A   1      43.135  28.022  31.926  1.00  0.00     0.029 A 
ATOM     59  N   UNL A   1      42.006  29.607  33.004  1.00  0.00    -0.354 N 
ATOM     60  N   UNL A   1      41.479  31.449  35.221  1.00  0.00    -0.248 NA
ATOM     61  C   UNL A   1      41.829  32.095  37.438  1.00  0.00     0.031 C 
ATOM     62  C   UNL A   1      43.662  28.141  33.216  1.00  0.00     0.029 A 
ATOM     63  C   UNL A   1      42.968  29.139  33.882  1.00  0.00     0.049 A 
ATOM     64  H   UNL A   1      41.363  30.327  33.200  1.00  0.00     0.167 HD
ATOM     65  C   UNL A   1      42.470  30.647  35.783  1.00  0.00     0.074 A 
ATOM     66  C   UNL A   1      42.665  31.111  37.139  1.00  0.00     0.031 C 
ATOM     67  C   UNL A   1      43.154  29.616  35.228  1.00  0.00     0.037 A 
BRANCH  54  68
ATOM     68  C   UNL A   1      41.353  28.189  29.510  1.00  0.00     0.058 A 
ATOM     69  C   UNL A   1      42.374  28.373  28.567  1.00  0.00     0.135 A 
ATOM     70  C   UNL A   1      40.512  27.074  29.366  1.00  0.00     0.135 A 
ATOM     71  F   UNL A   1      43.188  29.438  28.648  1.00  0.00    -0.206 F 
ATOM     72  C   UNL A   1      42.560  27.477  27.520  1.00  0.00     0.059 A 
ATOM     73  C   UNL A   1      40.693  26.155  28.339  1.00  0.00     0.059 A 
ATOM     74  F   UNL A   1      39.512  26.865  30.236  1.00  0.00    -0.206 F 
ATOM     75  C   UNL A   1      41.720  26.366  27.420  1.00  0.00     0.060 A 
BRANCH  75  76
ATOM     76  S   UNL A   1      42.010  25.184  26.086  1.00  0.00     0.124 S 
ATOM     77  O   UNL A   1      42.085  26.066  24.926  1.00  0.00    -0.237 OA
ATOM     78  O   UNL A   1      43.266  24.563  26.492  1.00  0.00    -0.237 OA
ATOM     79  O   UNL A   1      40.838  24.316  26.141  1.00  0.00    -0.744 OA
ENDBRANCH  75  76
ENDBRANCH  54  68
BRANCH  55  80
ATOM     80  C   UNL A   1      39.814  34.211  37.325  1.00  0.00     0.058 A 
ATOM     81  C   UNL A   1      40.443  35.449  37.522  1.00  0.00     0.135 A 
ATOM     82  C   UNL A   1      38.968  33.742  38.343  1.00  0.00     0.135 A 
ATOM     83  F   UNL A   1      41.274  35.935  36.588  1.00  0.00    -0.206 F 
ATOM     84  C   UNL A   1      40.268  36.179  38.694  1.00  0.00     0.059 A 
ATOM     85  C   UNL A   1      38.757  34.466  39.512  1.00  0.00     0.059 A 
ATOM     86  F   UNL A   1      38.337  32.566  38.205  1.00  0.00    -0.206 F 
ATOM     87  C   UNL A   1      39.426  35.676  39.687  1.00  0.00     0.060 A 
BRANCH  87  88
ATOM     88  S   UNL A   1      39.196  36.631  41.203  1.00  0.00     0.124 S 
ATOM     89  O   UNL A   1      38.116  35.897  41.850  1.00  0.00    -0.237 OA
ATOM     90  O   UNL A   1      40.509  36.527  41.832  1.00  0.00    -0.237 OA
ATOM     91  O   UNL A   1      38.851  37.961  40.708  1.00  0.00    -0.744 OA
ENDBRANCH  87  88
ENDBRANCH  55  80
BRANCH  67  92
ATOM     92  C   UNL A   1      44.188  28.924  36.073  1.00  0.00     0.058 A 
ATOM     93  C   UNL A   1      45.516  29.375  36.122  1.00  0.00     0.135 A 
ATOM     94  C   UNL A   1      43.829  27.849  36.903  1.00  0.00     0.135 A 
ATOM     95  F   UNL A   1      45.911  30.396  35.345  1.00  0.00    -0.206 F 
ATOM     96  C   UNL A   1      46.456  28.777  36.955  1.00  0.00     0.059 A 
ATOM     97  C   UNL A   1      44.745  27.253  37.763  1.00  0.00     0.059 A 
ATOM     98  F   UNL A   1      42.568  27.386  36.903  1.00  0.00    -0.206 F 
ATOM     99  C   UNL A   1      46.059  27.719  37.777  1.00  0.00     0.060 A 
BRANCH  99 100
ATOM    100  S   UNL A   1      47.276  26.986  38.892  1.00  0.00     0.124 S 
ATOM    101  O   UNL A   1      48.456  26.918  38.035  1.00  0.00    -0.237 OA
ATOM    102  O   UNL A   1      47.336  27.961  39.976  1.00  0.00    -0.237 OA
ATOM    103  O   UNL A   1      46.682  25.700  39.245  1.00  0.00    -0.744 OA
ENDBRANCH  99 100
ENDBRANCH  67  92
ENDBRANCH  41  42
ENDBRANCH  34  36
ENDBRANCH  33  34
ENDBRANCH  32  33
ENDBRANCH  31  32
ENDBRANCH  30  31
ENDBRANCH  29  30
ENDBRANCH   1  29
TORSDOF 26
ENDMDL
