MODEL 1
REMARK VINA RESULT:      -9.7      0.000      0.000
REMARK SMILES Cc1ccc(NC(=O)C[C@H]([NH2+]Cc2cccnc2)C(=O)OCCOCCOCCOCCOC(=O)c2ccc(-c3c4nc(c(-c5c(F)cc(S(=O)(=O)[O-])cc5F)c5ccc([nH]5)c(-c5c(F)cc(S(=O)(=O)[O-])cc5F)c5nc(c(-c6c(F)cc(S(=O)(=O)[O-])cc6F)c6ccc3[nH]6)C=C5)C=C4)cc2)cc1Cl
REMARK SMILES IDX 27 1 26 2 25 3 24 4 23 5 22 6 21 7 19 8 20 9 10 10 9 11 7 12
REMARK SMILES IDX 6 13 8 15 5 16 1 17 2 18 3 19 103 20 4 21 102 22 104 23
REMARK SMILES IDX 11 24 12 27 13 28 14 29 18 30 15 31 17 32 16 33 28 34 29 35
REMARK SMILES IDX 30 36 31 37 32 38 33 39 34 40 35 41 36 42 37 43 101 44 38 45
REMARK SMILES IDX 100 46 39 47 40 48 41 49 94 50 42 51 99 52 93 53 95 54 43 55
REMARK SMILES IDX 98 56 92 57 91 58 44 60 78 61 57 62 77 63 58 64 61 65 76 66
REMARK SMILES IDX 96 67 59 68 60 69 75 71 97 72 62 73 45 74 46 75 55 76 47 77
REMARK SMILES IDX 48 78 54 79 56 80 49 81 50 82 51 83 52 84 53 85 79 86 80 87
REMARK SMILES IDX 89 88 81 89 82 90 88 91 90 92 83 93 84 94 85 95 86 96 87 97
REMARK SMILES IDX 63 98 64 99 73 100 65 101 66 102 72 103 74 104 67 105 68 106
REMARK SMILES IDX 69 107 70 108 71 109
REMARK H PARENT 6 14 11 25 11 26 95 59 61 70
REMARK Flexibility Score: inf
ROOT
ATOM      1  O   UNL A   1      40.029  21.499  27.341  1.00  0.00    -0.377 OA
ENDROOT
BRANCH   1   2
ATOM      2  C   UNL A   1      39.473  21.739  26.068  1.00  0.00     0.188 C 
BRANCH   2   3
ATOM      3  C   UNL A   1      38.289  22.701  26.047  1.00  0.00     0.188 C 
BRANCH   3   4
ATOM      4  O   UNL A   1      36.953  22.251  25.860  1.00  0.00    -0.376 OA
BRANCH   4   5
ATOM      5  C   UNL A   1      36.692  20.989  25.270  1.00  0.00     0.202 C 
BRANCH   5   6
ATOM      6  C   UNL A   1      35.213  20.648  25.037  1.00  0.00     0.261 C 
BRANCH   6   7
ATOM      7  O   UNL A   1      34.201  21.510  25.607  1.00  0.00    -0.459 OA
BRANCH   7   8
ATOM      8  C   UNL A   1      32.985  21.558  24.995  1.00  0.00     0.365 C 
ATOM      9  O   UNL A   1      32.245  20.590  24.851  1.00  0.00    -0.245 OA
BRANCH   8  10
ATOM     10  C   UNL A   1      32.646  22.953  24.403  1.00  0.00     0.303 C 
BRANCH  10  11
ATOM     11  C   UNL A   1      33.587  23.234  23.242  1.00  0.00     0.177 C 
BRANCH  11  12
ATOM     12  C   UNL A   1      33.278  23.945  21.928  1.00  0.00     0.231 C 
ATOM     13  N   UNL A   1      32.493  25.010  21.648  1.00  0.00    -0.326 N 
ATOM     14  H   UNL A   1      32.252  25.006  20.694  1.00  0.00     0.169 HD
ATOM     15  O   UNL A   1      33.653  23.332  20.908  1.00  0.00    -0.274 OA
BRANCH  13  16
ATOM     16  C   UNL A   1      31.909  26.120  22.282  1.00  0.00     0.042 A 
ATOM     17  C   UNL A   1      30.275  29.768  24.001  1.00  0.00     0.046 C 
ATOM     18  C   UNL A   1      30.855  28.494  23.465  1.00  0.00    -0.032 A 
ATOM     19  C   UNL A   1      32.179  28.437  23.020  1.00  0.00     0.007 A 
ATOM     20  C   UNL A   1      30.088  27.339  23.349  1.00  0.00     0.046 A 
ATOM     21  C   UNL A   1      32.693  27.270  22.428  1.00  0.00     0.026 A 
ATOM     22  C   UNL A   1      30.648  26.160  22.836  1.00  0.00     0.047 A 
ATOM     23  Cl  UNL A   1      28.407  27.346  23.779  1.00  0.00    -0.084 Cl
ENDBRANCH  13  16
ENDBRANCH  11  12
ENDBRANCH  10  11
BRANCH  10  24
ATOM     24  N   UNL A   1      32.414  24.049  25.375  1.00  0.00    -0.330 N 
ATOM     25  H   UNL A   1      32.278  23.631  26.295  1.00  0.00     0.347 HD
ATOM     26  H   UNL A   1      31.598  24.559  25.034  1.00  0.00     0.347 HD
BRANCH  24  27
ATOM     27  C   UNL A   1      33.495  25.037  25.479  1.00  0.00     0.299 C 
BRANCH  27  28
ATOM     28  C   UNL A   1      33.052  26.370  26.039  1.00  0.00     0.024 A 
ATOM     29  C   UNL A   1      31.757  26.598  26.508  1.00  0.00     0.013 A 
ATOM     30  C   UNL A   1      33.936  27.449  26.101  1.00  0.00     0.120 A 
ATOM     31  C   UNL A   1      31.412  27.851  27.022  1.00  0.00     0.021 A 
ATOM     32  N   UNL A   1      33.623  28.681  26.572  1.00  0.00    -0.264 NA
ATOM     33  C   UNL A   1      32.370  28.849  27.034  1.00  0.00     0.111 A 
ENDBRANCH  27  28
ENDBRANCH  24  27
ENDBRANCH  10  24
ENDBRANCH   8  10
ENDBRANCH   7   8
ENDBRANCH   6   7
ENDBRANCH   5   6
ENDBRANCH   4   5
ENDBRANCH   3   4
ENDBRANCH   2   3
ENDBRANCH   1   2
BRANCH   1  34
ATOM     34  C   UNL A   1      41.079  20.554  27.426  1.00  0.00     0.188 C 
BRANCH  34  35
ATOM     35  C   UNL A   1      41.154  19.519  26.301  1.00  0.00     0.188 C 
BRANCH  35  36
ATOM     36  O   UNL A   1      42.253  19.538  25.404  1.00  0.00    -0.376 OA
BRANCH  36  37
ATOM     37  C   UNL A   1      43.468  20.229  25.642  1.00  0.00     0.202 C 
BRANCH  37  38
ATOM     38  C   UNL A   1      44.132  21.256  24.710  1.00  0.00     0.261 C 
BRANCH  38  39
ATOM     39  O   UNL A   1      43.417  22.456  24.435  1.00  0.00    -0.460 OA
BRANCH  39  40
ATOM     40  C   UNL A   1      44.123  23.586  24.628  1.00  0.00     0.338 C 
ATOM     41  O   UNL A   1      45.153  23.917  24.043  1.00  0.00    -0.246 OA
BRANCH  40  42
ATOM     42  C   UNL A   1      43.395  24.481  25.538  1.00  0.00     0.060 A 
ATOM     43  C   UNL A   1      43.736  25.836  25.526  1.00  0.00     0.016 A 
ATOM     44  C   UNL A   1      42.472  23.984  26.462  1.00  0.00     0.016 A 
ATOM     45  C   UNL A   1      43.221  26.687  26.494  1.00  0.00     0.010 A 
ATOM     46  C   UNL A   1      41.952  24.841  27.436  1.00  0.00     0.010 A 
ATOM     47  C   UNL A   1      42.381  26.179  27.494  1.00  0.00    -0.014 A 
BRANCH  47  48
ATOM     48  C   UNL A   1      42.184  26.989  28.719  1.00  0.00     0.031 A 
ATOM     49  C   UNL A   1      43.180  26.839  29.840  1.00  0.00     0.074 A 
ATOM     50  C   UNL A   1      41.204  27.906  28.794  1.00  0.00     0.049 A 
ATOM     51  N   UNL A   1      43.249  27.473  30.981  1.00  0.00    -0.248 NA
ATOM     52  C   UNL A   1      44.245  25.839  29.647  1.00  0.00     0.031 C 
ATOM     53  C   UNL A   1      40.212  28.170  27.752  1.00  0.00     0.029 A 
ATOM     54  N   UNL A   1      40.893  28.794  29.791  1.00  0.00    -0.354 N 
ATOM     55  C   UNL A   1      44.356  26.950  31.639  1.00  0.00     0.074 A 
ATOM     56  C   UNL A   1      44.904  25.915  30.792  1.00  0.00     0.031 C 
ATOM     57  C   UNL A   1      39.401  29.158  28.167  1.00  0.00     0.029 A 
ATOM     58  C   UNL A   1      39.800  29.576  29.510  1.00  0.00     0.049 A 
ATOM     59  H   UNL A   1      41.404  28.863  30.629  1.00  0.00     0.167 HD
ATOM     60  C   UNL A   1      44.880  27.310  32.834  1.00  0.00     0.037 A 
ATOM     61  C   UNL A   1      39.188  30.516  30.258  1.00  0.00     0.037 A 
ATOM     62  C   UNL A   1      44.334  28.348  33.668  1.00  0.00     0.049 A 
ATOM     63  C   UNL A   1      39.755  30.860  31.612  1.00  0.00     0.074 A 
ATOM     64  C   UNL A   1      44.794  28.800  34.891  1.00  0.00     0.029 A 
ATOM     65  N   UNL A   1      43.203  29.093  33.366  1.00  0.00    -0.354 N 
ATOM     66  N   UNL A   1      40.813  30.370  32.215  1.00  0.00    -0.248 NA
ATOM     67  C   UNL A   1      39.052  31.893  32.383  1.00  0.00     0.031 C 
ATOM     68  C   UNL A   1      43.909  29.778  35.356  1.00  0.00     0.029 A 
ATOM     69  C   UNL A   1      42.936  29.983  34.392  1.00  0.00     0.049 A 
ATOM     70  H   UNL A   1      42.669  29.001  32.543  1.00  0.00     0.167 HD
ATOM     71  C   UNL A   1      40.922  31.061  33.419  1.00  0.00     0.074 A 
ATOM     72  C   UNL A   1      39.827  32.009  33.451  1.00  0.00     0.031 C 
ATOM     73  C   UNL A   1      41.845  30.927  34.405  1.00  0.00     0.037 A 
BRANCH  60  74
ATOM     74  C   UNL A   1      46.088  26.556  33.323  1.00  0.00     0.058 A 
ATOM     75  C   UNL A   1      47.394  27.031  33.123  1.00  0.00     0.135 A 
ATOM     76  C   UNL A   1      45.933  25.350  34.026  1.00  0.00     0.135 A 
ATOM     77  F   UNL A   1      47.604  28.166  32.438  1.00  0.00    -0.206 F 
ATOM     78  C   UNL A   1      48.503  26.325  33.577  1.00  0.00     0.059 A 
ATOM     79  C   UNL A   1      47.026  24.643  34.517  1.00  0.00     0.059 A 
ATOM     80  F   UNL A   1      44.707  24.846  34.240  1.00  0.00    -0.206 F 
ATOM     81  C   UNL A   1      48.308  25.131  34.276  1.00  0.00     0.060 A 
BRANCH  81  82
ATOM     82  S   UNL A   1      49.757  24.229  34.865  1.00  0.00     0.124 S 
ATOM     83  O   UNL A   1      50.212  23.577  33.641  1.00  0.00    -0.237 OA
ATOM     84  O   UNL A   1      50.609  25.304  35.365  1.00  0.00    -0.237 OA
ATOM     85  O   UNL A   1      49.212  23.339  35.884  1.00  0.00    -0.744 OA
ENDBRANCH  81  82
ENDBRANCH  60  74
BRANCH  61  86
ATOM     86  C   UNL A   1      37.969  31.197  29.745  1.00  0.00     0.058 A 
ATOM     87  C   UNL A   1      38.000  32.534  29.325  1.00  0.00     0.135 A 
ATOM     88  C   UNL A   1      36.741  30.518  29.671  1.00  0.00     0.135 A 
ATOM     89  F   UNL A   1      39.145  33.230  29.386  1.00  0.00    -0.206 F 
ATOM     90  C   UNL A   1      36.856  33.182  28.869  1.00  0.00     0.059 A 
ATOM     91  C   UNL A   1      35.591  31.135  29.190  1.00  0.00     0.059 A 
ATOM     92  F   UNL A   1      36.659  29.232  30.049  1.00  0.00    -0.206 F 
ATOM     93  C   UNL A   1      35.656  32.471  28.801  1.00  0.00     0.060 A 
BRANCH  93  94
ATOM     94  S   UNL A   1      34.188  33.308  28.165  1.00  0.00     0.124 S 
ATOM     95  O   UNL A   1      34.776  34.282  27.254  1.00  0.00    -0.237 OA
ATOM     96  O   UNL A   1      33.458  32.210  27.542  1.00  0.00    -0.237 OA
ATOM     97  O   UNL A   1      33.570  33.860  29.368  1.00  0.00    -0.744 OA
ENDBRANCH  93  94
ENDBRANCH  61  86
BRANCH  73  98
ATOM     98  C   UNL A   1      41.743  31.860  35.583  1.00  0.00     0.058 A 
ATOM     99  C   UNL A   1      42.600  32.960  35.740  1.00  0.00     0.135 A 
ATOM    100  C   UNL A   1      40.742  31.668  36.551  1.00  0.00     0.135 A 
ATOM    101  F   UNL A   1      43.575  33.190  34.846  1.00  0.00    -0.206 F 
ATOM    102  C   UNL A   1      42.494  33.815  36.833  1.00  0.00     0.059 A 
ATOM    103  C   UNL A   1      40.595  32.530  37.633  1.00  0.00     0.059 A 
ATOM    104  F   UNL A   1      39.883  30.642  36.443  1.00  0.00    -0.206 F 
ATOM    105  C   UNL A   1      41.488  33.591  37.775  1.00  0.00     0.060 A 
BRANCH 105 106
ATOM    106  S   UNL A   1      41.354  34.713  39.182  1.00  0.00     0.124 S 
ATOM    107  O   UNL A   1      41.122  35.991  38.517  1.00  0.00    -0.237 OA
ATOM    108  O   UNL A   1      40.217  34.163  39.913  1.00  0.00    -0.237 OA
ATOM    109  O   UNL A   1      42.646  34.579  39.850  1.00  0.00    -0.744 OA
ENDBRANCH 105 106
ENDBRANCH  73  98
ENDBRANCH  47  48
ENDBRANCH  40  42
ENDBRANCH  39  40
ENDBRANCH  38  39
ENDBRANCH  37  38
ENDBRANCH  36  37
ENDBRANCH  35  36
ENDBRANCH  34  35
ENDBRANCH   1  34
TORSDOF 29
ENDMDL
MODEL 2
REMARK VINA RESULT:      -9.5      2.559      8.760
REMARK SMILES Cc1ccc(NC(=O)C[C@H]([NH2+]Cc2cccnc2)C(=O)OCCOCCOCCOCCOC(=O)c2ccc(-c3c4nc(c(-c5c(F)cc(S(=O)(=O)[O-])cc5F)c5ccc([nH]5)c(-c5c(F)cc(S(=O)(=O)[O-])cc5F)c5nc(c(-c6c(F)cc(S(=O)(=O)[O-])cc6F)c6ccc3[nH]6)C=C5)C=C4)cc2)cc1Cl
REMARK SMILES IDX 27 1 26 2 25 3 24 4 23 5 22 6 21 7 19 8 20 9 10 10 9 11 7 12
REMARK SMILES IDX 6 13 8 15 5 16 1 17 2 18 3 19 103 20 4 21 102 22 104 23
REMARK SMILES IDX 11 24 12 27 13 28 14 29 18 30 15 31 17 32 16 33 28 34 29 35
REMARK SMILES IDX 30 36 31 37 32 38 33 39 34 40 35 41 36 42 37 43 101 44 38 45
REMARK SMILES IDX 100 46 39 47 40 48 41 49 94 50 42 51 99 52 93 53 95 54 43 55
REMARK SMILES IDX 98 56 92 57 91 58 44 60 78 61 57 62 77 63 58 64 61 65 76 66
REMARK SMILES IDX 96 67 59 68 60 69 75 71 97 72 62 73 45 74 46 75 55 76 47 77
REMARK SMILES IDX 48 78 54 79 56 80 49 81 50 82 51 83 52 84 53 85 79 86 80 87
REMARK SMILES IDX 89 88 81 89 82 90 88 91 90 92 83 93 84 94 85 95 86 96 87 97
REMARK SMILES IDX 63 98 64 99 73 100 65 101 66 102 72 103 74 104 67 105 68 106
REMARK SMILES IDX 69 107 70 108 71 109
REMARK H PARENT 6 14 11 25 11 26 95 59 61 70
REMARK Flexibility Score: inf
ROOT
ATOM      1  O   UNL A   1      38.682  22.905  26.602  1.00  0.00    -0.377 OA
ENDROOT
BRANCH   1   2
ATOM      2  C   UNL A   1      37.965  22.205  25.612  1.00  0.00     0.188 C 
BRANCH   2   3
ATOM      3  C   UNL A   1      36.446  22.291  25.727  1.00  0.00     0.188 C 
BRANCH   3   4
ATOM      4  O   UNL A   1      35.586  21.948  24.647  1.00  0.00    -0.376 OA
BRANCH   4   5
ATOM      5  C   UNL A   1      35.398  22.841  23.563  1.00  0.00     0.202 C 
BRANCH   5   6
ATOM      6  C   UNL A   1      34.522  24.071  23.848  1.00  0.00     0.261 C 
BRANCH   6   7
ATOM      7  O   UNL A   1      33.297  23.896  24.595  1.00  0.00    -0.459 OA
BRANCH   7   8
ATOM      8  C   UNL A   1      32.372  23.023  24.109  1.00  0.00     0.365 C 
ATOM      9  O   UNL A   1      31.861  23.105  22.996  1.00  0.00    -0.245 OA
BRANCH   8  10
ATOM     10  C   UNL A   1      31.941  21.942  25.137  1.00  0.00     0.303 C 
BRANCH  10  11
ATOM     11  C   UNL A   1      31.583  22.628  26.447  1.00  0.00     0.177 C 
BRANCH  11  12
ATOM     12  C   UNL A   1      30.318  23.406  26.790  1.00  0.00     0.231 C 
ATOM     13  N   UNL A   1      29.963  24.690  26.551  1.00  0.00    -0.326 N 
ATOM     14  H   UNL A   1      29.251  24.961  27.175  1.00  0.00     0.169 HD
ATOM     15  O   UNL A   1      29.557  22.830  27.594  1.00  0.00    -0.274 OA
BRANCH  13  16
ATOM     16  C   UNL A   1      30.283  25.760  25.699  1.00  0.00     0.042 A 
ATOM     17  C   UNL A   1      30.937  29.047  22.924  1.00  0.00     0.046 C 
ATOM     18  C   UNL A   1      30.764  27.890  23.861  1.00  0.00    -0.032 A 
ATOM     19  C   UNL A   1      30.047  26.753  23.475  1.00  0.00     0.007 A 
ATOM     20  C   UNL A   1      31.270  27.922  25.157  1.00  0.00     0.046 A 
ATOM     21  C   UNL A   1      29.802  25.711  24.386  1.00  0.00     0.026 A 
ATOM     22  C   UNL A   1      31.088  26.832  26.019  1.00  0.00     0.047 A 
ATOM     23  Cl  UNL A   1      32.082  29.333  25.754  1.00  0.00    -0.084 Cl
ENDBRANCH  13  16
ENDBRANCH  11  12
ENDBRANCH  10  11
BRANCH  10  24
ATOM     24  N   UNL A   1      32.782  20.723  25.213  1.00  0.00    -0.330 N 
ATOM     25  H   UNL A   1      32.798  20.411  26.184  1.00  0.00     0.347 HD
ATOM     26  H   UNL A   1      33.699  20.991  24.854  1.00  0.00     0.347 HD
BRANCH  24  27
ATOM     27  C   UNL A   1      32.335  19.598  24.381  1.00  0.00     0.299 C 
BRANCH  27  28
ATOM     28  C   UNL A   1      33.034  18.294  24.693  1.00  0.00     0.024 A 
ATOM     29  C   UNL A   1      32.384  17.215  25.299  1.00  0.00     0.013 A 
ATOM     30  C   UNL A   1      34.385  18.115  24.388  1.00  0.00     0.120 A 
ATOM     31  C   UNL A   1      33.084  16.033  25.552  1.00  0.00     0.021 A 
ATOM     32  N   UNL A   1      35.095  16.989  24.644  1.00  0.00    -0.264 NA
ATOM     33  C   UNL A   1      34.423  15.968  25.208  1.00  0.00     0.111 A 
ENDBRANCH  27  28
ENDBRANCH  24  27
ENDBRANCH  10  24
ENDBRANCH   8  10
ENDBRANCH   7   8
ENDBRANCH   6   7
ENDBRANCH   5   6
ENDBRANCH   4   5
ENDBRANCH   3   4
ENDBRANCH   2   3
ENDBRANCH   1   2
BRANCH   1  34
ATOM     34  C   UNL A   1      40.077  22.674  26.684  1.00  0.00     0.188 C 
BRANCH  34  35
ATOM     35  C   UNL A   1      40.546  21.247  26.392  1.00  0.00     0.188 C 
BRANCH  35  36
ATOM     36  O   UNL A   1      41.934  20.953  26.388  1.00  0.00    -0.376 OA
BRANCH  36  37
ATOM     37  C   UNL A   1      42.940  21.849  25.945  1.00  0.00     0.202 C 
BRANCH  37  38
ATOM     38  C   UNL A   1      43.631  22.935  26.785  1.00  0.00     0.261 C 
BRANCH  38  39
ATOM     39  O   UNL A   1      43.148  24.269  26.662  1.00  0.00    -0.460 OA
BRANCH  39  40
ATOM     40  C   UNL A   1      43.988  25.213  27.127  1.00  0.00     0.338 C 
ATOM     41  O   UNL A   1      45.175  25.348  26.835  1.00  0.00    -0.246 OA
BRANCH  40  42
ATOM     42  C   UNL A   1      43.243  26.195  27.926  1.00  0.00     0.060 A 
ATOM     43  C   UNL A   1      43.658  27.529  27.868  1.00  0.00     0.016 A 
ATOM     44  C   UNL A   1      42.226  25.800  28.799  1.00  0.00     0.016 A 
ATOM     45  C   UNL A   1      43.118  28.459  28.745  1.00  0.00     0.010 A 
ATOM     46  C   UNL A   1      41.680  26.738  29.680  1.00  0.00     0.010 A 
ATOM     47  C   UNL A   1      42.176  28.054  29.700  1.00  0.00    -0.014 A 
BRANCH  47  48
ATOM     48  C   UNL A   1      41.931  28.942  30.860  1.00  0.00     0.031 A 
ATOM     49  C   UNL A   1      40.726  29.848  30.822  1.00  0.00     0.074 A 
ATOM     50  C   UNL A   1      42.700  28.874  31.960  1.00  0.00     0.049 A 
ATOM     51  N   UNL A   1      40.275  30.670  31.732  1.00  0.00    -0.248 NA
ATOM     52  C   UNL A   1      39.919  29.820  29.589  1.00  0.00     0.031 C 
ATOM     53  C   UNL A   1      43.862  28.002  32.127  1.00  0.00     0.029 A 
ATOM     54  N   UNL A   1      42.607  29.546  33.152  1.00  0.00    -0.354 N 
ATOM     55  C   UNL A   1      39.140  31.256  31.185  1.00  0.00     0.074 A 
ATOM     56  C   UNL A   1      38.994  30.731  29.846  1.00  0.00     0.031 C 
ATOM     57  C   UNL A   1      44.374  28.193  33.354  1.00  0.00     0.029 A 
ATOM     58  C   UNL A   1      43.594  29.216  34.048  1.00  0.00     0.049 A 
ATOM     59  H   UNL A   1      41.900  30.203  33.346  1.00  0.00     0.167 HD
ATOM     60  C   UNL A   1      38.286  32.141  31.751  1.00  0.00     0.037 A 
ATOM     61  C   UNL A   1      43.841  29.694  35.284  1.00  0.00     0.037 A 
ATOM     62  C   UNL A   1      38.434  32.653  33.088  1.00  0.00     0.049 A 
ATOM     63  C   UNL A   1      42.909  30.724  35.872  1.00  0.00     0.074 A 
ATOM     64  C   UNL A   1      37.619  33.543  33.763  1.00  0.00     0.029 A 
ATOM     65  N   UNL A   1      39.469  32.324  33.952  1.00  0.00    -0.354 N 
ATOM     66  N   UNL A   1      41.828  31.256  35.351  1.00  0.00    -0.248 NA
ATOM     67  C   UNL A   1      43.223  31.207  37.223  1.00  0.00     0.031 C 
ATOM     68  C   UNL A   1      38.191  33.797  35.013  1.00  0.00     0.029 A 
ATOM     69  C   UNL A   1      39.326  33.013  35.145  1.00  0.00     0.049 A 
ATOM     70  H   UNL A   1      40.196  31.693  33.747  1.00  0.00     0.167 HD
ATOM     71  C   UNL A   1      41.315  32.110  36.324  1.00  0.00     0.074 A 
ATOM     72  C   UNL A   1      42.199  32.013  37.467  1.00  0.00     0.031 C 
ATOM     73  C   UNL A   1      40.212  32.899  36.277  1.00  0.00     0.037 A 
BRANCH  60  74
ATOM     74  C   UNL A   1      37.134  32.632  30.917  1.00  0.00     0.058 A 
ATOM     75  C   UNL A   1      35.841  32.098  31.044  1.00  0.00     0.135 A 
ATOM     76  C   UNL A   1      37.323  33.671  29.991  1.00  0.00     0.135 A 
ATOM     77  F   UNL A   1      35.607  31.088  31.896  1.00  0.00    -0.206 F 
ATOM     78  C   UNL A   1      34.784  32.558  30.265  1.00  0.00     0.059 A 
ATOM     79  C   UNL A   1      36.273  34.169  29.225  1.00  0.00     0.059 A 
ATOM     80  F   UNL A   1      38.539  34.214  29.824  1.00  0.00    -0.206 F 
ATOM     81  C   UNL A   1      35.010  33.597  29.359  1.00  0.00     0.060 A 
BRANCH  81  82
ATOM     82  S   UNL A   1      33.627  34.187  28.361  1.00  0.00     0.124 S 
ATOM     83  O   UNL A   1      34.275  35.198  27.532  1.00  0.00    -0.237 OA
ATOM     84  O   UNL A   1      33.204  32.974  27.667  1.00  0.00    -0.237 OA
ATOM     85  O   UNL A   1      32.686  34.699  29.352  1.00  0.00    -0.744 OA
ENDBRANCH  81  82
ENDBRANCH  60  74
BRANCH  61  86
ATOM     86  C   UNL A   1      45.022  29.208  36.046  1.00  0.00     0.058 A 
ATOM     87  C   UNL A   1      44.923  28.135  36.942  1.00  0.00     0.135 A 
ATOM     88  C   UNL A   1      46.279  29.818  35.894  1.00  0.00     0.135 A 
ATOM     89  F   UNL A   1      43.742  27.526  37.131  1.00  0.00    -0.206 F 
ATOM     90  C   UNL A   1      46.020  27.694  37.677  1.00  0.00     0.059 A 
ATOM     91  C   UNL A   1      47.396  29.375  36.594  1.00  0.00     0.059 A 
ATOM     92  F   UNL A   1      46.432  30.842  35.041  1.00  0.00    -0.206 F 
ATOM     93  C   UNL A   1      47.254  28.319  37.492  1.00  0.00     0.060 A 
BRANCH  93  94
ATOM     94  S   UNL A   1      48.681  27.710  38.416  1.00  0.00     0.124 S 
ATOM     95  O   UNL A   1      48.262  27.946  39.792  1.00  0.00    -0.237 OA
ATOM     96  O   UNL A   1      48.741  26.313  37.997  1.00  0.00    -0.237 OA
ATOM     97  O   UNL A   1      49.774  28.549  37.935  1.00  0.00    -0.744 OA
ENDBRANCH  93  94
ENDBRANCH  61  86
BRANCH  73  98
ATOM     98  C   UNL A   1      39.867  33.685  37.515  1.00  0.00     0.058 A 
ATOM     99  C   UNL A   1      38.894  33.249  38.428  1.00  0.00     0.135 A 
ATOM    100  C   UNL A   1      40.553  34.876  37.809  1.00  0.00     0.135 A 
ATOM    101  F   UNL A   1      38.207  32.118  38.196  1.00  0.00    -0.206 F 
ATOM    102  C   UNL A   1      38.587  33.984  39.569  1.00  0.00     0.059 A 
ATOM    103  C   UNL A   1      40.286  35.608  38.961  1.00  0.00     0.059 A 
ATOM    104  F   UNL A   1      41.505  35.332  36.980  1.00  0.00    -0.206 F 
ATOM    105  C   UNL A   1      39.287  35.164  39.826  1.00  0.00     0.060 A 
BRANCH 105 106
ATOM    106  S   UNL A   1      38.887  36.102  41.315  1.00  0.00     0.124 S 
ATOM    107  O   UNL A   1      38.653  37.435  40.768  1.00  0.00    -0.237 OA
ATOM    108  O   UNL A   1      37.706  35.406  41.815  1.00  0.00    -0.237 OA
ATOM    109  O   UNL A   1      40.084  35.963  42.139  1.00  0.00    -0.744 OA
ENDBRANCH 105 106
ENDBRANCH  73  98
ENDBRANCH  47  48
ENDBRANCH  40  42
ENDBRANCH  39  40
ENDBRANCH  38  39
ENDBRANCH  37  38
ENDBRANCH  36  37
ENDBRANCH  35  36
ENDBRANCH  34  35
ENDBRANCH   1  34
TORSDOF 29
ENDMDL
MODEL 3
REMARK VINA RESULT:      -9.4      1.819      2.462
REMARK SMILES Cc1ccc(NC(=O)C[C@H]([NH2+]Cc2cccnc2)C(=O)OCCOCCOCCOCCOC(=O)c2ccc(-c3c4nc(c(-c5c(F)cc(S(=O)(=O)[O-])cc5F)c5ccc([nH]5)c(-c5c(F)cc(S(=O)(=O)[O-])cc5F)c5nc(c(-c6c(F)cc(S(=O)(=O)[O-])cc6F)c6ccc3[nH]6)C=C5)C=C4)cc2)cc1Cl
REMARK SMILES IDX 27 1 26 2 25 3 24 4 23 5 22 6 21 7 19 8 20 9 10 10 9 11 7 12
REMARK SMILES IDX 6 13 8 15 5 16 1 17 2 18 3 19 103 20 4 21 102 22 104 23
REMARK SMILES IDX 11 24 12 27 13 28 14 29 18 30 15 31 17 32 16 33 28 34 29 35
REMARK SMILES IDX 30 36 31 37 32 38 33 39 34 40 35 41 36 42 37 43 101 44 38 45
REMARK SMILES IDX 100 46 39 47 40 48 41 49 94 50 42 51 99 52 93 53 95 54 43 55
REMARK SMILES IDX 98 56 92 57 91 58 44 60 78 61 57 62 77 63 58 64 61 65 76 66
REMARK SMILES IDX 96 67 59 68 60 69 75 71 97 72 62 73 45 74 46 75 55 76 47 77
REMARK SMILES IDX 48 78 54 79 56 80 49 81 50 82 51 83 52 84 53 85 79 86 80 87
REMARK SMILES IDX 89 88 81 89 82 90 88 91 90 92 83 93 84 94 85 95 86 96 87 97
REMARK SMILES IDX 63 98 64 99 73 100 65 101 66 102 72 103 74 104 67 105 68 106
REMARK SMILES IDX 69 107 70 108 71 109
REMARK H PARENT 6 14 11 25 11 26 95 59 61 70
REMARK Flexibility Score: inf
ROOT
ATOM      1  O   UNL A   1      38.824  21.959  26.314  1.00  0.00    -0.377 OA
ENDROOT
BRANCH   1   2
ATOM      2  C   UNL A   1      38.499  21.037  25.299  1.00  0.00     0.188 C 
BRANCH   2   3
ATOM      3  C   UNL A   1      37.012  20.723  25.158  1.00  0.00     0.188 C 
BRANCH   3   4
ATOM      4  O   UNL A   1      36.153  21.495  24.330  1.00  0.00    -0.376 OA
BRANCH   4   5
ATOM      5  C   UNL A   1      36.481  22.833  23.997  1.00  0.00     0.202 C 
BRANCH   5   6
ATOM      6  C   UNL A   1      36.083  23.899  25.029  1.00  0.00     0.261 C 
BRANCH   6   7
ATOM      7  O   UNL A   1      35.473  23.476  26.270  1.00  0.00    -0.459 OA
BRANCH   7   8
ATOM      8  C   UNL A   1      34.116  23.376  26.312  1.00  0.00     0.365 C 
ATOM      9  O   UNL A   1      33.507  22.356  26.621  1.00  0.00    -0.245 OA
BRANCH   8  10
ATOM     10  C   UNL A   1      33.386  24.662  25.840  1.00  0.00     0.303 C 
BRANCH  10  11
ATOM     11  C   UNL A   1      32.764  24.401  24.477  1.00  0.00     0.177 C 
BRANCH  11  12
ATOM     12  C   UNL A   1      31.310  24.075  24.150  1.00  0.00     0.231 C 
ATOM     13  N   UNL A   1      30.247  24.874  23.902  1.00  0.00    -0.326 N 
ATOM     14  H   UNL A   1      29.412  24.376  24.057  1.00  0.00     0.169 HD
ATOM     15  O   UNL A   1      30.994  22.882  24.330  1.00  0.00    -0.274 OA
BRANCH  13  16
ATOM     16  C   UNL A   1      29.951  26.186  23.496  1.00  0.00     0.042 A 
ATOM     17  C   UNL A   1      29.229  30.184  21.938  1.00  0.00     0.046 C 
ATOM     18  C   UNL A   1      29.495  28.832  22.527  1.00  0.00    -0.032 A 
ATOM     19  C   UNL A   1      30.743  28.218  22.387  1.00  0.00     0.007 A 
ATOM     20  C   UNL A   1      28.501  28.122  23.194  1.00  0.00     0.046 A 
ATOM     21  C   UNL A   1      30.962  26.911  22.856  1.00  0.00     0.026 A 
ATOM     22  C   UNL A   1      28.769  26.855  23.730  1.00  0.00     0.047 A 
ATOM     23  Cl  UNL A   1      26.894  28.762  23.325  1.00  0.00    -0.084 Cl
ENDBRANCH  13  16
ENDBRANCH  11  12
ENDBRANCH  10  11
BRANCH  10  24
ATOM     24  N   UNL A   1      34.109  25.944  26.025  1.00  0.00    -0.330 N 
ATOM     25  H   UNL A   1      35.100  25.774  25.853  1.00  0.00     0.347 HD
ATOM     26  H   UNL A   1      33.907  26.246  26.979  1.00  0.00     0.347 HD
BRANCH  24  27
ATOM     27  C   UNL A   1      33.677  27.043  25.152  1.00  0.00     0.299 C 
BRANCH  27  28
ATOM     28  C   UNL A   1      33.350  28.319  25.893  1.00  0.00     0.024 A 
ATOM     29  C   UNL A   1      32.052  28.825  25.988  1.00  0.00     0.013 A 
ATOM     30  C   UNL A   1      34.355  29.062  26.517  1.00  0.00     0.120 A 
ATOM     31  C   UNL A   1      31.814  30.006  26.695  1.00  0.00     0.021 A 
ATOM     32  N   UNL A   1      34.158  30.222  27.189  1.00  0.00    -0.264 NA
ATOM     33  C   UNL A   1      32.887  30.661  27.274  1.00  0.00     0.111 A 
ENDBRANCH  27  28
ENDBRANCH  24  27
ENDBRANCH  10  24
ENDBRANCH   8  10
ENDBRANCH   7   8
ENDBRANCH   6   7
ENDBRANCH   5   6
ENDBRANCH   4   5
ENDBRANCH   3   4
ENDBRANCH   2   3
ENDBRANCH   1   2
BRANCH   1  34
ATOM     34  C   UNL A   1      40.089  21.824  26.936  1.00  0.00     0.188 C 
BRANCH  34  35
ATOM     35  C   UNL A   1      40.910  20.593  26.546  1.00  0.00     0.188 C 
BRANCH  35  36
ATOM     36  O   UNL A   1      42.324  20.633  26.651  1.00  0.00    -0.376 OA
BRANCH  36  37
ATOM     37  C   UNL A   1      43.172  21.355  25.773  1.00  0.00     0.202 C 
BRANCH  37  38
ATOM     38  C   UNL A   1      43.657  22.802  25.956  1.00  0.00     0.261 C 
BRANCH  38  39
ATOM     39  O   UNL A   1      42.679  23.836  25.908  1.00  0.00    -0.460 OA
BRANCH  39  40
ATOM     40  C   UNL A   1      43.184  25.081  25.819  1.00  0.00     0.338 C 
ATOM     41  O   UNL A   1      44.058  25.465  25.043  1.00  0.00    -0.246 OA
BRANCH  40  42
ATOM     42  C   UNL A   1      42.420  25.993  26.680  1.00  0.00     0.060 A 
ATOM     43  C   UNL A   1      42.861  27.316  26.778  1.00  0.00     0.016 A 
ATOM     44  C   UNL A   1      41.356  25.534  27.461  1.00  0.00     0.016 A 
ATOM     45  C   UNL A   1      42.297  28.164  27.720  1.00  0.00     0.010 A 
ATOM     46  C   UNL A   1      40.786  26.390  28.408  1.00  0.00     0.010 A 
ATOM     47  C   UNL A   1      41.305  27.685  28.585  1.00  0.00    -0.014 A 
BRANCH  47  48
ATOM     48  C   UNL A   1      41.021  28.456  29.818  1.00  0.00     0.031 A 
ATOM     49  C   UNL A   1      41.913  28.243  31.014  1.00  0.00     0.074 A 
ATOM     50  C   UNL A   1      40.058  29.394  29.842  1.00  0.00     0.049 A 
ATOM     51  N   UNL A   1      41.897  28.835  32.179  1.00  0.00    -0.248 NA
ATOM     52  C   UNL A   1      42.968  27.224  30.876  1.00  0.00     0.031 C 
ATOM     53  C   UNL A   1      39.166  29.720  28.730  1.00  0.00     0.029 A 
ATOM     54  N   UNL A   1      39.682  30.255  30.841  1.00  0.00    -0.354 N 
ATOM     55  C   UNL A   1      42.931  28.262  32.910  1.00  0.00     0.074 A 
ATOM     56  C   UNL A   1      43.527  27.243  32.076  1.00  0.00     0.031 C 
ATOM     57  C   UNL A   1      38.344  30.712  29.110  1.00  0.00     0.029 A 
ATOM     58  C   UNL A   1      38.635  31.074  30.497  1.00  0.00     0.049 A 
ATOM     59  H   UNL A   1      40.120  30.282  31.722  1.00  0.00     0.167 HD
ATOM     60  C   UNL A   1      43.358  28.567  34.158  1.00  0.00     0.037 A 
ATOM     61  C   UNL A   1      37.981  32.002  31.223  1.00  0.00     0.037 A 
ATOM     62  C   UNL A   1      42.765  29.589  34.979  1.00  0.00     0.049 A 
ATOM     63  C   UNL A   1      38.437  32.284  32.633  1.00  0.00     0.074 A 
ATOM     64  C   UNL A   1      43.127  29.986  36.253  1.00  0.00     0.029 A 
ATOM     65  N   UNL A   1      41.680  30.371  34.609  1.00  0.00    -0.354 N 
ATOM     66  N   UNL A   1      39.428  31.748  33.306  1.00  0.00    -0.248 NA
ATOM     67  C   UNL A   1      37.692  33.308  33.378  1.00  0.00     0.031 C 
ATOM     68  C   UNL A   1      42.228  30.970  36.676  1.00  0.00     0.029 A 
ATOM     69  C   UNL A   1      41.345  31.233  35.641  1.00  0.00     0.049 A 
ATOM     70  H   UNL A   1      41.218  30.322  33.741  1.00  0.00     0.167 HD
ATOM     71  C   UNL A   1      39.448  32.394  34.539  1.00  0.00     0.074 A 
ATOM     72  C   UNL A   1      38.375  33.367  34.513  1.00  0.00     0.031 C 
ATOM     73  C   UNL A   1      40.279  32.203  35.595  1.00  0.00     0.037 A 
BRANCH  60  74
ATOM     74  C   UNL A   1      44.502  27.767  34.720  1.00  0.00     0.058 A 
ATOM     75  C   UNL A   1      45.838  28.180  34.586  1.00  0.00     0.135 A 
ATOM     76  C   UNL A   1      44.254  26.579  35.427  1.00  0.00     0.135 A 
ATOM     77  F   UNL A   1      46.135  29.295  33.901  1.00  0.00    -0.206 F 
ATOM     78  C   UNL A   1      46.887  27.431  35.108  1.00  0.00     0.059 A 
ATOM     79  C   UNL A   1      45.286  25.830  35.985  1.00  0.00     0.059 A 
ATOM     80  F   UNL A   1      42.998  26.133  35.580  1.00  0.00    -0.206 F 
ATOM     81  C   UNL A   1      46.601  26.257  35.808  1.00  0.00     0.060 A 
BRANCH  81  82
ATOM     82  S   UNL A   1      47.973  25.299  36.485  1.00  0.00     0.124 S 
ATOM     83  O   UNL A   1      48.097  24.230  35.500  1.00  0.00    -0.237 OA
ATOM     84  O   UNL A   1      49.057  26.277  36.499  1.00  0.00    -0.237 OA
ATOM     85  O   UNL A   1      47.487  24.889  37.798  1.00  0.00    -0.744 OA
ENDBRANCH  81  82
ENDBRANCH  60  74
BRANCH  61  86
ATOM     86  C   UNL A   1      36.826  32.731  30.634  1.00  0.00     0.058 A 
ATOM     87  C   UNL A   1      37.012  33.784  29.727  1.00  0.00     0.135 A 
ATOM     88  C   UNL A   1      35.507  32.387  30.974  1.00  0.00     0.135 A 
ATOM     89  F   UNL A   1      38.252  34.158  29.378  1.00  0.00    -0.206 F 
ATOM     90  C   UNL A   1      35.934  34.484  29.193  1.00  0.00     0.059 A 
ATOM     91  C   UNL A   1      34.414  33.052  30.430  1.00  0.00     0.059 A 
ATOM     92  F   UNL A   1      35.273  31.378  31.828  1.00  0.00    -0.206 F 
ATOM     93  C   UNL A   1      34.638  34.107  29.547  1.00  0.00     0.060 A 
BRANCH  93  94
ATOM     94  S   UNL A   1      33.246  34.993  28.814  1.00  0.00     0.124 S 
ATOM     95  O   UNL A   1      32.665  33.969  27.955  1.00  0.00    -0.237 OA
ATOM     96  O   UNL A   1      32.465  35.361  29.990  1.00  0.00    -0.237 OA
ATOM     97  O   UNL A   1      33.887  36.109  28.122  1.00  0.00    -0.744 OA
ENDBRANCH  93  94
ENDBRANCH  61  86
BRANCH  73  98
ATOM     98  C   UNL A   1      40.096  33.096  36.794  1.00  0.00     0.058 A 
ATOM     99  C   UNL A   1      39.138  32.829  37.783  1.00  0.00     0.135 A 
ATOM    100  C   UNL A   1      40.924  34.217  36.971  1.00  0.00     0.135 A 
ATOM    101  F   UNL A   1      38.319  31.771  37.664  1.00  0.00    -0.206 F 
ATOM    102  C   UNL A   1      38.981  33.662  38.887  1.00  0.00     0.059 A 
ATOM    103  C   UNL A   1      40.808  35.044  38.084  1.00  0.00     0.059 A 
ATOM    104  F   UNL A   1      41.870  34.512  36.065  1.00  0.00    -0.206 F 
ATOM    105  C   UNL A   1      39.820  34.768  39.028  1.00  0.00     0.060 A 
BRANCH 105 106
ATOM    106  S   UNL A   1      39.614  35.835  40.470  1.00  0.00     0.124 S 
ATOM    107  O   UNL A   1      38.886  36.963  39.899  1.00  0.00    -0.237 OA
ATOM    108  O   UNL A   1      38.854  34.985  41.380  1.00  0.00    -0.237 OA
ATOM    109  O   UNL A   1      40.985  36.117  40.884  1.00  0.00    -0.744 OA
ENDBRANCH 105 106
ENDBRANCH  73  98
ENDBRANCH  47  48
ENDBRANCH  40  42
ENDBRANCH  39  40
ENDBRANCH  38  39
ENDBRANCH  37  38
ENDBRANCH  36  37
ENDBRANCH  35  36
ENDBRANCH  34  35
ENDBRANCH   1  34
TORSDOF 29
ENDMDL
