MODEL 1
REMARK VINA RESULT:      -7.1      0.000      0.000
REMARK SMILES COc1ccccc1[C@@H]1CN(C(=O)c2cc(C(C)C)nc(N)n2)C[C@H]1C(=O)OCCOCCOCCOCCOC(=O)c1ccc(-c2c3nc(c(-c4c(F)cc(S(=O)(=O)[O-])cc4F)c4ccc([nH]4)c(-c4c(F)cc(S(=O)(=O)[O-])cc4F)c4nc(c(-c5c(F)cc(S(=O)(=O)[O-])cc5F)c5ccc2[nH]5)C=C4)C=C3)cc1
REMARK SMILES IDX 34 1 33 2 32 3 31 4 30 5 29 6 28 7 26 8 27 9 25 10 9 11
REMARK SMILES IDX 10 12 11 13 24 14 8 15 3 16 4 17 5 18 7 19 6 20 2 21 1 22
REMARK SMILES IDX 12 23 13 24 14 25 15 26 23 27 16 28 21 29 20 30 17 31 18 32
REMARK SMILES IDX 19 33 22 34 35 37 36 38 37 39 38 40 39 41 40 42 41 43 42 44
REMARK SMILES IDX 43 45 44 46 108 47 45 48 107 49 46 50 47 51 48 52 101 53
REMARK SMILES IDX 49 54 106 55 100 56 102 57 50 58 105 59 99 60 98 61 51 63
REMARK SMILES IDX 85 64 64 65 84 66 65 67 68 68 83 69 103 70 66 71 67 72 82 74
REMARK SMILES IDX 104 75 69 76 52 77 53 78 62 79 54 80 55 81 61 82 63 83 56 84
REMARK SMILES IDX 57 85 58 86 59 87 60 88 86 89 87 90 96 91 88 92 89 93 95 94
REMARK SMILES IDX 97 95 90 96 91 97 92 98 93 99 94 100 70 101 71 102 80 103
REMARK SMILES IDX 72 104 73 105 79 106 81 107 74 108 75 109 76 110 77 111
REMARK SMILES IDX 78 112
REMARK H PARENT 22 35 22 36 102 62 68 73
REMARK Flexibility Score: inf
ROOT
ATOM      1  O   UNL A   1      36.014  33.413  35.296  1.00  0.00    -0.377 OA
ENDROOT
BRANCH   1   2
ATOM      2  C   UNL A   1      37.237  32.717  35.206  1.00  0.00     0.188 C 
BRANCH   2   3
ATOM      3  C   UNL A   1      38.058  32.576  36.490  1.00  0.00     0.188 C 
BRANCH   3   4
ATOM      4  O   UNL A   1      39.468  32.472  36.440  1.00  0.00    -0.376 OA
BRANCH   4   5
ATOM      5  C   UNL A   1      40.113  31.772  35.386  1.00  0.00     0.202 C 
BRANCH   5   6
ATOM      6  C   UNL A   1      39.957  30.255  35.151  1.00  0.00     0.261 C 
BRANCH   6   7
ATOM      7  O   UNL A   1      41.111  29.517  34.682  1.00  0.00    -0.463 OA
BRANCH   7   8
ATOM      8  C   UNL A   1      41.696  28.724  35.600  1.00  0.00     0.311 C 
ATOM      9  O   UNL A   1      41.102  28.260  36.574  1.00  0.00    -0.252 OA
BRANCH   8  10
ATOM     10  C   UNL A   1      43.177  28.446  35.436  1.00  0.00     0.128 C 
ATOM     11  C   UNL A   1      43.879  27.264  34.706  1.00  0.00     0.058 C 
ATOM     12  C   UNL A   1      45.153  27.901  34.155  1.00  0.00     0.129 C 
ATOM     13  N   UNL A   1      44.775  29.267  33.878  1.00  0.00    -0.336 N 
ATOM     14  C   UNL A   1      43.729  29.704  34.770  1.00  0.00     0.136 C 
BRANCH  11  15
ATOM     15  C   UNL A   1      44.293  25.973  35.430  1.00  0.00    -0.000 A 
ATOM     16  C   UNL A   1      44.389  24.679  34.881  1.00  0.00     0.122 A 
ATOM     17  C   UNL A   1      44.894  23.612  35.648  1.00  0.00     0.047 A 
ATOM     18  C   UNL A   1      45.183  23.774  37.002  1.00  0.00     0.004 A 
ATOM     19  C   UNL A   1      44.509  26.082  36.826  1.00  0.00     0.008 A 
ATOM     20  C   UNL A   1      44.924  24.995  37.603  1.00  0.00     0.001 A 
BRANCH  16  21
ATOM     21  O   UNL A   1      43.651  24.283  33.793  1.00  0.00    -0.496 OA
ATOM     22  C   UNL A   1      44.357  23.709  32.707  1.00  0.00     0.278 C 
ENDBRANCH  16  21
ENDBRANCH  11  15
BRANCH  13  23
ATOM     23  C   UNL A   1      45.392  30.172  33.032  1.00  0.00     0.272 C 
ATOM     24  O   UNL A   1      46.062  29.824  32.064  1.00  0.00    -0.267 OA
BRANCH  23  25
ATOM     25  C   UNL A   1      45.229  31.615  33.334  1.00  0.00     0.134 A 
ATOM     26  C   UNL A   1      44.209  32.318  32.732  1.00  0.00     0.058 A 
ATOM     27  N   UNL A   1      46.148  32.149  34.157  1.00  0.00    -0.208 NA
ATOM     28  C   UNL A   1      44.215  33.673  32.960  1.00  0.00     0.049 A 
ATOM     29  C   UNL A   1      46.032  33.452  34.364  1.00  0.00     0.220 A 
ATOM     30  N   UNL A   1      45.123  34.245  33.783  1.00  0.00    -0.218 NA
BRANCH  28  31
ATOM     31  C   UNL A   1      43.247  34.601  32.252  1.00  0.00     0.032 C 
ATOM     32  C   UNL A   1      41.804  34.112  32.416  1.00  0.00     0.014 C 
ATOM     33  C   UNL A   1      43.386  36.051  32.720  1.00  0.00     0.014 C 
ENDBRANCH  28  31
BRANCH  29  34
ATOM     34  N   UNL A   1      46.901  34.017  35.255  1.00  0.00    -0.368 N 
ATOM     35  H   UNL A   1      46.569  34.366  36.113  1.00  0.00     0.159 HD
ATOM     36  H   UNL A   1      47.859  34.076  35.038  1.00  0.00     0.159 HD
ENDBRANCH  29  34
ENDBRANCH  23  25
ENDBRANCH  13  23
ENDBRANCH   8  10
ENDBRANCH   7   8
ENDBRANCH   6   7
ENDBRANCH   5   6
ENDBRANCH   4   5
ENDBRANCH   3   4
ENDBRANCH   2   3
ENDBRANCH   1   2
BRANCH   1  37
ATOM     37  C   UNL A   1      35.598  34.204  34.195  1.00  0.00     0.188 C 
BRANCH  37  38
ATOM     38  C   UNL A   1      34.444  33.697  33.315  1.00  0.00     0.188 C 
BRANCH  38  39
ATOM     39  O   UNL A   1      34.297  34.400  32.089  1.00  0.00    -0.376 OA
BRANCH  39  40
ATOM     40  C   UNL A   1      34.528  33.705  30.872  1.00  0.00     0.202 C 
BRANCH  40  41
ATOM     41  C   UNL A   1      35.978  33.357  30.505  1.00  0.00     0.261 C 
BRANCH  41  42
ATOM     42  O   UNL A   1      36.281  31.980  30.245  1.00  0.00    -0.460 OA
BRANCH  42  43
ATOM     43  C   UNL A   1      36.870  31.264  31.223  1.00  0.00     0.338 C 
ATOM     44  O   UNL A   1      36.409  31.001  32.321  1.00  0.00    -0.246 OA
BRANCH  43  45
ATOM     45  C   UNL A   1      38.095  30.667  30.652  1.00  0.00     0.060 A 
ATOM     46  C   UNL A   1      39.083  30.191  31.524  1.00  0.00     0.016 A 
ATOM     47  C   UNL A   1      38.261  30.563  29.268  1.00  0.00     0.016 A 
ATOM     48  C   UNL A   1      40.262  29.653  31.013  1.00  0.00     0.010 A 
ATOM     49  C   UNL A   1      39.452  30.043  28.758  1.00  0.00     0.010 A 
ATOM     50  C   UNL A   1      40.474  29.625  29.629  1.00  0.00    -0.014 A 
BRANCH  50  51
ATOM     51  C   UNL A   1      41.838  29.375  29.107  1.00  0.00     0.031 A 
ATOM     52  C   UNL A   1      42.159  27.993  28.607  1.00  0.00     0.074 A 
ATOM     53  C   UNL A   1      42.757  30.355  29.049  1.00  0.00     0.049 A 
ATOM     54  N   UNL A   1      43.280  27.521  28.128  1.00  0.00    -0.248 NA
ATOM     55  C   UNL A   1      41.065  27.009  28.658  1.00  0.00     0.031 C 
ATOM     56  C   UNL A   1      42.544  31.741  29.460  1.00  0.00     0.029 A 
ATOM     57  N   UNL A   1      44.060  30.326  28.618  1.00  0.00    -0.354 N 
ATOM     58  C   UNL A   1      43.030  26.186  27.832  1.00  0.00     0.074 A 
ATOM     59  C   UNL A   1      41.663  25.914  28.216  1.00  0.00     0.031 C 
ATOM     60  C   UNL A   1      43.682  32.431  29.267  1.00  0.00     0.029 A 
ATOM     61  C   UNL A   1      44.710  31.529  28.751  1.00  0.00     0.049 A 
ATOM     62  H   UNL A   1      44.488  29.520  28.249  1.00  0.00     0.167 HD
ATOM     63  C   UNL A   1      43.863  25.271  27.283  1.00  0.00     0.037 A 
ATOM     64  C   UNL A   1      45.996  31.855  28.501  1.00  0.00     0.037 A 
ATOM     65  C   UNL A   1      45.224  25.553  26.909  1.00  0.00     0.049 A 
ATOM     66  C   UNL A   1      46.928  30.801  27.958  1.00  0.00     0.074 A 
ATOM     67  C   UNL A   1      46.149  24.707  26.324  1.00  0.00     0.029 A 
ATOM     68  N   UNL A   1      45.860  26.773  27.095  1.00  0.00    -0.354 N 
ATOM     69  N   UNL A   1      46.674  29.549  27.656  1.00  0.00    -0.248 NA
ATOM     70  C   UNL A   1      48.321  31.204  27.721  1.00  0.00     0.031 C 
ATOM     71  C   UNL A   1      47.362  25.394  26.219  1.00  0.00     0.029 A 
ATOM     72  C   UNL A   1      47.175  26.691  26.671  1.00  0.00     0.049 A 
ATOM     73  H   UNL A   1      45.438  27.577  27.474  1.00  0.00     0.167 HD
ATOM     74  C   UNL A   1      47.865  29.026  27.162  1.00  0.00     0.074 A 
ATOM     75  C   UNL A   1      48.837  30.099  27.199  1.00  0.00     0.031 C 
ATOM     76  C   UNL A   1      48.129  27.773  26.712  1.00  0.00     0.037 A 
BRANCH  63  77
ATOM     77  C   UNL A   1      43.339  23.872  27.099  1.00  0.00     0.058 A 
ATOM     78  C   UNL A   1      43.192  22.982  28.177  1.00  0.00     0.135 A 
ATOM     79  C   UNL A   1      42.968  23.419  25.823  1.00  0.00     0.135 A 
ATOM     80  F   UNL A   1      43.550  23.354  29.416  1.00  0.00    -0.206 F 
ATOM     81  C   UNL A   1      42.730  21.683  27.988  1.00  0.00     0.059 A 
ATOM     82  C   UNL A   1      42.473  22.135  25.617  1.00  0.00     0.059 A 
ATOM     83  F   UNL A   1      43.093  24.224  24.757  1.00  0.00    -0.206 F 
ATOM     84  C   UNL A   1      42.375  21.269  26.704  1.00  0.00     0.060 A 
BRANCH  84  85
ATOM     85  S   UNL A   1      41.786  19.577  26.475  1.00  0.00     0.124 S 
ATOM     86  O   UNL A   1      42.306  18.924  27.674  1.00  0.00    -0.237 OA
ATOM     87  O   UNL A   1      40.340  19.755  26.427  1.00  0.00    -0.237 OA
ATOM     88  O   UNL A   1      42.408  19.167  25.220  1.00  0.00    -0.744 OA
ENDBRANCH  84  85
ENDBRANCH  63  77
BRANCH  64  89
ATOM     89  C   UNL A   1      46.474  33.241  28.758  1.00  0.00     0.058 A 
ATOM     90  C   UNL A   1      46.963  33.617  30.017  1.00  0.00     0.135 A 
ATOM     91  C   UNL A   1      46.462  34.215  27.746  1.00  0.00     0.135 A 
ATOM     92  F   UNL A   1      46.982  32.728  31.022  1.00  0.00    -0.206 F 
ATOM     93  C   UNL A   1      47.415  34.908  30.269  1.00  0.00     0.059 A 
ATOM     94  C   UNL A   1      46.936  35.504  27.965  1.00  0.00     0.059 A 
ATOM     95  F   UNL A   1      46.011  33.904  26.520  1.00  0.00    -0.206 F 
ATOM     96  C   UNL A   1      47.404  35.843  29.232  1.00  0.00     0.060 A 
BRANCH  96  97
ATOM     97  S   UNL A   1      48.056  37.496  29.555  1.00  0.00     0.124 S 
ATOM     98  O   UNL A   1      47.887  38.138  28.256  1.00  0.00    -0.237 OA
ATOM     99  O   UNL A   1      47.175  37.966  30.620  1.00  0.00    -0.237 OA
ATOM    100  O   UNL A   1      49.436  37.241  29.958  1.00  0.00    -0.744 OA
ENDBRANCH  96  97
ENDBRANCH  64  89
BRANCH  76 101
ATOM    101  C   UNL A   1      49.514  27.498  26.184  1.00  0.00     0.058 A 
ATOM    102  C   UNL A   1      49.816  27.568  24.816  1.00  0.00     0.135 A 
ATOM    103  C   UNL A   1      50.567  27.224  27.073  1.00  0.00     0.135 A 
ATOM    104  F   UNL A   1      48.846  27.823  23.921  1.00  0.00    -0.206 F 
ATOM    105  C   UNL A   1      51.106  27.348  24.344  1.00  0.00     0.059 A 
ATOM    106  C   UNL A   1      51.871  27.034  26.627  1.00  0.00     0.059 A 
ATOM    107  F   UNL A   1      50.338  27.160  28.395  1.00  0.00    -0.206 F 
ATOM    108  C   UNL A   1      52.129  27.086  25.258  1.00  0.00     0.060 A 
BRANCH 108 109
ATOM    109  S   UNL A   1      53.804  26.838  24.635  1.00  0.00     0.124 S 
ATOM    110  O   UNL A   1      53.596  25.793  23.639  1.00  0.00    -0.237 OA
ATOM    111  O   UNL A   1      54.138  28.158  24.110  1.00  0.00    -0.237 OA
ATOM    112  O   UNL A   1      54.553  26.435  25.822  1.00  0.00    -0.744 OA
ENDBRANCH 108 109
ENDBRANCH  76 101
ENDBRANCH  50  51
ENDBRANCH  43  45
ENDBRANCH  42  43
ENDBRANCH  41  42
ENDBRANCH  40  41
ENDBRANCH  39  40
ENDBRANCH  38  39
ENDBRANCH  37  38
ENDBRANCH   1  37
TORSDOF 29
ENDMDL
MODEL 2
REMARK VINA RESULT:      -7.1      7.353     14.992
REMARK SMILES COc1ccccc1[C@@H]1CN(C(=O)c2cc(C(C)C)nc(N)n2)C[C@H]1C(=O)OCCOCCOCCOCCOC(=O)c1ccc(-c2c3nc(c(-c4c(F)cc(S(=O)(=O)[O-])cc4F)c4ccc([nH]4)c(-c4c(F)cc(S(=O)(=O)[O-])cc4F)c4nc(c(-c5c(F)cc(S(=O)(=O)[O-])cc5F)c5ccc2[nH]5)C=C4)C=C3)cc1
REMARK SMILES IDX 34 1 33 2 32 3 31 4 30 5 29 6 28 7 26 8 27 9 25 10 9 11
REMARK SMILES IDX 10 12 11 13 24 14 8 15 3 16 4 17 5 18 7 19 6 20 2 21 1 22
REMARK SMILES IDX 12 23 13 24 14 25 15 26 23 27 16 28 21 29 20 30 17 31 18 32
REMARK SMILES IDX 19 33 22 34 35 37 36 38 37 39 38 40 39 41 40 42 41 43 42 44
REMARK SMILES IDX 43 45 44 46 108 47 45 48 107 49 46 50 47 51 48 52 101 53
REMARK SMILES IDX 49 54 106 55 100 56 102 57 50 58 105 59 99 60 98 61 51 63
REMARK SMILES IDX 85 64 64 65 84 66 65 67 68 68 83 69 103 70 66 71 67 72 82 74
REMARK SMILES IDX 104 75 69 76 52 77 53 78 62 79 54 80 55 81 61 82 63 83 56 84
REMARK SMILES IDX 57 85 58 86 59 87 60 88 86 89 87 90 96 91 88 92 89 93 95 94
REMARK SMILES IDX 97 95 90 96 91 97 92 98 93 99 94 100 70 101 71 102 80 103
REMARK SMILES IDX 72 104 73 105 79 106 81 107 74 108 75 109 76 110 77 111
REMARK SMILES IDX 78 112
REMARK H PARENT 22 35 22 36 102 62 68 73
REMARK Flexibility Score: inf
ROOT
ATOM      1  O   UNL A   1      42.701  23.055  27.118  1.00  0.00    -0.377 OA
ENDROOT
BRANCH   1   2
ATOM      2  C   UNL A   1      41.487  23.422  26.500  1.00  0.00     0.188 C 
BRANCH   2   3
ATOM      3  C   UNL A   1      40.472  24.188  27.353  1.00  0.00     0.188 C 
BRANCH   3   4
ATOM      4  O   UNL A   1      39.129  23.755  27.442  1.00  0.00    -0.376 OA
BRANCH   4   5
ATOM      5  C   UNL A   1      38.401  23.381  26.281  1.00  0.00     0.202 C 
BRANCH   5   6
ATOM      6  C   UNL A   1      36.969  23.869  25.980  1.00  0.00     0.261 C 
BRANCH   6   7
ATOM      7  O   UNL A   1      35.917  22.879  25.898  1.00  0.00    -0.463 OA
BRANCH   7   8
ATOM      8  C   UNL A   1      35.394  22.698  24.669  1.00  0.00     0.311 C 
ATOM      9  O   UNL A   1      36.004  22.946  23.629  1.00  0.00    -0.252 OA
BRANCH   8  10
ATOM     10  C   UNL A   1      33.959  22.216  24.589  1.00  0.00     0.128 C 
ATOM     11  C   UNL A   1      33.305  20.966  25.247  1.00  0.00     0.058 C 
ATOM     12  C   UNL A   1      31.878  21.428  25.535  1.00  0.00     0.129 C 
ATOM     13  N   UNL A   1      32.012  22.842  25.801  1.00  0.00    -0.336 N 
ATOM     14  C   UNL A   1      33.131  23.400  25.082  1.00  0.00     0.136 C 
BRANCH  11  15
ATOM     15  C   UNL A   1      33.207  19.610  24.530  1.00  0.00    -0.000 A 
ATOM     16  C   UNL A   1      32.675  19.356  23.252  1.00  0.00     0.122 A 
ATOM     17  C   UNL A   1      32.759  18.070  22.683  1.00  0.00     0.047 A 
ATOM     18  C   UNL A   1      33.246  16.991  23.417  1.00  0.00     0.004 A 
ATOM     19  C   UNL A   1      33.611  18.477  25.280  1.00  0.00     0.008 A 
ATOM     20  C   UNL A   1      33.607  17.186  24.740  1.00  0.00     0.001 A 
BRANCH  16  21
ATOM     21  O   UNL A   1      31.717  20.156  22.679  1.00  0.00    -0.496 OA
ATOM     22  C   UNL A   1      32.166  21.308  21.987  1.00  0.00     0.278 C 
ENDBRANCH  16  21
ENDBRANCH  11  15
BRANCH  13  23
ATOM     23  C   UNL A   1      31.136  23.671  26.480  1.00  0.00     0.272 C 
ATOM     24  O   UNL A   1      30.458  23.287  27.427  1.00  0.00    -0.267 OA
BRANCH  23  25
ATOM     25  C   UNL A   1      31.025  25.076  26.018  1.00  0.00     0.134 A 
ATOM     26  C   UNL A   1      30.557  25.333  24.748  1.00  0.00     0.058 A 
ATOM     27  N   UNL A   1      31.451  26.013  26.883  1.00  0.00    -0.208 NA
ATOM     28  C   UNL A   1      30.616  26.648  24.354  1.00  0.00     0.049 A 
ATOM     29  C   UNL A   1      31.411  27.259  26.433  1.00  0.00     0.220 A 
ATOM     30  N   UNL A   1      31.036  27.618  25.198  1.00  0.00    -0.218 NA
BRANCH  28  31
ATOM     31  C   UNL A   1      30.274  27.069  22.939  1.00  0.00     0.032 C 
ATOM     32  C   UNL A   1      29.956  28.568  22.876  1.00  0.00     0.014 C 
ATOM     33  C   UNL A   1      31.377  26.706  21.943  1.00  0.00     0.014 C 
ENDBRANCH  28  31
BRANCH  29  34
ATOM     34  N   UNL A   1      31.763  28.246  27.310  1.00  0.00    -0.368 N 
ATOM     35  H   UNL A   1      31.792  29.183  27.010  1.00  0.00     0.159 HD
ATOM     36  H   UNL A   1      31.988  28.019  28.241  1.00  0.00     0.159 HD
ENDBRANCH  29  34
ENDBRANCH  23  25
ENDBRANCH  13  23
ENDBRANCH   8  10
ENDBRANCH   7   8
ENDBRANCH   6   7
ENDBRANCH   5   6
ENDBRANCH   4   5
ENDBRANCH   3   4
ENDBRANCH   2   3
ENDBRANCH   1   2
BRANCH   1  37
ATOM     37  C   UNL A   1      43.582  24.079  27.551  1.00  0.00     0.188 C 
BRANCH  37  38
ATOM     38  C   UNL A   1      44.811  23.693  28.388  1.00  0.00     0.188 C 
BRANCH  38  39
ATOM     39  O   UNL A   1      44.498  23.069  29.626  1.00  0.00    -0.376 OA
BRANCH  39  40
ATOM     40  C   UNL A   1      44.151  23.887  30.733  1.00  0.00     0.202 C 
BRANCH  40  41
ATOM     41  C   UNL A   1      44.336  23.308  32.144  1.00  0.00     0.261 C 
BRANCH  41  42
ATOM     42  O   UNL A   1      43.264  23.491  33.078  1.00  0.00    -0.460 OA
BRANCH  42  43
ATOM     43  C   UNL A   1      43.576  23.665  34.378  1.00  0.00     0.338 C 
ATOM     44  O   UNL A   1      44.164  22.880  35.103  1.00  0.00    -0.246 OA
BRANCH  43  45
ATOM     45  C   UNL A   1      43.269  25.069  34.719  1.00  0.00     0.060 A 
ATOM     46  C   UNL A   1      44.008  26.089  34.107  1.00  0.00     0.016 A 
ATOM     47  C   UNL A   1      42.250  25.377  35.625  1.00  0.00     0.016 A 
ATOM     48  C   UNL A   1      43.762  27.421  34.435  1.00  0.00     0.010 A 
ATOM     49  C   UNL A   1      42.019  26.711  35.969  1.00  0.00     0.010 A 
ATOM     50  C   UNL A   1      42.802  27.734  35.406  1.00  0.00    -0.014 A 
BRANCH  50  51
ATOM     51  C   UNL A   1      42.779  29.095  35.993  1.00  0.00     0.031 A 
ATOM     52  C   UNL A   1      41.729  30.055  35.503  1.00  0.00     0.074 A 
ATOM     53  C   UNL A   1      43.644  29.458  36.955  1.00  0.00     0.049 A 
ATOM     54  N   UNL A   1      41.519  31.300  35.840  1.00  0.00    -0.248 NA
ATOM     55  C   UNL A   1      40.792  29.539  34.491  1.00  0.00     0.031 C 
ATOM     56  C   UNL A   1      44.671  28.597  37.540  1.00  0.00     0.029 A 
ATOM     57  N   UNL A   1      43.793  30.655  37.610  1.00  0.00    -0.354 N 
ATOM     58  C   UNL A   1      40.436  31.718  35.077  1.00  0.00     0.074 A 
ATOM     59  C   UNL A   1      40.054  30.607  34.235  1.00  0.00     0.031 C 
ATOM     60  C   UNL A   1      45.350  29.299  38.465  1.00  0.00     0.029 A 
ATOM     61  C   UNL A   1      44.828  30.664  38.513  1.00  0.00     0.049 A 
ATOM     62  H   UNL A   1      43.213  31.434  37.447  1.00  0.00     0.167 HD
ATOM     63  C   UNL A   1      39.811  32.920  35.082  1.00  0.00     0.037 A 
ATOM     64  C   UNL A   1      45.308  31.668  39.276  1.00  0.00     0.037 A 
ATOM     65  C   UNL A   1      40.202  34.020  35.923  1.00  0.00     0.049 A 
ATOM     66  C   UNL A   1      44.644  33.020  39.213  1.00  0.00     0.074 A 
ATOM     67  C   UNL A   1      39.625  35.273  36.025  1.00  0.00     0.029 A 
ATOM     68  N   UNL A   1      41.281  34.004  36.797  1.00  0.00    -0.354 N 
ATOM     69  N   UNL A   1      43.602  33.397  38.508  1.00  0.00    -0.248 NA
ATOM     70  C   UNL A   1      45.217  34.083  40.051  1.00  0.00     0.031 C 
ATOM     71  C   UNL A   1      40.394  36.035  36.910  1.00  0.00     0.029 A 
ATOM     72  C   UNL A   1      41.408  35.236  37.414  1.00  0.00     0.049 A 
ATOM     73  H   UNL A   1      41.870  33.231  36.953  1.00  0.00     0.167 HD
ATOM     74  C   UNL A   1      43.376  34.729  38.843  1.00  0.00     0.074 A 
ATOM     75  C   UNL A   1      44.385  35.089  39.818  1.00  0.00     0.031 C 
ATOM     76  C   UNL A   1      42.418  35.576  38.389  1.00  0.00     0.037 A 
BRANCH  63  77
ATOM     77  C   UNL A   1      38.671  33.117  34.119  1.00  0.00     0.058 A 
ATOM     78  C   UNL A   1      38.867  33.623  32.824  1.00  0.00     0.135 A 
ATOM     79  C   UNL A   1      37.360  32.784  34.498  1.00  0.00     0.135 A 
ATOM     80  F   UNL A   1      40.095  33.979  32.414  1.00  0.00    -0.206 F 
ATOM     81  C   UNL A   1      37.800  33.825  31.953  1.00  0.00     0.059 A 
ATOM     82  C   UNL A   1      36.284  32.945  33.632  1.00  0.00     0.059 A 
ATOM     83  F   UNL A   1      37.114  32.301  35.726  1.00  0.00    -0.206 F 
ATOM     84  C   UNL A   1      36.512  33.484  32.367  1.00  0.00     0.060 A 
BRANCH  84  85
ATOM     85  S   UNL A   1      35.138  33.761  31.229  1.00  0.00     0.124 S 
ATOM     86  O   UNL A   1      34.457  34.885  31.864  1.00  0.00    -0.237 OA
ATOM     87  O   UNL A   1      35.827  34.061  29.979  1.00  0.00    -0.237 OA
ATOM     88  O   UNL A   1      34.414  32.494  31.255  1.00  0.00    -0.744 OA
ENDBRANCH  84  85
ENDBRANCH  63  77
BRANCH  64  89
ATOM     89  C   UNL A   1      46.477  31.431  40.167  1.00  0.00     0.058 A 
ATOM     90  C   UNL A   1      46.302  31.040  41.503  1.00  0.00     0.135 A 
ATOM     91  C   UNL A   1      47.792  31.582  39.699  1.00  0.00     0.135 A 
ATOM     92  F   UNL A   1      45.065  30.897  42.004  1.00  0.00    -0.206 F 
ATOM     93  C   UNL A   1      47.386  30.814  42.345  1.00  0.00     0.059 A 
ATOM     94  C   UNL A   1      48.892  31.334  40.513  1.00  0.00     0.059 A 
ATOM     95  F   UNL A   1      48.015  31.947  38.427  1.00  0.00    -0.206 F 
ATOM     96  C   UNL A   1      48.678  30.956  41.837  1.00  0.00     0.060 A 
BRANCH  96  97
ATOM     97  S   UNL A   1      50.076  30.595  42.923  1.00  0.00     0.124 S 
ATOM     98  O   UNL A   1      49.437  29.820  43.978  1.00  0.00    -0.237 OA
ATOM     99  O   UNL A   1      50.965  29.854  42.033  1.00  0.00    -0.237 OA
ATOM    100  O   UNL A   1      50.551  31.920  43.311  1.00  0.00    -0.744 OA
ENDBRANCH  96  97
ENDBRANCH  64  89
BRANCH  76 101
ATOM    101  C   UNL A   1      42.383  36.966  38.968  1.00  0.00     0.058 A 
ATOM    102  C   UNL A   1      43.207  37.994  38.485  1.00  0.00     0.135 A 
ATOM    103  C   UNL A   1      41.464  37.287  39.981  1.00  0.00     0.135 A 
ATOM    104  F   UNL A   1      44.107  37.743  37.520  1.00  0.00    -0.206 F 
ATOM    105  C   UNL A   1      43.140  39.284  39.004  1.00  0.00     0.059 A 
ATOM    106  C   UNL A   1      41.357  38.577  40.492  1.00  0.00     0.059 A 
ATOM    107  F   UNL A   1      40.641  36.346  40.472  1.00  0.00    -0.206 F 
ATOM    108  C   UNL A   1      42.208  39.566  40.005  1.00  0.00     0.060 A 
BRANCH 108 109
ATOM    109  S   UNL A   1      42.109  41.251  40.643  1.00  0.00     0.124 S 
ATOM    110  O   UNL A   1      41.487  41.037  41.945  1.00  0.00    -0.237 OA
ATOM    111  O   UNL A   1      43.511  41.657  40.668  1.00  0.00    -0.237 OA
ATOM    112  O   UNL A   1      41.281  41.941  39.658  1.00  0.00    -0.744 OA
ENDBRANCH 108 109
ENDBRANCH  76 101
ENDBRANCH  50  51
ENDBRANCH  43  45
ENDBRANCH  42  43
ENDBRANCH  41  42
ENDBRANCH  40  41
ENDBRANCH  39  40
ENDBRANCH  38  39
ENDBRANCH  37  38
ENDBRANCH   1  37
TORSDOF 29
ENDMDL
MODEL 3
REMARK VINA RESULT:      -6.3      1.602      4.047
REMARK SMILES COc1ccccc1[C@@H]1CN(C(=O)c2cc(C(C)C)nc(N)n2)C[C@H]1C(=O)OCCOCCOCCOCCOC(=O)c1ccc(-c2c3nc(c(-c4c(F)cc(S(=O)(=O)[O-])cc4F)c4ccc([nH]4)c(-c4c(F)cc(S(=O)(=O)[O-])cc4F)c4nc(c(-c5c(F)cc(S(=O)(=O)[O-])cc5F)c5ccc2[nH]5)C=C4)C=C3)cc1
REMARK SMILES IDX 34 1 33 2 32 3 31 4 30 5 29 6 28 7 26 8 27 9 25 10 9 11
REMARK SMILES IDX 10 12 11 13 24 14 8 15 3 16 4 17 5 18 7 19 6 20 2 21 1 22
REMARK SMILES IDX 12 23 13 24 14 25 15 26 23 27 16 28 21 29 20 30 17 31 18 32
REMARK SMILES IDX 19 33 22 34 35 37 36 38 37 39 38 40 39 41 40 42 41 43 42 44
REMARK SMILES IDX 43 45 44 46 108 47 45 48 107 49 46 50 47 51 48 52 101 53
REMARK SMILES IDX 49 54 106 55 100 56 102 57 50 58 105 59 99 60 98 61 51 63
REMARK SMILES IDX 85 64 64 65 84 66 65 67 68 68 83 69 103 70 66 71 67 72 82 74
REMARK SMILES IDX 104 75 69 76 52 77 53 78 62 79 54 80 55 81 61 82 63 83 56 84
REMARK SMILES IDX 57 85 58 86 59 87 60 88 86 89 87 90 96 91 88 92 89 93 95 94
REMARK SMILES IDX 97 95 90 96 91 97 92 98 93 99 94 100 70 101 71 102 80 103
REMARK SMILES IDX 72 104 73 105 79 106 81 107 74 108 75 109 76 110 77 111
REMARK SMILES IDX 78 112
REMARK H PARENT 22 35 22 36 102 62 68 73
REMARK Flexibility Score: inf
ROOT
ATOM      1  O   UNL A   1      35.924  33.480  35.291  1.00  0.00    -0.377 OA
ENDROOT
BRANCH   1   2
ATOM      2  C   UNL A   1      37.101  32.706  35.215  1.00  0.00     0.188 C 
BRANCH   2   3
ATOM      3  C   UNL A   1      38.018  32.706  36.440  1.00  0.00     0.188 C 
BRANCH   3   4
ATOM      4  O   UNL A   1      39.412  32.515  36.300  1.00  0.00    -0.376 OA
BRANCH   4   5
ATOM      5  C   UNL A   1      39.940  31.692  35.269  1.00  0.00     0.202 C 
BRANCH   5   6
ATOM      6  C   UNL A   1      39.730  30.164  35.209  1.00  0.00     0.261 C 
BRANCH   6   7
ATOM      7  O   UNL A   1      40.720  29.370  34.513  1.00  0.00    -0.463 OA
BRANCH   7   8
ATOM      8  C   UNL A   1      41.556  28.673  35.306  1.00  0.00     0.311 C 
ATOM      9  O   UNL A   1      41.286  27.565  35.770  1.00  0.00    -0.252 OA
BRANCH   8  10
ATOM     10  C   UNL A   1      42.871  29.330  35.677  1.00  0.00     0.128 C 
ATOM     11  C   UNL A   1      43.215  30.204  36.919  1.00  0.00     0.058 C 
ATOM     12  C   UNL A   1      44.679  29.863  37.191  1.00  0.00     0.129 C 
ATOM     13  N   UNL A   1      44.805  28.486  36.773  1.00  0.00    -0.336 N 
ATOM     14  C   UNL A   1      43.875  28.181  35.714  1.00  0.00     0.136 C 
BRANCH  11  15
ATOM     15  C   UNL A   1      43.100  31.737  36.909  1.00  0.00    -0.000 A 
ATOM     16  C   UNL A   1      42.611  32.564  37.939  1.00  0.00     0.122 A 
ATOM     17  C   UNL A   1      42.675  33.966  37.824  1.00  0.00     0.047 A 
ATOM     18  C   UNL A   1      43.095  34.570  36.641  1.00  0.00     0.004 A 
ATOM     19  C   UNL A   1      43.436  32.380  35.692  1.00  0.00     0.008 A 
ATOM     20  C   UNL A   1      43.410  33.772  35.552  1.00  0.00     0.001 A 
BRANCH  16  21
ATOM     21  O   UNL A   1      41.704  32.122  38.871  1.00  0.00    -0.496 OA
ATOM     22  C   UNL A   1      42.039  32.302  40.235  1.00  0.00     0.278 C 
ENDBRANCH  16  21
ENDBRANCH  11  15
BRANCH  13  23
ATOM     23  C   UNL A   1      45.772  27.566  37.139  1.00  0.00     0.272 C 
ATOM     24  O   UNL A   1      46.496  27.719  38.118  1.00  0.00    -0.267 OA
BRANCH  23  25
ATOM     25  C   UNL A   1      45.924  26.358  36.292  1.00  0.00     0.134 A 
ATOM     26  C   UNL A   1      44.906  25.432  36.249  1.00  0.00     0.058 A 
ATOM     27  N   UNL A   1      47.101  26.236  35.653  1.00  0.00    -0.208 NA
ATOM     28  C   UNL A   1      45.185  24.282  35.550  1.00  0.00     0.049 A 
ATOM     29  C   UNL A   1      47.251  25.120  34.954  1.00  0.00     0.220 A 
ATOM     30  N   UNL A   1      46.357  24.125  34.894  1.00  0.00    -0.218 NA
BRANCH  28  31
ATOM     31  C   UNL A   1      44.224  23.110  35.533  1.00  0.00     0.032 C 
ATOM     32  C   UNL A   1      42.816  23.565  35.131  1.00  0.00     0.014 C 
ATOM     33  C   UNL A   1      44.707  21.976  34.629  1.00  0.00     0.014 C 
ENDBRANCH  28  31
BRANCH  29  34
ATOM     34  N   UNL A   1      48.403  24.993  34.229  1.00  0.00    -0.368 N 
ATOM     35  H   UNL A   1      48.368  25.003  33.245  1.00  0.00     0.159 HD
ATOM     36  H   UNL A   1      49.266  24.892  34.691  1.00  0.00     0.159 HD
ENDBRANCH  29  34
ENDBRANCH  23  25
ENDBRANCH  13  23
ENDBRANCH   8  10
ENDBRANCH   7   8
ENDBRANCH   6   7
ENDBRANCH   5   6
ENDBRANCH   4   5
ENDBRANCH   3   4
ENDBRANCH   2   3
ENDBRANCH   1   2
BRANCH   1  37
ATOM     37  C   UNL A   1      35.536  34.242  34.159  1.00  0.00     0.188 C 
BRANCH  37  38
ATOM     38  C   UNL A   1      34.366  33.741  33.297  1.00  0.00     0.188 C 
BRANCH  38  39
ATOM     39  O   UNL A   1      34.224  34.422  32.058  1.00  0.00    -0.376 OA
BRANCH  39  40
ATOM     40  C   UNL A   1      34.433  33.698  30.855  1.00  0.00     0.202 C 
BRANCH  40  41
ATOM     41  C   UNL A   1      35.878  33.348  30.465  1.00  0.00     0.261 C 
BRANCH  41  42
ATOM     42  O   UNL A   1      36.180  31.968  30.221  1.00  0.00    -0.460 OA
BRANCH  42  43
ATOM     43  C   UNL A   1      36.774  31.263  31.204  1.00  0.00     0.338 C 
ATOM     44  O   UNL A   1      36.316  31.010  32.305  1.00  0.00    -0.246 OA
BRANCH  43  45
ATOM     45  C   UNL A   1      37.999  30.664  30.636  1.00  0.00     0.060 A 
ATOM     46  C   UNL A   1      38.974  30.168  31.510  1.00  0.00     0.016 A 
ATOM     47  C   UNL A   1      38.176  30.578  29.252  1.00  0.00     0.016 A 
ATOM     48  C   UNL A   1      40.154  29.627  31.003  1.00  0.00     0.010 A 
ATOM     49  C   UNL A   1      39.368  30.056  28.745  1.00  0.00     0.010 A 
ATOM     50  C   UNL A   1      40.378  29.617  29.620  1.00  0.00    -0.014 A 
BRANCH  50  51
ATOM     51  C   UNL A   1      41.745  29.363  29.107  1.00  0.00     0.031 A 
ATOM     52  C   UNL A   1      42.065  27.980  28.608  1.00  0.00     0.074 A 
ATOM     53  C   UNL A   1      42.668  30.339  29.056  1.00  0.00     0.049 A 
ATOM     54  N   UNL A   1      43.188  27.505  28.137  1.00  0.00    -0.248 NA
ATOM     55  C   UNL A   1      40.967  26.999  28.651  1.00  0.00     0.031 C 
ATOM     56  C   UNL A   1      42.456  31.726  29.467  1.00  0.00     0.029 A 
ATOM     57  N   UNL A   1      43.973  30.307  28.635  1.00  0.00    -0.354 N 
ATOM     58  C   UNL A   1      42.935  26.171  27.838  1.00  0.00     0.074 A 
ATOM     59  C   UNL A   1      41.564  25.903  28.212  1.00  0.00     0.031 C 
ATOM     60  C   UNL A   1      43.598  32.413  29.282  1.00  0.00     0.029 A 
ATOM     61  C   UNL A   1      44.627  31.508  28.773  1.00  0.00     0.049 A 
ATOM     62  H   UNL A   1      44.401  29.500  28.268  1.00  0.00     0.167 HD
ATOM     63  C   UNL A   1      43.770  25.253  27.294  1.00  0.00     0.037 A 
ATOM     64  C   UNL A   1      45.915  31.830  28.532  1.00  0.00     0.037 A 
ATOM     65  C   UNL A   1      45.134  25.531  26.929  1.00  0.00     0.049 A 
ATOM     66  C   UNL A   1      46.848  30.773  27.995  1.00  0.00     0.074 A 
ATOM     67  C   UNL A   1      46.059  24.683  26.350  1.00  0.00     0.029 A 
ATOM     68  N   UNL A   1      45.773  26.749  27.121  1.00  0.00    -0.354 N 
ATOM     69  N   UNL A   1      46.591  29.522  27.690  1.00  0.00    -0.248 NA
ATOM     70  C   UNL A   1      48.244  31.172  27.768  1.00  0.00     0.031 C 
ATOM     71  C   UNL A   1      47.276  25.366  26.254  1.00  0.00     0.029 A 
ATOM     72  C   UNL A   1      47.090  26.663  26.706  1.00  0.00     0.049 A 
ATOM     73  H   UNL A   1      45.351  27.555  27.498  1.00  0.00     0.167 HD
ATOM     74  C   UNL A   1      47.784  28.995  27.203  1.00  0.00     0.074 A 
ATOM     75  C   UNL A   1      48.759  30.065  27.249  1.00  0.00     0.031 C 
ATOM     76  C   UNL A   1      48.048  27.742  26.754  1.00  0.00     0.037 A 
BRANCH  63  77
ATOM     77  C   UNL A   1      43.241  23.857  27.105  1.00  0.00     0.058 A 
ATOM     78  C   UNL A   1      43.030  22.986  28.187  1.00  0.00     0.135 A 
ATOM     79  C   UNL A   1      42.934  23.386  25.819  1.00  0.00     0.135 A 
ATOM     80  F   UNL A   1      43.326  23.375  29.437  1.00  0.00    -0.206 F 
ATOM     81  C   UNL A   1      42.566  21.688  27.996  1.00  0.00     0.059 A 
ATOM     82  C   UNL A   1      42.437  22.103  25.608  1.00  0.00     0.059 A 
ATOM     83  F   UNL A   1      43.122  24.172  24.748  1.00  0.00    -0.206 F 
ATOM     84  C   UNL A   1      42.274  21.256  26.701  1.00  0.00     0.060 A 
BRANCH  84  85
ATOM     85  S   UNL A   1      41.682  19.566  26.469  1.00  0.00     0.124 S 
ATOM     86  O   UNL A   1      42.267  18.892  27.626  1.00  0.00    -0.237 OA
ATOM     87  O   UNL A   1      40.234  19.737  26.501  1.00  0.00    -0.237 OA
ATOM     88  O   UNL A   1      42.239  19.184  25.176  1.00  0.00    -0.744 OA
ENDBRANCH  84  85
ENDBRANCH  63  77
BRANCH  64  89
ATOM     89  C   UNL A   1      46.397  33.213  28.794  1.00  0.00     0.058 A 
ATOM     90  C   UNL A   1      46.812  33.607  30.074  1.00  0.00     0.135 A 
ATOM     91  C   UNL A   1      46.460  34.168  27.765  1.00  0.00     0.135 A 
ATOM     92  F   UNL A   1      46.756  32.737  31.094  1.00  0.00    -0.206 F 
ATOM     93  C   UNL A   1      47.266  34.896  30.330  1.00  0.00     0.059 A 
ATOM     94  C   UNL A   1      46.938  35.455  27.991  1.00  0.00     0.059 A 
ATOM     95  F   UNL A   1      46.082  33.841  26.520  1.00  0.00    -0.206 F 
ATOM     96  C   UNL A   1      47.332  35.812  29.279  1.00  0.00     0.060 A 
BRANCH  96  97
ATOM     97  S   UNL A   1      47.986  37.462  29.611  1.00  0.00     0.124 S 
ATOM     98  O   UNL A   1      47.903  38.083  28.295  1.00  0.00    -0.237 OA
ATOM     99  O   UNL A   1      47.049  37.962  30.613  1.00  0.00    -0.237 OA
ATOM    100  O   UNL A   1      49.335  37.196  30.101  1.00  0.00    -0.744 OA
ENDBRANCH  96  97
ENDBRANCH  64  89
BRANCH  76 101
ATOM    101  C   UNL A   1      49.435  27.463  26.236  1.00  0.00     0.058 A 
ATOM    102  C   UNL A   1      49.750  27.549  24.872  1.00  0.00     0.135 A 
ATOM    103  C   UNL A   1      50.477  27.168  27.131  1.00  0.00     0.135 A 
ATOM    104  F   UNL A   1      48.792  27.824  23.972  1.00  0.00    -0.206 F 
ATOM    105  C   UNL A   1      51.043  27.325  24.409  1.00  0.00     0.059 A 
ATOM    106  C   UNL A   1      51.784  26.974  26.695  1.00  0.00     0.059 A 
ATOM    107  F   UNL A   1      50.235  27.088  28.449  1.00  0.00    -0.206 F 
ATOM    108  C   UNL A   1      52.055  27.042  25.329  1.00  0.00     0.060 A 
BRANCH 108 109
ATOM    109  S   UNL A   1      53.734  26.789  24.718  1.00  0.00     0.124 S 
ATOM    110  O   UNL A   1      53.529  25.754  23.712  1.00  0.00    -0.237 OA
ATOM    111  O   UNL A   1      54.081  28.111  24.208  1.00  0.00    -0.237 OA
ATOM    112  O   UNL A   1      54.470  26.370  25.908  1.00  0.00    -0.744 OA
ENDBRANCH 108 109
ENDBRANCH  76 101
ENDBRANCH  50  51
ENDBRANCH  43  45
ENDBRANCH  42  43
ENDBRANCH  41  42
ENDBRANCH  40  41
ENDBRANCH  39  40
ENDBRANCH  38  39
ENDBRANCH  37  38
ENDBRANCH   1  37
TORSDOF 29
ENDMDL
