MODEL 1
REMARK VINA RESULT:      -9.1      0.000      0.000
REMARK SMILES O=C(OCCOCCOCCOCCOC(=O)[C@H]1CCCN1C(=S)Nc1ccccc1)c1ccc(-c2c3nc(c(-c4c(F)cc(S(=O)(=O)[O-])cc4F)c4ccc([nH]4)c(-c4c(F)cc(S(=O)(=O)[O-])cc4F)c4nc(c(-c5c(F)cc(S(=O)(=O)[O-])cc5F)c5ccc2[nH]5)C=C4)C=C3)cc1
REMARK SMILES IDX 9 1 8 2 7 3 6 4 5 5 4 6 3 7 2 8 1 9 32 10 33 11 97 12 34 13
REMARK SMILES IDX 96 14 35 15 36 16 37 17 90 18 38 19 95 20 89 21 91 22 39 23
REMARK SMILES IDX 94 24 88 25 87 26 40 28 74 29 53 30 73 31 54 32 57 33 72 34
REMARK SMILES IDX 92 35 55 36 56 37 71 39 93 40 58 41 41 42 42 43 51 44 43 45
REMARK SMILES IDX 44 46 50 47 52 48 45 49 46 50 47 51 48 52 49 53 75 54 76 55
REMARK SMILES IDX 85 56 77 57 78 58 84 59 86 60 79 61 80 62 81 63 82 64 83 65
REMARK SMILES IDX 59 66 60 67 69 68 61 69 62 70 68 71 70 72 63 73 64 74 65 75
REMARK SMILES IDX 66 76 67 77 10 78 11 79 12 80 13 81 14 82 15 83 16 84 17 85
REMARK SMILES IDX 18 86 19 87 22 88 20 89 21 90 23 91 24 92 25 93 26 95 27 96
REMARK SMILES IDX 31 97 28 98 30 99 29 100
REMARK H PARENT 91 27 57 38 25 94
REMARK Flexibility Score: inf
ROOT
ATOM      1  O   UNL A   1      35.789  31.309  28.584  1.00  0.00    -0.377 OA
ENDROOT
BRANCH   1   2
ATOM      2  C   UNL A   1      34.935  32.290  28.013  1.00  0.00     0.188 C 
BRANCH   2   3
ATOM      3  C   UNL A   1      35.156  33.662  28.611  1.00  0.00     0.188 C 
BRANCH   3   4
ATOM      4  O   UNL A   1      34.730  33.631  29.957  1.00  0.00    -0.376 OA
BRANCH   4   5
ATOM      5  C   UNL A   1      35.685  33.787  30.993  1.00  0.00     0.202 C 
BRANCH   5   6
ATOM      6  C   UNL A   1      35.759  32.641  31.987  1.00  0.00     0.261 C 
BRANCH   6   7
ATOM      7  O   UNL A   1      36.684  31.590  31.657  1.00  0.00    -0.460 OA
BRANCH   7   8
ATOM      8  C   UNL A   1      37.819  31.167  32.257  1.00  0.00     0.338 C 
ATOM      9  O   UNL A   1      37.868  31.199  33.487  1.00  0.00    -0.246 OA
BRANCH   8  10
ATOM     10  C   UNL A   1      39.018  30.646  31.542  1.00  0.00     0.060 A 
ATOM     11  C   UNL A   1      40.071  29.952  32.129  1.00  0.00     0.016 A 
ATOM     12  C   UNL A   1      39.018  30.750  30.144  1.00  0.00     0.016 A 
ATOM     13  C   UNL A   1      41.140  29.471  31.411  1.00  0.00     0.010 A 
ATOM     14  C   UNL A   1      40.071  30.226  29.389  1.00  0.00     0.010 A 
ATOM     15  C   UNL A   1      41.151  29.618  30.038  1.00  0.00    -0.014 A 
BRANCH  15  16
ATOM     16  C   UNL A   1      42.425  29.328  29.378  1.00  0.00     0.031 A 
ATOM     17  C   UNL A   1      42.560  27.977  28.753  1.00  0.00     0.074 A 
ATOM     18  C   UNL A   1      43.310  30.318  29.169  1.00  0.00     0.049 A 
ATOM     19  N   UNL A   1      43.597  27.427  28.193  1.00  0.00    -0.248 NA
ATOM     20  C   UNL A   1      41.350  27.129  28.748  1.00  0.00     0.031 C 
ATOM     21  C   UNL A   1      43.127  31.719  29.570  1.00  0.00     0.029 A 
ATOM     22  N   UNL A   1      44.519  30.312  28.534  1.00  0.00    -0.354 N 
ATOM     23  C   UNL A   1      43.184  26.153  27.825  1.00  0.00     0.074 A 
ATOM     24  C   UNL A   1      41.803  26.008  28.213  1.00  0.00     0.031 C 
ATOM     25  C   UNL A   1      44.186  32.435  29.163  1.00  0.00     0.029 A 
ATOM     26  C   UNL A   1      45.155  31.529  28.563  1.00  0.00     0.049 A 
ATOM     27  H   UNL A   1      44.896  29.514  28.098  1.00  0.00     0.167 HD
ATOM     28  C   UNL A   1      43.922  25.193  27.228  1.00  0.00     0.037 A 
ATOM     29  C   UNL A   1      46.412  31.841  28.198  1.00  0.00     0.037 A 
ATOM     30  C   UNL A   1      45.293  25.407  26.856  1.00  0.00     0.049 A 
ATOM     31  C   UNL A   1      47.259  30.721  27.653  1.00  0.00     0.074 A 
ATOM     32  C   UNL A   1      46.196  24.511  26.326  1.00  0.00     0.029 A 
ATOM     33  N   UNL A   1      45.951  26.626  26.984  1.00  0.00    -0.354 N 
ATOM     34  N   UNL A   1      46.916  29.474  27.414  1.00  0.00    -0.248 NA
ATOM     35  C   UNL A   1      48.657  31.033  27.350  1.00  0.00     0.031 C 
ATOM     36  C   UNL A   1      47.418  25.178  26.180  1.00  0.00     0.029 A 
ATOM     37  C   UNL A   1      47.258  26.504  26.559  1.00  0.00     0.049 A 
ATOM     38  H   UNL A   1      45.543  27.454  27.326  1.00  0.00     0.167 HD
ATOM     39  C   UNL A   1      48.052  28.854  26.913  1.00  0.00     0.074 A 
ATOM     40  C   UNL A   1      49.086  29.874  26.868  1.00  0.00     0.031 C 
ATOM     41  C   UNL A   1      48.235  27.567  26.527  1.00  0.00     0.037 A 
BRANCH  28  42
ATOM     42  C   UNL A   1      43.284  23.846  27.057  1.00  0.00     0.058 A 
ATOM     43  C   UNL A   1      43.123  22.946  28.122  1.00  0.00     0.135 A 
ATOM     44  C   UNL A   1      42.880  23.425  25.780  1.00  0.00     0.135 A 
ATOM     45  F   UNL A   1      43.538  23.278  29.356  1.00  0.00    -0.206 F 
ATOM     46  C   UNL A   1      42.605  21.670  27.924  1.00  0.00     0.059 A 
ATOM     47  C   UNL A   1      42.334  22.164  25.563  1.00  0.00     0.059 A 
ATOM     48  F   UNL A   1      43.038  24.234  24.720  1.00  0.00    -0.206 F 
ATOM     49  C   UNL A   1      42.213  21.288  26.639  1.00  0.00     0.060 A 
BRANCH  49  50
ATOM     50  S   UNL A   1      41.547  19.628  26.400  1.00  0.00     0.124 S 
ATOM     51  O   UNL A   1      42.345  19.151  25.277  1.00  0.00    -0.237 OA
ATOM     52  O   UNL A   1      41.815  18.997  27.685  1.00  0.00    -0.237 OA
ATOM     53  O   UNL A   1      40.133  19.870  26.106  1.00  0.00    -0.744 OA
ENDBRANCH  49  50
ENDBRANCH  28  42
BRANCH  29  54
ATOM     54  C   UNL A   1      46.949  33.212  28.413  1.00  0.00     0.058 A 
ATOM     55  C   UNL A   1      47.556  33.581  29.622  1.00  0.00     0.135 A 
ATOM     56  C   UNL A   1      46.865  34.191  27.406  1.00  0.00     0.135 A 
ATOM     57  F   UNL A   1      47.663  32.689  30.618  1.00  0.00    -0.206 F 
ATOM     58  C   UNL A   1      48.042  34.870  29.833  1.00  0.00     0.059 A 
ATOM     59  C   UNL A   1      47.369  35.476  27.582  1.00  0.00     0.059 A 
ATOM     60  F   UNL A   1      46.303  33.896  26.224  1.00  0.00    -0.206 F 
ATOM     61  C   UNL A   1      47.944  35.810  28.806  1.00  0.00     0.060 A 
BRANCH  61  62
ATOM     62  S   UNL A   1      48.595  37.472  29.083  1.00  0.00     0.124 S 
ATOM     63  O   UNL A   1      50.005  37.292  28.761  1.00  0.00    -0.237 OA
ATOM     64  O   UNL A   1      47.818  38.265  28.137  1.00  0.00    -0.237 OA
ATOM     65  O   UNL A   1      48.295  37.720  30.491  1.00  0.00    -0.744 OA
ENDBRANCH  61  62
ENDBRANCH  29  54
BRANCH  41  66
ATOM     66  C   UNL A   1      49.586  27.215  25.981  1.00  0.00     0.058 A 
ATOM     67  C   UNL A   1      50.635  26.811  26.817  1.00  0.00     0.135 A 
ATOM     68  C   UNL A   1      49.800  27.214  24.594  1.00  0.00     0.135 A 
ATOM     69  F   UNL A   1      50.476  26.805  28.151  1.00  0.00    -0.206 F 
ATOM     70  C   UNL A   1      51.865  26.433  26.296  1.00  0.00     0.059 A 
ATOM     71  C   UNL A   1      51.008  26.807  24.049  1.00  0.00     0.059 A 
ATOM     72  F   UNL A   1      48.816  27.581  23.756  1.00  0.00    -0.206 F 
ATOM     73  C   UNL A   1      52.039  26.428  24.909  1.00  0.00     0.060 A 
BRANCH  73  74
ATOM     74  S   UNL A   1      53.623  25.888  24.243  1.00  0.00     0.124 S 
ATOM     75  O   UNL A   1      53.417  26.073  22.810  1.00  0.00    -0.237 OA
ATOM     76  O   UNL A   1      54.558  26.814  24.874  1.00  0.00    -0.237 OA
ATOM     77  O   UNL A   1      53.725  24.503  24.689  1.00  0.00    -0.744 OA
ENDBRANCH  73  74
ENDBRANCH  41  66
ENDBRANCH  15  16
ENDBRANCH   8  10
ENDBRANCH   7   8
ENDBRANCH   6   7
ENDBRANCH   5   6
ENDBRANCH   4   5
ENDBRANCH   3   4
ENDBRANCH   2   3
ENDBRANCH   1   2
BRANCH   1  78
ATOM     78  C   UNL A   1      35.429  29.934  28.527  1.00  0.00     0.188 C 
BRANCH  78  79
ATOM     79  C   UNL A   1      34.998  29.318  27.192  1.00  0.00     0.188 C 
BRANCH  79  80
ATOM     80  O   UNL A   1      33.705  28.727  27.216  1.00  0.00    -0.376 OA
BRANCH  80  81
ATOM     81  C   UNL A   1      32.644  29.679  27.157  1.00  0.00     0.202 C 
BRANCH  81  82
ATOM     82  C   UNL A   1      32.197  30.114  25.742  1.00  0.00     0.261 C 
BRANCH  82  83
ATOM     83  O   UNL A   1      32.540  29.189  24.687  1.00  0.00    -0.462 OA
BRANCH  83  84
ATOM     84  C   UNL A   1      31.661  28.205  24.377  1.00  0.00     0.328 C 
ATOM     85  O   UNL A   1      30.778  28.337  23.534  1.00  0.00    -0.250 OA
BRANCH  84  86
ATOM     86  C   UNL A   1      32.029  26.846  25.039  1.00  0.00     0.194 C 
ATOM     87  C   UNL A   1      31.216  26.269  26.192  1.00  0.00     0.039 C 
ATOM     88  N   UNL A   1      31.934  25.748  24.076  1.00  0.00    -0.335 N 
ATOM     89  C   UNL A   1      30.022  25.647  25.514  1.00  0.00     0.024 C 
ATOM     90  C   UNL A   1      30.591  25.158  24.189  1.00  0.00     0.120 C 
BRANCH  88  91
ATOM     91  C   UNL A   1      32.850  25.431  23.106  1.00  0.00     0.174 C 
ATOM     92  S   UNL A   1      32.760  26.030  21.532  1.00  0.00    -0.041 S 
BRANCH  91  93
ATOM     93  N   UNL A   1      33.987  24.737  23.398  1.00  0.00    -0.333 N 
ATOM     94  H   UNL A   1      34.730  24.951  22.790  1.00  0.00     0.169 HD
BRANCH  93  95
ATOM     95  C   UNL A   1      34.342  23.783  24.372  1.00  0.00     0.040 A 
ATOM     96  C   UNL A   1      34.548  22.471  23.927  1.00  0.00     0.026 A 
ATOM     97  C   UNL A   1      34.463  24.061  25.736  1.00  0.00     0.026 A 
ATOM     98  C   UNL A   1      34.970  21.474  24.811  1.00  0.00     0.002 A 
ATOM     99  C   UNL A   1      34.878  23.058  26.626  1.00  0.00     0.002 A 
ATOM    100  C   UNL A   1      35.148  21.771  26.159  1.00  0.00     0.000 A 
ENDBRANCH  93  95
ENDBRANCH  91  93
ENDBRANCH  88  91
ENDBRANCH  84  86
ENDBRANCH  83  84
ENDBRANCH  82  83
ENDBRANCH  81  82
ENDBRANCH  80  81
ENDBRANCH  79  80
ENDBRANCH  78  79
ENDBRANCH   1  78
TORSDOF 26
ENDMDL
MODEL 2
REMARK VINA RESULT:      -9.0      1.814      8.457
REMARK SMILES O=C(OCCOCCOCCOCCOC(=O)[C@H]1CCCN1C(=S)Nc1ccccc1)c1ccc(-c2c3nc(c(-c4c(F)cc(S(=O)(=O)[O-])cc4F)c4ccc([nH]4)c(-c4c(F)cc(S(=O)(=O)[O-])cc4F)c4nc(c(-c5c(F)cc(S(=O)(=O)[O-])cc5F)c5ccc2[nH]5)C=C4)C=C3)cc1
REMARK SMILES IDX 9 1 8 2 7 3 6 4 5 5 4 6 3 7 2 8 1 9 32 10 33 11 97 12 34 13
REMARK SMILES IDX 96 14 35 15 36 16 37 17 90 18 38 19 95 20 89 21 91 22 39 23
REMARK SMILES IDX 94 24 88 25 87 26 40 28 74 29 53 30 73 31 54 32 57 33 72 34
REMARK SMILES IDX 92 35 55 36 56 37 71 39 93 40 58 41 41 42 42 43 51 44 43 45
REMARK SMILES IDX 44 46 50 47 52 48 45 49 46 50 47 51 48 52 49 53 75 54 76 55
REMARK SMILES IDX 85 56 77 57 78 58 84 59 86 60 79 61 80 62 81 63 82 64 83 65
REMARK SMILES IDX 59 66 60 67 69 68 61 69 62 70 68 71 70 72 63 73 64 74 65 75
REMARK SMILES IDX 66 76 67 77 10 78 11 79 12 80 13 81 14 82 15 83 16 84 17 85
REMARK SMILES IDX 18 86 19 87 22 88 20 89 21 90 23 91 24 92 25 93 26 95 27 96
REMARK SMILES IDX 31 97 28 98 30 99 29 100
REMARK H PARENT 91 27 57 38 25 94
REMARK Flexibility Score: inf
ROOT
ATOM      1  O   UNL A   1      33.643  31.531  28.123  1.00  0.00    -0.377 OA
ENDROOT
BRANCH   1   2
ATOM      2  C   UNL A   1      33.387  32.846  27.651  1.00  0.00     0.188 C 
BRANCH   2   3
ATOM      3  C   UNL A   1      34.321  33.867  28.260  1.00  0.00     0.188 C 
BRANCH   3   4
ATOM      4  O   UNL A   1      33.785  34.272  29.502  1.00  0.00    -0.376 OA
BRANCH   4   5
ATOM      5  C   UNL A   1      34.578  34.161  30.671  1.00  0.00     0.202 C 
BRANCH   5   6
ATOM      6  C   UNL A   1      34.765  32.750  31.199  1.00  0.00     0.261 C 
BRANCH   6   7
ATOM      7  O   UNL A   1      35.970  32.084  30.779  1.00  0.00    -0.460 OA
BRANCH   7   8
ATOM      8  C   UNL A   1      36.500  30.886  31.112  1.00  0.00     0.338 C 
ATOM      9  O   UNL A   1      35.903  30.203  31.945  1.00  0.00    -0.246 OA
BRANCH   8  10
ATOM     10  C   UNL A   1      37.749  30.316  30.534  1.00  0.00     0.060 A 
ATOM     11  C   UNL A   1      38.724  29.622  31.242  1.00  0.00     0.016 A 
ATOM     12  C   UNL A   1      37.885  30.372  29.140  1.00  0.00     0.016 A 
ATOM     13  C   UNL A   1      39.846  29.095  30.646  1.00  0.00     0.010 A 
ATOM     14  C   UNL A   1      38.994  29.802  28.507  1.00  0.00     0.010 A 
ATOM     15  C   UNL A   1      39.992  29.195  29.276  1.00  0.00    -0.014 A 
BRANCH  15  16
ATOM     16  C   UNL A   1      41.316  28.856  28.752  1.00  0.00     0.031 A 
ATOM     17  C   UNL A   1      42.350  29.933  28.804  1.00  0.00     0.074 A 
ATOM     18  C   UNL A   1      41.612  27.577  28.460  1.00  0.00     0.049 A 
ATOM     19  N   UNL A   1      43.561  29.938  28.330  1.00  0.00    -0.248 NA
ATOM     20  C   UNL A   1      41.969  31.179  29.500  1.00  0.00     0.031 C 
ATOM     21  C   UNL A   1      40.694  26.440  28.603  1.00  0.00     0.029 A 
ATOM     22  N   UNL A   1      42.774  27.010  28.023  1.00  0.00    -0.354 N 
ATOM     23  C   UNL A   1      44.062  31.201  28.616  1.00  0.00     0.074 A 
ATOM     24  C   UNL A   1      43.036  31.937  29.311  1.00  0.00     0.031 C 
ATOM     25  C   UNL A   1      41.336  25.311  28.264  1.00  0.00     0.029 A 
ATOM     26  C   UNL A   1      42.669  25.660  27.794  1.00  0.00     0.049 A 
ATOM     27  H   UNL A   1      43.605  27.519  27.886  1.00  0.00     0.167 HD
ATOM     28  C   UNL A   1      45.280  31.691  28.297  1.00  0.00     0.037 A 
ATOM     29  C   UNL A   1      43.545  24.826  27.204  1.00  0.00     0.037 A 
ATOM     30  C   UNL A   1      46.263  30.900  27.612  1.00  0.00     0.049 A 
ATOM     31  C   UNL A   1      44.847  25.425  26.742  1.00  0.00     0.074 A 
ATOM     32  C   UNL A   1      47.504  31.276  27.144  1.00  0.00     0.029 A 
ATOM     33  N   UNL A   1      46.098  29.553  27.302  1.00  0.00    -0.354 N 
ATOM     34  N   UNL A   1      45.285  26.655  26.896  1.00  0.00    -0.248 NA
ATOM     35  C   UNL A   1      45.760  24.544  26.010  1.00  0.00     0.031 C 
ATOM     36  C   UNL A   1      48.069  30.167  26.504  1.00  0.00     0.029 A 
ATOM     37  C   UNL A   1      47.208  29.084  26.630  1.00  0.00     0.049 A 
ATOM     38  H   UNL A   1      45.307  29.016  27.529  1.00  0.00     0.167 HD
ATOM     39  C   UNL A   1      46.537  26.693  26.298  1.00  0.00     0.074 A 
ATOM     40  C   UNL A   1      46.788  25.353  25.795  1.00  0.00     0.031 C 
ATOM     41  C   UNL A   1      47.401  27.729  26.168  1.00  0.00     0.037 A 
BRANCH  28  42
ATOM     42  C   UNL A   1      45.536  33.138  28.597  1.00  0.00     0.058 A 
ATOM     43  C   UNL A   1      46.099  33.569  29.809  1.00  0.00     0.135 A 
ATOM     44  C   UNL A   1      45.152  34.120  27.670  1.00  0.00     0.135 A 
ATOM     45  F   UNL A   1      46.440  32.676  30.753  1.00  0.00    -0.206 F 
ATOM     46  C   UNL A   1      46.252  34.922  30.100  1.00  0.00     0.059 A 
ATOM     47  C   UNL A   1      45.321  35.476  27.927  1.00  0.00     0.059 A 
ATOM     48  F   UNL A   1      44.583  33.765  26.507  1.00  0.00    -0.206 F 
ATOM     49  C   UNL A   1      45.859  35.868  29.151  1.00  0.00     0.060 A 
BRANCH  49  50
ATOM     50  S   UNL A   1      46.060  37.618  29.546  1.00  0.00     0.124 S 
ATOM     51  O   UNL A   1      46.657  37.552  30.874  1.00  0.00    -0.237 OA
ATOM     52  O   UNL A   1      46.934  38.080  28.476  1.00  0.00    -0.237 OA
ATOM     53  O   UNL A   1      44.690  38.135  29.499  1.00  0.00    -0.744 OA
ENDBRANCH  49  50
ENDBRANCH  28  42
BRANCH  29  54
ATOM     54  C   UNL A   1      43.189  23.403  26.952  1.00  0.00     0.058 A 
ATOM     55  C   UNL A   1      42.840  22.950  25.673  1.00  0.00     0.135 A 
ATOM     56  C   UNL A   1      43.191  22.458  27.995  1.00  0.00     0.135 A 
ATOM     57  F   UNL A   1      42.820  23.806  24.640  1.00  0.00    -0.206 F 
ATOM     58  C   UNL A   1      42.487  21.622  25.437  1.00  0.00     0.059 A 
ATOM     59  C   UNL A   1      42.873  21.121  27.780  1.00  0.00     0.059 A 
ATOM     60  F   UNL A   1      43.527  22.829  29.240  1.00  0.00    -0.206 F 
ATOM     61  C   UNL A   1      42.508  20.715  26.498  1.00  0.00     0.060 A 
BRANCH  61  62
ATOM     62  S   UNL A   1      42.069  18.992  26.178  1.00  0.00     0.124 S 
ATOM     63  O   UNL A   1      40.681  19.118  25.750  1.00  0.00    -0.237 OA
ATOM     64  O   UNL A   1      43.028  18.622  25.143  1.00  0.00    -0.237 OA
ATOM     65  O   UNL A   1      42.275  18.348  27.472  1.00  0.00    -0.744 OA
ENDBRANCH  61  62
ENDBRANCH  29  54
BRANCH  41  66
ATOM     66  C   UNL A   1      48.710  27.433  25.499  1.00  0.00     0.058 A 
ATOM     67  C   UNL A   1      48.862  27.514  24.109  1.00  0.00     0.135 A 
ATOM     68  C   UNL A   1      49.841  27.139  26.278  1.00  0.00     0.135 A 
ATOM     69  F   UNL A   1      47.804  27.784  23.326  1.00  0.00    -0.206 F 
ATOM     70  C   UNL A   1      50.093  27.292  23.506  1.00  0.00     0.059 A 
ATOM     71  C   UNL A   1      51.087  26.949  25.700  1.00  0.00     0.059 A 
ATOM     72  F   UNL A   1      49.742  27.066  27.616  1.00  0.00    -0.206 F 
ATOM     73  C   UNL A   1      51.201  27.016  24.312  1.00  0.00     0.060 A 
BRANCH  73  74
ATOM     74  S   UNL A   1      52.802  26.780  23.521  1.00  0.00     0.124 S 
ATOM     75  O   UNL A   1      53.432  28.077  23.743  1.00  0.00    -0.237 OA
ATOM     76  O   UNL A   1      53.361  25.664  24.277  1.00  0.00    -0.237 OA
ATOM     77  O   UNL A   1      52.455  26.479  22.136  1.00  0.00    -0.744 OA
ENDBRANCH  73  74
ENDBRANCH  41  66
ENDBRANCH  15  16
ENDBRANCH   8  10
ENDBRANCH   7   8
ENDBRANCH   6   7
ENDBRANCH   5   6
ENDBRANCH   4   5
ENDBRANCH   3   4
ENDBRANCH   2   3
ENDBRANCH   1   2
BRANCH   1  78
ATOM     78  C   UNL A   1      33.474  30.418  27.253  1.00  0.00     0.188 C 
BRANCH  78  79
ATOM     79  C   UNL A   1      34.670  29.516  26.936  1.00  0.00     0.188 C 
BRANCH  79  80
ATOM     80  O   UNL A   1      34.314  28.219  26.477  1.00  0.00    -0.376 OA
BRANCH  80  81
ATOM     81  C   UNL A   1      32.952  28.117  26.062  1.00  0.00     0.202 C 
BRANCH  81  82
ATOM     82  C   UNL A   1      32.514  26.747  25.493  1.00  0.00     0.261 C 
BRANCH  82  83
ATOM     83  O   UNL A   1      33.594  25.916  25.017  1.00  0.00    -0.462 OA
BRANCH  83  84
ATOM     84  C   UNL A   1      33.754  24.686  25.564  1.00  0.00     0.328 C 
ATOM     85  O   UNL A   1      33.186  24.330  26.592  1.00  0.00    -0.250 OA
BRANCH  84  86
ATOM     86  C   UNL A   1      34.555  23.722  24.640  1.00  0.00     0.194 C 
ATOM     87  C   UNL A   1      36.079  23.702  24.630  1.00  0.00     0.039 C 
ATOM     88  N   UNL A   1      34.275  22.324  24.969  1.00  0.00    -0.335 N 
ATOM     89  C   UNL A   1      36.435  22.879  25.842  1.00  0.00     0.024 C 
ATOM     90  C   UNL A   1      35.301  21.867  25.920  1.00  0.00     0.120 C 
BRANCH  88  91
ATOM     91  C   UNL A   1      33.161  21.608  24.614  1.00  0.00     0.174 C 
ATOM     92  S   UNL A   1      32.165  22.046  23.326  1.00  0.00    -0.041 S 
BRANCH  91  93
ATOM     93  N   UNL A   1      32.877  20.402  25.183  1.00  0.00    -0.333 N 
ATOM     94  H   UNL A   1      32.236  20.474  25.927  1.00  0.00     0.169 HD
BRANCH  93  95
ATOM     95  C   UNL A   1      33.291  19.075  24.950  1.00  0.00     0.040 A 
ATOM     96  C   UNL A   1      34.639  18.881  24.626  1.00  0.00     0.026 A 
ATOM     97  C   UNL A   1      32.439  17.968  24.991  1.00  0.00     0.026 A 
ATOM     98  C   UNL A   1      35.152  17.594  24.446  1.00  0.00     0.002 A 
ATOM     99  C   UNL A   1      32.952  16.676  24.802  1.00  0.00     0.002 A 
ATOM    100  C   UNL A   1      34.311  16.490  24.548  1.00  0.00     0.000 A 
ENDBRANCH  93  95
ENDBRANCH  91  93
ENDBRANCH  88  91
ENDBRANCH  84  86
ENDBRANCH  83  84
ENDBRANCH  82  83
ENDBRANCH  81  82
ENDBRANCH  80  81
ENDBRANCH  79  80
ENDBRANCH  78  79
ENDBRANCH   1  78
TORSDOF 26
ENDMDL
MODEL 3
REMARK VINA RESULT:      -8.8      1.495      8.521
REMARK SMILES O=C(OCCOCCOCCOCCOC(=O)[C@H]1CCCN1C(=S)Nc1ccccc1)c1ccc(-c2c3nc(c(-c4c(F)cc(S(=O)(=O)[O-])cc4F)c4ccc([nH]4)c(-c4c(F)cc(S(=O)(=O)[O-])cc4F)c4nc(c(-c5c(F)cc(S(=O)(=O)[O-])cc5F)c5ccc2[nH]5)C=C4)C=C3)cc1
REMARK SMILES IDX 9 1 8 2 7 3 6 4 5 5 4 6 3 7 2 8 1 9 32 10 33 11 97 12 34 13
REMARK SMILES IDX 96 14 35 15 36 16 37 17 90 18 38 19 95 20 89 21 91 22 39 23
REMARK SMILES IDX 94 24 88 25 87 26 40 28 74 29 53 30 73 31 54 32 57 33 72 34
REMARK SMILES IDX 92 35 55 36 56 37 71 39 93 40 58 41 41 42 42 43 51 44 43 45
REMARK SMILES IDX 44 46 50 47 52 48 45 49 46 50 47 51 48 52 49 53 75 54 76 55
REMARK SMILES IDX 85 56 77 57 78 58 84 59 86 60 79 61 80 62 81 63 82 64 83 65
REMARK SMILES IDX 59 66 60 67 69 68 61 69 62 70 68 71 70 72 63 73 64 74 65 75
REMARK SMILES IDX 66 76 67 77 10 78 11 79 12 80 13 81 14 82 15 83 16 84 17 85
REMARK SMILES IDX 18 86 19 87 22 88 20 89 21 90 23 91 24 92 25 93 26 95 27 96
REMARK SMILES IDX 31 97 28 98 30 99 29 100
REMARK H PARENT 91 27 57 38 25 94
REMARK Flexibility Score: inf
ROOT
ATOM      1  O   UNL A   1      33.665  31.394  28.199  1.00  0.00    -0.377 OA
ENDROOT
BRANCH   1   2
ATOM      2  C   UNL A   1      33.380  32.659  27.619  1.00  0.00     0.188 C 
BRANCH   2   3
ATOM      3  C   UNL A   1      34.298  33.746  28.131  1.00  0.00     0.188 C 
BRANCH   3   4
ATOM      4  O   UNL A   1      33.770  34.233  29.347  1.00  0.00    -0.376 OA
BRANCH   4   5
ATOM      5  C   UNL A   1      34.549  34.146  30.528  1.00  0.00     0.202 C 
BRANCH   5   6
ATOM      6  C   UNL A   1      34.746  32.744  31.076  1.00  0.00     0.261 C 
BRANCH   6   7
ATOM      7  O   UNL A   1      36.015  32.134  30.780  1.00  0.00    -0.460 OA
BRANCH   7   8
ATOM      8  C   UNL A   1      36.542  30.937  31.122  1.00  0.00     0.338 C 
ATOM      9  O   UNL A   1      35.925  30.248  31.935  1.00  0.00    -0.246 OA
BRANCH   8  10
ATOM     10  C   UNL A   1      37.809  30.376  30.576  1.00  0.00     0.060 A 
ATOM     11  C   UNL A   1      38.718  29.595  31.282  1.00  0.00     0.016 A 
ATOM     12  C   UNL A   1      38.035  30.540  29.202  1.00  0.00     0.016 A 
ATOM     13  C   UNL A   1      39.860  29.081  30.715  1.00  0.00     0.010 A 
ATOM     14  C   UNL A   1      39.166  29.987  28.594  1.00  0.00     0.010 A 
ATOM     15  C   UNL A   1      40.096  29.287  29.370  1.00  0.00    -0.014 A 
BRANCH  15  16
ATOM     16  C   UNL A   1      41.441  28.948  28.901  1.00  0.00     0.031 A 
ATOM     17  C   UNL A   1      42.482  30.011  29.039  1.00  0.00     0.074 A 
ATOM     18  C   UNL A   1      41.737  27.676  28.583  1.00  0.00     0.049 A 
ATOM     19  N   UNL A   1      43.715  30.015  28.626  1.00  0.00    -0.248 NA
ATOM     20  C   UNL A   1      42.080  31.239  29.755  1.00  0.00     0.031 C 
ATOM     21  C   UNL A   1      40.800  26.546  28.643  1.00  0.00     0.029 A 
ATOM     22  N   UNL A   1      42.913  27.108  28.186  1.00  0.00    -0.354 N 
ATOM     23  C   UNL A   1      44.216  31.263  28.977  1.00  0.00     0.074 A 
ATOM     24  C   UNL A   1      43.164  31.989  29.644  1.00  0.00     0.031 C 
ATOM     25  C   UNL A   1      41.446  25.421  28.300  1.00  0.00     0.029 A 
ATOM     26  C   UNL A   1      42.805  25.768  27.908  1.00  0.00     0.049 A 
ATOM     27  H   UNL A   1      43.756  27.611  28.107  1.00  0.00     0.167 HD
ATOM     28  C   UNL A   1      45.452  31.747  28.735  1.00  0.00     0.037 A 
ATOM     29  C   UNL A   1      43.700  24.942  27.337  1.00  0.00     0.037 A 
ATOM     30  C   UNL A   1      46.461  30.966  28.075  1.00  0.00     0.049 A 
ATOM     31  C   UNL A   1      45.030  25.539  26.959  1.00  0.00     0.074 A 
ATOM     32  C   UNL A   1      47.727  31.341  27.681  1.00  0.00     0.029 A 
ATOM     33  N   UNL A   1      46.296  29.632  27.713  1.00  0.00    -0.354 N 
ATOM     34  N   UNL A   1      45.474  26.758  27.174  1.00  0.00    -0.248 NA
ATOM     35  C   UNL A   1      45.969  24.671  26.245  1.00  0.00     0.031 C 
ATOM     36  C   UNL A   1      48.311  30.246  27.034  1.00  0.00     0.029 A 
ATOM     37  C   UNL A   1      47.433  29.171  27.082  1.00  0.00     0.049 A 
ATOM     38  H   UNL A   1      45.489  29.097  27.883  1.00  0.00     0.167 HD
ATOM     39  C   UNL A   1      46.754  26.800  26.641  1.00  0.00     0.074 A 
ATOM     40  C   UNL A   1      47.016  25.474  26.108  1.00  0.00     0.031 C 
ATOM     41  C   UNL A   1      47.635  27.829  26.587  1.00  0.00     0.037 A 
BRANCH  28  42
ATOM     42  C   UNL A   1      45.709  33.181  29.094  1.00  0.00     0.058 A 
ATOM     43  C   UNL A   1      45.549  34.229  28.174  1.00  0.00     0.135 A 
ATOM     44  C   UNL A   1      46.186  33.504  30.375  1.00  0.00     0.135 A 
ATOM     45  F   UNL A   1      45.143  33.972  26.920  1.00  0.00    -0.206 F 
ATOM     46  C   UNL A   1      45.872  35.542  28.503  1.00  0.00     0.059 A 
ATOM     47  C   UNL A   1      46.490  34.812  30.735  1.00  0.00     0.059 A 
ATOM     48  F   UNL A   1      46.386  32.536  31.284  1.00  0.00    -0.206 F 
ATOM     49  C   UNL A   1      46.343  35.823  29.788  1.00  0.00     0.060 A 
BRANCH  49  50
ATOM     50  S   UNL A   1      46.762  37.531  30.197  1.00  0.00     0.124 S 
ATOM     51  O   UNL A   1      48.189  37.561  29.903  1.00  0.00    -0.237 OA
ATOM     52  O   UNL A   1      45.908  38.285  29.290  1.00  0.00    -0.237 OA
ATOM     53  O   UNL A   1      46.411  37.634  31.615  1.00  0.00    -0.744 OA
ENDBRANCH  49  50
ENDBRANCH  28  42
BRANCH  29  54
ATOM     54  C   UNL A   1      43.343  23.532  27.021  1.00  0.00     0.058 A 
ATOM     55  C   UNL A   1      43.126  23.107  25.703  1.00  0.00     0.135 A 
ATOM     56  C   UNL A   1      43.208  22.571  28.041  1.00  0.00     0.135 A 
ATOM     57  F   UNL A   1      43.239  23.980  24.691  1.00  0.00    -0.206 F 
ATOM     58  C   UNL A   1      42.771  21.793  25.407  1.00  0.00     0.059 A 
ATOM     59  C   UNL A   1      42.885  21.247  27.768  1.00  0.00     0.059 A 
ATOM     60  F   UNL A   1      43.414  22.915  29.322  1.00  0.00    -0.206 F 
ATOM     61  C   UNL A   1      42.654  20.869  26.447  1.00  0.00     0.060 A 
BRANCH  61  62
ATOM     62  S   UNL A   1      42.214  19.163  26.050  1.00  0.00     0.124 S 
ATOM     63  O   UNL A   1      40.798  19.292  25.731  1.00  0.00    -0.237 OA
ATOM     64  O   UNL A   1      43.100  18.875  24.927  1.00  0.00    -0.237 OA
ATOM     65  O   UNL A   1      42.521  18.442  27.282  1.00  0.00    -0.744 OA
ENDBRANCH  61  62
ENDBRANCH  29  54
BRANCH  41  66
ATOM     66  C   UNL A   1      48.973  27.538  25.975  1.00  0.00     0.058 A 
ATOM     67  C   UNL A   1      49.169  27.563  24.588  1.00  0.00     0.135 A 
ATOM     68  C   UNL A   1      50.083  27.306  26.803  1.00  0.00     0.135 A 
ATOM     69  F   UNL A   1      48.132  27.773  23.761  1.00  0.00    -0.206 F 
ATOM     70  C   UNL A   1      50.424  27.347  24.036  1.00  0.00     0.059 A 
ATOM     71  C   UNL A   1      51.352  27.123  26.274  1.00  0.00     0.059 A 
ATOM     72  F   UNL A   1      49.941  27.287  28.138  1.00  0.00    -0.206 F 
ATOM     73  C   UNL A   1      51.511  27.134  24.889  1.00  0.00     0.060 A 
BRANCH  73  74
ATOM     74  S   UNL A   1      53.143  26.905  24.162  1.00  0.00     0.124 S 
ATOM     75  O   UNL A   1      53.918  26.462  25.315  1.00  0.00    -0.237 OA
ATOM     76  O   UNL A   1      52.889  25.894  23.140  1.00  0.00    -0.237 OA
ATOM     77  O   UNL A   1      53.477  28.232  23.653  1.00  0.00    -0.744 OA
ENDBRANCH  73  74
ENDBRANCH  41  66
ENDBRANCH  15  16
ENDBRANCH   8  10
ENDBRANCH   7   8
ENDBRANCH   6   7
ENDBRANCH   5   6
ENDBRANCH   4   5
ENDBRANCH   3   4
ENDBRANCH   2   3
ENDBRANCH   1   2
BRANCH   1  78
ATOM     78  C   UNL A   1      33.645  30.222  27.394  1.00  0.00     0.188 C 
BRANCH  78  79
ATOM     79  C   UNL A   1      34.965  29.575  26.963  1.00  0.00     0.188 C 
BRANCH  79  80
ATOM     80  O   UNL A   1      34.829  28.249  26.470  1.00  0.00    -0.376 OA
BRANCH  80  81
ATOM     81  C   UNL A   1      33.472  27.822  26.354  1.00  0.00     0.202 C 
BRANCH  81  82
ATOM     82  C   UNL A   1      33.254  26.374  25.858  1.00  0.00     0.261 C 
BRANCH  82  83
ATOM     83  O   UNL A   1      34.373  25.802  25.148  1.00  0.00    -0.462 OA
BRANCH  83  84
ATOM     84  C   UNL A   1      34.699  24.508  25.388  1.00  0.00     0.328 C 
ATOM     85  O   UNL A   1      34.571  23.978  26.488  1.00  0.00    -0.250 OA
BRANCH  84  86
ATOM     86  C   UNL A   1      35.042  23.728  24.086  1.00  0.00     0.194 C 
ATOM     87  C   UNL A   1      36.474  23.342  23.735  1.00  0.00     0.039 C 
ATOM     88  N   UNL A   1      34.406  22.410  24.078  1.00  0.00    -0.335 N 
ATOM     89  C   UNL A   1      36.730  22.114  24.570  1.00  0.00     0.024 C 
ATOM     90  C   UNL A   1      35.367  21.438  24.620  1.00  0.00     0.120 C 
BRANCH  88  91
ATOM     91  C   UNL A   1      33.091  22.140  23.798  1.00  0.00     0.174 C 
ATOM     92  S   UNL A   1      32.205  20.961  24.616  1.00  0.00    -0.041 S 
BRANCH  91  93
ATOM     93  N   UNL A   1      32.368  22.922  22.946  1.00  0.00    -0.333 N 
ATOM     94  H   UNL A   1      32.248  22.509  22.061  1.00  0.00     0.169 HD
BRANCH  93  95
ATOM     95  C   UNL A   1      31.753  24.186  23.042  1.00  0.00     0.040 A 
ATOM     96  C   UNL A   1      32.320  25.223  22.292  1.00  0.00     0.026 A 
ATOM     97  C   UNL A   1      30.651  24.463  23.855  1.00  0.00     0.026 A 
ATOM     98  C   UNL A   1      31.736  26.493  22.272  1.00  0.00     0.002 A 
ATOM     99  C   UNL A   1      30.070  25.740  23.843  1.00  0.00     0.002 A 
ATOM    100  C   UNL A   1      30.602  26.748  23.037  1.00  0.00     0.000 A 
ENDBRANCH  93  95
ENDBRANCH  91  93
ENDBRANCH  88  91
ENDBRANCH  84  86
ENDBRANCH  83  84
ENDBRANCH  82  83
ENDBRANCH  81  82
ENDBRANCH  80  81
ENDBRANCH  79  80
ENDBRANCH  78  79
ENDBRANCH   1  78
TORSDOF 26
ENDMDL
