MODEL 1
REMARK VINA RESULT:      -9.0      0.000      0.000
REMARK SMILES CC[C@H](Nc1cccc(C(F)(F)F)c1)C(=O)OCCOCCOCCOCCOC(=O)c1ccc(-c2c3nc(c(-c4c(F)cc(S(=O)(=O)[O-])cc4F)c4ccc([nH]4)c(-c4c(F)cc(S(=O)(=O)[O-])cc4F)c4nc(c(-c5c(F)cc(S(=O)(=O)[O-])cc5F)c5ccc2[nH]5)C=C4)C=C3)cc1
REMARK SMILES IDX 23 1 22 2 21 3 20 4 19 5 18 6 17 7 15 8 16 9 3 10 2 11 1 12
REMARK SMILES IDX 4 13 5 15 6 16 14 17 7 18 9 19 8 20 10 21 11 22 12 23 13 24
REMARK SMILES IDX 24 25 25 26 26 27 27 28 28 29 29 30 30 31 31 32 32 33 33 34
REMARK SMILES IDX 97 35 34 36 96 37 35 38 36 39 37 40 90 41 38 42 95 43 89 44
REMARK SMILES IDX 91 45 39 46 94 47 88 48 87 49 40 51 74 52 53 53 73 54 54 55
REMARK SMILES IDX 57 56 72 57 92 58 55 59 56 60 71 62 93 63 58 64 41 65 42 66
REMARK SMILES IDX 51 67 43 68 44 69 50 70 52 71 45 72 46 73 47 74 48 75 49 76
REMARK SMILES IDX 75 77 76 78 85 79 77 80 78 81 84 82 86 83 79 84 80 85 81 86
REMARK SMILES IDX 82 87 83 88 59 89 60 90 69 91 61 92 62 93 68 94 70 95 63 96
REMARK SMILES IDX 64 97 65 98 66 99 67 100
REMARK H PARENT 4 14 91 50 57 61
REMARK Flexibility Score: inf
ROOT
ATOM      1  O   UNL A   1      33.990  21.191  27.276  1.00  0.00    -0.377 OA
ENDROOT
BRANCH   1   2
ATOM      2  C   UNL A   1      33.684  22.536  27.610  1.00  0.00     0.188 C 
BRANCH   2   3
ATOM      3  C   UNL A   1      32.263  22.976  27.227  1.00  0.00     0.188 C 
BRANCH   3   4
ATOM      4  O   UNL A   1      31.911  22.958  25.848  1.00  0.00    -0.376 OA
BRANCH   4   5
ATOM      5  C   UNL A   1      32.375  24.043  25.032  1.00  0.00     0.202 C 
BRANCH   5   6
ATOM      6  C   UNL A   1      32.777  23.689  23.601  1.00  0.00     0.261 C 
BRANCH   6   7
ATOM      7  O   UNL A   1      32.174  24.605  22.665  1.00  0.00    -0.462 OA
BRANCH   7   8
ATOM      8  C   UNL A   1      32.753  25.815  22.514  1.00  0.00     0.328 C 
ATOM      9  O   UNL A   1      33.695  26.031  21.751  1.00  0.00    -0.250 OA
BRANCH   8  10
ATOM     10  C   UNL A   1      32.203  26.918  23.424  1.00  0.00     0.189 C 
BRANCH  10  11
ATOM     11  C   UNL A   1      30.731  27.209  23.104  1.00  0.00     0.033 C 
ATOM     12  C   UNL A   1      29.685  26.326  23.756  1.00  0.00     0.007 C 
ENDBRANCH  10  11
BRANCH  10  13
ATOM     13  N   UNL A   1      33.027  28.086  23.796  1.00  0.00    -0.372 N 
ATOM     14  H   UNL A   1      33.788  28.225  23.189  1.00  0.00     0.161 HD
BRANCH  13  15
ATOM     15  C   UNL A   1      32.968  29.022  24.803  1.00  0.00     0.035 A 
ATOM     16  C   UNL A   1      31.739  29.673  25.026  1.00  0.00     0.026 A 
ATOM     17  C   UNL A   1      34.008  29.344  25.670  1.00  0.00     0.038 A 
ATOM     18  C   UNL A   1      31.551  30.586  26.067  1.00  0.00     0.003 A 
ATOM     19  C   UNL A   1      33.823  30.201  26.774  1.00  0.00     0.058 A 
ATOM     20  C   UNL A   1      32.590  30.834  26.953  1.00  0.00     0.013 A 
BRANCH  19  21
ATOM     21  C   UNL A   1      34.910  30.374  27.803  1.00  0.00     0.416 C 
ATOM     22  F   UNL A   1      35.197  29.216  28.458  1.00  0.00    -0.166 F 
ATOM     23  F   UNL A   1      36.082  30.793  27.250  1.00  0.00    -0.166 F 
ATOM     24  F   UNL A   1      34.614  31.287  28.770  1.00  0.00    -0.166 F 
ENDBRANCH  19  21
ENDBRANCH  13  15
ENDBRANCH  10  13
ENDBRANCH   8  10
ENDBRANCH   7   8
ENDBRANCH   6   7
ENDBRANCH   5   6
ENDBRANCH   4   5
ENDBRANCH   3   4
ENDBRANCH   2   3
ENDBRANCH   1   2
BRANCH   1  25
ATOM     25  C   UNL A   1      34.733  21.094  26.057  1.00  0.00     0.188 C 
BRANCH  25  26
ATOM     26  C   UNL A   1      35.867  22.105  26.088  1.00  0.00     0.188 C 
BRANCH  26  27
ATOM     27  O   UNL A   1      36.087  22.717  24.814  1.00  0.00    -0.376 OA
BRANCH  27  28
ATOM     28  C   UNL A   1      37.313  23.455  24.735  1.00  0.00     0.202 C 
BRANCH  28  29
ATOM     29  C   UNL A   1      38.163  23.350  26.010  1.00  0.00     0.261 C 
BRANCH  29  30
ATOM     30  O   UNL A   1      38.451  24.651  26.559  1.00  0.00    -0.460 OA
BRANCH  30  31
ATOM     31  C   UNL A   1      39.766  24.997  26.604  1.00  0.00     0.338 C 
ATOM     32  O   UNL A   1      40.605  24.794  25.755  1.00  0.00    -0.246 OA
BRANCH  31  33
ATOM     33  C   UNL A   1      39.993  25.855  27.792  1.00  0.00     0.060 A 
ATOM     34  C   UNL A   1      39.157  25.681  28.904  1.00  0.00     0.016 A 
ATOM     35  C   UNL A   1      40.989  26.834  27.808  1.00  0.00     0.016 A 
ATOM     36  C   UNL A   1      39.283  26.519  30.014  1.00  0.00     0.010 A 
ATOM     37  C   UNL A   1      41.114  27.672  28.919  1.00  0.00     0.010 A 
ATOM     38  C   UNL A   1      40.233  27.547  30.009  1.00  0.00    -0.014 A 
BRANCH  38  39
ATOM     39  C   UNL A   1      40.146  28.641  31.010  1.00  0.00     0.031 A 
ATOM     40  C   UNL A   1      41.047  28.559  32.214  1.00  0.00     0.074 A 
ATOM     41  C   UNL A   1      39.309  29.684  30.865  1.00  0.00     0.049 A 
ATOM     42  N   UNL A   1      41.127  29.354  33.249  1.00  0.00    -0.248 NA
ATOM     43  C   UNL A   1      41.980  27.419  32.257  1.00  0.00     0.031 C 
ATOM     44  C   UNL A   1      38.407  29.899  29.737  1.00  0.00     0.029 A 
ATOM     45  N   UNL A   1      39.077  30.757  31.691  1.00  0.00    -0.354 N 
ATOM     46  C   UNL A   1      42.119  28.815  34.059  1.00  0.00     0.074 A 
ATOM     47  C   UNL A   1      42.577  27.599  33.424  1.00  0.00     0.031 C 
ATOM     48  C   UNL A   1      37.696  31.021  29.954  1.00  0.00     0.029 A 
ATOM     49  C   UNL A   1      38.084  31.596  31.242  1.00  0.00     0.049 A 
ATOM     50  H   UNL A   1      39.574  30.911  32.526  1.00  0.00     0.167 HD
ATOM     51  C   UNL A   1      42.621  29.297  35.220  1.00  0.00     0.037 A 
ATOM     52  C   UNL A   1      37.542  32.691  31.814  1.00  0.00     0.037 A 
ATOM     53  C   UNL A   1      42.165  30.501  35.859  1.00  0.00     0.049 A 
ATOM     54  C   UNL A   1      38.073  33.178  33.140  1.00  0.00     0.074 A 
ATOM     55  C   UNL A   1      42.612  31.069  37.038  1.00  0.00     0.029 A 
ATOM     56  N   UNL A   1      41.157  31.319  35.375  1.00  0.00    -0.354 N 
ATOM     57  N   UNL A   1      39.027  32.673  33.885  1.00  0.00    -0.248 NA
ATOM     58  C   UNL A   1      37.461  34.393  33.699  1.00  0.00     0.031 C 
ATOM     59  C   UNL A   1      41.846  32.214  37.288  1.00  0.00     0.029 A 
ATOM     60  C   UNL A   1      40.957  32.382  36.238  1.00  0.00     0.049 A 
ATOM     61  H   UNL A   1      40.658  31.167  34.540  1.00  0.00     0.167 HD
ATOM     62  C   UNL A   1      39.150  33.523  34.981  1.00  0.00     0.074 A 
ATOM     63  C   UNL A   1      38.178  34.579  34.800  1.00  0.00     0.031 C 
ATOM     64  C   UNL A   1      39.994  33.436  36.039  1.00  0.00     0.037 A 
BRANCH  51  65
ATOM     65  C   UNL A   1      43.721  28.510  35.873  1.00  0.00     0.058 A 
ATOM     66  C   UNL A   1      43.441  27.409  36.698  1.00  0.00     0.135 A 
ATOM     67  C   UNL A   1      45.066  28.845  35.659  1.00  0.00     0.135 A 
ATOM     68  F   UNL A   1      42.170  27.062  36.957  1.00  0.00    -0.206 F 
ATOM     69  C   UNL A   1      44.458  26.680  37.306  1.00  0.00     0.059 A 
ATOM     70  C   UNL A   1      46.100  28.113  36.234  1.00  0.00     0.059 A 
ATOM     71  F   UNL A   1      45.387  29.894  34.885  1.00  0.00    -0.206 F 
ATOM     72  C   UNL A   1      45.785  27.040  37.067  1.00  0.00     0.060 A 
BRANCH  72  73
ATOM     73  S   UNL A   1      47.093  26.077  37.854  1.00  0.00     0.124 S 
ATOM     74  O   UNL A   1      47.292  25.007  36.881  1.00  0.00    -0.237 OA
ATOM     75  O   UNL A   1      48.176  27.048  37.957  1.00  0.00    -0.237 OA
ATOM     76  O   UNL A   1      46.497  25.668  39.122  1.00  0.00    -0.744 OA
ENDBRANCH  72  73
ENDBRANCH  51  65
BRANCH  52  77
ATOM     77  C   UNL A   1      36.427  33.408  31.138  1.00  0.00     0.058 A 
ATOM     78  C   UNL A   1      36.644  34.160  29.974  1.00  0.00     0.135 A 
ATOM     79  C   UNL A   1      35.121  33.365  31.651  1.00  0.00     0.135 A 
ATOM     80  F   UNL A   1      37.877  34.246  29.452  1.00  0.00    -0.206 F 
ATOM     81  C   UNL A   1      35.611  34.854  29.350  1.00  0.00     0.059 A 
ATOM     82  C   UNL A   1      34.067  34.030  31.033  1.00  0.00     0.059 A 
ATOM     83  F   UNL A   1      34.858  32.656  32.762  1.00  0.00    -0.206 F 
ATOM     84  C   UNL A   1      34.325  34.780  29.886  1.00  0.00     0.060 A 
BRANCH  84  85
ATOM     85  S   UNL A   1      32.982  35.643  29.039  1.00  0.00     0.124 S 
ATOM     86  O   UNL A   1      32.450  34.591  28.182  1.00  0.00    -0.237 OA
ATOM     87  O   UNL A   1      32.130  36.051  30.153  1.00  0.00    -0.237 OA
ATOM     88  O   UNL A   1      33.666  36.734  28.351  1.00  0.00    -0.744 OA
ENDBRANCH  84  85
ENDBRANCH  52  77
BRANCH  64  89
ATOM     89  C   UNL A   1      39.942  34.530  37.072  1.00  0.00     0.058 A 
ATOM     90  C   UNL A   1      39.021  34.504  38.131  1.00  0.00     0.135 A 
ATOM     91  C   UNL A   1      40.879  35.577  37.044  1.00  0.00     0.135 A 
ATOM     92  F   UNL A   1      38.104  33.528  38.205  1.00  0.00    -0.206 F 
ATOM     93  C   UNL A   1      39.019  35.488  39.116  1.00  0.00     0.059 A 
ATOM     94  C   UNL A   1      40.912  36.556  38.032  1.00  0.00     0.059 A 
ATOM     95  F   UNL A   1      41.790  35.642  36.060  1.00  0.00    -0.206 F 
ATOM     96  C   UNL A   1      39.971  36.508  39.060  1.00  0.00     0.060 A 
BRANCH  96  97
ATOM     97  S   UNL A   1      39.987  37.753  40.369  1.00  0.00     0.124 S 
ATOM     98  O   UNL A   1      38.581  38.141  40.422  1.00  0.00    -0.237 OA
ATOM     99  O   UNL A   1      40.478  36.994  41.515  1.00  0.00    -0.237 OA
ATOM    100  O   UNL A   1      40.902  38.770  39.859  1.00  0.00    -0.744 OA
ENDBRANCH  96  97
ENDBRANCH  64  89
ENDBRANCH  38  39
ENDBRANCH  31  33
ENDBRANCH  30  31
ENDBRANCH  29  30
ENDBRANCH  28  29
ENDBRANCH  27  28
ENDBRANCH  26  27
ENDBRANCH  25  26
ENDBRANCH   1  25
TORSDOF 27
ENDMDL
MODEL 2
REMARK VINA RESULT:      -8.3      5.261      9.207
REMARK SMILES CC[C@H](Nc1cccc(C(F)(F)F)c1)C(=O)OCCOCCOCCOCCOC(=O)c1ccc(-c2c3nc(c(-c4c(F)cc(S(=O)(=O)[O-])cc4F)c4ccc([nH]4)c(-c4c(F)cc(S(=O)(=O)[O-])cc4F)c4nc(c(-c5c(F)cc(S(=O)(=O)[O-])cc5F)c5ccc2[nH]5)C=C4)C=C3)cc1
REMARK SMILES IDX 23 1 22 2 21 3 20 4 19 5 18 6 17 7 15 8 16 9 3 10 2 11 1 12
REMARK SMILES IDX 4 13 5 15 6 16 14 17 7 18 9 19 8 20 10 21 11 22 12 23 13 24
REMARK SMILES IDX 24 25 25 26 26 27 27 28 28 29 29 30 30 31 31 32 32 33 33 34
REMARK SMILES IDX 97 35 34 36 96 37 35 38 36 39 37 40 90 41 38 42 95 43 89 44
REMARK SMILES IDX 91 45 39 46 94 47 88 48 87 49 40 51 74 52 53 53 73 54 54 55
REMARK SMILES IDX 57 56 72 57 92 58 55 59 56 60 71 62 93 63 58 64 41 65 42 66
REMARK SMILES IDX 51 67 43 68 44 69 50 70 52 71 45 72 46 73 47 74 48 75 49 76
REMARK SMILES IDX 75 77 76 78 85 79 77 80 78 81 84 82 86 83 79 84 80 85 81 86
REMARK SMILES IDX 82 87 83 88 59 89 60 90 69 91 61 92 62 93 68 94 70 95 63 96
REMARK SMILES IDX 64 97 65 98 66 99 67 100
REMARK H PARENT 4 14 91 50 57 61
REMARK Flexibility Score: inf
ROOT
ATOM      1  O   UNL A   1      32.617  22.093  26.832  1.00  0.00    -0.377 OA
ENDROOT
BRANCH   1   2
ATOM      2  C   UNL A   1      32.243  23.395  26.409  1.00  0.00     0.188 C 
BRANCH   2   3
ATOM      3  C   UNL A   1      30.971  23.441  25.551  1.00  0.00     0.188 C 
BRANCH   3   4
ATOM      4  O   UNL A   1      31.087  23.922  24.216  1.00  0.00    -0.376 OA
BRANCH   4   5
ATOM      5  C   UNL A   1      31.383  25.314  24.037  1.00  0.00     0.202 C 
BRANCH   5   6
ATOM      6  C   UNL A   1      31.230  25.861  22.619  1.00  0.00     0.261 C 
BRANCH   6   7
ATOM      7  O   UNL A   1      30.582  27.149  22.640  1.00  0.00    -0.462 OA
BRANCH   7   8
ATOM      8  C   UNL A   1      31.313  28.210  23.042  1.00  0.00     0.328 C 
ATOM      9  O   UNL A   1      32.366  28.556  22.506  1.00  0.00    -0.250 OA
BRANCH   8  10
ATOM     10  C   UNL A   1      30.781  28.936  24.281  1.00  0.00     0.189 C 
BRANCH  10  11
ATOM     11  C   UNL A   1      30.141  30.277  23.899  1.00  0.00     0.033 C 
ATOM     12  C   UNL A   1      29.097  30.266  22.800  1.00  0.00     0.007 C 
ENDBRANCH  10  11
BRANCH  10  13
ATOM     13  N   UNL A   1      31.520  28.914  25.559  1.00  0.00    -0.372 N 
ATOM     14  H   UNL A   1      31.407  28.069  26.051  1.00  0.00     0.161 HD
BRANCH  13  15
ATOM     15  C   UNL A   1      32.331  29.810  26.217  1.00  0.00     0.035 A 
ATOM     16  C   UNL A   1      31.783  31.058  26.571  1.00  0.00     0.026 A 
ATOM     17  C   UNL A   1      33.641  29.569  26.622  1.00  0.00     0.038 A 
ATOM     18  C   UNL A   1      32.496  32.011  27.303  1.00  0.00     0.003 A 
ATOM     19  C   UNL A   1      34.354  30.480  27.428  1.00  0.00     0.058 A 
ATOM     20  C   UNL A   1      33.776  31.712  27.748  1.00  0.00     0.013 A 
BRANCH  19  21
ATOM     21  C   UNL A   1      35.692  30.106  28.013  1.00  0.00     0.416 C 
ATOM     22  F   UNL A   1      35.977  28.784  27.859  1.00  0.00    -0.166 F 
ATOM     23  F   UNL A   1      36.718  30.783  27.425  1.00  0.00    -0.166 F 
ATOM     24  F   UNL A   1      35.801  30.360  29.346  1.00  0.00    -0.166 F 
ENDBRANCH  19  21
ENDBRANCH  13  15
ENDBRANCH  10  13
ENDBRANCH   8  10
ENDBRANCH   7   8
ENDBRANCH   6   7
ENDBRANCH   5   6
ENDBRANCH   4   5
ENDBRANCH   3   4
ENDBRANCH   2   3
ENDBRANCH   1   2
BRANCH   1  25
ATOM     25  C   UNL A   1      33.456  21.435  25.877  1.00  0.00     0.188 C 
BRANCH  25  26
ATOM     26  C   UNL A   1      34.643  22.330  25.565  1.00  0.00     0.188 C 
BRANCH  26  27
ATOM     27  O   UNL A   1      35.199  22.067  24.274  1.00  0.00    -0.376 OA
BRANCH  27  28
ATOM     28  C   UNL A   1      36.559  21.618  24.313  1.00  0.00     0.202 C 
BRANCH  28  29
ATOM     29  C   UNL A   1      37.191  21.735  25.709  1.00  0.00     0.261 C 
BRANCH  29  30
ATOM     30  O   UNL A   1      38.187  22.777  25.750  1.00  0.00    -0.460 OA
BRANCH  30  31
ATOM     31  C   UNL A   1      39.283  22.518  26.511  1.00  0.00     0.338 C 
ATOM     32  O   UNL A   1      39.900  21.477  26.575  1.00  0.00    -0.246 OA
BRANCH  31  33
ATOM     33  C   UNL A   1      39.750  23.785  27.124  1.00  0.00     0.060 A 
ATOM     34  C   UNL A   1      39.380  24.991  26.512  1.00  0.00     0.016 A 
ATOM     35  C   UNL A   1      40.557  23.793  28.263  1.00  0.00     0.016 A 
ATOM     36  C   UNL A   1      39.860  26.205  27.007  1.00  0.00     0.010 A 
ATOM     37  C   UNL A   1      41.037  25.009  28.759  1.00  0.00     0.010 A 
ATOM     38  C   UNL A   1      40.727  26.217  28.107  1.00  0.00    -0.014 A 
BRANCH  38  39
ATOM     39  C   UNL A   1      41.507  27.441  28.422  1.00  0.00     0.031 A 
ATOM     40  C   UNL A   1      40.753  28.632  28.953  1.00  0.00     0.074 A 
ATOM     41  C   UNL A   1      42.841  27.506  28.259  1.00  0.00     0.049 A 
ATOM     42  N   UNL A   1      41.191  29.827  29.255  1.00  0.00    -0.248 NA
ATOM     43  C   UNL A   1      39.307  28.449  29.166  1.00  0.00     0.031 C 
ATOM     44  C   UNL A   1      43.692  26.420  27.781  1.00  0.00     0.029 A 
ATOM     45  N   UNL A   1      43.710  28.549  28.468  1.00  0.00    -0.354 N 
ATOM     46  C   UNL A   1      40.078  30.532  29.697  1.00  0.00     0.074 A 
ATOM     47  C   UNL A   1      38.938  29.652  29.577  1.00  0.00     0.031 C 
ATOM     48  C   UNL A   1      44.961  26.861  27.706  1.00  0.00     0.029 A 
ATOM     49  C   UNL A   1      45.010  28.264  28.118  1.00  0.00     0.049 A 
ATOM     50  H   UNL A   1      43.431  29.418  28.833  1.00  0.00     0.167 HD
ATOM     51  C   UNL A   1      40.012  31.795  30.179  1.00  0.00     0.037 A 
ATOM     52  C   UNL A   1      46.105  29.051  28.116  1.00  0.00     0.037 A 
ATOM     53  C   UNL A   1      41.141  32.677  30.294  1.00  0.00     0.049 A 
ATOM     54  C   UNL A   1      45.998  30.477  28.599  1.00  0.00     0.074 A 
ATOM     55  C   UNL A   1      41.172  33.974  30.770  1.00  0.00     0.029 A 
ATOM     56  N   UNL A   1      42.437  32.352  29.926  1.00  0.00    -0.354 N 
ATOM     57  N   UNL A   1      44.945  31.125  29.036  1.00  0.00    -0.248 NA
ATOM     58  C   UNL A   1      47.233  31.276  28.600  1.00  0.00     0.031 C 
ATOM     59  C   UNL A   1      42.483  34.450  30.654  1.00  0.00     0.029 A 
ATOM     60  C   UNL A   1      43.276  33.430  30.152  1.00  0.00     0.049 A 
ATOM     61  H   UNL A   1      42.720  31.483  29.560  1.00  0.00     0.167 HD
ATOM     62  C   UNL A   1      45.396  32.394  29.392  1.00  0.00     0.074 A 
ATOM     63  C   UNL A   1      46.818  32.421  29.126  1.00  0.00     0.031 C 
ATOM     64  C   UNL A   1      44.694  33.440  29.896  1.00  0.00     0.037 A 
BRANCH  51  65
ATOM     65  C   UNL A   1      38.664  32.295  30.613  1.00  0.00     0.058 A 
ATOM     66  C   UNL A   1      37.820  32.984  29.727  1.00  0.00     0.135 A 
ATOM     67  C   UNL A   1      38.202  32.068  31.918  1.00  0.00     0.135 A 
ATOM     68  F   UNL A   1      38.224  33.251  28.475  1.00  0.00    -0.206 F 
ATOM     69  C   UNL A   1      36.572  33.450  30.128  1.00  0.00     0.059 A 
ATOM     70  C   UNL A   1      36.946  32.501  32.332  1.00  0.00     0.059 A 
ATOM     71  F   UNL A   1      38.974  31.421  32.806  1.00  0.00    -0.206 F 
ATOM     72  C   UNL A   1      36.144  33.203  31.433  1.00  0.00     0.060 A 
BRANCH  72  73
ATOM     73  S   UNL A   1      34.517  33.804  31.933  1.00  0.00     0.124 S 
ATOM     74  O   UNL A   1      34.875  34.889  32.842  1.00  0.00    -0.237 OA
ATOM     75  O   UNL A   1      33.931  34.211  30.661  1.00  0.00    -0.237 OA
ATOM     76  O   UNL A   1      33.903  32.638  32.560  1.00  0.00    -0.744 OA
ENDBRANCH  72  73
ENDBRANCH  51  65
BRANCH  52  77
ATOM     77  C   UNL A   1      47.407  28.512  27.637  1.00  0.00     0.058 A 
ATOM     78  C   UNL A   1      47.742  28.521  26.274  1.00  0.00     0.135 A 
ATOM     79  C   UNL A   1      48.339  27.965  28.533  1.00  0.00     0.135 A 
ATOM     80  F   UNL A   1      46.879  29.019  25.376  1.00  0.00    -0.206 F 
ATOM     81  C   UNL A   1      48.947  27.997  25.815  1.00  0.00     0.059 A 
ATOM     82  C   UNL A   1      49.560  27.456  28.101  1.00  0.00     0.059 A 
ATOM     83  F   UNL A   1      48.069  27.934  29.848  1.00  0.00    -0.206 F 
ATOM     84  C   UNL A   1      49.851  27.469  26.738  1.00  0.00     0.060 A 
BRANCH  84  85
ATOM     85  S   UNL A   1      51.434  26.837  26.136  1.00  0.00     0.124 S 
ATOM     86  O   UNL A   1      51.138  26.592  24.731  1.00  0.00    -0.237 OA
ATOM     87  O   UNL A   1      52.334  27.952  26.416  1.00  0.00    -0.237 OA
ATOM     88  O   UNL A   1      51.651  25.646  26.953  1.00  0.00    -0.744 OA
ENDBRANCH  84  85
ENDBRANCH  52  77
BRANCH  64  89
ATOM     89  C   UNL A   1      45.450  34.696  30.235  1.00  0.00     0.058 A 
ATOM     90  C   UNL A   1      45.572  35.756  29.323  1.00  0.00     0.135 A 
ATOM     91  C   UNL A   1      45.993  34.872  31.519  1.00  0.00     0.135 A 
ATOM     92  F   UNL A   1      45.073  35.640  28.082  1.00  0.00    -0.206 F 
ATOM     93  C   UNL A   1      46.221  36.939  29.666  1.00  0.00     0.059 A 
ATOM     94  C   UNL A   1      46.622  36.056  31.893  1.00  0.00     0.059 A 
ATOM     95  F   UNL A   1      45.893  33.895  32.434  1.00  0.00    -0.206 F 
ATOM     96  C   UNL A   1      46.739  37.081  30.954  1.00  0.00     0.060 A 
BRANCH  96  97
ATOM     97  S   UNL A   1      47.539  38.637  31.402  1.00  0.00     0.124 S 
ATOM     98  O   UNL A   1      48.493  38.801  30.309  1.00  0.00    -0.237 OA
ATOM     99  O   UNL A   1      46.419  39.573  31.410  1.00  0.00    -0.237 OA
ATOM    100  O   UNL A   1      48.124  38.356  32.709  1.00  0.00    -0.744 OA
ENDBRANCH  96  97
ENDBRANCH  64  89
ENDBRANCH  38  39
ENDBRANCH  31  33
ENDBRANCH  30  31
ENDBRANCH  29  30
ENDBRANCH  28  29
ENDBRANCH  27  28
ENDBRANCH  26  27
ENDBRANCH  25  26
ENDBRANCH   1  25
TORSDOF 27
ENDMDL
MODEL 3
REMARK VINA RESULT:      -8.2      3.223      9.212
REMARK SMILES CC[C@H](Nc1cccc(C(F)(F)F)c1)C(=O)OCCOCCOCCOCCOC(=O)c1ccc(-c2c3nc(c(-c4c(F)cc(S(=O)(=O)[O-])cc4F)c4ccc([nH]4)c(-c4c(F)cc(S(=O)(=O)[O-])cc4F)c4nc(c(-c5c(F)cc(S(=O)(=O)[O-])cc5F)c5ccc2[nH]5)C=C4)C=C3)cc1
REMARK SMILES IDX 23 1 22 2 21 3 20 4 19 5 18 6 17 7 15 8 16 9 3 10 2 11 1 12
REMARK SMILES IDX 4 13 5 15 6 16 14 17 7 18 9 19 8 20 10 21 11 22 12 23 13 24
REMARK SMILES IDX 24 25 25 26 26 27 27 28 28 29 29 30 30 31 31 32 32 33 33 34
REMARK SMILES IDX 97 35 34 36 96 37 35 38 36 39 37 40 90 41 38 42 95 43 89 44
REMARK SMILES IDX 91 45 39 46 94 47 88 48 87 49 40 51 74 52 53 53 73 54 54 55
REMARK SMILES IDX 57 56 72 57 92 58 55 59 56 60 71 62 93 63 58 64 41 65 42 66
REMARK SMILES IDX 51 67 43 68 44 69 50 70 52 71 45 72 46 73 47 74 48 75 49 76
REMARK SMILES IDX 75 77 76 78 85 79 77 80 78 81 84 82 86 83 79 84 80 85 81 86
REMARK SMILES IDX 82 87 83 88 59 89 60 90 69 91 61 92 62 93 68 94 70 95 63 96
REMARK SMILES IDX 64 97 65 98 66 99 67 100
REMARK H PARENT 4 14 91 50 57 61
REMARK Flexibility Score: inf
ROOT
ATOM      1  O   UNL A   1      40.214  19.245  25.666  1.00  0.00    -0.377 OA
ENDROOT
BRANCH   1   2
ATOM      2  C   UNL A   1      38.966  19.847  25.972  1.00  0.00     0.188 C 
BRANCH   2   3
ATOM      3  C   UNL A   1      38.019  19.987  24.772  1.00  0.00     0.188 C 
BRANCH   3   4
ATOM      4  O   UNL A   1      36.847  20.778  24.939  1.00  0.00    -0.376 OA
BRANCH   4   5
ATOM      5  C   UNL A   1      36.968  21.985  25.704  1.00  0.00     0.202 C 
BRANCH   5   6
ATOM      6  C   UNL A   1      37.237  23.264  24.913  1.00  0.00     0.261 C 
BRANCH   6   7
ATOM      7  O   UNL A   1      36.054  24.087  24.864  1.00  0.00    -0.462 OA
BRANCH   7   8
ATOM      8  C   UNL A   1      35.092  23.746  23.979  1.00  0.00     0.328 C 
ATOM      9  O   UNL A   1      35.317  23.458  22.804  1.00  0.00    -0.250 OA
BRANCH   8  10
ATOM     10  C   UNL A   1      33.660  23.811  24.518  1.00  0.00     0.189 C 
BRANCH  10  11
ATOM     11  C   UNL A   1      33.620  24.499  25.888  1.00  0.00     0.033 C 
ATOM     12  C   UNL A   1      32.772  25.749  26.021  1.00  0.00     0.007 C 
ENDBRANCH  10  11
BRANCH  10  13
ATOM     13  N   UNL A   1      32.718  22.690  24.330  1.00  0.00    -0.372 N 
ATOM     14  H   UNL A   1      31.812  22.988  24.088  1.00  0.00     0.161 HD
BRANCH  13  15
ATOM     15  C   UNL A   1      32.824  21.321  24.418  1.00  0.00     0.035 A 
ATOM     16  C   UNL A   1      32.904  20.747  25.702  1.00  0.00     0.026 A 
ATOM     17  C   UNL A   1      32.796  20.437  23.343  1.00  0.00     0.038 A 
ATOM     18  C   UNL A   1      32.941  19.365  25.906  1.00  0.00     0.003 A 
ATOM     19  C   UNL A   1      32.753  19.040  23.525  1.00  0.00     0.058 A 
ATOM     20  C   UNL A   1      32.845  18.512  24.816  1.00  0.00     0.013 A 
BRANCH  19  21
ATOM     21  C   UNL A   1      32.525  18.118  22.354  1.00  0.00     0.416 C 
ATOM     22  F   UNL A   1      31.329  17.474  22.423  1.00  0.00    -0.166 F 
ATOM     23  F   UNL A   1      32.525  18.785  21.166  1.00  0.00    -0.166 F 
ATOM     24  F   UNL A   1      33.469  17.144  22.228  1.00  0.00    -0.166 F 
ENDBRANCH  19  21
ENDBRANCH  13  15
ENDBRANCH  10  13
ENDBRANCH   8  10
ENDBRANCH   7   8
ENDBRANCH   6   7
ENDBRANCH   5   6
ENDBRANCH   4   5
ENDBRANCH   3   4
ENDBRANCH   2   3
ENDBRANCH   1   2
BRANCH   1  25
ATOM     25  C   UNL A   1      41.319  20.023  26.138  1.00  0.00     0.188 C 
BRANCH  25  26
ATOM     26  C   UNL A   1      40.798  21.101  27.073  1.00  0.00     0.188 C 
BRANCH  26  27
ATOM     27  O   UNL A   1      41.316  22.396  26.753  1.00  0.00    -0.376 OA
BRANCH  27  28
ATOM     28  C   UNL A   1      42.125  22.415  25.571  1.00  0.00     0.202 C 
BRANCH  28  29
ATOM     29  C   UNL A   1      42.922  23.719  25.408  1.00  0.00     0.261 C 
BRANCH  29  30
ATOM     30  O   UNL A   1      42.749  24.587  26.547  1.00  0.00    -0.460 OA
BRANCH  30  31
ATOM     31  C   UNL A   1      42.354  25.858  26.268  1.00  0.00     0.338 C 
ATOM     32  O   UNL A   1      41.815  26.251  25.258  1.00  0.00    -0.246 OA
BRANCH  31  33
ATOM     33  C   UNL A   1      42.505  26.683  27.492  1.00  0.00     0.060 A 
ATOM     34  C   UNL A   1      42.121  26.124  28.718  1.00  0.00     0.016 A 
ATOM     35  C   UNL A   1      42.987  27.992  27.436  1.00  0.00     0.016 A 
ATOM     36  C   UNL A   1      42.170  26.889  29.885  1.00  0.00     0.010 A 
ATOM     37  C   UNL A   1      43.037  28.758  28.604  1.00  0.00     0.010 A 
ATOM     38  C   UNL A   1      42.587  28.225  29.826  1.00  0.00    -0.014 A 
BRANCH  38  39
ATOM     39  C   UNL A   1      42.319  29.136  30.968  1.00  0.00     0.031 A 
ATOM     40  C   UNL A   1      41.107  30.026  30.881  1.00  0.00     0.074 A 
ATOM     41  C   UNL A   1      43.108  29.177  32.057  1.00  0.00     0.049 A 
ATOM     42  N   UNL A   1      40.684  30.940  31.716  1.00  0.00    -0.248 NA
ATOM     43  C   UNL A   1      40.261  29.867  29.685  1.00  0.00     0.031 C 
ATOM     44  C   UNL A   1      44.292  28.351  32.279  1.00  0.00     0.029 A 
ATOM     45  N   UNL A   1      43.031  29.965  33.179  1.00  0.00    -0.354 N 
ATOM     46  C   UNL A   1      39.525  31.457  31.150  1.00  0.00     0.074 A 
ATOM     47  C   UNL A   1      39.338  30.794  29.879  1.00  0.00     0.031 C 
ATOM     48  C   UNL A   1      44.849  28.695  33.454  1.00  0.00     0.029 A 
ATOM     49  C   UNL A   1      44.069  29.774  34.061  1.00  0.00     0.049 A 
ATOM     50  H   UNL A   1      42.303  30.606  33.338  1.00  0.00     0.167 HD
ATOM     51  C   UNL A   1      38.679  32.387  31.651  1.00  0.00     0.037 A 
ATOM     52  C   UNL A   1      44.362  30.409  35.214  1.00  0.00     0.037 A 
ATOM     53  C   UNL A   1      38.864  33.054  32.910  1.00  0.00     0.049 A 
ATOM     54  C   UNL A   1      43.439  31.488  35.726  1.00  0.00     0.074 A 
ATOM     55  C   UNL A   1      38.061  34.011  33.501  1.00  0.00     0.029 A 
ATOM     56  N   UNL A   1      39.929  32.835  33.770  1.00  0.00    -0.354 N 
ATOM     57  N   UNL A   1      42.334  31.951  35.193  1.00  0.00    -0.248 NA
ATOM     58  C   UNL A   1      43.797  32.123  37.003  1.00  0.00     0.031 C 
ATOM     59  C   UNL A   1      38.661  34.401  34.704  1.00  0.00     0.029 A 
ATOM     60  C   UNL A   1      39.811  33.649  34.883  1.00  0.00     0.049 A 
ATOM     61  H   UNL A   1      40.660  32.193  33.614  1.00  0.00     0.167 HD
ATOM     62  C   UNL A   1      41.850  32.906  36.082  1.00  0.00     0.074 A 
ATOM     63  C   UNL A   1      42.778  32.952  37.191  1.00  0.00     0.031 C 
ATOM     64  C   UNL A   1      40.736  33.675  35.989  1.00  0.00     0.037 A 
BRANCH  51  65
ATOM     65  C   UNL A   1      37.476  32.737  30.823  1.00  0.00     0.058 A 
ATOM     66  C   UNL A   1      36.217  32.174  31.087  1.00  0.00     0.135 A 
ATOM     67  C   UNL A   1      37.576  33.658  29.769  1.00  0.00     0.135 A 
ATOM     68  F   UNL A   1      36.072  31.268  32.067  1.00  0.00    -0.206 F 
ATOM     69  C   UNL A   1      35.102  32.496  30.320  1.00  0.00     0.059 A 
ATOM     70  C   UNL A   1      36.468  34.015  29.006  1.00  0.00     0.059 A 
ATOM     71  F   UNL A   1      38.759  34.219  29.470  1.00  0.00    -0.206 F 
ATOM     72  C   UNL A   1      35.238  33.419  29.281  1.00  0.00     0.060 A 
BRANCH  72  73
ATOM     73  S   UNL A   1      33.780  33.834  28.303  1.00  0.00     0.124 S 
ATOM     74  O   UNL A   1      32.911  34.429  29.314  1.00  0.00    -0.237 OA
ATOM     75  O   UNL A   1      34.322  34.756  27.311  1.00  0.00    -0.237 OA
ATOM     76  O   UNL A   1      33.342  32.543  27.781  1.00  0.00    -0.744 OA
ENDBRANCH  72  73
ENDBRANCH  51  65
BRANCH  52  77
ATOM     77  C   UNL A   1      45.590  30.045  35.972  1.00  0.00     0.058 A 
ATOM     78  C   UNL A   1      46.812  30.694  35.734  1.00  0.00     0.135 A 
ATOM     79  C   UNL A   1      45.570  29.032  36.943  1.00  0.00     0.135 A 
ATOM     80  F   UNL A   1      46.888  31.658  34.805  1.00  0.00    -0.206 F 
ATOM     81  C   UNL A   1      47.971  30.343  36.420  1.00  0.00     0.059 A 
ATOM     82  C   UNL A   1      46.710  28.679  37.659  1.00  0.00     0.059 A 
ATOM     83  F   UNL A   1      44.426  28.382  37.212  1.00  0.00    -0.206 F 
ATOM     84  C   UNL A   1      47.908  29.336  37.384  1.00  0.00     0.060 A 
BRANCH  84  85
ATOM     85  S   UNL A   1      49.407  28.923  38.306  1.00  0.00     0.124 S 
ATOM     86  O   UNL A   1      49.651  27.553  37.873  1.00  0.00    -0.237 OA
ATOM     87  O   UNL A   1      50.351  29.925  37.818  1.00  0.00    -0.237 OA
ATOM     88  O   UNL A   1      49.000  29.084  39.698  1.00  0.00    -0.744 OA
ENDBRANCH  84  85
ENDBRANCH  52  77
BRANCH  64  89
ATOM     89  C   UNL A   1      40.425  34.606  37.130  1.00  0.00     0.058 A 
ATOM     90  C   UNL A   1      40.925  35.917  37.171  1.00  0.00     0.135 A 
ATOM     91  C   UNL A   1      39.552  34.205  38.155  1.00  0.00     0.135 A 
ATOM     92  F   UNL A   1      41.764  36.351  36.218  1.00  0.00    -0.206 F 
ATOM     93  C   UNL A   1      40.583  36.792  38.199  1.00  0.00     0.059 A 
ATOM     94  C   UNL A   1      39.176  35.071  39.177  1.00  0.00     0.059 A 
ATOM     95  F   UNL A   1      39.035  32.965  38.155  1.00  0.00    -0.206 F 
ATOM     96  C   UNL A   1      39.706  36.361  39.196  1.00  0.00     0.060 A 
BRANCH  96  97
ATOM     97  S   UNL A   1      39.235  37.519  40.499  1.00  0.00     0.124 S 
ATOM     98  O   UNL A   1      38.164  38.270  39.852  1.00  0.00    -0.237 OA
ATOM     99  O   UNL A   1      38.821  36.626  41.576  1.00  0.00    -0.237 OA
ATOM    100  O   UNL A   1      40.464  38.267  40.750  1.00  0.00    -0.744 OA
ENDBRANCH  96  97
ENDBRANCH  64  89
ENDBRANCH  38  39
ENDBRANCH  31  33
ENDBRANCH  30  31
ENDBRANCH  29  30
ENDBRANCH  28  29
ENDBRANCH  27  28
ENDBRANCH  26  27
ENDBRANCH  25  26
ENDBRANCH   1  25
TORSDOF 27
ENDMDL
