MODEL 1
REMARK VINA RESULT:      -7.4      0.000      0.000
REMARK SMILES C[C@H]1CC[C@H](CNC(=O)NCc2ccc(C(=O)OCCOCCOCCOCCOC(=O)c3ccc(-c4c5nc(c(-c6c(F)cc(S(=O)(=O)[O-])cc6F)c6ccc([nH]6)c(-c6c(F)cc(S(=O)(=O)[O-])cc6F)c6nc(c(-c7c(F)cc(S(=O)(=O)[O-])cc7F)c7ccc4[nH]7)C=C6)C=C5)cc3)o2)CC1
REMARK SMILES IDX 23 1 22 2 21 3 20 4 19 5 18 6 16 7 17 8 15 9 12 10 13 11
REMARK SMILES IDX 99 12 14 13 11 14 10 15 7 16 8 17 9 19 6 21 5 22 1 23 2 24
REMARK SMILES IDX 101 25 3 26 100 27 4 28 24 29 25 30 26 31 27 32 28 33 29 34
REMARK SMILES IDX 30 35 31 36 32 37 33 38 34 39 98 40 35 41 97 42 36 43 37 44
REMARK SMILES IDX 38 45 91 46 39 47 96 48 90 49 92 50 40 51 95 52 89 53 88 54
REMARK SMILES IDX 41 56 75 57 54 58 74 59 55 60 58 61 73 62 93 63 56 64 57 65
REMARK SMILES IDX 72 67 94 68 59 69 42 70 43 71 52 72 44 73 45 74 51 75 53 76
REMARK SMILES IDX 46 77 47 78 48 79 49 80 50 81 76 82 77 83 86 84 78 85 79 86
REMARK SMILES IDX 85 87 87 88 80 89 81 90 82 91 83 92 84 93 60 94 61 95 70 96
REMARK SMILES IDX 62 97 63 98 69 99 71 100 64 101 65 102 66 103 67 104 68 105
REMARK H PARENT 7 18 10 20 92 55 58 66
REMARK Flexibility Score: inf
ROOT
ATOM      1  C   UNL A   1      46.924  27.413  25.330  1.00  0.00     0.188 C 
ENDROOT
BRANCH   1   2
ATOM      2  C   UNL A   1      45.515  27.862  25.749  1.00  0.00     0.188 C 
BRANCH   2   3
ATOM      3  O   UNL A   1      45.525  28.669  26.924  1.00  0.00    -0.376 OA
BRANCH   3   4
ATOM      4  C   UNL A   1      44.879  29.933  26.845  1.00  0.00     0.202 C 
BRANCH   4   5
ATOM      5  C   UNL A   1      43.820  30.272  27.910  1.00  0.00     0.261 C 
BRANCH   5   6
ATOM      6  O   UNL A   1      44.105  31.395  28.758  1.00  0.00    -0.457 OA
BRANCH   6   7
ATOM      7  C   UNL A   1      43.717  31.357  30.058  1.00  0.00     0.374 C 
ATOM      8  O   UNL A   1      44.075  30.508  30.868  1.00  0.00    -0.242 OA
BRANCH   7   9
ATOM      9  C   UNL A   1      42.944  32.550  30.334  1.00  0.00     0.211 A 
ATOM     10  C   UNL A   1      41.898  34.423  29.785  1.00  0.00     0.124 A 
ATOM     11  C   UNL A   1      41.485  34.106  31.062  1.00  0.00     0.048 A 
ATOM     12  O   UNL A   1      42.823  33.508  29.359  1.00  0.00    -0.452 OA
ATOM     13  C   UNL A   1      42.156  32.910  31.415  1.00  0.00     0.058 A 
BRANCH  10  14
ATOM     14  C   UNL A   1      41.543  35.527  28.851  1.00  0.00     0.193 C 
BRANCH  14  15
ATOM     15  N   UNL A   1      42.322  35.409  27.639  1.00  0.00    -0.331 N 
ATOM     16  N   UNL A   1      42.968  37.584  26.991  1.00  0.00    -0.338 N 
ATOM     17  C   UNL A   1      43.080  36.251  26.936  1.00  0.00     0.315 C 
ATOM     18  H   UNL A   1      43.766  38.056  26.662  1.00  0.00     0.165 HD
ATOM     19  O   UNL A   1      43.935  35.782  26.182  1.00  0.00    -0.249 OA
ATOM     20  H   UNL A   1      42.287  34.507  27.246  1.00  0.00     0.165 HD
BRANCH  16  21
ATOM     21  C   UNL A   1      41.914  38.476  27.438  1.00  0.00     0.121 C 
BRANCH  21  22
ATOM     22  C   UNL A   1      42.408  39.932  27.494  1.00  0.00     0.008 C 
ATOM     23  C   UNL A   1      45.175  43.342  27.631  1.00  0.00     0.007 C 
ATOM     24  C   UNL A   1      44.635  41.914  27.577  1.00  0.00    -0.014 C 
ATOM     25  C   UNL A   1      43.803  41.690  26.311  1.00  0.00     0.003 C 
ATOM     26  C   UNL A   1      43.804  41.600  28.826  1.00  0.00     0.003 C 
ATOM     27  C   UNL A   1      43.243  40.269  26.252  1.00  0.00     0.006 C 
ATOM     28  C   UNL A   1      43.223  40.188  28.777  1.00  0.00     0.006 C 
ENDBRANCH  21  22
ENDBRANCH  16  21
ENDBRANCH  14  15
ENDBRANCH  10  14
ENDBRANCH   7   9
ENDBRANCH   6   7
ENDBRANCH   5   6
ENDBRANCH   4   5
ENDBRANCH   3   4
ENDBRANCH   2   3
ENDBRANCH   1   2
BRANCH   1  29
ATOM     29  O   UNL A   1      47.259  26.136  25.851  1.00  0.00    -0.377 OA
BRANCH  29  30
ATOM     30  C   UNL A   1      47.256  25.042  24.934  1.00  0.00     0.188 C 
BRANCH  30  31
ATOM     31  C   UNL A   1      46.215  23.908  25.063  1.00  0.00     0.188 C 
BRANCH  31  32
ATOM     32  O   UNL A   1      44.916  24.258  24.579  1.00  0.00    -0.376 OA
BRANCH  32  33
ATOM     33  C   UNL A   1      43.999  23.183  24.401  1.00  0.00     0.202 C 
BRANCH  33  34
ATOM     34  C   UNL A   1      43.066  22.971  25.600  1.00  0.00     0.261 C 
BRANCH  34  35
ATOM     35  O   UNL A   1      42.451  24.169  26.096  1.00  0.00    -0.460 OA
BRANCH  35  36
ATOM     36  C   UNL A   1      41.337  24.006  26.845  1.00  0.00     0.338 C 
ATOM     37  O   UNL A   1      40.681  22.987  26.968  1.00  0.00    -0.246 OA
BRANCH  36  38
ATOM     38  C   UNL A   1      41.132  25.226  27.648  1.00  0.00     0.060 A 
ATOM     39  C   UNL A   1      42.205  26.113  27.794  1.00  0.00     0.016 A 
ATOM     40  C   UNL A   1      39.912  25.469  28.284  1.00  0.00     0.016 A 
ATOM     41  C   UNL A   1      42.083  27.212  28.641  1.00  0.00     0.010 A 
ATOM     42  C   UNL A   1      39.794  26.564  29.142  1.00  0.00     0.010 A 
ATOM     43  C   UNL A   1      40.895  27.409  29.361  1.00  0.00    -0.014 A 
BRANCH  43  44
ATOM     44  C   UNL A   1      40.893  28.347  30.508  1.00  0.00     0.031 A 
ATOM     45  C   UNL A   1      39.879  29.459  30.511  1.00  0.00     0.074 A 
ATOM     46  C   UNL A   1      41.746  28.200  31.535  1.00  0.00     0.049 A 
ATOM     47  N   UNL A   1      39.664  30.385  31.408  1.00  0.00    -0.248 NA
ATOM     48  C   UNL A   1      38.989  29.537  29.340  1.00  0.00     0.031 C 
ATOM     49  C   UNL A   1      42.761  27.154  31.651  1.00  0.00     0.029 A 
ATOM     50  N   UNL A   1      41.891  28.942  32.680  1.00  0.00    -0.354 N 
ATOM     51  C   UNL A   1      38.615  31.151  30.914  1.00  0.00     0.074 A 
ATOM     52  C   UNL A   1      38.261  30.606  29.622  1.00  0.00     0.031 C 
ATOM     53  C   UNL A   1      43.433  27.327  32.804  1.00  0.00     0.029 A 
ATOM     54  C   UNL A   1      42.903  28.500  33.498  1.00  0.00     0.049 A 
ATOM     55  H   UNL A   1      41.325  29.717  32.895  1.00  0.00     0.167 HD
ATOM     56  C   UNL A   1      37.990  32.206  31.490  1.00  0.00     0.037 A 
ATOM     57  C   UNL A   1      43.347  28.993  34.671  1.00  0.00     0.037 A 
ATOM     58  C   UNL A   1      38.349  32.753  32.770  1.00  0.00     0.049 A 
ATOM     59  C   UNL A   1      42.661  30.189  35.279  1.00  0.00     0.074 A 
ATOM     60  C   UNL A   1      37.777  33.817  33.445  1.00  0.00     0.029 A 
ATOM     61  N   UNL A   1      39.383  32.283  33.567  1.00  0.00    -0.354 N 
ATOM     62  N   UNL A   1      41.648  30.883  34.817  1.00  0.00    -0.248 NA
ATOM     63  C   UNL A   1      43.171  30.660  36.574  1.00  0.00     0.031 C 
ATOM     64  C   UNL A   1      38.488  34.012  34.635  1.00  0.00     0.029 A 
ATOM     65  C   UNL A   1      39.474  33.042  34.721  1.00  0.00     0.049 A 
ATOM     66  H   UNL A   1      39.965  31.520  33.344  1.00  0.00     0.167 HD
ATOM     67  C   UNL A   1      41.379  31.853  35.780  1.00  0.00     0.074 A 
ATOM     68  C   UNL A   1      42.333  31.649  36.851  1.00  0.00     0.031 C 
ATOM     69  C   UNL A   1      40.427  32.820  35.780  1.00  0.00     0.037 A 
BRANCH  56  70
ATOM     70  C   UNL A   1      36.872  32.844  30.716  1.00  0.00     0.058 A 
ATOM     71  C   UNL A   1      37.115  33.844  29.759  1.00  0.00     0.135 A 
ATOM     72  C   UNL A   1      35.541  32.461  30.941  1.00  0.00     0.135 A 
ATOM     73  F   UNL A   1      38.368  34.263  29.523  1.00  0.00    -0.206 F 
ATOM     74  C   UNL A   1      36.073  34.464  29.077  1.00  0.00     0.059 A 
ATOM     75  C   UNL A   1      34.485  33.050  30.253  1.00  0.00     0.059 A 
ATOM     76  F   UNL A   1      35.254  31.516  31.850  1.00  0.00    -0.206 F 
ATOM     77  C   UNL A   1      34.761  34.065  29.336  1.00  0.00     0.060 A 
BRANCH  77  78
ATOM     78  S   UNL A   1      33.417  34.891  28.458  1.00  0.00     0.124 S 
ATOM     79  O   UNL A   1      32.664  33.751  27.945  1.00  0.00    -0.237 OA
ATOM     80  O   UNL A   1      32.768  35.653  29.520  1.00  0.00    -0.237 OA
ATOM     81  O   UNL A   1      34.110  35.690  27.452  1.00  0.00    -0.744 OA
ENDBRANCH  77  78
ENDBRANCH  56  70
BRANCH  57  82
ATOM     82  C   UNL A   1      44.495  28.345  35.357  1.00  0.00     0.058 A 
ATOM     83  C   UNL A   1      45.817  28.722  35.076  1.00  0.00     0.135 A 
ATOM     84  C   UNL A   1      44.293  27.336  36.313  1.00  0.00     0.135 A 
ATOM     85  F   UNL A   1      46.061  29.674  34.161  1.00  0.00    -0.206 F 
ATOM     86  C   UNL A   1      46.897  28.118  35.708  1.00  0.00     0.059 A 
ATOM     87  C   UNL A   1      45.356  26.733  36.975  1.00  0.00     0.059 A 
ATOM     88  F   UNL A   1      43.047  26.946  36.624  1.00  0.00    -0.206 F 
ATOM     89  C   UNL A   1      46.656  27.125  36.660  1.00  0.00     0.060 A 
BRANCH  89  90
ATOM     90  S   UNL A   1      48.063  26.388  37.520  1.00  0.00     0.124 S 
ATOM     91  O   UNL A   1      48.336  25.220  36.691  1.00  0.00    -0.237 OA
ATOM     92  O   UNL A   1      49.054  27.458  37.464  1.00  0.00    -0.237 OA
ATOM     93  O   UNL A   1      47.530  26.107  38.851  1.00  0.00    -0.744 OA
ENDBRANCH  89  90
ENDBRANCH  57  82
BRANCH  69  94
ATOM     94  C   UNL A   1      40.343  33.704  36.994  1.00  0.00     0.058 A 
ATOM     95  C   UNL A   1      41.133  34.856  37.127  1.00  0.00     0.135 A 
ATOM     96  C   UNL A   1      39.432  33.410  38.022  1.00  0.00     0.135 A 
ATOM     97  F   UNL A   1      42.019  35.181  36.173  1.00  0.00    -0.206 F 
ATOM     98  C   UNL A   1      41.049  35.667  38.254  1.00  0.00     0.059 A 
ATOM     99  C   UNL A   1      39.314  34.220  39.146  1.00  0.00     0.059 A 
ATOM    100  F   UNL A   1      38.642  32.328  37.936  1.00  0.00    -0.206 F 
ATOM    101  C   UNL A   1      40.140  35.338  39.262  1.00  0.00     0.060 A 
BRANCH 101 102
ATOM    102  S   UNL A   1      40.031  36.400  40.718  1.00  0.00     0.124 S 
ATOM    103  O   UNL A   1      40.990  35.763  41.615  1.00  0.00    -0.237 OA
ATOM    104  O   UNL A   1      40.427  37.702  40.190  1.00  0.00    -0.237 OA
ATOM    105  O   UNL A   1      38.631  36.289  41.113  1.00  0.00    -0.744 OA
ENDBRANCH 101 102
ENDBRANCH  69  94
ENDBRANCH  43  44
ENDBRANCH  36  38
ENDBRANCH  35  36
ENDBRANCH  34  35
ENDBRANCH  33  34
ENDBRANCH  32  33
ENDBRANCH  31  32
ENDBRANCH  30  31
ENDBRANCH  29  30
ENDBRANCH   1  29
TORSDOF 27
ENDMDL
MODEL 2
REMARK VINA RESULT:      -7.1      5.643     12.603
REMARK SMILES C[C@H]1CC[C@H](CNC(=O)NCc2ccc(C(=O)OCCOCCOCCOCCOC(=O)c3ccc(-c4c5nc(c(-c6c(F)cc(S(=O)(=O)[O-])cc6F)c6ccc([nH]6)c(-c6c(F)cc(S(=O)(=O)[O-])cc6F)c6nc(c(-c7c(F)cc(S(=O)(=O)[O-])cc7F)c7ccc4[nH]7)C=C6)C=C5)cc3)o2)CC1
REMARK SMILES IDX 23 1 22 2 21 3 20 4 19 5 18 6 16 7 17 8 15 9 12 10 13 11
REMARK SMILES IDX 99 12 14 13 11 14 10 15 7 16 8 17 9 19 6 21 5 22 1 23 2 24
REMARK SMILES IDX 101 25 3 26 100 27 4 28 24 29 25 30 26 31 27 32 28 33 29 34
REMARK SMILES IDX 30 35 31 36 32 37 33 38 34 39 98 40 35 41 97 42 36 43 37 44
REMARK SMILES IDX 38 45 91 46 39 47 96 48 90 49 92 50 40 51 95 52 89 53 88 54
REMARK SMILES IDX 41 56 75 57 54 58 74 59 55 60 58 61 73 62 93 63 56 64 57 65
REMARK SMILES IDX 72 67 94 68 59 69 42 70 43 71 52 72 44 73 45 74 51 75 53 76
REMARK SMILES IDX 46 77 47 78 48 79 49 80 50 81 76 82 77 83 86 84 78 85 79 86
REMARK SMILES IDX 85 87 87 88 80 89 81 90 82 91 83 92 84 93 60 94 61 95 70 96
REMARK SMILES IDX 62 97 63 98 69 99 71 100 64 101 65 102 66 103 67 104 68 105
REMARK H PARENT 7 18 10 20 92 55 58 66
REMARK Flexibility Score: inf
ROOT
ATOM      1  C   UNL A   1      45.653  24.264  24.987  1.00  0.00     0.188 C 
ENDROOT
BRANCH   1   2
ATOM      2  C   UNL A   1      45.925  22.883  24.370  1.00  0.00     0.188 C 
BRANCH   2   3
ATOM      3  O   UNL A   1      45.029  21.883  24.850  1.00  0.00    -0.376 OA
BRANCH   3   4
ATOM      4  C   UNL A   1      43.760  22.325  25.317  1.00  0.00     0.202 C 
BRANCH   4   5
ATOM      5  C   UNL A   1      42.864  21.306  26.044  1.00  0.00     0.261 C 
BRANCH   5   6
ATOM      6  O   UNL A   1      41.488  21.259  25.634  1.00  0.00    -0.457 OA
BRANCH   6   7
ATOM      7  C   UNL A   1      40.517  21.202  26.581  1.00  0.00     0.374 C 
ATOM      8  O   UNL A   1      40.428  20.329  27.436  1.00  0.00    -0.242 OA
BRANCH   7   9
ATOM      9  C   UNL A   1      39.720  22.408  26.483  1.00  0.00     0.211 A 
ATOM     10  C   UNL A   1      37.835  23.540  26.220  1.00  0.00     0.124 A 
ATOM     11  C   UNL A   1      38.763  24.435  26.710  1.00  0.00     0.048 A 
ATOM     12  O   UNL A   1      38.427  22.319  26.033  1.00  0.00    -0.452 OA
ATOM     13  C   UNL A   1      39.969  23.713  26.876  1.00  0.00     0.058 A 
BRANCH  10  14
ATOM     14  C   UNL A   1      36.393  23.665  25.869  1.00  0.00     0.193 C 
BRANCH  14  15
ATOM     15  N   UNL A   1      36.230  23.559  24.436  1.00  0.00    -0.331 N 
ATOM     16  N   UNL A   1      34.612  21.892  24.024  1.00  0.00    -0.338 N 
ATOM     17  C   UNL A   1      35.355  22.938  23.645  1.00  0.00     0.315 C 
ATOM     18  H   UNL A   1      33.826  21.743  23.451  1.00  0.00     0.165 HD
ATOM     19  O   UNL A   1      35.219  23.343  22.488  1.00  0.00    -0.249 OA
ATOM     20  H   UNL A   1      36.916  24.055  23.934  1.00  0.00     0.165 HD
BRANCH  16  21
ATOM     21  C   UNL A   1      34.726  20.932  25.107  1.00  0.00     0.121 C 
BRANCH  21  22
ATOM     22  C   UNL A   1      34.099  19.581  24.718  1.00  0.00     0.008 C 
ATOM     23  C   UNL A   1      32.883  15.369  25.000  1.00  0.00     0.007 C 
ATOM     24  C   UNL A   1      33.491  16.729  25.340  1.00  0.00    -0.014 C 
ATOM     25  C   UNL A   1      32.410  17.813  25.396  1.00  0.00     0.003 C 
ATOM     26  C   UNL A   1      34.576  17.106  24.327  1.00  0.00     0.003 C 
ATOM     27  C   UNL A   1      33.007  19.183  25.719  1.00  0.00     0.006 C 
ATOM     28  C   UNL A   1      35.173  18.480  24.626  1.00  0.00     0.006 C 
ENDBRANCH  21  22
ENDBRANCH  16  21
ENDBRANCH  14  15
ENDBRANCH  10  14
ENDBRANCH   7   9
ENDBRANCH   6   7
ENDBRANCH   5   6
ENDBRANCH   4   5
ENDBRANCH   3   4
ENDBRANCH   2   3
ENDBRANCH   1   2
BRANCH   1  29
ATOM     29  O   UNL A   1      46.052  24.332  26.348  1.00  0.00    -0.377 OA
BRANCH  29  30
ATOM     30  C   UNL A   1      45.530  25.413  27.122  1.00  0.00     0.188 C 
BRANCH  30  31
ATOM     31  C   UNL A   1      44.751  25.144  28.428  1.00  0.00     0.188 C 
BRANCH  31  32
ATOM     32  O   UNL A   1      43.337  25.035  28.246  1.00  0.00    -0.376 OA
BRANCH  32  33
ATOM     33  C   UNL A   1      42.744  25.963  27.343  1.00  0.00     0.202 C 
BRANCH  33  34
ATOM     34  C   UNL A   1      42.366  27.297  27.998  1.00  0.00     0.261 C 
BRANCH  34  35
ATOM     35  O   UNL A   1      41.507  27.177  29.143  1.00  0.00    -0.460 OA
BRANCH  35  36
ATOM     36  C   UNL A   1      40.746  28.254  29.437  1.00  0.00     0.338 C 
ATOM     37  O   UNL A   1      39.846  28.720  28.761  1.00  0.00    -0.246 OA
BRANCH  36  38
ATOM     38  C   UNL A   1      41.059  28.685  30.812  1.00  0.00     0.060 A 
ATOM     39  C   UNL A   1      42.152  29.538  31.008  1.00  0.00     0.016 A 
ATOM     40  C   UNL A   1      40.313  28.218  31.897  1.00  0.00     0.016 A 
ATOM     41  C   UNL A   1      42.547  29.869  32.302  1.00  0.00     0.010 A 
ATOM     42  C   UNL A   1      40.718  28.541  33.194  1.00  0.00     0.010 A 
ATOM     43  C   UNL A   1      41.865  29.325  33.400  1.00  0.00    -0.014 A 
BRANCH  43  44
ATOM     44  C   UNL A   1      42.493  29.383  34.741  1.00  0.00     0.031 A 
ATOM     45  C   UNL A   1      43.407  28.257  35.144  1.00  0.00     0.074 A 
ATOM     46  C   UNL A   1      42.284  30.420  35.569  1.00  0.00     0.049 A 
ATOM     47  N   UNL A   1      44.088  28.094  36.247  1.00  0.00    -0.248 NA
ATOM     48  C   UNL A   1      43.571  27.166  34.168  1.00  0.00     0.031 C 
ATOM     49  C   UNL A   1      41.433  31.574  35.283  1.00  0.00     0.029 A 
ATOM     50  N   UNL A   1      42.777  30.664  36.825  1.00  0.00    -0.354 N 
ATOM     51  C   UNL A   1      44.764  26.889  36.098  1.00  0.00     0.074 A 
ATOM     52  C   UNL A   1      44.381  26.342  34.814  1.00  0.00     0.031 C 
ATOM     53  C   UNL A   1      41.457  32.403  36.343  1.00  0.00     0.029 A 
ATOM     54  C   UNL A   1      42.313  31.832  37.382  1.00  0.00     0.049 A 
ATOM     55  H   UNL A   1      43.403  30.060  37.285  1.00  0.00     0.167 HD
ATOM     56  C   UNL A   1      45.635  26.293  36.947  1.00  0.00     0.037 A 
ATOM     57  C   UNL A   1      42.554  32.371  38.593  1.00  0.00     0.037 A 
ATOM     58  C   UNL A   1      46.007  26.832  38.226  1.00  0.00     0.049 A 
ATOM     59  C   UNL A   1      43.501  31.676  39.537  1.00  0.00     0.074 A 
ATOM     60  C   UNL A   1      46.885  26.311  39.160  1.00  0.00     0.029 A 
ATOM     61  N   UNL A   1      45.512  28.014  38.759  1.00  0.00    -0.354 N 
ATOM     62  N   UNL A   1      44.159  30.553  39.370  1.00  0.00    -0.248 NA
ATOM     63  C   UNL A   1      43.748  32.330  40.830  1.00  0.00     0.031 C 
ATOM     64  C   UNL A   1      46.895  27.161  40.272  1.00  0.00     0.029 A 
ATOM     65  C   UNL A   1      46.056  28.234  40.012  1.00  0.00     0.049 A 
ATOM     66  H   UNL A   1      44.869  28.610  38.309  1.00  0.00     0.167 HD
ATOM     67  C   UNL A   1      44.922  30.382  40.522  1.00  0.00     0.074 A 
ATOM     68  C   UNL A   1      44.646  31.521  41.374  1.00  0.00     0.031 C 
ATOM     69  C   UNL A   1      45.775  29.377  40.844  1.00  0.00     0.037 A 
BRANCH  56  70
ATOM     70  C   UNL A   1      46.221  24.979  36.515  1.00  0.00     0.058 A 
ATOM     71  C   UNL A   1      45.617  23.757  36.854  1.00  0.00     0.135 A 
ATOM     72  C   UNL A   1      47.406  24.940  35.764  1.00  0.00     0.135 A 
ATOM     73  F   UNL A   1      44.495  23.739  37.591  1.00  0.00    -0.206 F 
ATOM     74  C   UNL A   1      46.186  22.541  36.491  1.00  0.00     0.059 A 
ATOM     75  C   UNL A   1      47.980  23.735  35.369  1.00  0.00     0.059 A 
ATOM     76  F   UNL A   1      48.027  26.079  35.420  1.00  0.00    -0.206 F 
ATOM     77  C   UNL A   1      47.372  22.540  35.754  1.00  0.00     0.060 A 
BRANCH  77  78
ATOM     78  S   UNL A   1      48.111  20.955  35.306  1.00  0.00     0.124 S 
ATOM     79  O   UNL A   1      48.005  20.221  36.563  1.00  0.00    -0.237 OA
ATOM     80  O   UNL A   1      47.242  20.495  34.229  1.00  0.00    -0.237 OA
ATOM     81  O   UNL A   1      49.467  21.316  34.903  1.00  0.00    -0.744 OA
ENDBRANCH  77  78
ENDBRANCH  56  70
BRANCH  57  82
ATOM     82  C   UNL A   1      41.898  33.648  38.978  1.00  0.00     0.058 A 
ATOM     83  C   UNL A   1      40.682  33.657  39.678  1.00  0.00     0.135 A 
ATOM     84  C   UNL A   1      42.476  34.886  38.655  1.00  0.00     0.135 A 
ATOM     85  F   UNL A   1      40.084  32.499  39.998  1.00  0.00    -0.206 F 
ATOM     86  C   UNL A   1      40.057  34.846  40.036  1.00  0.00     0.059 A 
ATOM     87  C   UNL A   1      41.882  36.088  39.023  1.00  0.00     0.059 A 
ATOM     88  F   UNL A   1      43.643  34.930  37.994  1.00  0.00    -0.206 F 
ATOM     89  C   UNL A   1      40.668  36.058  39.707  1.00  0.00     0.060 A 
BRANCH  89  90
ATOM     90  S   UNL A   1      39.880  37.597  40.230  1.00  0.00     0.124 S 
ATOM     91  O   UNL A   1      41.015  38.511  40.267  1.00  0.00    -0.237 OA
ATOM     92  O   UNL A   1      38.909  37.824  39.164  1.00  0.00    -0.237 OA
ATOM     93  O   UNL A   1      39.304  37.252  41.527  1.00  0.00    -0.744 OA
ENDBRANCH  89  90
ENDBRANCH  57  82
BRANCH  69  94
ATOM     94  C   UNL A   1      46.505  29.486  42.155  1.00  0.00     0.058 A 
ATOM     95  C   UNL A   1      47.686  30.232  42.283  1.00  0.00     0.135 A 
ATOM     96  C   UNL A   1      45.994  28.861  43.304  1.00  0.00     0.135 A 
ATOM     97  F   UNL A   1      48.217  30.848  41.216  1.00  0.00    -0.206 F 
ATOM     98  C   UNL A   1      48.356  30.326  43.500  1.00  0.00     0.059 A 
ATOM     99  C   UNL A   1      46.633  28.962  44.535  1.00  0.00     0.059 A 
ATOM    100  F   UNL A   1      44.858  28.148  43.238  1.00  0.00    -0.206 F 
ATOM    101  C   UNL A   1      47.824  29.683  44.619  1.00  0.00     0.060 A 
BRANCH 101 102
ATOM    102  S   UNL A   1      48.694  29.816  46.196  1.00  0.00     0.124 S 
ATOM    103  O   UNL A   1      49.240  28.470  46.342  1.00  0.00    -0.237 OA
ATOM    104  O   UNL A   1      49.669  30.870  45.931  1.00  0.00    -0.237 OA
ATOM    105  O   UNL A   1      47.637  30.171  47.137  1.00  0.00    -0.744 OA
ENDBRANCH 101 102
ENDBRANCH  69  94
ENDBRANCH  43  44
ENDBRANCH  36  38
ENDBRANCH  35  36
ENDBRANCH  34  35
ENDBRANCH  33  34
ENDBRANCH  32  33
ENDBRANCH  31  32
ENDBRANCH  30  31
ENDBRANCH  29  30
ENDBRANCH   1  29
TORSDOF 27
ENDMDL
MODEL 3
REMARK VINA RESULT:      -7.0      4.366     12.712
REMARK SMILES C[C@H]1CC[C@H](CNC(=O)NCc2ccc(C(=O)OCCOCCOCCOCCOC(=O)c3ccc(-c4c5nc(c(-c6c(F)cc(S(=O)(=O)[O-])cc6F)c6ccc([nH]6)c(-c6c(F)cc(S(=O)(=O)[O-])cc6F)c6nc(c(-c7c(F)cc(S(=O)(=O)[O-])cc7F)c7ccc4[nH]7)C=C6)C=C5)cc3)o2)CC1
REMARK SMILES IDX 23 1 22 2 21 3 20 4 19 5 18 6 16 7 17 8 15 9 12 10 13 11
REMARK SMILES IDX 99 12 14 13 11 14 10 15 7 16 8 17 9 19 6 21 5 22 1 23 2 24
REMARK SMILES IDX 101 25 3 26 100 27 4 28 24 29 25 30 26 31 27 32 28 33 29 34
REMARK SMILES IDX 30 35 31 36 32 37 33 38 34 39 98 40 35 41 97 42 36 43 37 44
REMARK SMILES IDX 38 45 91 46 39 47 96 48 90 49 92 50 40 51 95 52 89 53 88 54
REMARK SMILES IDX 41 56 75 57 54 58 74 59 55 60 58 61 73 62 93 63 56 64 57 65
REMARK SMILES IDX 72 67 94 68 59 69 42 70 43 71 52 72 44 73 45 74 51 75 53 76
REMARK SMILES IDX 46 77 47 78 48 79 49 80 50 81 76 82 77 83 86 84 78 85 79 86
REMARK SMILES IDX 85 87 87 88 80 89 81 90 82 91 83 92 84 93 60 94 61 95 70 96
REMARK SMILES IDX 62 97 63 98 69 99 71 100 64 101 65 102 66 103 67 104 68 105
REMARK H PARENT 7 18 10 20 92 55 58 66
REMARK Flexibility Score: inf
ROOT
ATOM      1  C   UNL A   1      52.096  22.305  34.976  1.00  0.00     0.188 C 
ENDROOT
BRANCH   1   2
ATOM      2  C   UNL A   1      51.384  21.476  33.895  1.00  0.00     0.188 C 
BRANCH   2   3
ATOM      3  O   UNL A   1      50.642  22.285  32.986  1.00  0.00    -0.376 OA
BRANCH   3   4
ATOM      4  C   UNL A   1      50.875  23.688  33.031  1.00  0.00     0.202 C 
BRANCH   4   5
ATOM      5  C   UNL A   1      49.659  24.617  33.196  1.00  0.00     0.261 C 
BRANCH   5   6
ATOM      6  O   UNL A   1      48.661  24.200  34.141  1.00  0.00    -0.457 OA
BRANCH   6   7
ATOM      7  C   UNL A   1      47.419  24.745  34.075  1.00  0.00     0.374 C 
ATOM      8  O   UNL A   1      47.105  25.677  33.344  1.00  0.00    -0.242 OA
BRANCH   7   9
ATOM      9  C   UNL A   1      46.532  23.947  34.896  1.00  0.00     0.211 A 
ATOM     10  C   UNL A   1      46.064  22.402  36.412  1.00  0.00     0.124 A 
ATOM     11  C   UNL A   1      44.910  23.135  36.233  1.00  0.00     0.048 A 
ATOM     12  O   UNL A   1      47.037  22.860  35.564  1.00  0.00    -0.452 OA
ATOM     13  C   UNL A   1      45.207  24.121  35.262  1.00  0.00     0.058 A 
BRANCH  10  14
ATOM     14  C   UNL A   1      46.412  21.261  37.303  1.00  0.00     0.193 C 
BRANCH  14  15
ATOM     15  N   UNL A   1      47.782  20.862  37.072  1.00  0.00    -0.331 N 
ATOM     16  N   UNL A   1      48.391  19.369  38.794  1.00  0.00    -0.338 N 
ATOM     17  C   UNL A   1      48.578  19.928  37.593  1.00  0.00     0.315 C 
ATOM     18  H   UNL A   1      48.865  18.513  38.905  1.00  0.00     0.165 HD
ATOM     19  O   UNL A   1      49.552  19.553  36.936  1.00  0.00    -0.249 OA
ATOM     20  H   UNL A   1      48.225  21.397  36.375  1.00  0.00     0.165 HD
BRANCH  16  21
ATOM     21  C   UNL A   1      47.632  19.763  39.967  1.00  0.00     0.121 C 
BRANCH  21  22
ATOM     22  C   UNL A   1      46.323  18.962  40.075  1.00  0.00     0.008 C 
ATOM     23  C   UNL A   1      43.466  15.893  41.386  1.00  0.00     0.007 C 
ATOM     24  C   UNL A   1      44.743  16.718  41.244  1.00  0.00    -0.014 C 
ATOM     25  C   UNL A   1      44.505  18.173  41.659  1.00  0.00     0.003 C 
ATOM     26  C   UNL A   1      45.274  16.652  39.808  1.00  0.00     0.003 C 
ATOM     27  C   UNL A   1      45.772  19.015  41.506  1.00  0.00     0.006 C 
ATOM     28  C   UNL A   1      46.532  17.501  39.632  1.00  0.00     0.006 C 
ENDBRANCH  21  22
ENDBRANCH  16  21
ENDBRANCH  14  15
ENDBRANCH  10  14
ENDBRANCH   7   9
ENDBRANCH   6   7
ENDBRANCH   5   6
ENDBRANCH   4   5
ENDBRANCH   3   4
ENDBRANCH   2   3
ENDBRANCH   1   2
BRANCH   1  29
ATOM     29  O   UNL A   1      51.510  22.134  36.257  1.00  0.00    -0.377 OA
BRANCH  29  30
ATOM     30  C   UNL A   1      50.521  23.087  36.649  1.00  0.00     0.188 C 
BRANCH  30  31
ATOM     31  C   UNL A   1      50.466  23.615  38.099  1.00  0.00     0.188 C 
BRANCH  31  32
ATOM     32  O   UNL A   1      49.179  23.496  38.710  1.00  0.00    -0.376 OA
BRANCH  32  33
ATOM     33  C   UNL A   1      48.685  24.656  39.372  1.00  0.00     0.202 C 
BRANCH  33  34
ATOM     34  C   UNL A   1      47.357  25.168  38.799  1.00  0.00     0.261 C 
BRANCH  34  35
ATOM     35  O   UNL A   1      47.435  25.641  37.446  1.00  0.00    -0.460 OA
BRANCH  35  36
ATOM     36  C   UNL A   1      47.855  26.915  37.279  1.00  0.00     0.338 C 
ATOM     37  O   UNL A   1      49.003  27.319  37.328  1.00  0.00    -0.246 OA
BRANCH  36  38
ATOM     38  C   UNL A   1      46.706  27.731  36.843  1.00  0.00     0.060 A 
ATOM     39  C   UNL A   1      45.418  27.295  37.174  1.00  0.00     0.016 A 
ATOM     40  C   UNL A   1      46.896  28.887  36.081  1.00  0.00     0.016 A 
ATOM     41  C   UNL A   1      44.309  27.976  36.678  1.00  0.00     0.010 A 
ATOM     42  C   UNL A   1      45.784  29.562  35.575  1.00  0.00     0.010 A 
ATOM     43  C   UNL A   1      44.490  29.079  35.830  1.00  0.00    -0.014 A 
BRANCH  43  44
ATOM     44  C   UNL A   1      43.344  29.569  35.030  1.00  0.00     0.031 A 
ATOM     45  C   UNL A   1      42.397  30.547  35.673  1.00  0.00     0.074 A 
ATOM     46  C   UNL A   1      43.163  29.185  33.755  1.00  0.00     0.049 A 
ATOM     47  N   UNL A   1      41.342  31.134  35.173  1.00  0.00    -0.248 NA
ATOM     48  C   UNL A   1      42.679  30.906  37.074  1.00  0.00     0.031 C 
ATOM     49  C   UNL A   1      44.021  28.257  33.020  1.00  0.00     0.029 A 
ATOM     50  N   UNL A   1      42.189  29.532  32.854  1.00  0.00    -0.354 N 
ATOM     51  C   UNL A   1      40.838  31.934  36.192  1.00  0.00     0.074 A 
ATOM     52  C   UNL A   1      41.678  31.728  37.350  1.00  0.00     0.031 C 
ATOM     53  C   UNL A   1      43.527  28.101  31.778  1.00  0.00     0.029 A 
ATOM     54  C   UNL A   1      42.316  28.908  31.637  1.00  0.00     0.049 A 
ATOM     55  H   UNL A   1      41.466  30.168  33.060  1.00  0.00     0.167 HD
ATOM     56  C   UNL A   1      39.777  32.775  36.164  1.00  0.00     0.037 A 
ATOM     57  C   UNL A   1      41.538  28.981  30.539  1.00  0.00     0.037 A 
ATOM     58  C   UNL A   1      38.936  32.971  35.015  1.00  0.00     0.049 A 
ATOM     59  C   UNL A   1      40.342  29.897  30.539  1.00  0.00     0.074 A 
ATOM     60  C   UNL A   1      37.839  33.805  34.880  1.00  0.00     0.029 A 
ATOM     61  N   UNL A   1      39.092  32.318  33.801  1.00  0.00    -0.354 N 
ATOM     62  N   UNL A   1      39.896  30.674  31.498  1.00  0.00    -0.248 NA
ATOM     63  C   UNL A   1      39.552  29.958  29.301  1.00  0.00     0.031 C 
ATOM     64  C   UNL A   1      37.312  33.628  33.595  1.00  0.00     0.029 A 
ATOM     65  C   UNL A   1      38.106  32.718  32.916  1.00  0.00     0.049 A 
ATOM     66  H   UNL A   1      39.802  31.665  33.600  1.00  0.00     0.167 HD
ATOM     67  C   UNL A   1      38.792  31.338  30.970  1.00  0.00     0.074 A 
ATOM     68  C   UNL A   1      38.645  30.876  29.605  1.00  0.00     0.031 C 
ATOM     69  C   UNL A   1      37.978  32.250  31.558  1.00  0.00     0.037 A 
BRANCH  56  70
ATOM     70  C   UNL A   1      39.463  33.523  37.428  1.00  0.00     0.058 A 
ATOM     71  C   UNL A   1      40.154  34.695  37.781  1.00  0.00     0.135 A 
ATOM     72  C   UNL A   1      38.470  33.059  38.303  1.00  0.00     0.135 A 
ATOM     73  F   UNL A   1      41.130  35.169  36.990  1.00  0.00    -0.206 F 
ATOM     74  C   UNL A   1      39.893  35.360  38.974  1.00  0.00     0.059 A 
ATOM     75  C   UNL A   1      38.174  33.722  39.490  1.00  0.00     0.059 A 
ATOM     76  F   UNL A   1      37.785  31.940  38.017  1.00  0.00    -0.206 F 
ATOM     77  C   UNL A   1      38.905  34.862  39.826  1.00  0.00     0.060 A 
BRANCH  77  78
ATOM     78  S   UNL A   1      38.589  35.724  41.380  1.00  0.00     0.124 S 
ATOM     79  O   UNL A   1      38.539  37.113  40.936  1.00  0.00    -0.237 OA
ATOM     80  O   UNL A   1      37.318  35.149  41.806  1.00  0.00    -0.237 OA
ATOM     81  O   UNL A   1      39.741  35.370  42.204  1.00  0.00    -0.744 OA
ENDBRANCH  77  78
ENDBRANCH  56  70
BRANCH  57  82
ATOM     82  C   UNL A   1      41.875  28.171  29.339  1.00  0.00     0.058 A 
ATOM     83  C   UNL A   1      42.861  28.589  28.434  1.00  0.00     0.135 A 
ATOM     84  C   UNL A   1      41.219  26.958  29.077  1.00  0.00     0.135 A 
ATOM     85  F   UNL A   1      43.508  29.748  28.636  1.00  0.00    -0.206 F 
ATOM     86  C   UNL A   1      43.179  27.841  27.306  1.00  0.00     0.059 A 
ATOM     87  C   UNL A   1      41.535  26.180  27.967  1.00  0.00     0.059 A 
ATOM     88  F   UNL A   1      40.274  26.509  29.917  1.00  0.00    -0.206 F 
ATOM     89  C   UNL A   1      42.512  26.635  27.083  1.00  0.00     0.060 A 
BRANCH  89  90
ATOM     90  S   UNL A   1      42.974  25.641  25.647  1.00  0.00     0.124 S 
ATOM     91  O   UNL A   1      41.929  25.995  24.695  1.00  0.00    -0.237 OA
ATOM     92  O   UNL A   1      44.311  26.139  25.345  1.00  0.00    -0.237 OA
ATOM     93  O   UNL A   1      42.924  24.274  26.160  1.00  0.00    -0.744 OA
ENDBRANCH  89  90
ENDBRANCH  57  82
BRANCH  69  94
ATOM     94  C   UNL A   1      36.882  32.841  30.715  1.00  0.00     0.058 A 
ATOM     95  C   UNL A   1      37.141  33.814  29.739  1.00  0.00     0.135 A 
ATOM     96  C   UNL A   1      35.557  32.399  30.867  1.00  0.00     0.135 A 
ATOM     97  F   UNL A   1      38.389  34.271  29.555  1.00  0.00    -0.206 F 
ATOM     98  C   UNL A   1      36.119  34.355  28.964  1.00  0.00     0.059 A 
ATOM     99  C   UNL A   1      34.524  32.908  30.086  1.00  0.00     0.059 A 
ATOM    100  F   UNL A   1      35.257  31.458  31.776  1.00  0.00    -0.206 F 
ATOM    101  C   UNL A   1      34.813  33.900  29.149  1.00  0.00     0.060 A 
BRANCH 101 102
ATOM    102  S   UNL A   1      33.494  34.601  28.136  1.00  0.00     0.124 S 
ATOM    103  O   UNL A   1      34.210  34.919  26.904  1.00  0.00    -0.237 OA
ATOM    104  O   UNL A   1      32.541  33.498  28.047  1.00  0.00    -0.237 OA
ATOM    105  O   UNL A   1      33.042  35.749  28.915  1.00  0.00    -0.744 OA
ENDBRANCH 101 102
ENDBRANCH  69  94
ENDBRANCH  43  44
ENDBRANCH  36  38
ENDBRANCH  35  36
ENDBRANCH  34  35
ENDBRANCH  33  34
ENDBRANCH  32  33
ENDBRANCH  31  32
ENDBRANCH  30  31
ENDBRANCH  29  30
ENDBRANCH   1  29
TORSDOF 27
ENDMDL
