MODEL 1
REMARK VINA RESULT:      -8.2      0.000      0.000
REMARK SMILES COc1cc(/C=N/[NH+]=C2\NC(=O)[C@@H](CC(=O)OCCOCCOCCOCCOC(=O)c3ccc(-c4c5nc(c(-c6c(F)cc(S(=O)(=O)[O-])cc6F)c6ccc([nH]6)c(-c6c(F)cc(S(=O)(=O)[O-])cc6F)c6nc(c(-c7c(F)cc(S(=O)(=O)[O-])cc7F)c7ccc4[nH]7)C=C6)C=C5)cc3)S2)cc(I)c1OC
REMARK SMILES IDX 22 1 21 2 20 3 19 4 18 5 17 6 15 7 16 8 14 9 13 10 8 11 9 12
REMARK SMILES IDX 10 14 98 15 11 16 12 18 7 19 6 20 5 21 3 22 4 23 102 24
REMARK SMILES IDX 100 25 99 26 101 27 2 28 1 29 103 30 104 31 23 32 24 33
REMARK SMILES IDX 25 34 26 35 27 36 28 37 29 38 30 39 31 40 32 41 33 42 97 43
REMARK SMILES IDX 34 44 96 45 35 46 36 47 37 48 90 49 38 50 95 51 89 52 91 53
REMARK SMILES IDX 39 54 94 55 88 56 87 57 40 59 74 60 53 61 73 62 54 63 57 64
REMARK SMILES IDX 72 65 92 66 55 67 56 68 71 70 93 71 58 72 41 73 42 74 51 75
REMARK SMILES IDX 43 76 44 77 50 78 52 79 45 80 46 81 47 82 48 83 49 84 75 85
REMARK SMILES IDX 76 86 85 87 77 88 78 89 84 90 86 91 79 92 80 93 81 94 82 95
REMARK SMILES IDX 83 96 59 97 60 98 69 99 61 100 62 101 68 102 70 103 63 104
REMARK SMILES IDX 64 105 65 106 66 107 67 108
REMARK H PARENT 8 13 10 17 91 58 57 69
REMARK Flexibility Score: inf
ROOT
ATOM      1  C   UNL A   1      37.375  30.162  32.514  1.00  0.00     0.188 C 
ENDROOT
BRANCH   1   2
ATOM      2  C   UNL A   1      37.942  30.458  33.915  1.00  0.00     0.188 C 
BRANCH   2   3
ATOM      3  O   UNL A   1      37.503  31.658  34.514  1.00  0.00    -0.376 OA
BRANCH   3   4
ATOM      4  C   UNL A   1      37.267  32.857  33.809  1.00  0.00     0.202 C 
BRANCH   4   5
ATOM      5  C   UNL A   1      36.055  33.798  33.954  1.00  0.00     0.261 C 
BRANCH   5   6
ATOM      6  O   UNL A   1      35.996  35.021  33.207  1.00  0.00    -0.463 OA
BRANCH   6   7
ATOM      7  C   UNL A   1      34.781  35.571  32.995  1.00  0.00     0.307 C 
ATOM      8  O   UNL A   1      34.347  36.530  33.620  1.00  0.00    -0.252 OA
BRANCH   7   9
ATOM      9  C   UNL A   1      33.943  34.807  31.979  1.00  0.00     0.150 C 
BRANCH   9  10
ATOM     10  C   UNL A   1      34.566  34.549  30.608  1.00  0.00     0.184 C 
ATOM     11  N   UNL A   1      34.189  31.470  28.291  1.00  0.00    -0.142 N 
ATOM     12  C   UNL A   1      34.178  32.556  28.987  1.00  0.00     0.337 C 
ATOM     13  H   UNL A   1      34.885  30.780  28.382  1.00  0.00     0.343 HD
ATOM     14  N   UNL A   1      33.383  33.619  28.741  1.00  0.00    -0.202 N 
ATOM     15  S   UNL A   1      35.173  32.829  30.378  1.00  0.00    -0.020 SA
ATOM     16  C   UNL A   1      33.503  34.715  29.531  1.00  0.00     0.322 C 
ATOM     17  H   UNL A   1      32.730  33.600  28.003  1.00  0.00     0.316 HD
ATOM     18  O   UNL A   1      32.805  35.711  29.388  1.00  0.00    -0.246 OA
BRANCH  11  19
ATOM     19  N   UNL A   1      33.118  31.363  27.398  1.00  0.00    -0.093 NA
ATOM     20  C   UNL A   1      33.176  30.351  26.594  1.00  0.00     0.166 C 
BRANCH  20  21
ATOM     21  C   UNL A   1      32.041  30.100  25.687  1.00  0.00     0.002 A 
ATOM     22  C   UNL A   1      30.062  30.915  24.575  1.00  0.00     0.162 A 
ATOM     23  C   UNL A   1      31.141  31.130  25.433  1.00  0.00     0.060 A 
ATOM     24  C   UNL A   1      29.867  29.659  23.938  1.00  0.00     0.174 A 
ATOM     25  C   UNL A   1      30.798  28.633  24.196  1.00  0.00     0.060 A 
ATOM     26  C   UNL A   1      31.872  28.857  25.087  1.00  0.00     0.028 A 
ATOM     27  I   UNL A   1      30.858  26.708  23.332  1.00  0.00    -0.040 I 
BRANCH  22  28
ATOM     28  O   UNL A   1      29.094  31.875  24.363  1.00  0.00    -0.493 OA
ATOM     29  C   UNL A   1      29.091  32.496  23.083  1.00  0.00     0.278 C 
ENDBRANCH  22  28
BRANCH  24  30
ATOM     30  O   UNL A   1      28.782  29.687  23.105  1.00  0.00    -0.492 OA
ATOM     31  C   UNL A   1      28.333  28.567  22.377  1.00  0.00     0.278 C 
ENDBRANCH  24  30
ENDBRANCH  20  21
ENDBRANCH  11  19
ENDBRANCH   9  10
ENDBRANCH   7   9
ENDBRANCH   6   7
ENDBRANCH   5   6
ENDBRANCH   4   5
ENDBRANCH   3   4
ENDBRANCH   2   3
ENDBRANCH   1   2
BRANCH   1  32
ATOM     32  O   UNL A   1      37.956  30.606  31.305  1.00  0.00    -0.377 OA
BRANCH  32  33
ATOM     33  C   UNL A   1      39.195  31.276  31.406  1.00  0.00     0.188 C 
BRANCH  33  34
ATOM     34  C   UNL A   1      39.052  32.738  30.976  1.00  0.00     0.188 C 
BRANCH  34  35
ATOM     35  O   UNL A   1      40.156  33.177  30.192  1.00  0.00    -0.376 OA
BRANCH  35  36
ATOM     36  C   UNL A   1      40.262  34.563  29.886  1.00  0.00     0.202 C 
BRANCH  36  37
ATOM     37  C   UNL A   1      40.921  35.080  28.586  1.00  0.00     0.261 C 
BRANCH  37  38
ATOM     38  O   UNL A   1      41.605  36.341  28.613  1.00  0.00    -0.460 OA
BRANCH  38  39
ATOM     39  C   UNL A   1      42.097  36.832  27.462  1.00  0.00     0.338 C 
ATOM     40  O   UNL A   1      41.701  37.813  26.854  1.00  0.00    -0.246 OA
BRANCH  39  41
ATOM     41  C   UNL A   1      43.344  36.092  27.160  1.00  0.00     0.060 A 
ATOM     42  C   UNL A   1      43.404  35.333  25.984  1.00  0.00     0.016 A 
ATOM     43  C   UNL A   1      44.450  36.156  28.016  1.00  0.00     0.016 A 
ATOM     44  C   UNL A   1      44.550  34.599  25.683  1.00  0.00     0.010 A 
ATOM     45  C   UNL A   1      45.587  35.394  27.730  1.00  0.00     0.010 A 
ATOM     46  C   UNL A   1      45.620  34.574  26.587  1.00  0.00    -0.014 A 
BRANCH  46  47
ATOM     47  C   UNL A   1      46.617  33.481  26.476  1.00  0.00     0.031 A 
ATOM     48  C   UNL A   1      48.055  33.876  26.249  1.00  0.00     0.074 A 
ATOM     49  C   UNL A   1      46.283  32.190  26.640  1.00  0.00     0.049 A 
ATOM     50  N   UNL A   1      49.116  33.125  26.128  1.00  0.00    -0.248 NA
ATOM     51  C   UNL A   1      48.328  35.321  26.149  1.00  0.00     0.031 C 
ATOM     52  C   UNL A   1      44.938  31.689  26.912  1.00  0.00     0.029 A 
ATOM     53  N   UNL A   1      47.062  31.060  26.602  1.00  0.00    -0.354 N 
ATOM     54  C   UNL A   1      50.178  34.002  25.936  1.00  0.00     0.074 A 
ATOM     55  C   UNL A   1      49.630  35.339  25.916  1.00  0.00     0.031 C 
ATOM     56  C   UNL A   1      44.983  30.348  27.011  1.00  0.00     0.029 A 
ATOM     57  C   UNL A   1      46.355  29.894  26.782  1.00  0.00     0.049 A 
ATOM     58  H   UNL A   1      48.036  31.082  26.459  1.00  0.00     0.167 HD
ATOM     59  C   UNL A   1      51.495  33.722  25.804  1.00  0.00     0.037 A 
ATOM     60  C   UNL A   1      46.772  28.612  26.751  1.00  0.00     0.037 A 
ATOM     61  C   UNL A   1      52.036  32.389  25.820  1.00  0.00     0.049 A 
ATOM     62  C   UNL A   1      48.237  28.320  26.527  1.00  0.00     0.074 A 
ATOM     63  C   UNL A   1      53.355  31.995  25.693  1.00  0.00     0.029 A 
ATOM     64  N   UNL A   1      51.284  31.233  25.968  1.00  0.00    -0.354 N 
ATOM     65  N   UNL A   1      49.233  29.158  26.361  1.00  0.00    -0.248 NA
ATOM     66  C   UNL A   1      48.634  26.905  26.499  1.00  0.00     0.031 C 
ATOM     67  C   UNL A   1      53.395  30.596  25.708  1.00  0.00     0.029 A 
ATOM     68  C   UNL A   1      52.109  30.122  25.913  1.00  0.00     0.049 A 
ATOM     69  H   UNL A   1      50.308  31.207  26.093  1.00  0.00     0.167 HD
ATOM     70  C   UNL A   1      50.378  28.374  26.245  1.00  0.00     0.074 A 
ATOM     71  C   UNL A   1      49.951  26.997  26.375  1.00  0.00     0.031 C 
ATOM     72  C   UNL A   1      51.667  28.757  26.053  1.00  0.00     0.037 A 
BRANCH  59  73
ATOM     73  C   UNL A   1      52.435  34.880  25.601  1.00  0.00     0.058 A 
ATOM     74  C   UNL A   1      53.003  35.573  26.683  1.00  0.00     0.135 A 
ATOM     75  C   UNL A   1      52.786  35.291  24.306  1.00  0.00     0.135 A 
ATOM     76  F   UNL A   1      52.683  35.240  27.944  1.00  0.00    -0.206 F 
ATOM     77  C   UNL A   1      53.866  36.646  26.487  1.00  0.00     0.059 A 
ATOM     78  C   UNL A   1      53.672  36.341  24.087  1.00  0.00     0.059 A 
ATOM     79  F   UNL A   1      52.265  34.670  23.236  1.00  0.00    -0.206 F 
ATOM     80  C   UNL A   1      54.197  37.021  25.184  1.00  0.00     0.060 A 
BRANCH  80  81
ATOM     81  S   UNL A   1      55.330  38.406  24.947  1.00  0.00     0.124 S 
ATOM     82  O   UNL A   1      54.609  39.208  23.963  1.00  0.00    -0.237 OA
ATOM     83  O   UNL A   1      55.413  38.972  26.288  1.00  0.00    -0.237 OA
ATOM     84  O   UNL A   1      56.549  37.768  24.462  1.00  0.00    -0.744 OA
ENDBRANCH  80  81
ENDBRANCH  59  73
BRANCH  60  85
ATOM     85  C   UNL A   1      45.797  27.500  26.929  1.00  0.00     0.058 A 
ATOM     86  C   UNL A   1      45.617  26.879  28.174  1.00  0.00     0.135 A 
ATOM     87  C   UNL A   1      45.044  27.017  25.847  1.00  0.00     0.135 A 
ATOM     88  F   UNL A   1      46.323  27.294  29.238  1.00  0.00    -0.206 F 
ATOM     89  C   UNL A   1      44.744  25.807  28.338  1.00  0.00     0.059 A 
ATOM     90  C   UNL A   1      44.142  25.966  25.992  1.00  0.00     0.059 A 
ATOM     91  F   UNL A   1      45.170  27.578  24.635  1.00  0.00    -0.206 F 
ATOM     92  C   UNL A   1      44.009  25.360  27.239  1.00  0.00     0.060 A 
BRANCH  92  93
ATOM     93  S   UNL A   1      42.848  23.995  27.471  1.00  0.00     0.124 S 
ATOM     94  O   UNL A   1      42.129  24.000  26.202  1.00  0.00    -0.237 OA
ATOM     95  O   UNL A   1      43.746  22.867  27.692  1.00  0.00    -0.237 OA
ATOM     96  O   UNL A   1      42.074  24.408  28.637  1.00  0.00    -0.744 OA
ENDBRANCH  92  93
ENDBRANCH  60  85
BRANCH  72  97
ATOM     97  C   UNL A   1      52.715  27.675  26.027  1.00  0.00     0.058 A 
ATOM     98  C   UNL A   1      52.995  26.935  24.868  1.00  0.00     0.135 A 
ATOM     99  C   UNL A   1      53.473  27.397  27.178  1.00  0.00     0.135 A 
ATOM    100  F   UNL A   1      52.303  27.158  23.740  1.00  0.00    -0.206 F 
ATOM    101  C   UNL A   1      53.954  25.926  24.862  1.00  0.00     0.059 A 
ATOM    102  C   UNL A   1      54.462  26.419  27.185  1.00  0.00     0.059 A 
ATOM    103  F   UNL A   1      53.262  28.087  28.311  1.00  0.00    -0.206 F 
ATOM    104  C   UNL A   1      54.680  25.673  26.028  1.00  0.00     0.060 A 
BRANCH 104 105
ATOM    105  S   UNL A   1      55.920  24.362  26.010  1.00  0.00     0.124 S 
ATOM    106  O   UNL A   1      56.603  24.588  27.279  1.00  0.00    -0.237 OA
ATOM    107  O   UNL A   1      55.099  23.157  25.938  1.00  0.00    -0.237 OA
ATOM    108  O   UNL A   1      56.705  24.651  24.814  1.00  0.00    -0.744 OA
ENDBRANCH 104 105
ENDBRANCH  72  97
ENDBRANCH  46  47
ENDBRANCH  39  41
ENDBRANCH  38  39
ENDBRANCH  37  38
ENDBRANCH  36  37
ENDBRANCH  35  36
ENDBRANCH  34  35
ENDBRANCH  33  34
ENDBRANCH  32  33
ENDBRANCH   1  32
TORSDOF 28
ENDMDL
MODEL 2
REMARK VINA RESULT:      -7.8      9.404     15.571
REMARK SMILES COc1cc(/C=N/[NH+]=C2\NC(=O)[C@@H](CC(=O)OCCOCCOCCOCCOC(=O)c3ccc(-c4c5nc(c(-c6c(F)cc(S(=O)(=O)[O-])cc6F)c6ccc([nH]6)c(-c6c(F)cc(S(=O)(=O)[O-])cc6F)c6nc(c(-c7c(F)cc(S(=O)(=O)[O-])cc7F)c7ccc4[nH]7)C=C6)C=C5)cc3)S2)cc(I)c1OC
REMARK SMILES IDX 22 1 21 2 20 3 19 4 18 5 17 6 15 7 16 8 14 9 13 10 8 11 9 12
REMARK SMILES IDX 10 14 98 15 11 16 12 18 7 19 6 20 5 21 3 22 4 23 102 24
REMARK SMILES IDX 100 25 99 26 101 27 2 28 1 29 103 30 104 31 23 32 24 33
REMARK SMILES IDX 25 34 26 35 27 36 28 37 29 38 30 39 31 40 32 41 33 42 97 43
REMARK SMILES IDX 34 44 96 45 35 46 36 47 37 48 90 49 38 50 95 51 89 52 91 53
REMARK SMILES IDX 39 54 94 55 88 56 87 57 40 59 74 60 53 61 73 62 54 63 57 64
REMARK SMILES IDX 72 65 92 66 55 67 56 68 71 70 93 71 58 72 41 73 42 74 51 75
REMARK SMILES IDX 43 76 44 77 50 78 52 79 45 80 46 81 47 82 48 83 49 84 75 85
REMARK SMILES IDX 76 86 85 87 77 88 78 89 84 90 86 91 79 92 80 93 81 94 82 95
REMARK SMILES IDX 83 96 59 97 60 98 69 99 61 100 62 101 68 102 70 103 63 104
REMARK SMILES IDX 64 105 65 106 66 107 67 108
REMARK H PARENT 8 13 10 17 91 58 57 69
REMARK Flexibility Score: inf
ROOT
ATOM      1  C   UNL A   1      36.216  33.627  43.590  1.00  0.00     0.188 C 
ENDROOT
BRANCH   1   2
ATOM      2  C   UNL A   1      35.795  33.580  45.071  1.00  0.00     0.188 C 
BRANCH   2   3
ATOM      3  O   UNL A   1      35.538  34.828  45.677  1.00  0.00    -0.376 OA
BRANCH   3   4
ATOM      4  C   UNL A   1      34.257  35.273  46.066  1.00  0.00     0.202 C 
BRANCH   4   5
ATOM      5  C   UNL A   1      33.063  35.588  45.143  1.00  0.00     0.261 C 
BRANCH   5   6
ATOM      6  O   UNL A   1      32.654  34.644  44.143  1.00  0.00    -0.463 OA
BRANCH   6   7
ATOM      7  C   UNL A   1      31.339  34.354  44.051  1.00  0.00     0.307 C 
ATOM      8  O   UNL A   1      30.706  33.767  44.921  1.00  0.00    -0.252 OA
BRANCH   7   9
ATOM      9  C   UNL A   1      30.733  34.719  42.703  1.00  0.00     0.150 C 
BRANCH   9  10
ATOM     10  C   UNL A   1      30.155  36.125  42.552  1.00  0.00     0.184 C 
ATOM     11  N   UNL A   1      30.467  39.165  44.929  1.00  0.00    -0.142 N 
ATOM     12  C   UNL A   1      30.506  38.206  44.068  1.00  0.00     0.337 C 
ATOM     13  H   UNL A   1      29.733  39.279  45.575  1.00  0.00     0.343 HD
ATOM     14  N   UNL A   1      31.365  38.140  43.029  1.00  0.00    -0.202 N 
ATOM     15  S   UNL A   1      29.469  36.819  44.110  1.00  0.00    -0.020 SA
ATOM     16  C   UNL A   1      31.270  37.090  42.175  1.00  0.00     0.322 C 
ATOM     17  H   UNL A   1      32.046  38.839  42.894  1.00  0.00     0.316 HD
ATOM     18  O   UNL A   1      32.024  36.946  41.221  1.00  0.00    -0.246 OA
BRANCH  11  19
ATOM     19  N   UNL A   1      31.567  40.026  44.864  1.00  0.00    -0.093 NA
ATOM     20  C   UNL A   1      31.550  41.001  45.713  1.00  0.00     0.166 C 
BRANCH  20  21
ATOM     21  C   UNL A   1      32.717  41.899  45.786  1.00  0.00     0.002 A 
ATOM     22  C   UNL A   1      35.098  42.217  45.575  1.00  0.00     0.162 A 
ATOM     23  C   UNL A   1      33.981  41.384  45.516  1.00  0.00     0.060 A 
ATOM     24  C   UNL A   1      34.971  43.597  45.896  1.00  0.00     0.174 A 
ATOM     25  C   UNL A   1      33.681  44.103  46.150  1.00  0.00     0.060 A 
ATOM     26  C   UNL A   1      32.561  43.242  46.111  1.00  0.00     0.028 A 
ATOM     27  I   UNL A   1      33.143  46.107  46.540  1.00  0.00    -0.040 I 
BRANCH  22  28
ATOM     28  O   UNL A   1      36.380  41.735  45.405  1.00  0.00    -0.493 OA
ATOM     29  C   UNL A   1      36.623  40.412  45.869  1.00  0.00     0.278 C 
ENDBRANCH  22  28
BRANCH  24  30
ATOM     30  O   UNL A   1      36.183  44.232  45.847  1.00  0.00    -0.492 OA
ATOM     31  C   UNL A   1      36.516  45.194  44.873  1.00  0.00     0.278 C 
ENDBRANCH  24  30
ENDBRANCH  20  21
ENDBRANCH  11  19
ENDBRANCH   9  10
ENDBRANCH   7   9
ENDBRANCH   6   7
ENDBRANCH   5   6
ENDBRANCH   4   5
ENDBRANCH   3   4
ENDBRANCH   2   3
ENDBRANCH   1   2
BRANCH   1  32
ATOM     32  O   UNL A   1      37.173  32.768  43.003  1.00  0.00    -0.377 OA
BRANCH  32  33
ATOM     33  C   UNL A   1      37.767  31.807  43.850  1.00  0.00     0.188 C 
BRANCH  33  34
ATOM     34  C   UNL A   1      39.205  32.206  44.192  1.00  0.00     0.188 C 
BRANCH  34  35
ATOM     35  O   UNL A   1      39.660  33.298  43.400  1.00  0.00    -0.376 OA
BRANCH  35  36
ATOM     36  C   UNL A   1      40.510  34.266  44.007  1.00  0.00     0.202 C 
BRANCH  36  37
ATOM     37  C   UNL A   1      41.235  35.363  43.193  1.00  0.00     0.261 C 
BRANCH  37  38
ATOM     38  O   UNL A   1      41.105  35.360  41.763  1.00  0.00    -0.460 OA
BRANCH  38  39
ATOM     39  C   UNL A   1      40.010  35.916  41.215  1.00  0.00     0.338 C 
ATOM     40  O   UNL A   1      39.364  36.853  41.655  1.00  0.00    -0.246 OA
BRANCH  39  41
ATOM     41  C   UNL A   1      39.840  35.326  39.867  1.00  0.00     0.060 A 
ATOM     42  C   UNL A   1      39.119  34.131  39.746  1.00  0.00     0.016 A 
ATOM     43  C   UNL A   1      40.367  35.950  38.731  1.00  0.00     0.016 A 
ATOM     44  C   UNL A   1      38.965  33.530  38.498  1.00  0.00     0.010 A 
ATOM     45  C   UNL A   1      40.240  35.330  37.483  1.00  0.00     0.010 A 
ATOM     46  C   UNL A   1      39.581  34.093  37.372  1.00  0.00    -0.014 A 
BRANCH  46  47
ATOM     47  C   UNL A   1      39.776  33.243  36.172  1.00  0.00     0.031 A 
ATOM     48  C   UNL A   1      40.872  32.209  36.226  1.00  0.00     0.074 A 
ATOM     49  C   UNL A   1      38.972  33.328  35.098  1.00  0.00     0.049 A 
ATOM     50  N   UNL A   1      41.242  31.339  35.324  1.00  0.00    -0.248 NA
ATOM     51  C   UNL A   1      41.655  32.151  37.473  1.00  0.00     0.031 C 
ATOM     52  C   UNL A   1      37.850  34.253  34.949  1.00  0.00     0.029 A 
ATOM     53  N   UNL A   1      38.980  32.617  33.924  1.00  0.00    -0.354 N 
ATOM     54  C   UNL A   1      42.297  30.635  35.893  1.00  0.00     0.074 A 
ATOM     55  C   UNL A   1      42.537  31.204  37.199  1.00  0.00     0.031 C 
ATOM     56  C   UNL A   1      37.280  34.056  33.746  1.00  0.00     0.029 A 
ATOM     57  C   UNL A   1      38.013  33.011  33.030  1.00  0.00     0.049 A 
ATOM     58  H   UNL A   1      39.620  31.891  33.739  1.00  0.00     0.167 HD
ATOM     59  C   UNL A   1      42.996  29.595  35.381  1.00  0.00     0.037 A 
ATOM     60  C   UNL A   1      37.763  32.584  31.776  1.00  0.00     0.037 A 
ATOM     61  C   UNL A   1      42.757  29.035  34.078  1.00  0.00     0.049 A 
ATOM     62  C   UNL A   1      38.604  31.473  31.196  1.00  0.00     0.074 A 
ATOM     63  C   UNL A   1      43.409  27.983  33.461  1.00  0.00     0.029 A 
ATOM     64  N   UNL A   1      41.794  29.486  33.188  1.00  0.00    -0.354 N 
ATOM     65  N   UNL A   1      39.591  30.806  31.748  1.00  0.00    -0.248 NA
ATOM     66  C   UNL A   1      38.290  31.050  29.824  1.00  0.00     0.031 C 
ATOM     67  C   UNL A   1      42.877  27.833  32.177  1.00  0.00     0.029 A 
ATOM     68  C   UNL A   1      41.847  28.747  32.018  1.00  0.00     0.049 A 
ATOM     69  H   UNL A   1      41.165  30.223  33.363  1.00  0.00     0.167 HD
ATOM     70  C   UNL A   1      39.989  29.860  30.806  1.00  0.00     0.074 A 
ATOM     71  C   UNL A   1      39.127  30.035  29.656  1.00  0.00     0.031 C 
ATOM     72  C   UNL A   1      40.974  28.930  30.884  1.00  0.00     0.037 A 
BRANCH  59  73
ATOM     73  C   UNL A   1      44.103  29.020  36.223  1.00  0.00     0.058 A 
ATOM     74  C   UNL A   1      45.390  29.582  36.241  1.00  0.00     0.135 A 
ATOM     75  C   UNL A   1      43.868  27.901  37.036  1.00  0.00     0.135 A 
ATOM     76  F   UNL A   1      45.679  30.638  35.464  1.00  0.00    -0.206 F 
ATOM     77  C   UNL A   1      46.409  29.042  37.019  1.00  0.00     0.059 A 
ATOM     78  C   UNL A   1      44.863  27.362  37.845  1.00  0.00     0.059 A 
ATOM     79  F   UNL A   1      42.659  27.317  37.050  1.00  0.00    -0.206 F 
ATOM     80  C   UNL A   1      46.135  27.932  37.820  1.00  0.00     0.060 A 
BRANCH  80  81
ATOM     81  S   UNL A   1      47.464  27.251  38.833  1.00  0.00     0.124 S 
ATOM     82  O   UNL A   1      48.409  28.363  38.860  1.00  0.00    -0.237 OA
ATOM     83  O   UNL A   1      46.783  26.968  40.091  1.00  0.00    -0.237 OA
ATOM     84  O   UNL A   1      47.899  26.079  38.081  1.00  0.00    -0.744 OA
ENDBRANCH  80  81
ENDBRANCH  59  73
BRANCH  60  85
ATOM     85  C   UNL A   1      36.674  33.207  30.973  1.00  0.00     0.058 A 
ATOM     86  C   UNL A   1      36.952  34.153  29.976  1.00  0.00     0.135 A 
ATOM     87  C   UNL A   1      35.327  32.887  31.208  1.00  0.00     0.135 A 
ATOM     88  F   UNL A   1      38.221  34.505  29.720  1.00  0.00    -0.206 F 
ATOM     89  C   UNL A   1      35.937  34.776  29.255  1.00  0.00     0.059 A 
ATOM     90  C   UNL A   1      34.295  33.474  30.480  1.00  0.00     0.059 A 
ATOM     91  F   UNL A   1      35.003  31.983  32.146  1.00  0.00    -0.206 F 
ATOM     92  C   UNL A   1      34.610  34.427  29.514  1.00  0.00     0.060 A 
BRANCH  92  93
ATOM     93  S   UNL A   1      33.303  35.210  28.545  1.00  0.00     0.124 S 
ATOM     94  O   UNL A   1      34.073  36.047  27.632  1.00  0.00    -0.237 OA
ATOM     95  O   UNL A   1      32.636  34.058  27.946  1.00  0.00    -0.237 OA
ATOM     96  O   UNL A   1      32.521  35.924  29.550  1.00  0.00    -0.744 OA
ENDBRANCH  92  93
ENDBRANCH  60  85
BRANCH  72  97
ATOM     97  C   UNL A   1      41.138  27.992  29.717  1.00  0.00     0.058 A 
ATOM     98  C   UNL A   1      40.237  26.945  29.469  1.00  0.00     0.135 A 
ATOM     99  C   UNL A   1      42.202  28.164  28.814  1.00  0.00     0.135 A 
ATOM    100  F   UNL A   1      39.202  26.733  30.297  1.00  0.00    -0.206 F 
ATOM    101  C   UNL A   1      40.410  26.074  28.397  1.00  0.00     0.059 A 
ATOM    102  C   UNL A   1      42.373  27.329  27.716  1.00  0.00     0.059 A 
ATOM    103  F   UNL A   1      43.084  29.161  28.991  1.00  0.00    -0.206 F 
ATOM    104  C   UNL A   1      41.484  26.273  27.528  1.00  0.00     0.060 A 
BRANCH 104 105
ATOM    105  S   UNL A   1      41.699  25.137  26.142  1.00  0.00     0.124 S 
ATOM    106  O   UNL A   1      41.610  26.045  25.003  1.00  0.00    -0.237 OA
ATOM    107  O   UNL A   1      43.021  24.574  26.402  1.00  0.00    -0.237 OA
ATOM    108  O   UNL A   1      40.587  24.203  26.289  1.00  0.00    -0.744 OA
ENDBRANCH 104 105
ENDBRANCH  72  97
ENDBRANCH  46  47
ENDBRANCH  39  41
ENDBRANCH  38  39
ENDBRANCH  37  38
ENDBRANCH  36  37
ENDBRANCH  35  36
ENDBRANCH  34  35
ENDBRANCH  33  34
ENDBRANCH  32  33
ENDBRANCH   1  32
TORSDOF 28
ENDMDL
MODEL 3
REMARK VINA RESULT:      -7.3      7.671     17.101
REMARK SMILES COc1cc(/C=N/[NH+]=C2\NC(=O)[C@@H](CC(=O)OCCOCCOCCOCCOC(=O)c3ccc(-c4c5nc(c(-c6c(F)cc(S(=O)(=O)[O-])cc6F)c6ccc([nH]6)c(-c6c(F)cc(S(=O)(=O)[O-])cc6F)c6nc(c(-c7c(F)cc(S(=O)(=O)[O-])cc7F)c7ccc4[nH]7)C=C6)C=C5)cc3)S2)cc(I)c1OC
REMARK SMILES IDX 22 1 21 2 20 3 19 4 18 5 17 6 15 7 16 8 14 9 13 10 8 11 9 12
REMARK SMILES IDX 10 14 98 15 11 16 12 18 7 19 6 20 5 21 3 22 4 23 102 24
REMARK SMILES IDX 100 25 99 26 101 27 2 28 1 29 103 30 104 31 23 32 24 33
REMARK SMILES IDX 25 34 26 35 27 36 28 37 29 38 30 39 31 40 32 41 33 42 97 43
REMARK SMILES IDX 34 44 96 45 35 46 36 47 37 48 90 49 38 50 95 51 89 52 91 53
REMARK SMILES IDX 39 54 94 55 88 56 87 57 40 59 74 60 53 61 73 62 54 63 57 64
REMARK SMILES IDX 72 65 92 66 55 67 56 68 71 70 93 71 58 72 41 73 42 74 51 75
REMARK SMILES IDX 43 76 44 77 50 78 52 79 45 80 46 81 47 82 48 83 49 84 75 85
REMARK SMILES IDX 76 86 85 87 77 88 78 89 84 90 86 91 79 92 80 93 81 94 82 95
REMARK SMILES IDX 83 96 59 97 60 98 69 99 61 100 62 101 68 102 70 103 63 104
REMARK SMILES IDX 64 105 65 106 66 107 67 108
REMARK H PARENT 8 13 10 17 91 58 57 69
REMARK Flexibility Score: inf
ROOT
ATOM      1  C   UNL A   1      43.447  25.665  34.600  1.00  0.00     0.188 C 
ENDROOT
BRANCH   1   2
ATOM      2  C   UNL A   1      42.863  24.241  34.653  1.00  0.00     0.188 C 
BRANCH   2   3
ATOM      3  O   UNL A   1      43.384  23.400  35.659  1.00  0.00    -0.376 OA
BRANCH   3   4
ATOM      4  C   UNL A   1      44.713  22.927  35.688  1.00  0.00     0.202 C 
BRANCH   4   5
ATOM      5  C   UNL A   1      45.352  21.890  34.743  1.00  0.00     0.261 C 
BRANCH   5   6
ATOM      6  O   UNL A   1      44.961  20.512  34.814  1.00  0.00    -0.463 OA
BRANCH   6   7
ATOM      7  C   UNL A   1      45.809  19.648  35.414  1.00  0.00     0.307 C 
ATOM      8  O   UNL A   1      45.597  18.446  35.522  1.00  0.00    -0.252 OA
BRANCH   7   9
ATOM      9  C   UNL A   1      47.008  20.330  36.057  1.00  0.00     0.150 C 
BRANCH   9  10
ATOM     10  C   UNL A   1      48.396  19.846  35.640  1.00  0.00     0.184 C 
ATOM     11  N   UNL A   1      50.859  21.395  33.086  1.00  0.00    -0.142 N 
ATOM     12  C   UNL A   1      50.110  20.980  34.050  1.00  0.00     0.337 C 
ATOM     13  H   UNL A   1      50.810  21.033  32.171  1.00  0.00     0.343 HD
ATOM     14  N   UNL A   1      50.295  21.282  35.352  1.00  0.00    -0.202 N 
ATOM     15  S   UNL A   1      48.717  19.973  33.834  1.00  0.00    -0.020 SA
ATOM     16  C   UNL A   1      49.453  20.744  36.269  1.00  0.00     0.322 C 
ATOM     17  H   UNL A   1      51.027  21.881  35.631  1.00  0.00     0.316 HD
ATOM     18  O   UNL A   1      49.540  20.985  37.467  1.00  0.00    -0.246 OA
BRANCH  11  19
ATOM     19  N   UNL A   1      51.746  22.410  33.458  1.00  0.00    -0.093 NA
ATOM     20  C   UNL A   1      52.882  22.397  32.840  1.00  0.00     0.166 C 
BRANCH  20  21
ATOM     21  C   UNL A   1      53.840  23.489  33.094  1.00  0.00     0.002 A 
ATOM     22  C   UNL A   1      55.884  24.626  32.505  1.00  0.00     0.162 A 
ATOM     23  C   UNL A   1      54.968  23.599  32.285  1.00  0.00     0.060 A 
ATOM     24  C   UNL A   1      55.684  25.583  33.539  1.00  0.00     0.174 A 
ATOM     25  C   UNL A   1      54.528  25.465  34.337  1.00  0.00     0.060 A 
ATOM     26  C   UNL A   1      53.621  24.403  34.119  1.00  0.00     0.028 A 
ATOM     27  I   UNL A   1      53.885  26.772  35.865  1.00  0.00    -0.040 I 
BRANCH  22  28
ATOM     28  O   UNL A   1      57.060  24.723  31.791  1.00  0.00    -0.493 OA
ATOM     29  C   UNL A   1      57.438  23.575  31.040  1.00  0.00     0.278 C 
ENDBRANCH  22  28
BRANCH  24  30
ATOM     30  O   UNL A   1      56.675  26.526  33.542  1.00  0.00    -0.492 OA
ATOM     31  C   UNL A   1      57.612  26.664  34.585  1.00  0.00     0.278 C 
ENDBRANCH  24  30
ENDBRANCH  20  21
ENDBRANCH  11  19
ENDBRANCH   9  10
ENDBRANCH   7   9
ENDBRANCH   6   7
ENDBRANCH   5   6
ENDBRANCH   4   5
ENDBRANCH   3   4
ENDBRANCH   2   3
ENDBRANCH   1   2
BRANCH   1  32
ATOM     32  O   UNL A   1      44.788  25.968  34.272  1.00  0.00    -0.377 OA
BRANCH  32  33
ATOM     33  C   UNL A   1      45.594  26.479  35.312  1.00  0.00     0.188 C 
BRANCH  33  34
ATOM     34  C   UNL A   1      47.076  26.228  35.017  1.00  0.00     0.188 C 
BRANCH  34  35
ATOM     35  O   UNL A   1      47.734  25.573  36.097  1.00  0.00    -0.376 OA
BRANCH  35  36
ATOM     36  C   UNL A   1      48.536  26.355  36.975  1.00  0.00     0.202 C 
BRANCH  36  37
ATOM     37  C   UNL A   1      49.896  26.954  36.547  1.00  0.00     0.261 C 
BRANCH  37  38
ATOM     38  O   UNL A   1      49.963  28.351  36.221  1.00  0.00    -0.460 OA
BRANCH  38  39
ATOM     39  C   UNL A   1      49.550  29.246  37.136  1.00  0.00     0.338 C 
ATOM     40  O   UNL A   1      50.166  29.630  38.117  1.00  0.00    -0.246 OA
BRANCH  39  41
ATOM     41  C   UNL A   1      48.291  29.845  36.636  1.00  0.00     0.060 A 
ATOM     42  C   UNL A   1      47.074  29.349  37.120  1.00  0.00     0.016 A 
ATOM     43  C   UNL A   1      48.307  30.897  35.713  1.00  0.00     0.016 A 
ATOM     44  C   UNL A   1      45.870  29.867  36.648  1.00  0.00     0.010 A 
ATOM     45  C   UNL A   1      47.098  31.395  35.216  1.00  0.00     0.010 A 
ATOM     46  C   UNL A   1      45.877  30.846  35.646  1.00  0.00    -0.014 A 
BRANCH  46  47
ATOM     47  C   UNL A   1      44.637  31.068  34.863  1.00  0.00     0.031 A 
ATOM     48  C   UNL A   1      43.579  31.950  35.476  1.00  0.00     0.074 A 
ATOM     49  C   UNL A   1      44.476  30.571  33.625  1.00  0.00     0.049 A 
ATOM     50  N   UNL A   1      42.417  32.311  35.000  1.00  0.00    -0.248 NA
ATOM     51  C   UNL A   1      43.879  32.501  36.809  1.00  0.00     0.031 C 
ATOM     52  C   UNL A   1      45.447  29.747  32.908  1.00  0.00     0.029 A 
ATOM     53  N   UNL A   1      43.426  30.693  32.749  1.00  0.00    -0.354 N 
ATOM     54  C   UNL A   1      41.850  33.126  35.974  1.00  0.00     0.074 A 
ATOM     55  C   UNL A   1      42.774  33.175  37.083  1.00  0.00     0.031 C 
ATOM     56  C   UNL A   1      44.943  29.431  31.700  1.00  0.00     0.029 A 
ATOM     57  C   UNL A   1      43.605  30.007  31.570  1.00  0.00     0.049 A 
ATOM     58  H   UNL A   1      42.619  31.222  32.946  1.00  0.00     0.167 HD
ATOM     59  C   UNL A   1      40.670  33.790  35.942  1.00  0.00     0.037 A 
ATOM     60  C   UNL A   1      42.774  29.855  30.518  1.00  0.00     0.037 A 
ATOM     61  C   UNL A   1      39.751  33.735  34.837  1.00  0.00     0.049 A 
ATOM     62  C   UNL A   1      41.431  30.544  30.536  1.00  0.00     0.074 A 
ATOM     63  C   UNL A   1      38.528  34.367  34.704  1.00  0.00     0.029 A 
ATOM     64  N   UNL A   1      39.951  33.001  33.677  1.00  0.00    -0.354 N 
ATOM     65  N   UNL A   1      40.912  31.323  31.457  1.00  0.00    -0.248 NA
ATOM     66  C   UNL A   1      40.566  30.341  29.366  1.00  0.00     0.031 C 
ATOM     67  C   UNL A   1      37.964  33.971  33.486  1.00  0.00     0.029 A 
ATOM     68  C   UNL A   1      38.865  33.146  32.832  1.00  0.00     0.049 A 
ATOM     69  H   UNL A   1      40.749  32.456  33.485  1.00  0.00     0.167 HD
ATOM     70  C   UNL A   1      39.676  31.733  30.960  1.00  0.00     0.074 A 
ATOM     71  C   UNL A   1      39.535  31.125  29.653  1.00  0.00     0.031 C 
ATOM     72  C   UNL A   1      38.745  32.539  31.529  1.00  0.00     0.037 A 
BRANCH  59  73
ATOM     73  C   UNL A   1      40.299  34.606  37.151  1.00  0.00     0.058 A 
ATOM     74  C   UNL A   1      39.618  34.045  38.244  1.00  0.00     0.135 A 
ATOM     75  C   UNL A   1      40.646  35.964  37.224  1.00  0.00     0.135 A 
ATOM     76  F   UNL A   1      39.239  32.757  38.217  1.00  0.00    -0.206 F 
ATOM     77  C   UNL A   1      39.275  34.807  39.355  1.00  0.00     0.059 A 
ATOM     78  C   UNL A   1      40.340  36.737  38.339  1.00  0.00     0.059 A 
ATOM     79  F   UNL A   1      41.289  36.553  36.204  1.00  0.00    -0.206 F 
ATOM     80  C   UNL A   1      39.643  36.153  39.395  1.00  0.00     0.060 A 
BRANCH  80  81
ATOM     81  S   UNL A   1      39.201  37.125  40.851  1.00  0.00     0.124 S 
ATOM     82  O   UNL A   1      40.514  37.556  41.322  1.00  0.00    -0.237 OA
ATOM     83  O   UNL A   1      38.358  38.170  40.282  1.00  0.00    -0.237 OA
ATOM     84  O   UNL A   1      38.513  36.163  41.705  1.00  0.00    -0.744 OA
ENDBRANCH  80  81
ENDBRANCH  59  73
BRANCH  60  85
ATOM     85  C   UNL A   1      43.178  29.013  29.358  1.00  0.00     0.058 A 
ATOM     86  C   UNL A   1      43.915  29.547  28.291  1.00  0.00     0.135 A 
ATOM     87  C   UNL A   1      42.808  27.661  29.280  1.00  0.00     0.135 A 
ATOM     88  F   UNL A   1      44.282  30.837  28.308  1.00  0.00    -0.206 F 
ATOM     89  C   UNL A   1      44.254  28.779  27.179  1.00  0.00     0.059 A 
ATOM     90  C   UNL A   1      43.160  26.865  28.194  1.00  0.00     0.059 A 
ATOM     91  F   UNL A   1      42.108  27.097  30.277  1.00  0.00    -0.206 F 
ATOM     92  C   UNL A   1      43.873  27.437  27.143  1.00  0.00     0.060 A 
BRANCH  92  93
ATOM     93  S   UNL A   1      44.353  26.439  25.716  1.00  0.00     0.124 S 
ATOM     94  O   UNL A   1      44.825  27.459  24.787  1.00  0.00    -0.237 OA
ATOM     95  O   UNL A   1      45.377  25.569  26.284  1.00  0.00    -0.237 OA
ATOM     96  O   UNL A   1      43.111  25.770  25.341  1.00  0.00    -0.744 OA
ENDBRANCH  92  93
ENDBRANCH  60  85
BRANCH  72  97
ATOM     97  C   UNL A   1      37.515  32.857  30.720  1.00  0.00     0.058 A 
ATOM     98  C   UNL A   1      37.532  33.787  29.669  1.00  0.00     0.135 A 
ATOM     99  C   UNL A   1      36.302  32.196  30.985  1.00  0.00     0.135 A 
ATOM    100  F   UNL A   1      38.662  34.449  29.370  1.00  0.00    -0.206 F 
ATOM    101  C   UNL A   1      36.384  34.086  28.940  1.00  0.00     0.059 A 
ATOM    102  C   UNL A   1      35.152  32.451  30.246  1.00  0.00     0.059 A 
ATOM    103  F   UNL A   1      36.230  31.282  31.966  1.00  0.00    -0.206 F 
ATOM    104  C   UNL A   1      35.198  33.414  29.240  1.00  0.00     0.060 A 
BRANCH 104 105
ATOM    105  S   UNL A   1      33.715  33.810  28.290  1.00  0.00     0.124 S 
ATOM    106  O   UNL A   1      32.875  34.435  29.307  1.00  0.00    -0.237 OA
ATOM    107  O   UNL A   1      34.233  34.703  27.259  1.00  0.00    -0.237 OA
ATOM    108  O   UNL A   1      33.258  32.508  27.812  1.00  0.00    -0.744 OA
ENDBRANCH 104 105
ENDBRANCH  72  97
ENDBRANCH  46  47
ENDBRANCH  39  41
ENDBRANCH  38  39
ENDBRANCH  37  38
ENDBRANCH  36  37
ENDBRANCH  35  36
ENDBRANCH  34  35
ENDBRANCH  33  34
ENDBRANCH  32  33
ENDBRANCH   1  32
TORSDOF 28
ENDMDL
