MODEL 1
REMARK VINA RESULT:      -9.1      0.000      0.000
REMARK SMILES Cc1ccccc1SCC(=O)N[C@H]1C=C[C@H](C(=O)OCCOCCOCCOCCOC(=O)c2ccc(-c3c4nc(c(-c5c(F)cc(S(=O)(=O)[O-])cc5F)c5ccc([nH]5)c(-c5c(F)cc(S(=O)(=O)[O-])cc5F)c5nc(c(-c6c(F)cc(S(=O)(=O)[O-])cc6F)c6ccc3[nH]6)C=C5)C=C4)cc2)C1
REMARK SMILES IDX 24 1 23 2 22 3 21 4 20 5 19 6 17 7 18 8 16 9 13 10 14 11
REMARK SMILES IDX 100 12 15 13 12 14 10 15 11 16 9 18 8 19 7 20 1 21 2 22 3 23
REMARK SMILES IDX 4 24 6 25 5 26 25 27 26 28 27 29 28 30 29 31 30 32 31 33
REMARK SMILES IDX 32 34 33 35 34 36 35 37 99 38 36 39 98 40 37 41 38 42 39 43
REMARK SMILES IDX 92 44 40 45 97 46 91 47 93 48 41 49 96 50 90 51 89 52 42 54
REMARK SMILES IDX 76 55 55 56 75 57 56 58 59 59 74 60 94 61 57 62 58 63 73 65
REMARK SMILES IDX 95 66 60 67 43 68 44 69 53 70 45 71 46 72 52 73 54 74 47 75
REMARK SMILES IDX 48 76 49 77 50 78 51 79 77 80 78 81 87 82 79 83 80 84 86 85
REMARK SMILES IDX 88 86 81 87 82 88 83 89 84 90 85 91 61 92 62 93 71 94 63 95
REMARK SMILES IDX 64 96 70 97 72 98 65 99 66 100 67 101 68 102 69 103
REMARK H PARENT 12 17 93 53 59 64
REMARK Flexibility Score: inf
ROOT
ATOM      1  C   UNL A   1      39.634  26.947  28.572  1.00  0.00     0.188 C 
ENDROOT
BRANCH   1   2
ATOM      2  C   UNL A   1      38.530  27.916  29.040  1.00  0.00     0.188 C 
BRANCH   2   3
ATOM      3  O   UNL A   1      37.904  28.910  28.260  1.00  0.00    -0.376 OA
BRANCH   3   4
ATOM      4  C   UNL A   1      36.718  29.462  28.799  1.00  0.00     0.202 C 
BRANCH   4   5
ATOM      5  C   UNL A   1      35.638  30.007  27.894  1.00  0.00     0.261 C 
BRANCH   5   6
ATOM      6  O   UNL A   1      34.674  28.990  27.655  1.00  0.00    -0.463 OA
BRANCH   6   7
ATOM      7  C   UNL A   1      34.039  29.115  26.482  1.00  0.00     0.312 C 
ATOM      8  O   UNL A   1      34.505  28.793  25.385  1.00  0.00    -0.252 OA
BRANCH   7   9
ATOM      9  C   UNL A   1      32.592  29.506  26.738  1.00  0.00     0.124 C 
ATOM     10  C   UNL A   1      31.827  27.286  26.498  1.00  0.00     0.106 C 
ATOM     11  C   UNL A   1      31.337  28.110  25.340  1.00  0.00    -0.006 C 
ATOM     12  C   UNL A   1      31.913  28.397  27.539  1.00  0.00     0.048 C 
ATOM     13  C   UNL A   1      31.802  29.371  25.465  1.00  0.00    -0.014 C 
BRANCH  10  14
ATOM     14  N   UNL A   1      31.016  26.178  26.881  1.00  0.00    -0.349 N 
ATOM     15  C   UNL A   1      30.810  25.041  26.139  1.00  0.00     0.230 C 
ATOM     16  O   UNL A   1      29.932  24.270  26.545  1.00  0.00    -0.274 OA
ATOM     17  H   UNL A   1      30.564  26.233  27.754  1.00  0.00     0.164 HD
BRANCH  15  18
ATOM     18  C   UNL A   1      31.716  24.610  24.981  1.00  0.00     0.174 C 
BRANCH  18  19
ATOM     19  S   UNL A   1      33.382  23.987  25.327  1.00  0.00    -0.116 SA
BRANCH  19  20
ATOM     20  C   UNL A   1      33.641  22.269  24.952  1.00  0.00     0.011 A 
ATOM     21  C   UNL A   1      36.196  22.111  24.939  1.00  0.00     0.045 C 
ATOM     22  C   UNL A   1      34.823  21.526  24.886  1.00  0.00    -0.038 A 
ATOM     23  C   UNL A   1      34.746  20.117  24.815  1.00  0.00     0.004 A 
ATOM     24  C   UNL A   1      33.527  19.454  24.712  1.00  0.00     0.000 A 
ATOM     25  C   UNL A   1      32.416  21.578  24.775  1.00  0.00     0.015 A 
ATOM     26  C   UNL A   1      32.359  20.190  24.645  1.00  0.00     0.001 A 
ENDBRANCH  19  20
ENDBRANCH  18  19
ENDBRANCH  15  18
ENDBRANCH  10  14
ENDBRANCH   7   9
ENDBRANCH   6   7
ENDBRANCH   5   6
ENDBRANCH   4   5
ENDBRANCH   3   4
ENDBRANCH   2   3
ENDBRANCH   1   2
BRANCH   1  27
ATOM     27  O   UNL A   1      39.346  25.860  27.736  1.00  0.00    -0.377 OA
BRANCH  27  28
ATOM     28  C   UNL A   1      40.062  24.653  27.954  1.00  0.00     0.188 C 
BRANCH  28  29
ATOM     29  C   UNL A   1      39.793  23.419  27.119  1.00  0.00     0.188 C 
BRANCH  29  30
ATOM     30  O   UNL A   1      40.929  22.568  27.245  1.00  0.00    -0.376 OA
BRANCH  30  31
ATOM     31  C   UNL A   1      41.385  21.980  26.043  1.00  0.00     0.202 C 
BRANCH  31  32
ATOM     32  C   UNL A   1      42.622  22.663  25.447  1.00  0.00     0.261 C 
BRANCH  32  33
ATOM     33  O   UNL A   1      43.811  22.319  26.197  1.00  0.00    -0.460 OA
BRANCH  33  34
ATOM     34  C   UNL A   1      44.648  23.337  26.544  1.00  0.00     0.338 C 
ATOM     35  O   UNL A   1      45.138  24.114  25.723  1.00  0.00    -0.246 OA
BRANCH  34  36
ATOM     36  C   UNL A   1      44.712  23.534  28.017  1.00  0.00     0.060 A 
ATOM     37  C   UNL A   1      43.817  22.930  28.918  1.00  0.00     0.016 A 
ATOM     38  C   UNL A   1      45.668  24.394  28.519  1.00  0.00     0.016 A 
ATOM     39  C   UNL A   1      43.772  23.311  30.282  1.00  0.00     0.010 A 
ATOM     40  C   UNL A   1      45.614  24.760  29.851  1.00  0.00     0.010 A 
ATOM     41  C   UNL A   1      44.644  24.287  30.758  1.00  0.00    -0.014 A 
BRANCH  41  42
ATOM     42  C   UNL A   1      44.562  25.027  32.060  1.00  0.00     0.031 A 
ATOM     43  C   UNL A   1      43.928  26.402  32.054  1.00  0.00     0.074 A 
ATOM     44  C   UNL A   1      44.613  24.290  33.208  1.00  0.00     0.049 A 
ATOM     45  N   UNL A   1      43.520  27.067  33.082  1.00  0.00    -0.248 NA
ATOM     46  C   UNL A   1      43.646  27.136  30.816  1.00  0.00     0.031 C 
ATOM     47  C   UNL A   1      43.834  24.465  34.446  1.00  0.00     0.029 A 
ATOM     48  N   UNL A   1      45.287  23.108  33.475  1.00  0.00    -0.354 N 
ATOM     49  C   UNL A   1      42.670  28.092  32.665  1.00  0.00     0.074 A 
ATOM     50  C   UNL A   1      42.852  28.129  31.238  1.00  0.00     0.031 C 
ATOM     51  C   UNL A   1      44.086  23.485  35.327  1.00  0.00     0.029 A 
ATOM     52  C   UNL A   1      45.259  22.814  34.846  1.00  0.00     0.049 A 
ATOM     53  H   UNL A   1      45.725  22.550  32.793  1.00  0.00     0.167 HD
ATOM     54  C   UNL A   1      41.825  28.686  33.577  1.00  0.00     0.037 A 
ATOM     55  C   UNL A   1      46.441  22.856  35.528  1.00  0.00     0.037 A 
ATOM     56  C   UNL A   1      42.194  28.258  34.951  1.00  0.00     0.049 A 
ATOM     57  C   UNL A   1      46.542  24.191  36.292  1.00  0.00     0.074 A 
ATOM     58  C   UNL A   1      41.517  27.693  36.015  1.00  0.00     0.029 A 
ATOM     59  N   UNL A   1      43.548  28.207  35.314  1.00  0.00    -0.354 N 
ATOM     60  N   UNL A   1      45.883  25.279  35.935  1.00  0.00    -0.248 NA
ATOM     61  C   UNL A   1      47.133  24.352  37.624  1.00  0.00     0.031 C 
ATOM     62  C   UNL A   1      42.482  27.099  36.888  1.00  0.00     0.029 A 
ATOM     63  C   UNL A   1      43.757  27.402  36.418  1.00  0.00     0.049 A 
ATOM     64  H   UNL A   1      44.265  28.687  34.839  1.00  0.00     0.167 HD
ATOM     65  C   UNL A   1      45.835  26.177  36.967  1.00  0.00     0.074 A 
ATOM     66  C   UNL A   1      46.681  25.572  37.986  1.00  0.00     0.031 C 
ATOM     67  C   UNL A   1      45.083  27.322  37.028  1.00  0.00     0.037 A 
BRANCH  54  68
ATOM     68  C   UNL A   1      40.531  29.505  33.269  1.00  0.00     0.058 A 
ATOM     69  C   UNL A   1      40.481  30.910  33.478  1.00  0.00     0.135 A 
ATOM     70  C   UNL A   1      39.281  28.978  32.856  1.00  0.00     0.135 A 
ATOM     71  F   UNL A   1      41.577  31.596  33.827  1.00  0.00    -0.206 F 
ATOM     72  C   UNL A   1      39.317  31.697  33.334  1.00  0.00     0.059 A 
ATOM     73  C   UNL A   1      38.119  29.754  32.647  1.00  0.00     0.059 A 
ATOM     74  F   UNL A   1      39.092  27.670  32.662  1.00  0.00    -0.206 F 
ATOM     75  C   UNL A   1      38.134  31.114  32.909  1.00  0.00     0.060 A 
BRANCH  75  76
ATOM     76  S   UNL A   1      36.657  32.137  32.669  1.00  0.00     0.124 S 
ATOM     77  O   UNL A   1      35.806  31.283  31.849  1.00  0.00    -0.237 OA
ATOM     78  O   UNL A   1      36.201  32.356  34.039  1.00  0.00    -0.237 OA
ATOM     79  O   UNL A   1      37.172  33.324  31.992  1.00  0.00    -0.744 OA
ENDBRANCH  75  76
ENDBRANCH  54  68
BRANCH  55  80
ATOM     80  C   UNL A   1      47.368  21.858  34.863  1.00  0.00     0.058 A 
ATOM     81  C   UNL A   1      48.600  22.456  34.466  1.00  0.00     0.135 A 
ATOM     82  C   UNL A   1      47.471  20.534  35.345  1.00  0.00     0.135 A 
ATOM     83  F   UNL A   1      48.597  23.713  33.990  1.00  0.00    -0.206 F 
ATOM     84  C   UNL A   1      49.847  21.908  34.796  1.00  0.00     0.059 A 
ATOM     85  C   UNL A   1      48.722  19.960  35.668  1.00  0.00     0.059 A 
ATOM     86  F   UNL A   1      46.368  19.879  35.737  1.00  0.00    -0.206 F 
ATOM     87  C   UNL A   1      49.899  20.684  35.453  1.00  0.00     0.060 A 
BRANCH  87  88
ATOM     88  S   UNL A   1      51.477  20.180  36.215  1.00  0.00     0.124 S 
ATOM     89  O   UNL A   1      52.231  21.425  36.211  1.00  0.00    -0.237 OA
ATOM     90  O   UNL A   1      51.061  19.691  37.528  1.00  0.00    -0.237 OA
ATOM     91  O   UNL A   1      51.960  19.142  35.314  1.00  0.00    -0.744 OA
ENDBRANCH  87  88
ENDBRANCH  55  80
BRANCH  67  92
ATOM     92  C   UNL A   1      45.594  28.567  37.721  1.00  0.00     0.058 A 
ATOM     93  C   UNL A   1      45.549  28.703  39.119  1.00  0.00     0.135 A 
ATOM     94  C   UNL A   1      46.367  29.538  37.034  1.00  0.00     0.135 A 
ATOM     95  F   UNL A   1      44.955  27.785  39.896  1.00  0.00    -0.206 F 
ATOM     96  C   UNL A   1      46.153  29.763  39.782  1.00  0.00     0.059 A 
ATOM     97  C   UNL A   1      47.036  30.568  37.687  1.00  0.00     0.059 A 
ATOM     98  F   UNL A   1      46.527  29.508  35.703  1.00  0.00    -0.206 F 
ATOM     99  C   UNL A   1      46.892  30.691  39.058  1.00  0.00     0.060 A 
BRANCH  99 100
ATOM    100  S   UNL A   1      47.675  32.047  39.936  1.00  0.00     0.124 S 
ATOM    101  O   UNL A   1      46.704  32.294  40.997  1.00  0.00    -0.237 OA
ATOM    102  O   UNL A   1      48.943  31.461  40.364  1.00  0.00    -0.237 OA
ATOM    103  O   UNL A   1      47.785  33.090  38.922  1.00  0.00    -0.744 OA
ENDBRANCH  99 100
ENDBRANCH  67  92
ENDBRANCH  41  42
ENDBRANCH  34  36
ENDBRANCH  33  34
ENDBRANCH  32  33
ENDBRANCH  31  32
ENDBRANCH  30  31
ENDBRANCH  29  30
ENDBRANCH  28  29
ENDBRANCH  27  28
ENDBRANCH   1  27
TORSDOF 27
ENDMDL
MODEL 2
REMARK VINA RESULT:      -9.0      6.030      7.539
REMARK SMILES Cc1ccccc1SCC(=O)N[C@H]1C=C[C@H](C(=O)OCCOCCOCCOCCOC(=O)c2ccc(-c3c4nc(c(-c5c(F)cc(S(=O)(=O)[O-])cc5F)c5ccc([nH]5)c(-c5c(F)cc(S(=O)(=O)[O-])cc5F)c5nc(c(-c6c(F)cc(S(=O)(=O)[O-])cc6F)c6ccc3[nH]6)C=C5)C=C4)cc2)C1
REMARK SMILES IDX 24 1 23 2 22 3 21 4 20 5 19 6 17 7 18 8 16 9 13 10 14 11
REMARK SMILES IDX 100 12 15 13 12 14 10 15 11 16 9 18 8 19 7 20 1 21 2 22 3 23
REMARK SMILES IDX 4 24 6 25 5 26 25 27 26 28 27 29 28 30 29 31 30 32 31 33
REMARK SMILES IDX 32 34 33 35 34 36 35 37 99 38 36 39 98 40 37 41 38 42 39 43
REMARK SMILES IDX 92 44 40 45 97 46 91 47 93 48 41 49 96 50 90 51 89 52 42 54
REMARK SMILES IDX 76 55 55 56 75 57 56 58 59 59 74 60 94 61 57 62 58 63 73 65
REMARK SMILES IDX 95 66 60 67 43 68 44 69 53 70 45 71 46 72 52 73 54 74 47 75
REMARK SMILES IDX 48 76 49 77 50 78 51 79 77 80 78 81 87 82 79 83 80 84 86 85
REMARK SMILES IDX 88 86 81 87 82 88 83 89 84 90 85 91 61 92 62 93 71 94 63 95
REMARK SMILES IDX 64 96 70 97 72 98 65 99 66 100 67 101 68 102 69 103
REMARK H PARENT 12 17 93 53 59 64
REMARK Flexibility Score: inf
ROOT
ATOM      1  C   UNL A   1      36.121  23.397  25.788  1.00  0.00     0.188 C 
ENDROOT
BRANCH   1   2
ATOM      2  C   UNL A   1      35.192  24.611  25.591  1.00  0.00     0.188 C 
BRANCH   2   3
ATOM      3  O   UNL A   1      33.981  24.857  26.272  1.00  0.00    -0.376 OA
BRANCH   3   4
ATOM      4  C   UNL A   1      33.199  25.925  25.773  1.00  0.00     0.202 C 
BRANCH   4   5
ATOM      5  C   UNL A   1      32.330  26.744  26.698  1.00  0.00     0.261 C 
BRANCH   5   6
ATOM      6  O   UNL A   1      31.697  27.775  25.952  1.00  0.00    -0.463 OA
BRANCH   6   7
ATOM      7  C   UNL A   1      30.706  27.337  25.165  1.00  0.00     0.312 C 
ATOM      8  O   UNL A   1      29.966  26.382  25.420  1.00  0.00    -0.252 OA
BRANCH   7   9
ATOM      9  C   UNL A   1      30.497  28.327  24.029  1.00  0.00     0.124 C 
ATOM     10  C   UNL A   1      31.987  27.182  22.601  1.00  0.00     0.106 C 
ATOM     11  C   UNL A   1      32.588  28.504  22.993  1.00  0.00    -0.006 C 
ATOM     12  C   UNL A   1      30.516  27.570  22.703  1.00  0.00     0.048 C 
ATOM     13  C   UNL A   1      31.747  29.140  23.834  1.00  0.00    -0.014 C 
BRANCH  10  14
ATOM     14  N   UNL A   1      32.374  26.656  21.333  1.00  0.00    -0.349 N 
ATOM     15  C   UNL A   1      32.692  25.346  21.073  1.00  0.00     0.230 C 
ATOM     16  O   UNL A   1      33.182  25.110  19.961  1.00  0.00    -0.274 OA
ATOM     17  H   UNL A   1      32.418  27.288  20.580  1.00  0.00     0.164 HD
BRANCH  15  18
ATOM     18  C   UNL A   1      32.305  24.181  21.989  1.00  0.00     0.174 C 
BRANCH  18  19
ATOM     19  S   UNL A   1      33.596  23.113  22.679  1.00  0.00    -0.116 SA
BRANCH  19  20
ATOM     20  C   UNL A   1      33.012  21.626  23.457  1.00  0.00     0.011 A 
ATOM     21  C   UNL A   1      31.788  20.466  21.530  1.00  0.00     0.045 C 
ATOM     22  C   UNL A   1      32.341  20.525  22.916  1.00  0.00    -0.038 A 
ATOM     23  C   UNL A   1      32.207  19.353  23.692  1.00  0.00     0.004 A 
ATOM     24  C   UNL A   1      32.637  19.295  25.014  1.00  0.00     0.000 A 
ATOM     25  C   UNL A   1      33.378  21.568  24.825  1.00  0.00     0.015 A 
ATOM     26  C   UNL A   1      33.184  20.422  25.597  1.00  0.00     0.001 A 
ENDBRANCH  19  20
ENDBRANCH  18  19
ENDBRANCH  15  18
ENDBRANCH  10  14
ENDBRANCH   7   9
ENDBRANCH   6   7
ENDBRANCH   5   6
ENDBRANCH   4   5
ENDBRANCH   3   4
ENDBRANCH   2   3
ENDBRANCH   1   2
BRANCH   1  27
ATOM     27  O   UNL A   1      37.500  23.487  25.558  1.00  0.00    -0.377 OA
BRANCH  27  28
ATOM     28  C   UNL A   1      38.316  23.962  26.619  1.00  0.00     0.188 C 
BRANCH  28  29
ATOM     29  C   UNL A   1      39.826  23.887  26.542  1.00  0.00     0.188 C 
BRANCH  29  30
ATOM     30  O   UNL A   1      40.235  22.786  27.347  1.00  0.00    -0.376 OA
BRANCH  30  31
ATOM     31  C   UNL A   1      40.074  21.510  26.760  1.00  0.00     0.202 C 
BRANCH  31  32
ATOM     32  C   UNL A   1      41.384  20.729  26.599  1.00  0.00     0.261 C 
BRANCH  32  33
ATOM     33  O   UNL A   1      42.192  21.292  25.539  1.00  0.00    -0.460 OA
BRANCH  33  34
ATOM     34  C   UNL A   1      43.426  21.763  25.875  1.00  0.00     0.338 C 
ATOM     35  O   UNL A   1      44.455  21.095  25.761  1.00  0.00    -0.246 OA
BRANCH  34  36
ATOM     36  C   UNL A   1      43.409  23.221  26.171  1.00  0.00     0.060 A 
ATOM     37  C   UNL A   1      43.409  24.212  25.174  1.00  0.00     0.016 A 
ATOM     38  C   UNL A   1      43.447  23.619  27.492  1.00  0.00     0.016 A 
ATOM     39  C   UNL A   1      43.615  25.578  25.490  1.00  0.00     0.010 A 
ATOM     40  C   UNL A   1      43.648  24.954  27.790  1.00  0.00     0.010 A 
ATOM     41  C   UNL A   1      43.796  25.963  26.816  1.00  0.00    -0.014 A 
BRANCH  41  42
ATOM     42  C   UNL A   1      44.310  27.278  27.322  1.00  0.00     0.031 A 
ATOM     43  C   UNL A   1      43.299  28.362  27.631  1.00  0.00     0.074 A 
ATOM     44  C   UNL A   1      45.543  27.289  27.909  1.00  0.00     0.049 A 
ATOM     45  N   UNL A   1      43.506  29.434  28.318  1.00  0.00    -0.248 NA
ATOM     46  C   UNL A   1      41.897  28.277  27.209  1.00  0.00     0.031 C 
ATOM     47  C   UNL A   1      45.983  28.031  29.104  1.00  0.00     0.029 A 
ATOM     48  N   UNL A   1      46.660  26.511  27.645  1.00  0.00    -0.354 N 
ATOM     49  C   UNL A   1      42.281  29.982  28.702  1.00  0.00     0.074 A 
ATOM     50  C   UNL A   1      41.319  29.258  27.914  1.00  0.00     0.031 C 
ATOM     51  C   UNL A   1      47.243  27.713  29.442  1.00  0.00     0.029 A 
ATOM     52  C   UNL A   1      47.786  27.006  28.318  1.00  0.00     0.049 A 
ATOM     53  H   UNL A   1      46.661  25.718  27.061  1.00  0.00     0.167 HD
ATOM     54  C   UNL A   1      42.239  30.891  29.736  1.00  0.00     0.037 A 
ATOM     55  C   UNL A   1      48.799  27.524  27.565  1.00  0.00     0.037 A 
ATOM     56  C   UNL A   1      43.619  31.314  30.086  1.00  0.00     0.049 A 
ATOM     57  C   UNL A   1      48.702  29.063  27.567  1.00  0.00     0.074 A 
ATOM     58  C   UNL A   1      44.367  31.353  31.248  1.00  0.00     0.029 A 
ATOM     59  N   UNL A   1      44.531  31.598  29.059  1.00  0.00    -0.354 N 
ATOM     60  N   UNL A   1      47.576  29.715  27.797  1.00  0.00    -0.248 NA
ATOM     61  C   UNL A   1      49.848  29.976  27.597  1.00  0.00     0.031 C 
ATOM     62  C   UNL A   1      45.748  31.422  30.883  1.00  0.00     0.029 A 
ATOM     63  C   UNL A   1      45.840  31.544  29.500  1.00  0.00     0.049 A 
ATOM     64  H   UNL A   1      44.271  31.811  28.134  1.00  0.00     0.167 HD
ATOM     65  C   UNL A   1      47.830  31.018  28.126  1.00  0.00     0.074 A 
ATOM     66  C   UNL A   1      49.267  31.146  27.933  1.00  0.00     0.031 C 
ATOM     67  C   UNL A   1      46.932  31.936  28.611  1.00  0.00     0.037 A 
BRANCH  54  68
ATOM     68  C   UNL A   1      40.995  31.283  30.597  1.00  0.00     0.058 A 
ATOM     69  C   UNL A   1      40.372  30.344  31.463  1.00  0.00     0.135 A 
ATOM     70  C   UNL A   1      40.303  32.520  30.560  1.00  0.00     0.135 A 
ATOM     71  F   UNL A   1      40.905  29.131  31.665  1.00  0.00    -0.206 F 
ATOM     72  C   UNL A   1      39.181  30.588  32.181  1.00  0.00     0.059 A 
ATOM     73  C   UNL A   1      39.144  32.808  31.314  1.00  0.00     0.059 A 
ATOM     74  F   UNL A   1      40.684  33.522  29.763  1.00  0.00    -0.206 F 
ATOM     75  C   UNL A   1      38.571  31.829  32.109  1.00  0.00     0.060 A 
BRANCH  75  76
ATOM     76  S   UNL A   1      37.073  32.158  33.076  1.00  0.00     0.124 S 
ATOM     77  O   UNL A   1      36.065  31.362  32.385  1.00  0.00    -0.237 OA
ATOM     78  O   UNL A   1      37.448  31.687  34.406  1.00  0.00    -0.237 OA
ATOM     79  O   UNL A   1      36.902  33.604  32.957  1.00  0.00    -0.744 OA
ENDBRANCH  75  76
ENDBRANCH  54  68
BRANCH  55  80
ATOM     80  C   UNL A   1      49.267  26.419  26.638  1.00  0.00     0.058 A 
ATOM     81  C   UNL A   1      49.421  26.878  25.297  1.00  0.00     0.135 A 
ATOM     82  C   UNL A   1      50.229  25.477  27.063  1.00  0.00     0.135 A 
ATOM     83  F   UNL A   1      48.547  27.773  24.804  1.00  0.00    -0.206 F 
ATOM     84  C   UNL A   1      50.585  26.655  24.550  1.00  0.00     0.059 A 
ATOM     85  C   UNL A   1      51.403  25.228  26.315  1.00  0.00     0.059 A 
ATOM     86  F   UNL A   1      50.170  24.977  28.307  1.00  0.00    -0.206 F 
ATOM     87  C   UNL A   1      51.601  25.876  25.092  1.00  0.00     0.060 A 
BRANCH  87  88
ATOM     88  S   UNL A   1      53.240  25.918  24.295  1.00  0.00     0.124 S 
ATOM     89  O   UNL A   1      52.924  26.432  22.969  1.00  0.00    -0.237 OA
ATOM     90  O   UNL A   1      53.999  26.817  25.162  1.00  0.00    -0.237 OA
ATOM     91  O   UNL A   1      53.668  24.527  24.350  1.00  0.00    -0.744 OA
ENDBRANCH  87  88
ENDBRANCH  55  80
BRANCH  67  92
ATOM     92  C   UNL A   1      47.019  33.399  28.236  1.00  0.00     0.058 A 
ATOM     93  C   UNL A   1      46.422  33.897  27.066  1.00  0.00     0.135 A 
ATOM     94  C   UNL A   1      47.479  34.378  29.155  1.00  0.00     0.135 A 
ATOM     95  F   UNL A   1      45.838  33.083  26.173  1.00  0.00    -0.206 F 
ATOM     96  C   UNL A   1      46.355  35.255  26.786  1.00  0.00     0.059 A 
ATOM     97  C   UNL A   1      47.359  35.744  28.923  1.00  0.00     0.059 A 
ATOM     98  F   UNL A   1      48.036  34.046  30.328  1.00  0.00    -0.206 F 
ATOM     99  C   UNL A   1      46.828  36.171  27.718  1.00  0.00     0.060 A 
BRANCH  99 100
ATOM    100  S   UNL A   1      46.722  37.922  27.341  1.00  0.00     0.124 S 
ATOM    101  O   UNL A   1      45.422  38.257  27.916  1.00  0.00    -0.237 OA
ATOM    102  O   UNL A   1      47.881  38.470  28.041  1.00  0.00    -0.237 OA
ATOM    103  O   UNL A   1      46.800  37.963  25.885  1.00  0.00    -0.744 OA
ENDBRANCH  99 100
ENDBRANCH  67  92
ENDBRANCH  41  42
ENDBRANCH  34  36
ENDBRANCH  33  34
ENDBRANCH  32  33
ENDBRANCH  31  32
ENDBRANCH  30  31
ENDBRANCH  29  30
ENDBRANCH  28  29
ENDBRANCH  27  28
ENDBRANCH   1  27
TORSDOF 27
ENDMDL
MODEL 3
REMARK VINA RESULT:      -8.8      1.749      2.371
REMARK SMILES Cc1ccccc1SCC(=O)N[C@H]1C=C[C@H](C(=O)OCCOCCOCCOCCOC(=O)c2ccc(-c3c4nc(c(-c5c(F)cc(S(=O)(=O)[O-])cc5F)c5ccc([nH]5)c(-c5c(F)cc(S(=O)(=O)[O-])cc5F)c5nc(c(-c6c(F)cc(S(=O)(=O)[O-])cc6F)c6ccc3[nH]6)C=C5)C=C4)cc2)C1
REMARK SMILES IDX 24 1 23 2 22 3 21 4 20 5 19 6 17 7 18 8 16 9 13 10 14 11
REMARK SMILES IDX 100 12 15 13 12 14 10 15 11 16 9 18 8 19 7 20 1 21 2 22 3 23
REMARK SMILES IDX 4 24 6 25 5 26 25 27 26 28 27 29 28 30 29 31 30 32 31 33
REMARK SMILES IDX 32 34 33 35 34 36 35 37 99 38 36 39 98 40 37 41 38 42 39 43
REMARK SMILES IDX 92 44 40 45 97 46 91 47 93 48 41 49 96 50 90 51 89 52 42 54
REMARK SMILES IDX 76 55 55 56 75 57 56 58 59 59 74 60 94 61 57 62 58 63 73 65
REMARK SMILES IDX 95 66 60 67 43 68 44 69 53 70 45 71 46 72 52 73 54 74 47 75
REMARK SMILES IDX 48 76 49 77 50 78 51 79 77 80 78 81 87 82 79 83 80 84 86 85
REMARK SMILES IDX 88 86 81 87 82 88 83 89 84 90 85 91 61 92 62 93 71 94 63 95
REMARK SMILES IDX 64 96 70 97 72 98 65 99 66 100 67 101 68 102 69 103
REMARK H PARENT 12 17 93 53 59 64
REMARK Flexibility Score: inf
ROOT
ATOM      1  C   UNL A   1      40.271  28.300  27.943  1.00  0.00     0.188 C 
ENDROOT
BRANCH   1   2
ATOM      2  C   UNL A   1      38.855  28.720  28.380  1.00  0.00     0.188 C 
BRANCH   2   3
ATOM      3  O   UNL A   1      38.043  29.694  27.761  1.00  0.00    -0.376 OA
BRANCH   3   4
ATOM      4  C   UNL A   1      36.711  29.776  28.231  1.00  0.00     0.202 C 
BRANCH   4   5
ATOM      5  C   UNL A   1      35.563  29.965  27.268  1.00  0.00     0.261 C 
BRANCH   5   6
ATOM      6  O   UNL A   1      34.825  28.754  27.178  1.00  0.00    -0.463 OA
BRANCH   6   7
ATOM      7  C   UNL A   1      33.498  28.925  27.249  1.00  0.00     0.312 C 
ATOM      8  O   UNL A   1      32.930  30.013  27.392  1.00  0.00    -0.252 OA
BRANCH   7   9
ATOM      9  C   UNL A   1      32.806  27.615  26.908  1.00  0.00     0.124 C 
ATOM     10  C   UNL A   1      32.881  28.042  24.588  1.00  0.00     0.106 C 
ATOM     11  C   UNL A   1      31.455  28.110  25.062  1.00  0.00    -0.006 C 
ATOM     12  C   UNL A   1      33.411  27.055  25.622  1.00  0.00     0.048 C 
ATOM     13  C   UNL A   1      31.421  27.896  26.394  1.00  0.00    -0.014 C 
BRANCH  10  14
ATOM     14  N   UNL A   1      33.085  27.647  23.233  1.00  0.00    -0.349 N 
ATOM     15  C   UNL A   1      33.604  26.445  22.819  1.00  0.00     0.230 C 
ATOM     16  O   UNL A   1      33.879  26.350  21.616  1.00  0.00    -0.274 OA
ATOM     17  H   UNL A   1      32.832  28.292  22.535  1.00  0.00     0.164 HD
BRANCH  15  18
ATOM     18  C   UNL A   1      33.674  25.200  23.710  1.00  0.00     0.174 C 
BRANCH  18  19
ATOM     19  S   UNL A   1      32.424  23.900  23.537  1.00  0.00    -0.116 SA
BRANCH  19  20
ATOM     20  C   UNL A   1      32.825  22.357  24.322  1.00  0.00     0.011 A 
ATOM     21  C   UNL A   1      33.864  23.139  26.527  1.00  0.00     0.045 C 
ATOM     22  C   UNL A   1      33.342  22.096  25.594  1.00  0.00    -0.038 A 
ATOM     23  C   UNL A   1      33.336  20.770  26.080  1.00  0.00     0.004 A 
ATOM     24  C   UNL A   1      32.919  19.702  25.292  1.00  0.00     0.000 A 
ATOM     25  C   UNL A   1      32.472  21.247  23.513  1.00  0.00     0.015 A 
ATOM     26  C   UNL A   1      32.529  19.935  23.987  1.00  0.00     0.001 A 
ENDBRANCH  19  20
ENDBRANCH  18  19
ENDBRANCH  15  18
ENDBRANCH  10  14
ENDBRANCH   7   9
ENDBRANCH   6   7
ENDBRANCH   5   6
ENDBRANCH   4   5
ENDBRANCH   3   4
ENDBRANCH   2   3
ENDBRANCH   1   2
BRANCH   1  27
ATOM     27  O   UNL A   1      40.474  27.414  26.876  1.00  0.00    -0.377 OA
BRANCH  27  28
ATOM     28  C   UNL A   1      41.218  26.231  27.132  1.00  0.00     0.188 C 
BRANCH  28  29
ATOM     29  C   UNL A   1      41.108  25.023  26.227  1.00  0.00     0.188 C 
BRANCH  29  30
ATOM     30  O   UNL A   1      42.328  24.297  26.342  1.00  0.00    -0.376 OA
BRANCH  30  31
ATOM     31  C   UNL A   1      43.048  24.123  25.138  1.00  0.00     0.202 C 
BRANCH  31  32
ATOM     32  C   UNL A   1      44.291  25.015  25.023  1.00  0.00     0.261 C 
BRANCH  32  33
ATOM     33  O   UNL A   1      45.262  24.678  26.042  1.00  0.00    -0.460 OA
BRANCH  33  34
ATOM     34  C   UNL A   1      45.704  25.688  26.843  1.00  0.00     0.338 C 
ATOM     35  O   UNL A   1      46.033  26.794  26.411  1.00  0.00    -0.246 OA
BRANCH  34  36
ATOM     36  C   UNL A   1      45.526  25.378  28.286  1.00  0.00     0.060 A 
ATOM     37  C   UNL A   1      44.422  24.670  28.795  1.00  0.00     0.016 A 
ATOM     38  C   UNL A   1      46.467  25.854  29.177  1.00  0.00     0.016 A 
ATOM     39  C   UNL A   1      44.177  24.585  30.189  1.00  0.00     0.010 A 
ATOM     40  C   UNL A   1      46.217  25.767  30.534  1.00  0.00     0.010 A 
ATOM     41  C   UNL A   1      45.055  25.192  31.084  1.00  0.00    -0.014 A 
BRANCH  41  42
ATOM     42  C   UNL A   1      44.824  25.467  32.541  1.00  0.00     0.031 A 
ATOM     43  C   UNL A   1      44.218  26.801  32.922  1.00  0.00     0.074 A 
ATOM     44  C   UNL A   1      44.723  24.392  33.377  1.00  0.00     0.049 A 
ATOM     45  N   UNL A   1      43.697  27.113  34.061  1.00  0.00    -0.248 NA
ATOM     46  C   UNL A   1      44.102  27.915  31.975  1.00  0.00     0.031 C 
ATOM     47  C   UNL A   1      43.800  24.196  34.509  1.00  0.00     0.029 A 
ATOM     48  N   UNL A   1      45.339  23.153  33.309  1.00  0.00    -0.354 N 
ATOM     49  C   UNL A   1      42.921  28.264  33.916  1.00  0.00     0.074 A 
ATOM     50  C   UNL A   1      43.278  28.757  32.613  1.00  0.00     0.031 C 
ATOM     51  C   UNL A   1      43.926  22.967  35.036  1.00  0.00     0.029 A 
ATOM     52  C   UNL A   1      45.139  22.427  34.492  1.00  0.00     0.049 A 
ATOM     53  H   UNL A   1      45.849  22.826  32.533  1.00  0.00     0.167 HD
ATOM     54  C   UNL A   1      41.981  28.572  34.875  1.00  0.00     0.037 A 
ATOM     55  C   UNL A   1      46.228  22.178  35.276  1.00  0.00     0.037 A 
ATOM     56  C   UNL A   1      42.171  27.698  36.060  1.00  0.00     0.049 A 
ATOM     57  C   UNL A   1      46.256  23.180  36.446  1.00  0.00     0.074 A 
ATOM     58  C   UNL A   1      41.360  26.853  36.794  1.00  0.00     0.029 A 
ATOM     59  N   UNL A   1      43.469  27.455  36.534  1.00  0.00    -0.354 N 
ATOM     60  N   UNL A   1      45.663  24.360  36.401  1.00  0.00    -0.248 NA
ATOM     61  C   UNL A   1      46.681  22.863  37.813  1.00  0.00     0.031 C 
ATOM     62  C   UNL A   1      42.201  25.954  37.521  1.00  0.00     0.029 A 
ATOM     63  C   UNL A   1      43.528  26.322  37.324  1.00  0.00     0.049 A 
ATOM     64  H   UNL A   1      44.246  28.024  36.328  1.00  0.00     0.167 HD
ATOM     65  C   UNL A   1      45.503  24.871  37.660  1.00  0.00     0.074 A 
ATOM     66  C   UNL A   1      46.207  23.919  38.507  1.00  0.00     0.031 C 
ATOM     67  C   UNL A   1      44.767  25.973  38.015  1.00  0.00     0.037 A 
BRANCH  54  68
ATOM     68  C   UNL A   1      40.747  29.518  34.715  1.00  0.00     0.058 A 
ATOM     69  C   UNL A   1      39.799  29.322  33.674  1.00  0.00     0.135 A 
ATOM     70  C   UNL A   1      40.476  30.682  35.476  1.00  0.00     0.135 A 
ATOM     71  F   UNL A   1      39.862  28.249  32.874  1.00  0.00    -0.206 F 
ATOM     72  C   UNL A   1      38.727  30.199  33.396  1.00  0.00     0.059 A 
ATOM     73  C   UNL A   1      39.377  31.542  35.255  1.00  0.00     0.059 A 
ATOM     74  F   UNL A   1      41.278  31.086  36.466  1.00  0.00    -0.206 F 
ATOM     75  C   UNL A   1      38.514  31.309  34.197  1.00  0.00     0.060 A 
BRANCH  75  76
ATOM     76  S   UNL A   1      37.104  32.401  33.872  1.00  0.00     0.124 S 
ATOM     77  O   UNL A   1      36.211  31.548  33.096  1.00  0.00    -0.237 OA
ATOM     78  O   UNL A   1      36.649  32.735  35.218  1.00  0.00    -0.237 OA
ATOM     79  O   UNL A   1      37.697  33.508  33.126  1.00  0.00    -0.744 OA
ENDBRANCH  75  76
ENDBRANCH  54  68
BRANCH  55  80
ATOM     80  C   UNL A   1      47.213  21.402  34.424  1.00  0.00     0.058 A 
ATOM     81  C   UNL A   1      48.432  22.118  34.233  1.00  0.00     0.135 A 
ATOM     82  C   UNL A   1      47.355  20.005  34.572  1.00  0.00     0.135 A 
ATOM     83  F   UNL A   1      48.393  23.453  34.078  1.00  0.00    -0.206 F 
ATOM     84  C   UNL A   1      49.690  21.545  34.467  1.00  0.00     0.059 A 
ATOM     85  C   UNL A   1      48.618  19.408  34.794  1.00  0.00     0.059 A 
ATOM     86  F   UNL A   1      46.268  19.239  34.750  1.00  0.00    -0.206 F 
ATOM     87  C   UNL A   1      49.771  20.200  34.807  1.00  0.00     0.060 A 
BRANCH  87  88
ATOM     88  S   UNL A   1      51.344  19.574  35.484  1.00  0.00     0.124 S 
ATOM     89  O   UNL A   1      52.075  19.213  34.277  1.00  0.00    -0.237 OA
ATOM     90  O   UNL A   1      51.860  20.726  36.221  1.00  0.00    -0.237 OA
ATOM     91  O   UNL A   1      50.921  18.464  36.325  1.00  0.00    -0.744 OA
ENDBRANCH  87  88
ENDBRANCH  55  80
BRANCH  67  92
ATOM     92  C   UNL A   1      45.209  26.891  39.134  1.00  0.00     0.058 A 
ATOM     93  C   UNL A   1      45.836  28.121  38.873  1.00  0.00     0.135 A 
ATOM     94  C   UNL A   1      44.795  26.685  40.475  1.00  0.00     0.135 A 
ATOM     95  F   UNL A   1      46.166  28.492  37.627  1.00  0.00    -0.206 F 
ATOM     96  C   UNL A   1      46.105  29.045  39.874  1.00  0.00     0.059 A 
ATOM     97  C   UNL A   1      44.995  27.627  41.479  1.00  0.00     0.059 A 
ATOM     98  F   UNL A   1      44.153  25.572  40.858  1.00  0.00    -0.206 F 
ATOM     99  C   UNL A   1      45.684  28.788  41.173  1.00  0.00     0.060 A 
BRANCH  99 100
ATOM    100  S   UNL A   1      46.033  30.001  42.451  1.00  0.00     0.124 S 
ATOM    101  O   UNL A   1      47.482  30.130  42.329  1.00  0.00    -0.237 OA
ATOM    102  O   UNL A   1      45.257  31.158  42.013  1.00  0.00    -0.237 OA
ATOM    103  O   UNL A   1      45.554  29.358  43.669  1.00  0.00    -0.744 OA
ENDBRANCH  99 100
ENDBRANCH  67  92
ENDBRANCH  41  42
ENDBRANCH  34  36
ENDBRANCH  33  34
ENDBRANCH  32  33
ENDBRANCH  31  32
ENDBRANCH  30  31
ENDBRANCH  29  30
ENDBRANCH  28  29
ENDBRANCH  27  28
ENDBRANCH   1  27
TORSDOF 27
ENDMDL
