MODEL 1
REMARK VINA RESULT:      -5.7      0.000      0.000
REMARK SMILES CCCCCCNC(=O)Oc1cccc(-c2ccc([C@@H](C)C(=O)OCCOCCOCCOCCOC(=O)c3ccc(-c4c5nc(c(-c6c(F)cc(S(=O)(=O)[O-])cc6F)c6ccc([nH]6)c(-c6c(F)cc(S(=O)(=O)[O-])cc6F)c6nc(c(-c7c(F)cc(S(=O)(=O)[O-])cc7F)c7ccc4[nH]7)C=C6)C=C5)cc3)cc2O)c1
REMARK SMILES IDX 27 1 26 2 25 3 24 4 22 5 23 6 20 7 21 8 19 9 16 10 17 11
REMARK SMILES IDX 106 12 18 13 105 14 15 15 11 16 12 17 108 18 13 19 14 20
REMARK SMILES IDX 10 21 8 22 7 23 9 25 6 26 5 27 4 28 3 29 2 30 1 31 107 32
REMARK SMILES IDX 28 34 29 35 30 36 31 37 32 38 33 39 34 40 35 41 36 42 37 43
REMARK SMILES IDX 38 44 39 45 40 46 104 47 41 48 103 49 42 50 43 51 44 52
REMARK SMILES IDX 97 53 45 54 102 55 96 56 98 57 46 58 101 59 95 60 94 61
REMARK SMILES IDX 47 63 81 64 60 65 80 66 61 67 64 68 79 69 99 70 62 71 63 72
REMARK SMILES IDX 78 74 100 75 65 76 48 77 49 78 58 79 50 80 51 81 57 82 59 83
REMARK SMILES IDX 52 84 53 85 54 86 55 87 56 88 82 89 83 90 92 91 84 92 85 93
REMARK SMILES IDX 91 94 93 95 86 96 87 97 88 98 89 99 90 100 66 101 67 102
REMARK SMILES IDX 76 103 68 104 69 105 75 106 77 107 70 108 71 109 72 110
REMARK SMILES IDX 73 111 74 112
REMARK H PARENT 7 24 107 33 98 62 64 73
REMARK Flexibility Score: inf
ROOT
ATOM      1  O   UNL A   1      52.722  29.318  21.507  1.00  0.00    -0.376 OA
ENDROOT
BRANCH   1   2
ATOM      2  C   UNL A   1      51.509  28.631  21.231  1.00  0.00     0.202 C 
BRANCH   2   3
ATOM      3  C   UNL A   1      50.233  29.414  20.870  1.00  0.00     0.261 C 
BRANCH   3   4
ATOM      4  O   UNL A   1      48.979  28.871  21.335  1.00  0.00    -0.463 OA
BRANCH   4   5
ATOM      5  C   UNL A   1      49.013  27.608  21.822  1.00  0.00     0.313 C 
ATOM      6  O   UNL A   1      49.046  26.608  21.107  1.00  0.00    -0.252 OA
BRANCH   5   7
ATOM      7  C   UNL A   1      48.970  27.475  23.344  1.00  0.00     0.126 C 
ATOM      8  C   UNL A   1      50.276  26.841  23.810  1.00  0.00     0.025 C 
BRANCH   7   9
ATOM      9  C   UNL A   1      47.766  26.856  24.056  1.00  0.00    -0.030 A 
ATOM     10  C   UNL A   1      45.578  25.576  25.428  1.00  0.00     0.024 A 
ATOM     11  C   UNL A   1      45.516  26.920  25.005  1.00  0.00     0.013 A 
ATOM     12  C   UNL A   1      46.770  24.891  25.146  1.00  0.00     0.123 A 
ATOM     13  C   UNL A   1      46.582  27.548  24.328  1.00  0.00     0.005 A 
ATOM     14  C   UNL A   1      47.835  25.510  24.473  1.00  0.00     0.051 A 
BRANCH  10  15
ATOM     15  C   UNL A   1      44.400  24.935  26.061  1.00  0.00    -0.011 A 
ATOM     16  C   UNL A   1      42.208  25.011  27.123  1.00  0.00     0.133 A 
ATOM     17  C   UNL A   1      42.260  23.645  27.394  1.00  0.00     0.047 A 
ATOM     18  C   UNL A   1      43.258  25.659  26.459  1.00  0.00     0.056 A 
ATOM     19  C   UNL A   1      43.369  22.912  26.988  1.00  0.00     0.004 A 
ATOM     20  C   UNL A   1      44.428  23.552  26.335  1.00  0.00     0.009 A 
BRANCH  16  21
ATOM     21  O   UNL A   1      41.118  25.706  27.687  1.00  0.00    -0.410 OA
BRANCH  21  22
ATOM     22  C   UNL A   1      41.266  26.347  28.907  1.00  0.00     0.412 C 
ATOM     23  N   UNL A   1      40.209  27.157  29.229  1.00  0.00    -0.321 N 
ATOM     24  H   UNL A   1      40.249  27.600  30.107  1.00  0.00     0.167 HD
ATOM     25  O   UNL A   1      42.226  26.238  29.659  1.00  0.00    -0.224 OA
BRANCH  23  26
ATOM     26  C   UNL A   1      39.036  27.436  28.421  1.00  0.00     0.119 C 
BRANCH  26  27
ATOM     27  C   UNL A   1      39.204  28.697  27.572  1.00  0.00     0.021 C 
BRANCH  27  28
ATOM     28  C   UNL A   1      40.601  29.327  27.613  1.00  0.00     0.002 C 
BRANCH  28  29
ATOM     29  C   UNL A   1      41.534  28.951  26.456  1.00  0.00    -0.000 C 
BRANCH  29  30
ATOM     30  C   UNL A   1      42.923  29.592  26.492  1.00  0.00    -0.003 C 
ATOM     31  C   UNL A   1      43.777  29.118  27.659  1.00  0.00     0.004 C 
ENDBRANCH  29  30
ENDBRANCH  28  29
ENDBRANCH  27  28
ENDBRANCH  26  27
ENDBRANCH  23  26
ENDBRANCH  21  22
ENDBRANCH  16  21
ENDBRANCH  10  15
BRANCH  12  32
ATOM     32  O   UNL A   1      46.972  23.575  25.477  1.00  0.00    -0.507 OA
ATOM     33  H   UNL A   1      47.112  22.939  24.805  1.00  0.00     0.293 HD
ENDBRANCH  12  32
ENDBRANCH   7   9
ENDBRANCH   5   7
ENDBRANCH   4   5
ENDBRANCH   3   4
ENDBRANCH   2   3
ENDBRANCH   1   2
BRANCH   1  34
ATOM     34  C   UNL A   1      53.424  29.093  22.722  1.00  0.00     0.188 C 
BRANCH  34  35
ATOM     35  C   UNL A   1      54.489  27.995  22.843  1.00  0.00     0.188 C 
BRANCH  35  36
ATOM     36  O   UNL A   1      55.424  28.170  23.886  1.00  0.00    -0.377 OA
BRANCH  36  37
ATOM     37  C   UNL A   1      55.334  27.267  24.975  1.00  0.00     0.188 C 
BRANCH  37  38
ATOM     38  C   UNL A   1      53.947  27.103  25.625  1.00  0.00     0.188 C 
BRANCH  38  39
ATOM     39  O   UNL A   1      53.847  27.666  26.930  1.00  0.00    -0.376 OA
BRANCH  39  40
ATOM     40  C   UNL A   1      52.980  27.041  27.868  1.00  0.00     0.202 C 
BRANCH  40  41
ATOM     41  C   UNL A   1      51.795  26.225  27.325  1.00  0.00     0.261 C 
BRANCH  41  42
ATOM     42  O   UNL A   1      50.978  25.562  28.298  1.00  0.00    -0.460 OA
BRANCH  42  43
ATOM     43  C   UNL A   1      49.673  25.375  28.004  1.00  0.00     0.338 C 
ATOM     44  O   UNL A   1      49.159  24.367  27.570  1.00  0.00    -0.246 OA
BRANCH  43  45
ATOM     45  C   UNL A   1      48.921  26.538  28.534  1.00  0.00     0.060 A 
ATOM     46  C   UNL A   1      47.918  27.100  27.734  1.00  0.00     0.016 A 
ATOM     47  C   UNL A   1      49.210  27.080  29.789  1.00  0.00     0.016 A 
ATOM     48  C   UNL A   1      47.245  28.246  28.157  1.00  0.00     0.010 A 
ATOM     49  C   UNL A   1      48.549  28.244  30.203  1.00  0.00     0.010 A 
ATOM     50  C   UNL A   1      47.599  28.860  29.365  1.00  0.00    -0.014 A 
BRANCH  50  51
ATOM     51  C   UNL A   1      47.149  30.254  29.615  1.00  0.00     0.031 A 
ATOM     52  C   UNL A   1      47.897  31.373  28.937  1.00  0.00     0.074 A 
ATOM     53  C   UNL A   1      46.059  30.524  30.357  1.00  0.00     0.049 A 
ATOM     54  N   UNL A   1      47.683  32.662  28.976  1.00  0.00    -0.248 NA
ATOM     55  C   UNL A   1      49.041  30.981  28.096  1.00  0.00     0.031 C 
ATOM     56  C   UNL A   1      45.219  29.529  31.021  1.00  0.00     0.029 A 
ATOM     57  N   UNL A   1      45.468  31.723  30.667  1.00  0.00    -0.354 N 
ATOM     58  C   UNL A   1      48.661  33.233  28.167  1.00  0.00     0.074 A 
ATOM     59  C   UNL A   1      49.494  32.154  27.685  1.00  0.00     0.031 C 
ATOM     60  C   UNL A   1      44.222  30.161  31.666  1.00  0.00     0.029 A 
ATOM     61  C   UNL A   1      44.367  31.605  31.482  1.00  0.00     0.049 A 
ATOM     62  H   UNL A   1      45.801  32.589  30.337  1.00  0.00     0.167 HD
ATOM     63  C   UNL A   1      48.841  34.535  27.844  1.00  0.00     0.037 A 
ATOM     64  C   UNL A   1      43.578  32.553  32.028  1.00  0.00     0.037 A 
ATOM     65  C   UNL A   1      48.011  35.607  28.328  1.00  0.00     0.049 A 
ATOM     66  C   UNL A   1      43.849  34.006  31.720  1.00  0.00     0.074 A 
ATOM     67  C   UNL A   1      48.108  36.961  28.055  1.00  0.00     0.029 A 
ATOM     68  N   UNL A   1      46.937  35.450  29.192  1.00  0.00    -0.354 N 
ATOM     69  N   UNL A   1      44.766  34.530  30.939  1.00  0.00    -0.248 NA
ATOM     70  C   UNL A   1      42.974  34.997  32.362  1.00  0.00     0.031 C 
ATOM     71  C   UNL A   1      47.129  37.627  28.799  1.00  0.00     0.029 A 
ATOM     72  C   UNL A   1      46.381  36.684  29.484  1.00  0.00     0.049 A 
ATOM     73  H   UNL A   1      46.618  34.587  29.544  1.00  0.00     0.167 HD
ATOM     74  C   UNL A   1      44.556  35.907  30.974  1.00  0.00     0.074 A 
ATOM     75  C   UNL A   1      43.417  36.132  31.840  1.00  0.00     0.031 C 
ATOM     76  C   UNL A   1      45.242  36.894  30.345  1.00  0.00     0.037 A 
BRANCH  63  77
ATOM     77  C   UNL A   1      49.997  34.875  26.942  1.00  0.00     0.058 A 
ATOM     78  C   UNL A   1      51.269  35.187  27.451  1.00  0.00     0.135 A 
ATOM     79  C   UNL A   1      49.837  34.864  25.547  1.00  0.00     0.135 A 
ATOM     80  F   UNL A   1      51.475  35.233  28.777  1.00  0.00    -0.206 F 
ATOM     81  C   UNL A   1      52.333  35.501  26.610  1.00  0.00     0.059 A 
ATOM     82  C   UNL A   1      50.895  35.144  24.686  1.00  0.00     0.059 A 
ATOM     83  F   UNL A   1      48.643  34.578  25.005  1.00  0.00    -0.206 F 
ATOM     84  C   UNL A   1      52.136  35.476  25.228  1.00  0.00     0.060 A 
BRANCH  84  85
ATOM     85  S   UNL A   1      53.527  35.880  24.151  1.00  0.00     0.124 S 
ATOM     86  O   UNL A   1      53.340  37.315  23.959  1.00  0.00    -0.237 OA
ATOM     87  O   UNL A   1      54.673  35.494  24.967  1.00  0.00    -0.237 OA
ATOM     88  O   UNL A   1      53.295  35.055  22.970  1.00  0.00    -0.744 OA
ENDBRANCH  84  85
ENDBRANCH  63  77
BRANCH  64  89
ATOM     89  C   UNL A   1      42.460  32.168  32.934  1.00  0.00     0.058 A 
ATOM     90  C   UNL A   1      41.183  31.874  32.434  1.00  0.00     0.135 A 
ATOM     91  C   UNL A   1      42.642  32.112  34.326  1.00  0.00     0.135 A 
ATOM     92  F   UNL A   1      40.952  31.928  31.113  1.00  0.00    -0.206 F 
ATOM     93  C   UNL A   1      40.123  31.554  33.277  1.00  0.00     0.059 A 
ATOM     94  C   UNL A   1      41.605  31.765  35.187  1.00  0.00     0.059 A 
ATOM     95  F   UNL A   1      43.843  32.381  34.860  1.00  0.00    -0.206 F 
ATOM     96  C   UNL A   1      40.346  31.499  34.654  1.00  0.00     0.060 A 
BRANCH  96  97
ATOM     97  S   UNL A   1      38.973  31.043  35.736  1.00  0.00     0.124 S 
ATOM     98  O   UNL A   1      37.856  31.014  34.799  1.00  0.00    -0.237 OA
ATOM     99  O   UNL A   1      39.408  29.750  36.252  1.00  0.00    -0.237 OA
ATOM    100  O   UNL A   1      38.945  32.124  36.717  1.00  0.00    -0.744 OA
ENDBRANCH  96  97
ENDBRANCH  64  89
BRANCH  76 101
ATOM    101  C   UNL A   1      44.760  38.309  30.537  1.00  0.00     0.058 A 
ATOM    102  C   UNL A   1      45.211  39.109  31.599  1.00  0.00     0.135 A 
ATOM    103  C   UNL A   1      43.869  38.887  29.616  1.00  0.00     0.135 A 
ATOM    104  F   UNL A   1      46.060  38.608  32.510  1.00  0.00    -0.206 F 
ATOM    105  C   UNL A   1      44.768  40.418  31.761  1.00  0.00     0.059 A 
ATOM    106  C   UNL A   1      43.441  40.205  29.740  1.00  0.00     0.059 A 
ATOM    107  F   UNL A   1      43.418  38.173  28.572  1.00  0.00    -0.206 F 
ATOM    108  C   UNL A   1      43.884  40.958  30.825  1.00  0.00     0.060 A 
BRANCH 108 109
ATOM    109  S   UNL A   1      43.336  42.665  31.037  1.00  0.00     0.124 S 
ATOM    110  O   UNL A   1      43.902  43.306  29.855  1.00  0.00    -0.237 OA
ATOM    111  O   UNL A   1      41.882  42.527  31.051  1.00  0.00    -0.237 OA
ATOM    112  O   UNL A   1      43.933  43.059  32.310  1.00  0.00    -0.744 OA
ENDBRANCH 108 109
ENDBRANCH  76 101
ENDBRANCH  50  51
ENDBRANCH  43  45
ENDBRANCH  42  43
ENDBRANCH  41  42
ENDBRANCH  40  41
ENDBRANCH  39  40
ENDBRANCH  38  39
ENDBRANCH  37  38
ENDBRANCH  36  37
ENDBRANCH  35  36
ENDBRANCH  34  35
ENDBRANCH   1  34
TORSDOF 33
ENDMDL
MODEL 2
REMARK VINA RESULT:      -5.4      8.321     13.123
REMARK SMILES CCCCCCNC(=O)Oc1cccc(-c2ccc([C@@H](C)C(=O)OCCOCCOCCOCCOC(=O)c3ccc(-c4c5nc(c(-c6c(F)cc(S(=O)(=O)[O-])cc6F)c6ccc([nH]6)c(-c6c(F)cc(S(=O)(=O)[O-])cc6F)c6nc(c(-c7c(F)cc(S(=O)(=O)[O-])cc7F)c7ccc4[nH]7)C=C6)C=C5)cc3)cc2O)c1
REMARK SMILES IDX 27 1 26 2 25 3 24 4 22 5 23 6 20 7 21 8 19 9 16 10 17 11
REMARK SMILES IDX 106 12 18 13 105 14 15 15 11 16 12 17 108 18 13 19 14 20
REMARK SMILES IDX 10 21 8 22 7 23 9 25 6 26 5 27 4 28 3 29 2 30 1 31 107 32
REMARK SMILES IDX 28 34 29 35 30 36 31 37 32 38 33 39 34 40 35 41 36 42 37 43
REMARK SMILES IDX 38 44 39 45 40 46 104 47 41 48 103 49 42 50 43 51 44 52
REMARK SMILES IDX 97 53 45 54 102 55 96 56 98 57 46 58 101 59 95 60 94 61
REMARK SMILES IDX 47 63 81 64 60 65 80 66 61 67 64 68 79 69 99 70 62 71 63 72
REMARK SMILES IDX 78 74 100 75 65 76 48 77 49 78 58 79 50 80 51 81 57 82 59 83
REMARK SMILES IDX 52 84 53 85 54 86 55 87 56 88 82 89 83 90 92 91 84 92 85 93
REMARK SMILES IDX 91 94 93 95 86 96 87 97 88 98 89 99 90 100 66 101 67 102
REMARK SMILES IDX 76 103 68 104 69 105 75 106 77 107 70 108 71 109 72 110
REMARK SMILES IDX 73 111 74 112
REMARK H PARENT 7 24 107 33 98 62 64 73
REMARK Flexibility Score: inf
ROOT
ATOM      1  O   UNL A   1      49.373  25.020  33.970  1.00  0.00    -0.376 OA
ENDROOT
BRANCH   1   2
ATOM      2  C   UNL A   1      48.087  24.918  34.564  1.00  0.00     0.202 C 
BRANCH   2   3
ATOM      3  C   UNL A   1      46.868  25.594  33.908  1.00  0.00     0.261 C 
BRANCH   3   4
ATOM      4  O   UNL A   1      45.566  25.224  34.410  1.00  0.00    -0.463 OA
BRANCH   4   5
ATOM      5  C   UNL A   1      44.812  24.437  33.607  1.00  0.00     0.313 C 
ATOM      6  O   UNL A   1      44.579  24.698  32.428  1.00  0.00    -0.252 OA
BRANCH   5   7
ATOM      7  C   UNL A   1      44.214  23.191  34.259  1.00  0.00     0.126 C 
ATOM      8  C   UNL A   1      42.784  23.508  34.685  1.00  0.00     0.025 C 
BRANCH   7   9
ATOM      9  C   UNL A   1      44.962  22.426  35.351  1.00  0.00    -0.030 A 
ATOM     10  C   UNL A   1      46.408  20.884  37.312  1.00  0.00     0.024 A 
ATOM     11  C   UNL A   1      45.920  22.178  37.586  1.00  0.00     0.013 A 
ATOM     12  C   UNL A   1      46.154  20.383  36.025  1.00  0.00     0.123 A 
ATOM     13  C   UNL A   1      45.207  22.933  36.632  1.00  0.00     0.005 A 
ATOM     14  C   UNL A   1      45.445  21.130  35.071  1.00  0.00     0.051 A 
BRANCH  10  15
ATOM     15  C   UNL A   1      47.079  20.096  38.374  1.00  0.00    -0.011 A 
ATOM     16  C   UNL A   1      47.128  19.009  40.555  1.00  0.00     0.133 A 
ATOM     17  C   UNL A   1      48.482  18.718  40.411  1.00  0.00     0.047 A 
ATOM     18  C   UNL A   1      46.421  19.685  39.552  1.00  0.00     0.056 A 
ATOM     19  C   UNL A   1      49.141  19.096  39.247  1.00  0.00     0.004 A 
ATOM     20  C   UNL A   1      48.447  19.782  38.244  1.00  0.00     0.009 A 
BRANCH  16  21
ATOM     21  O   UNL A   1      46.569  18.718  41.817  1.00  0.00    -0.410 OA
BRANCH  21  22
ATOM     22  C   UNL A   1      46.759  17.466  42.382  1.00  0.00     0.412 C 
ATOM     23  N   UNL A   1      45.657  16.997  43.047  1.00  0.00    -0.321 N 
ATOM     24  H   UNL A   1      45.731  16.092  43.429  1.00  0.00     0.167 HD
ATOM     25  O   UNL A   1      47.789  16.806  42.325  1.00  0.00    -0.224 OA
BRANCH  23  26
ATOM     26  C   UNL A   1      44.395  17.682  43.254  1.00  0.00     0.119 C 
BRANCH  26  27
ATOM     27  C   UNL A   1      43.200  16.853  42.779  1.00  0.00     0.021 C 
BRANCH  27  28
ATOM     28  C   UNL A   1      43.508  15.853  41.658  1.00  0.00     0.002 C 
BRANCH  28  29
ATOM     29  C   UNL A   1      42.821  16.129  40.315  1.00  0.00    -0.000 C 
BRANCH  29  30
ATOM     30  C   UNL A   1      43.586  15.665  39.074  1.00  0.00    -0.003 C 
ATOM     31  C   UNL A   1      44.280  16.798  38.332  1.00  0.00     0.004 C 
ENDBRANCH  29  30
ENDBRANCH  28  29
ENDBRANCH  27  28
ENDBRANCH  26  27
ENDBRANCH  23  26
ENDBRANCH  21  22
ENDBRANCH  16  21
ENDBRANCH  10  15
BRANCH  12  32
ATOM     32  O   UNL A   1      46.549  19.135  35.617  1.00  0.00    -0.507 OA
ATOM     33  H   UNL A   1      47.189  18.661  36.110  1.00  0.00     0.293 HD
ENDBRANCH  12  32
ENDBRANCH   7   9
ENDBRANCH   5   7
ENDBRANCH   4   5
ENDBRANCH   3   4
ENDBRANCH   2   3
ENDBRANCH   1   2
BRANCH   1  34
ATOM     34  C   UNL A   1      49.609  25.924  32.899  1.00  0.00     0.188 C 
BRANCH  34  35
ATOM     35  C   UNL A   1      50.419  25.511  31.663  1.00  0.00     0.188 C 
BRANCH  35  36
ATOM     36  O   UNL A   1      50.178  26.272  30.499  1.00  0.00    -0.377 OA
BRANCH  36  37
ATOM     37  C   UNL A   1      49.321  25.693  29.530  1.00  0.00     0.188 C 
BRANCH  37  38
ATOM     38  C   UNL A   1      47.808  25.833  29.773  1.00  0.00     0.188 C 
BRANCH  38  39
ATOM     39  O   UNL A   1      47.114  26.526  28.739  1.00  0.00    -0.376 OA
BRANCH  39  40
ATOM     40  C   UNL A   1      46.314  27.646  29.097  1.00  0.00     0.202 C 
BRANCH  40  41
ATOM     41  C   UNL A   1      47.002  29.017  29.215  1.00  0.00     0.261 C 
BRANCH  41  42
ATOM     42  O   UNL A   1      46.308  30.015  29.976  1.00  0.00    -0.460 OA
BRANCH  42  43
ATOM     43  C   UNL A   1      47.045  30.970  30.584  1.00  0.00     0.338 C 
ATOM     44  O   UNL A   1      47.908  31.656  30.083  1.00  0.00    -0.246 OA
BRANCH  43  45
ATOM     45  C   UNL A   1      46.451  31.213  31.921  1.00  0.00     0.060 A 
ATOM     46  C   UNL A   1      45.920  30.121  32.620  1.00  0.00     0.016 A 
ATOM     47  C   UNL A   1      46.397  32.496  32.471  1.00  0.00     0.016 A 
ATOM     48  C   UNL A   1      45.276  30.316  33.840  1.00  0.00     0.010 A 
ATOM     49  C   UNL A   1      45.730  32.695  33.687  1.00  0.00     0.010 A 
ATOM     50  C   UNL A   1      45.123  31.612  34.352  1.00  0.00    -0.014 A 
BRANCH  50  51
ATOM     51  C   UNL A   1      44.131  31.838  35.435  1.00  0.00     0.031 A 
ATOM     52  C   UNL A   1      42.696  32.080  35.042  1.00  0.00     0.074 A 
ATOM     53  C   UNL A   1      44.469  31.753  36.734  1.00  0.00     0.049 A 
ATOM     54  N   UNL A   1      41.647  32.276  35.797  1.00  0.00    -0.248 NA
ATOM     55  C   UNL A   1      42.406  32.097  33.598  1.00  0.00     0.031 C 
ATOM     56  C   UNL A   1      45.811  31.473  37.243  1.00  0.00     0.029 A 
ATOM     57  N   UNL A   1      43.702  31.889  37.865  1.00  0.00    -0.354 N 
ATOM     58  C   UNL A   1      40.576  32.439  34.924  1.00  0.00     0.074 A 
ATOM     59  C   UNL A   1      41.108  32.360  33.582  1.00  0.00     0.031 C 
ATOM     60  C   UNL A   1      45.773  31.462  38.588  1.00  0.00     0.029 A 
ATOM     61  C   UNL A   1      44.412  31.760  39.035  1.00  0.00     0.049 A 
ATOM     62  H   UNL A   1      42.734  32.063  37.841  1.00  0.00     0.167 HD
ATOM     63  C   UNL A   1      39.266  32.623  35.212  1.00  0.00     0.037 A 
ATOM     64  C   UNL A   1      44.012  31.884  40.317  1.00  0.00     0.037 A 
ATOM     65  C   UNL A   1      38.740  32.704  36.549  1.00  0.00     0.049 A 
ATOM     66  C   UNL A   1      42.560  32.173  40.613  1.00  0.00     0.074 A 
ATOM     67  C   UNL A   1      37.426  32.886  36.947  1.00  0.00     0.029 A 
ATOM     68  N   UNL A   1      39.499  32.619  37.707  1.00  0.00    -0.354 N 
ATOM     69  N   UNL A   1      41.556  32.305  39.778  1.00  0.00    -0.248 NA
ATOM     70  C   UNL A   1      42.186  32.321  42.027  1.00  0.00     0.031 C 
ATOM     71  C   UNL A   1      37.400  32.966  38.344  1.00  0.00     0.029 A 
ATOM     72  C   UNL A   1      38.687  32.772  38.818  1.00  0.00     0.049 A 
ATOM     73  H   UNL A   1      40.473  32.472  37.734  1.00  0.00     0.167 HD
ATOM     74  C   UNL A   1      40.428  32.522  40.567  1.00  0.00     0.074 A 
ATOM     75  C   UNL A   1      40.873  32.487  41.945  1.00  0.00     0.031 C 
ATOM     76  C   UNL A   1      39.142  32.730  40.186  1.00  0.00     0.037 A 
BRANCH  63  77
ATOM     77  C   UNL A   1      38.314  32.776  34.056  1.00  0.00     0.058 A 
ATOM     78  C   UNL A   1      38.063  34.024  33.462  1.00  0.00     0.135 A 
ATOM     79  C   UNL A   1      37.662  31.654  33.520  1.00  0.00     0.135 A 
ATOM     80  F   UNL A   1      38.642  35.134  33.946  1.00  0.00    -0.206 F 
ATOM     81  C   UNL A   1      37.180  34.156  32.394  1.00  0.00     0.059 A 
ATOM     82  C   UNL A   1      36.800  31.759  32.432  1.00  0.00     0.059 A 
ATOM     83  F   UNL A   1      37.861  30.438  34.051  1.00  0.00    -0.206 F 
ATOM     84  C   UNL A   1      36.553  33.017  31.885  1.00  0.00     0.060 A 
BRANCH  84  85
ATOM     85  S   UNL A   1      35.416  33.206  30.497  1.00  0.00     0.124 S 
ATOM     86  O   UNL A   1      35.298  31.828  30.027  1.00  0.00    -0.237 OA
ATOM     87  O   UNL A   1      34.230  33.759  31.140  1.00  0.00    -0.237 OA
ATOM     88  O   UNL A   1      36.121  34.115  29.598  1.00  0.00    -0.744 OA
ENDBRANCH  84  85
ENDBRANCH  63  77
BRANCH  64  89
ATOM     89  C   UNL A   1      44.997  31.747  41.427  1.00  0.00     0.058 A 
ATOM     90  C   UNL A   1      45.231  30.511  42.048  1.00  0.00     0.135 A 
ATOM     91  C   UNL A   1      45.708  32.860  41.906  1.00  0.00     0.135 A 
ATOM     92  F   UNL A   1      44.566  29.420  41.640  1.00  0.00    -0.206 F 
ATOM     93  C   UNL A   1      46.119  30.384  43.113  1.00  0.00     0.059 A 
ATOM     94  C   UNL A   1      46.623  32.752  42.949  1.00  0.00     0.059 A 
ATOM     95  F   UNL A   1      45.526  34.067  41.346  1.00  0.00    -0.206 F 
ATOM     96  C   UNL A   1      46.813  31.512  43.554  1.00  0.00     0.060 A 
BRANCH  96  97
ATOM     97  S   UNL A   1      47.993  31.328  44.909  1.00  0.00     0.124 S 
ATOM     98  O   UNL A   1      47.322  32.050  45.984  1.00  0.00    -0.237 OA
ATOM     99  O   UNL A   1      48.063  29.879  45.058  1.00  0.00    -0.237 OA
ATOM    100  O   UNL A   1      49.203  31.957  44.387  1.00  0.00    -0.744 OA
ENDBRANCH  96  97
ENDBRANCH  64  89
BRANCH  76 101
ATOM    101  C   UNL A   1      38.112  32.898  41.273  1.00  0.00     0.058 A 
ATOM    102  C   UNL A   1      37.418  31.804  41.814  1.00  0.00     0.135 A 
ATOM    103  C   UNL A   1      37.850  34.169  41.813  1.00  0.00     0.135 A 
ATOM    104  F   UNL A   1      37.625  30.568  41.335  1.00  0.00    -0.206 F 
ATOM    105  C   UNL A   1      36.477  31.969  42.826  1.00  0.00     0.059 A 
ATOM    106  C   UNL A   1      36.939  34.352  42.848  1.00  0.00     0.059 A 
ATOM    107  F   UNL A   1      38.497  35.249  41.345  1.00  0.00    -0.206 F 
ATOM    108  C   UNL A   1      36.245  33.248  43.338  1.00  0.00     0.060 A 
BRANCH 108 109
ATOM    109  S   UNL A   1      35.036  33.442  44.665  1.00  0.00     0.124 S 
ATOM    110  O   UNL A   1      35.802  33.003  45.827  1.00  0.00    -0.237 OA
ATOM    111  O   UNL A   1      34.734  34.869  44.605  1.00  0.00    -0.237 OA
ATOM    112  O   UNL A   1      33.945  32.559  44.263  1.00  0.00    -0.744 OA
ENDBRANCH 108 109
ENDBRANCH  76 101
ENDBRANCH  50  51
ENDBRANCH  43  45
ENDBRANCH  42  43
ENDBRANCH  41  42
ENDBRANCH  40  41
ENDBRANCH  39  40
ENDBRANCH  38  39
ENDBRANCH  37  38
ENDBRANCH  36  37
ENDBRANCH  35  36
ENDBRANCH  34  35
ENDBRANCH   1  34
TORSDOF 33
ENDMDL
MODEL 3
REMARK VINA RESULT:      -5.2      2.347      3.312
REMARK SMILES CCCCCCNC(=O)Oc1cccc(-c2ccc([C@@H](C)C(=O)OCCOCCOCCOCCOC(=O)c3ccc(-c4c5nc(c(-c6c(F)cc(S(=O)(=O)[O-])cc6F)c6ccc([nH]6)c(-c6c(F)cc(S(=O)(=O)[O-])cc6F)c6nc(c(-c7c(F)cc(S(=O)(=O)[O-])cc7F)c7ccc4[nH]7)C=C6)C=C5)cc3)cc2O)c1
REMARK SMILES IDX 27 1 26 2 25 3 24 4 22 5 23 6 20 7 21 8 19 9 16 10 17 11
REMARK SMILES IDX 106 12 18 13 105 14 15 15 11 16 12 17 108 18 13 19 14 20
REMARK SMILES IDX 10 21 8 22 7 23 9 25 6 26 5 27 4 28 3 29 2 30 1 31 107 32
REMARK SMILES IDX 28 34 29 35 30 36 31 37 32 38 33 39 34 40 35 41 36 42 37 43
REMARK SMILES IDX 38 44 39 45 40 46 104 47 41 48 103 49 42 50 43 51 44 52
REMARK SMILES IDX 97 53 45 54 102 55 96 56 98 57 46 58 101 59 95 60 94 61
REMARK SMILES IDX 47 63 81 64 60 65 80 66 61 67 64 68 79 69 99 70 62 71 63 72
REMARK SMILES IDX 78 74 100 75 65 76 48 77 49 78 58 79 50 80 51 81 57 82 59 83
REMARK SMILES IDX 52 84 53 85 54 86 55 87 56 88 82 89 83 90 92 91 84 92 85 93
REMARK SMILES IDX 91 94 93 95 86 96 87 97 88 98 89 99 90 100 66 101 67 102
REMARK SMILES IDX 76 103 68 104 69 105 75 106 77 107 70 108 71 109 72 110
REMARK SMILES IDX 73 111 74 112
REMARK H PARENT 7 24 107 33 98 62 64 73
REMARK Flexibility Score: inf
ROOT
ATOM      1  O   UNL A   1      52.646  29.272  21.462  1.00  0.00    -0.376 OA
ENDROOT
BRANCH   1   2
ATOM      2  C   UNL A   1      51.444  28.535  21.295  1.00  0.00     0.202 C 
BRANCH   2   3
ATOM      3  C   UNL A   1      50.144  29.246  20.876  1.00  0.00     0.261 C 
BRANCH   3   4
ATOM      4  O   UNL A   1      48.903  28.658  21.325  1.00  0.00    -0.463 OA
BRANCH   4   5
ATOM      5  C   UNL A   1      48.976  27.400  21.818  1.00  0.00     0.313 C 
ATOM      6  O   UNL A   1      48.992  26.395  21.109  1.00  0.00    -0.252 OA
BRANCH   5   7
ATOM      7  C   UNL A   1      49.002  27.277  23.341  1.00  0.00     0.126 C 
ATOM      8  C   UNL A   1      50.255  26.506  23.742  1.00  0.00     0.025 C 
BRANCH   7   9
ATOM      9  C   UNL A   1      47.779  26.796  24.123  1.00  0.00    -0.030 A 
ATOM     10  C   UNL A   1      45.548  25.776  25.637  1.00  0.00     0.024 A 
ATOM     11  C   UNL A   1      45.549  27.072  25.082  1.00  0.00     0.013 A 
ATOM     12  C   UNL A   1      46.700  25.004  25.414  1.00  0.00     0.123 A 
ATOM     13  C   UNL A   1      46.635  27.573  24.336  1.00  0.00     0.005 A 
ATOM     14  C   UNL A   1      47.785  25.497  24.673  1.00  0.00     0.051 A 
BRANCH  10  15
ATOM     15  C   UNL A   1      44.349  25.263  26.343  1.00  0.00    -0.011 A 
ATOM     16  C   UNL A   1      42.188  25.561  27.428  1.00  0.00     0.133 A 
ATOM     17  C   UNL A   1      42.166  24.224  27.817  1.00  0.00     0.047 A 
ATOM     18  C   UNL A   1      43.259  26.086  26.694  1.00  0.00     0.056 A 
ATOM     19  C   UNL A   1      43.221  23.393  27.459  1.00  0.00     0.004 A 
ATOM     20  C   UNL A   1      44.302  23.910  26.736  1.00  0.00     0.009 A 
BRANCH  16  21
ATOM     21  O   UNL A   1      41.152  26.367  27.947  1.00  0.00    -0.410 OA
BRANCH  21  22
ATOM     22  C   UNL A   1      41.364  27.103  29.102  1.00  0.00     0.412 C 
ATOM     23  N   UNL A   1      40.271  27.830  29.492  1.00  0.00    -0.321 N 
ATOM     24  H   UNL A   1      40.360  28.336  30.332  1.00  0.00     0.167 HD
ATOM     25  O   UNL A   1      42.406  27.138  29.745  1.00  0.00    -0.224 OA
BRANCH  23  26
ATOM     26  C   UNL A   1      38.997  27.940  28.807  1.00  0.00     0.119 C 
BRANCH  26  27
ATOM     27  C   UNL A   1      38.952  29.135  27.853  1.00  0.00     0.021 C 
BRANCH  27  28
ATOM     28  C   UNL A   1      37.825  30.140  28.123  1.00  0.00     0.002 C 
BRANCH  28  29
ATOM     29  C   UNL A   1      38.161  31.267  29.106  1.00  0.00    -0.000 C 
BRANCH  29  30
ATOM     30  C   UNL A   1      37.022  31.696  30.034  1.00  0.00    -0.003 C 
ATOM     31  C   UNL A   1      36.364  33.003  29.620  1.00  0.00     0.004 C 
ENDBRANCH  29  30
ENDBRANCH  28  29
ENDBRANCH  27  28
ENDBRANCH  26  27
ENDBRANCH  23  26
ENDBRANCH  21  22
ENDBRANCH  16  21
ENDBRANCH  10  15
BRANCH  12  32
ATOM     32  O   UNL A   1      46.840  23.720  25.874  1.00  0.00    -0.507 OA
ATOM     33  H   UNL A   1      46.082  23.214  26.091  1.00  0.00     0.293 HD
ENDBRANCH  12  32
ENDBRANCH   7   9
ENDBRANCH   5   7
ENDBRANCH   4   5
ENDBRANCH   3   4
ENDBRANCH   2   3
ENDBRANCH   1   2
BRANCH   1  34
ATOM     34  C   UNL A   1      53.438  29.116  22.633  1.00  0.00     0.188 C 
BRANCH  34  35
ATOM     35  C   UNL A   1      54.568  28.080  22.706  1.00  0.00     0.188 C 
BRANCH  35  36
ATOM     36  O   UNL A   1      55.604  28.378  23.617  1.00  0.00    -0.377 OA
BRANCH  36  37
ATOM     37  C   UNL A   1      55.828  27.433  24.651  1.00  0.00     0.188 C 
BRANCH  37  38
ATOM     38  C   UNL A   1      54.602  27.020  25.487  1.00  0.00     0.188 C 
BRANCH  38  39
ATOM     39  O   UNL A   1      54.642  27.469  26.838  1.00  0.00    -0.376 OA
BRANCH  39  40
ATOM     40  C   UNL A   1      53.836  26.795  27.796  1.00  0.00     0.202 C 
BRANCH  40  41
ATOM     41  C   UNL A   1      52.594  26.039  27.292  1.00  0.00     0.261 C 
BRANCH  41  42
ATOM     42  O   UNL A   1      51.698  25.545  28.295  1.00  0.00    -0.460 OA
BRANCH  42  43
ATOM     43  C   UNL A   1      50.384  25.478  27.989  1.00  0.00     0.338 C 
ATOM     44  O   UNL A   1      49.733  24.478  27.778  1.00  0.00    -0.246 OA
BRANCH  43  45
ATOM     45  C   UNL A   1      49.804  26.827  28.196  1.00  0.00     0.060 A 
ATOM     46  C   UNL A   1      48.975  27.353  27.197  1.00  0.00     0.016 A 
ATOM     47  C   UNL A   1      50.087  27.572  29.343  1.00  0.00     0.016 A 
ATOM     48  C   UNL A   1      48.479  28.651  27.311  1.00  0.00     0.010 A 
ATOM     49  C   UNL A   1      49.606  28.884  29.446  1.00  0.00     0.010 A 
ATOM     50  C   UNL A   1      48.841  29.446  28.406  1.00  0.00    -0.014 A 
BRANCH  50  51
ATOM     51  C   UNL A   1      48.618  30.913  28.327  1.00  0.00     0.031 A 
ATOM     52  C   UNL A   1      49.677  31.756  27.664  1.00  0.00     0.074 A 
ATOM     53  C   UNL A   1      47.476  31.480  28.755  1.00  0.00     0.049 A 
ATOM     54  N   UNL A   1      49.704  33.045  27.450  1.00  0.00    -0.248 NA
ATOM     55  C   UNL A   1      50.868  31.043  27.171  1.00  0.00     0.031 C 
ATOM     56  C   UNL A   1      46.354  30.768  29.365  1.00  0.00     0.029 A 
ATOM     57  N   UNL A   1      47.070  32.791  28.734  1.00  0.00    -0.354 N 
ATOM     58  C   UNL A   1      50.907  33.297  26.800  1.00  0.00     0.074 A 
ATOM     59  C   UNL A   1      51.602  32.034  26.691  1.00  0.00     0.031 C 
ATOM     60  C   UNL A   1      45.387  31.654  29.664  1.00  0.00     0.029 A 
ATOM     61  C   UNL A   1      45.830  32.997  29.293  1.00  0.00     0.049 A 
ATOM     62  H   UNL A   1      47.615  33.518  28.354  1.00  0.00     0.167 HD
ATOM     63  C   UNL A   1      51.385  34.472  26.323  1.00  0.00     0.037 A 
ATOM     64  C   UNL A   1      45.142  34.140  29.493  1.00  0.00     0.037 A 
ATOM     65  C   UNL A   1      50.692  35.728  26.436  1.00  0.00     0.049 A 
ATOM     66  C   UNL A   1      45.732  35.449  29.028  1.00  0.00     0.074 A 
ATOM     67  C   UNL A   1      51.089  36.973  25.982  1.00  0.00     0.029 A 
ATOM     68  N   UNL A   1      49.462  35.902  27.053  1.00  0.00    -0.354 N 
ATOM     69  N   UNL A   1      46.863  35.670  28.397  1.00  0.00    -0.248 NA
ATOM     70  C   UNL A   1      44.949  36.664  29.295  1.00  0.00     0.031 C 
ATOM     71  C   UNL A   1      50.127  37.909  26.374  1.00  0.00     0.029 A 
ATOM     72  C   UNL A   1      49.099  37.238  27.017  1.00  0.00     0.049 A 
ATOM     73  H   UNL A   1      48.926  35.181  27.458  1.00  0.00     0.167 HD
ATOM     74  C   UNL A   1      46.910  37.043  28.167  1.00  0.00     0.074 A 
ATOM     75  C   UNL A   1      45.688  37.598  28.712  1.00  0.00     0.031 C 
ATOM     76  C   UNL A   1      47.876  37.778  27.558  1.00  0.00     0.037 A 
BRANCH  63  77
ATOM     77  C   UNL A   1      52.736  34.455  25.659  1.00  0.00     0.058 A 
ATOM     78  C   UNL A   1      53.916  34.727  26.370  1.00  0.00     0.135 A 
ATOM     79  C   UNL A   1      52.853  34.137  24.296  1.00  0.00     0.135 A 
ATOM     80  F   UNL A   1      53.862  35.057  27.670  1.00  0.00    -0.206 F 
ATOM     81  C   UNL A   1      55.161  34.710  25.747  1.00  0.00     0.059 A 
ATOM     82  C   UNL A   1      54.090  34.084  23.660  1.00  0.00     0.059 A 
ATOM     83  F   UNL A   1      51.758  33.873  23.566  1.00  0.00    -0.206 F 
ATOM     84  C   UNL A   1      55.238  34.387  24.392  1.00  0.00     0.060 A 
BRANCH  84  85
ATOM     85  S   UNL A   1      56.860  34.364  23.601  1.00  0.00     0.124 S 
ATOM     86  O   UNL A   1      56.698  33.284  22.632  1.00  0.00    -0.237 OA
ATOM     87  O   UNL A   1      56.951  35.708  23.040  1.00  0.00    -0.237 OA
ATOM     88  O   UNL A   1      57.774  34.085  24.704  1.00  0.00    -0.744 OA
ENDBRANCH  84  85
ENDBRANCH  63  77
BRANCH  64  89
ATOM     89  C   UNL A   1      43.819  34.108  30.177  1.00  0.00     0.058 A 
ATOM     90  C   UNL A   1      42.639  33.823  29.473  1.00  0.00     0.135 A 
ATOM     91  C   UNL A   1      43.705  34.388  31.549  1.00  0.00     0.135 A 
ATOM     92  F   UNL A   1      42.691  33.564  28.157  1.00  0.00    -0.206 F 
ATOM     93  C   UNL A   1      41.395  33.832  30.096  1.00  0.00     0.059 A 
ATOM     94  C   UNL A   1      42.476  34.373  32.201  1.00  0.00     0.059 A 
ATOM     95  F   UNL A   1      44.801  34.664  32.273  1.00  0.00    -0.206 F 
ATOM     96  C   UNL A   1      41.325  34.106  31.464  1.00  0.00     0.060 A 
BRANCH  96  97
ATOM     97  S   UNL A   1      39.709  34.074  32.271  1.00  0.00     0.124 S 
ATOM     98  O   UNL A   1      40.029  34.607  33.591  1.00  0.00    -0.237 OA
ATOM     99  O   UNL A   1      38.918  34.942  31.406  1.00  0.00    -0.237 OA
ATOM    100  O   UNL A   1      39.343  32.661  32.234  1.00  0.00    -0.744 OA
ENDBRANCH  96  97
ENDBRANCH  64  89
BRANCH  76 101
ATOM    101  C   UNL A   1      47.638  39.258  27.413  1.00  0.00     0.058 A 
ATOM    102  C   UNL A   1      46.921  39.792  26.330  1.00  0.00     0.135 A 
ATOM    103  C   UNL A   1      48.095  40.151  28.397  1.00  0.00     0.135 A 
ATOM    104  F   UNL A   1      46.462  38.986  25.360  1.00  0.00    -0.206 F 
ATOM    105  C   UNL A   1      46.696  41.160  26.211  1.00  0.00     0.059 A 
ATOM    106  C   UNL A   1      47.852  41.519  28.316  1.00  0.00     0.059 A 
ATOM    107  F   UNL A   1      48.773  39.695  29.462  1.00  0.00    -0.206 F 
ATOM    108  C   UNL A   1      47.165  42.016  27.210  1.00  0.00     0.060 A 
BRANCH 108 109
ATOM    109  S   UNL A   1      46.847  43.786  27.052  1.00  0.00     0.124 S 
ATOM    110  O   UNL A   1      45.392  43.815  26.940  1.00  0.00    -0.237 OA
ATOM    111  O   UNL A   1      47.398  44.315  28.296  1.00  0.00    -0.237 OA
ATOM    112  O   UNL A   1      47.576  44.156  25.843  1.00  0.00    -0.744 OA
ENDBRANCH 108 109
ENDBRANCH  76 101
ENDBRANCH  50  51
ENDBRANCH  43  45
ENDBRANCH  42  43
ENDBRANCH  41  42
ENDBRANCH  40  41
ENDBRANCH  39  40
ENDBRANCH  38  39
ENDBRANCH  37  38
ENDBRANCH  36  37
ENDBRANCH  35  36
ENDBRANCH  34  35
ENDBRANCH   1  34
TORSDOF 33
ENDMDL
