MODEL 1
REMARK VINA RESULT:      -8.6      0.000      0.000
REMARK SMILES CCn1cc(CNC(=O)[C@H]2CC=CC[C@H]2C(=O)OCCOCCOCCOCCOC(=O)c2ccc(-c3c4nc(c(-c5c(F)cc(S(=O)(=O)[O-])cc5F)c5ccc([nH]5)c(-c5c(F)cc(S(=O)(=O)[O-])cc5F)c5nc(c(-c6c(F)cc(S(=O)(=O)[O-])cc6F)c6ccc3[nH]6)C=C5)C=C4)cc2)cn1
REMARK SMILES IDX 23 1 22 2 21 3 20 4 19 5 18 6 16 7 17 8 15 9 10 10 11 11
REMARK SMILES IDX 12 12 14 13 13 14 8 15 7 16 9 18 6 19 5 20 3 21 4 22 100 23
REMARK SMILES IDX 99 24 2 25 1 26 24 27 25 28 26 29 27 30 28 31 29 32 30 33
REMARK SMILES IDX 31 34 32 35 33 36 34 37 98 38 35 39 97 40 36 41 37 42 38 43
REMARK SMILES IDX 91 44 39 45 96 46 90 47 92 48 40 49 95 50 89 51 88 52 41 54
REMARK SMILES IDX 75 55 54 56 74 57 55 58 58 59 73 60 93 61 56 62 57 63 72 65
REMARK SMILES IDX 94 66 59 67 42 68 43 69 52 70 44 71 45 72 51 73 53 74 46 75
REMARK SMILES IDX 47 76 48 77 49 78 50 79 76 80 77 81 86 82 78 83 79 84 85 85
REMARK SMILES IDX 87 86 80 87 81 88 82 89 83 90 84 91 60 92 61 93 70 94 62 95
REMARK SMILES IDX 63 96 69 97 71 98 64 99 65 100 66 101 67 102 68 103
REMARK H PARENT 7 17 92 53 58 64
REMARK Flexibility Score: inf
ROOT
ATOM      1  C   UNL A   1      36.660  29.409  29.412  1.00  0.00     0.188 C 
ENDROOT
BRANCH   1   2
ATOM      2  C   UNL A   1      36.218  29.698  27.961  1.00  0.00     0.188 C 
BRANCH   2   3
ATOM      3  O   UNL A   1      34.926  29.295  27.516  1.00  0.00    -0.376 OA
BRANCH   3   4
ATOM      4  C   UNL A   1      34.020  30.290  27.058  1.00  0.00     0.202 C 
BRANCH   4   5
ATOM      5  C   UNL A   1      32.532  29.941  27.062  1.00  0.00     0.261 C 
BRANCH   5   6
ATOM      6  O   UNL A   1      31.800  30.525  25.962  1.00  0.00    -0.463 OA
BRANCH   6   7
ATOM      7  C   UNL A   1      31.391  29.709  24.961  1.00  0.00     0.310 C 
ATOM      8  O   UNL A   1      30.409  29.929  24.261  1.00  0.00    -0.252 OA
BRANCH   7   9
ATOM      9  C   UNL A   1      32.242  28.445  24.808  1.00  0.00     0.115 C 
ATOM     10  C   UNL A   1      31.802  27.075  25.386  1.00  0.00     0.096 C 
ATOM     11  C   UNL A   1      33.076  26.169  25.366  1.00  0.00     0.041 C 
ATOM     12  C   UNL A   1      33.733  26.139  24.013  1.00  0.00    -0.030 C 
ATOM     13  C   UNL A   1      32.733  28.330  23.356  1.00  0.00     0.043 C 
ATOM     14  C   UNL A   1      33.552  27.102  23.099  1.00  0.00    -0.030 C 
BRANCH  10  15
ATOM     15  C   UNL A   1      30.662  26.177  24.857  1.00  0.00     0.224 C 
ATOM     16  N   UNL A   1      30.006  25.208  25.537  1.00  0.00    -0.352 N 
ATOM     17  H   UNL A   1      29.049  25.104  25.332  1.00  0.00     0.163 HD
ATOM     18  O   UNL A   1      30.266  26.336  23.693  1.00  0.00    -0.275 OA
BRANCH  16  19
ATOM     19  C   UNL A   1      30.540  24.322  26.513  1.00  0.00     0.155 C 
BRANCH  19  20
ATOM     20  C   UNL A   1      31.251  23.151  25.989  1.00  0.00     0.009 A 
ATOM     21  N   UNL A   1      32.093  21.736  24.537  1.00  0.00    -0.273 N 
ATOM     22  C   UNL A   1      31.251  22.795  24.657  1.00  0.00     0.114 A 
ATOM     23  N   UNL A   1      32.673  21.395  25.705  1.00  0.00    -0.181 NA
ATOM     24  C   UNL A   1      32.169  22.267  26.584  1.00  0.00     0.140 A 
BRANCH  21  25
ATOM     25  C   UNL A   1      32.359  20.950  23.348  1.00  0.00     0.141 C 
ATOM     26  C   UNL A   1      32.530  19.454  23.580  1.00  0.00     0.029 C 
ENDBRANCH  21  25
ENDBRANCH  19  20
ENDBRANCH  16  19
ENDBRANCH  10  15
ENDBRANCH   7   9
ENDBRANCH   6   7
ENDBRANCH   5   6
ENDBRANCH   4   5
ENDBRANCH   3   4
ENDBRANCH   2   3
ENDBRANCH   1   2
BRANCH   1  27
ATOM     27  O   UNL A   1      37.845  28.642  29.556  1.00  0.00    -0.377 OA
BRANCH  27  28
ATOM     28  C   UNL A   1      38.381  28.080  28.358  1.00  0.00     0.188 C 
BRANCH  28  29
ATOM     29  C   UNL A   1      39.256  26.813  28.503  1.00  0.00     0.188 C 
BRANCH  29  30
ATOM     30  O   UNL A   1      39.731  26.262  27.278  1.00  0.00    -0.376 OA
BRANCH  30  31
ATOM     31  C   UNL A   1      40.854  25.395  27.206  1.00  0.00     0.202 C 
BRANCH  31  32
ATOM     32  C   UNL A   1      42.100  25.715  28.034  1.00  0.00     0.261 C 
BRANCH  32  33
ATOM     33  O   UNL A   1      43.317  25.332  27.426  1.00  0.00    -0.460 OA
BRANCH  33  34
ATOM     34  C   UNL A   1      43.523  25.804  26.197  1.00  0.00     0.338 C 
ATOM     35  O   UNL A   1      43.559  25.157  25.136  1.00  0.00    -0.246 OA
BRANCH  34  36
ATOM     36  C   UNL A   1      43.848  27.211  26.277  1.00  0.00     0.060 A 
ATOM     37  C   UNL A   1      44.794  27.550  27.245  1.00  0.00     0.016 A 
ATOM     38  C   UNL A   1      42.896  28.113  25.780  1.00  0.00     0.016 A 
ATOM     39  C   UNL A   1      44.583  28.706  27.943  1.00  0.00     0.010 A 
ATOM     40  C   UNL A   1      42.666  29.248  26.502  1.00  0.00     0.010 A 
ATOM     41  C   UNL A   1      43.458  29.474  27.626  1.00  0.00    -0.014 A 
BRANCH  41  42
ATOM     42  C   UNL A   1      43.205  30.643  28.427  1.00  0.00     0.031 A 
ATOM     43  C   UNL A   1      43.960  31.804  27.912  1.00  0.00     0.074 A 
ATOM     44  C   UNL A   1      42.299  30.632  29.421  1.00  0.00     0.049 A 
ATOM     45  N   UNL A   1      44.924  32.439  28.486  1.00  0.00    -0.248 NA
ATOM     46  C   UNL A   1      43.780  32.146  26.486  1.00  0.00     0.031 C 
ATOM     47  C   UNL A   1      41.345  29.568  29.751  1.00  0.00     0.029 A 
ATOM     48  N   UNL A   1      41.949  31.627  30.273  1.00  0.00    -0.354 N 
ATOM     49  C   UNL A   1      45.269  33.443  27.587  1.00  0.00     0.074 A 
ATOM     50  C   UNL A   1      44.734  33.058  26.314  1.00  0.00     0.031 C 
ATOM     51  C   UNL A   1      40.382  30.072  30.556  1.00  0.00     0.029 A 
ATOM     52  C   UNL A   1      40.711  31.450  30.882  1.00  0.00     0.049 A 
ATOM     53  H   UNL A   1      42.522  32.408  30.447  1.00  0.00     0.167 HD
ATOM     54  C   UNL A   1      45.648  34.665  28.043  1.00  0.00     0.037 A 
ATOM     55  C   UNL A   1      39.986  32.411  31.512  1.00  0.00     0.037 A 
ATOM     56  C   UNL A   1      46.127  34.579  29.401  1.00  0.00     0.049 A 
ATOM     57  C   UNL A   1      40.918  33.535  31.806  1.00  0.00     0.074 A 
ATOM     58  C   UNL A   1      47.125  33.861  30.031  1.00  0.00     0.029 A 
ATOM     59  N   UNL A   1      45.283  35.013  30.394  1.00  0.00    -0.354 N 
ATOM     60  N   UNL A   1      41.898  33.470  32.664  1.00  0.00    -0.248 NA
ATOM     61  C   UNL A   1      41.030  34.602  30.820  1.00  0.00     0.031 C 
ATOM     62  C   UNL A   1      46.604  33.538  31.317  1.00  0.00     0.029 A 
ATOM     63  C   UNL A   1      45.342  34.123  31.435  1.00  0.00     0.049 A 
ATOM     64  H   UNL A   1      44.729  35.827  30.364  1.00  0.00     0.167 HD
ATOM     65  C   UNL A   1      42.935  34.182  32.076  1.00  0.00     0.074 A 
ATOM     66  C   UNL A   1      42.308  34.945  31.001  1.00  0.00     0.031 C 
ATOM     67  C   UNL A   1      44.238  33.859  32.333  1.00  0.00     0.037 A 
BRANCH  54  68
ATOM     68  C   UNL A   1      45.157  35.955  27.423  1.00  0.00     0.058 A 
ATOM     69  C   UNL A   1      46.085  36.988  27.192  1.00  0.00     0.135 A 
ATOM     70  C   UNL A   1      43.795  36.329  27.313  1.00  0.00     0.135 A 
ATOM     71  F   UNL A   1      47.404  36.751  27.278  1.00  0.00    -0.206 F 
ATOM     72  C   UNL A   1      45.691  38.305  26.955  1.00  0.00     0.059 A 
ATOM     73  C   UNL A   1      43.383  37.620  27.021  1.00  0.00     0.059 A 
ATOM     74  F   UNL A   1      42.785  35.494  27.577  1.00  0.00    -0.206 F 
ATOM     75  C   UNL A   1      44.336  38.611  26.887  1.00  0.00     0.060 A 
BRANCH  75  76
ATOM     76  S   UNL A   1      43.819  40.320  26.677  1.00  0.00     0.124 S 
ATOM     77  O   UNL A   1      44.483  40.962  27.805  1.00  0.00    -0.237 OA
ATOM     78  O   UNL A   1      44.351  40.632  25.355  1.00  0.00    -0.237 OA
ATOM     79  O   UNL A   1      42.363  40.242  26.759  1.00  0.00    -0.744 OA
ENDBRANCH  75  76
ENDBRANCH  54  68
BRANCH  55  80
ATOM     80  C   UNL A   1      38.508  32.580  31.574  1.00  0.00     0.058 A 
ATOM     81  C   UNL A   1      37.854  32.713  32.814  1.00  0.00     0.135 A 
ATOM     82  C   UNL A   1      37.741  32.901  30.436  1.00  0.00     0.135 A 
ATOM     83  F   UNL A   1      38.506  32.441  33.955  1.00  0.00    -0.206 F 
ATOM     84  C   UNL A   1      36.547  33.203  32.923  1.00  0.00     0.059 A 
ATOM     85  C   UNL A   1      36.432  33.374  30.519  1.00  0.00     0.059 A 
ATOM     86  F   UNL A   1      38.270  32.859  29.205  1.00  0.00    -0.206 F 
ATOM     87  C   UNL A   1      35.851  33.554  31.768  1.00  0.00     0.060 A 
BRANCH  87  88
ATOM     88  S   UNL A   1      34.244  34.369  31.911  1.00  0.00     0.124 S 
ATOM     89  O   UNL A   1      33.569  33.535  32.899  1.00  0.00    -0.237 OA
ATOM     90  O   UNL A   1      34.615  35.708  32.353  1.00  0.00    -0.237 OA
ATOM     91  O   UNL A   1      33.703  34.291  30.557  1.00  0.00    -0.744 OA
ENDBRANCH  87  88
ENDBRANCH  55  80
BRANCH  67  92
ATOM     92  C   UNL A   1      44.527  33.001  33.538  1.00  0.00     0.058 A 
ATOM     93  C   UNL A   1      44.673  33.474  34.854  1.00  0.00     0.135 A 
ATOM     94  C   UNL A   1      44.547  31.609  33.354  1.00  0.00     0.135 A 
ATOM     95  F   UNL A   1      44.555  34.779  35.138  1.00  0.00    -0.206 F 
ATOM     96  C   UNL A   1      44.891  32.605  35.927  1.00  0.00     0.059 A 
ATOM     97  C   UNL A   1      44.724  30.724  34.411  1.00  0.00     0.059 A 
ATOM     98  F   UNL A   1      44.350  31.089  32.131  1.00  0.00    -0.206 F 
ATOM     99  C   UNL A   1      44.917  31.229  35.694  1.00  0.00     0.060 A 
BRANCH  99 100
ATOM    100  S   UNL A   1      45.154  30.100  37.082  1.00  0.00     0.124 S 
ATOM    101  O   UNL A   1      44.971  28.797  36.454  1.00  0.00    -0.237 OA
ATOM    102  O   UNL A   1      46.513  30.411  37.516  1.00  0.00    -0.237 OA
ATOM    103  O   UNL A   1      44.107  30.491  38.023  1.00  0.00    -0.744 OA
ENDBRANCH  99 100
ENDBRANCH  67  92
ENDBRANCH  41  42
ENDBRANCH  34  36
ENDBRANCH  33  34
ENDBRANCH  32  33
ENDBRANCH  31  32
ENDBRANCH  30  31
ENDBRANCH  29  30
ENDBRANCH  28  29
ENDBRANCH  27  28
ENDBRANCH   1  27
TORSDOF 27
ENDMDL
MODEL 2
REMARK VINA RESULT:      -8.1      4.516      8.875
REMARK SMILES CCn1cc(CNC(=O)[C@H]2CC=CC[C@H]2C(=O)OCCOCCOCCOCCOC(=O)c2ccc(-c3c4nc(c(-c5c(F)cc(S(=O)(=O)[O-])cc5F)c5ccc([nH]5)c(-c5c(F)cc(S(=O)(=O)[O-])cc5F)c5nc(c(-c6c(F)cc(S(=O)(=O)[O-])cc6F)c6ccc3[nH]6)C=C5)C=C4)cc2)cn1
REMARK SMILES IDX 23 1 22 2 21 3 20 4 19 5 18 6 16 7 17 8 15 9 10 10 11 11
REMARK SMILES IDX 12 12 14 13 13 14 8 15 7 16 9 18 6 19 5 20 3 21 4 22 100 23
REMARK SMILES IDX 99 24 2 25 1 26 24 27 25 28 26 29 27 30 28 31 29 32 30 33
REMARK SMILES IDX 31 34 32 35 33 36 34 37 98 38 35 39 97 40 36 41 37 42 38 43
REMARK SMILES IDX 91 44 39 45 96 46 90 47 92 48 40 49 95 50 89 51 88 52 41 54
REMARK SMILES IDX 75 55 54 56 74 57 55 58 58 59 73 60 93 61 56 62 57 63 72 65
REMARK SMILES IDX 94 66 59 67 42 68 43 69 52 70 44 71 45 72 51 73 53 74 46 75
REMARK SMILES IDX 47 76 48 77 49 78 50 79 76 80 77 81 86 82 78 83 79 84 85 85
REMARK SMILES IDX 87 86 80 87 81 88 82 89 83 90 84 91 60 92 61 93 70 94 62 95
REMARK SMILES IDX 63 96 69 97 71 98 64 99 65 100 66 101 67 102 68 103
REMARK H PARENT 7 17 92 53 58 64
REMARK Flexibility Score: inf
ROOT
ATOM      1  C   UNL A   1      34.731  33.757  28.050  1.00  0.00     0.188 C 
ENDROOT
BRANCH   1   2
ATOM      2  C   UNL A   1      33.977  32.414  27.932  1.00  0.00     0.188 C 
BRANCH   2   3
ATOM      3  O   UNL A   1      34.629  31.279  27.370  1.00  0.00    -0.376 OA
BRANCH   3   4
ATOM      4  C   UNL A   1      33.904  30.062  27.257  1.00  0.00     0.202 C 
BRANCH   4   5
ATOM      5  C   UNL A   1      32.381  30.156  27.169  1.00  0.00     0.261 C 
BRANCH   5   6
ATOM      6  O   UNL A   1      31.802  29.245  26.208  1.00  0.00    -0.463 OA
BRANCH   6   7
ATOM      7  C   UNL A   1      31.608  27.958  26.583  1.00  0.00     0.310 C 
ATOM      8  O   UNL A   1      31.403  27.609  27.740  1.00  0.00    -0.252 OA
BRANCH   7   9
ATOM      9  C   UNL A   1      31.715  26.957  25.429  1.00  0.00     0.115 C 
ATOM     10  C   UNL A   1      32.647  25.719  25.491  1.00  0.00     0.096 C 
ATOM     11  C   UNL A   1      32.763  25.193  24.023  1.00  0.00     0.041 C 
ATOM     12  C   UNL A   1      31.417  24.980  23.386  1.00  0.00    -0.030 C 
ATOM     13  C   UNL A   1      30.307  26.597  24.931  1.00  0.00     0.043 C 
ATOM     14  C   UNL A   1      30.307  25.593  23.818  1.00  0.00    -0.030 C 
BRANCH  10  15
ATOM     15  C   UNL A   1      32.443  24.456  26.356  1.00  0.00     0.224 C 
ATOM     16  N   UNL A   1      33.271  23.390  26.450  1.00  0.00    -0.352 N 
ATOM     17  H   UNL A   1      33.332  22.963  27.335  1.00  0.00     0.163 HD
ATOM     18  O   UNL A   1      31.430  24.375  27.066  1.00  0.00    -0.275 OA
BRANCH  16  19
ATOM     19  C   UNL A   1      34.063  22.816  25.418  1.00  0.00     0.155 C 
BRANCH  19  20
ATOM     20  C   UNL A   1      33.548  21.571  24.838  1.00  0.00     0.009 A 
ATOM     21  N   UNL A   1      33.124  19.428  24.611  1.00  0.00    -0.273 N 
ATOM     22  C   UNL A   1      33.861  20.319  25.324  1.00  0.00     0.114 A 
ATOM     23  N   UNL A   1      32.318  20.022  23.707  1.00  0.00    -0.181 NA
ATOM     24  C   UNL A   1      32.569  21.327  23.858  1.00  0.00     0.140 A 
BRANCH  21  25
ATOM     25  C   UNL A   1      33.169  17.982  24.689  1.00  0.00     0.141 C 
ATOM     26  C   UNL A   1      33.766  17.281  23.475  1.00  0.00     0.029 C 
ENDBRANCH  21  25
ENDBRANCH  19  20
ENDBRANCH  16  19
ENDBRANCH  10  15
ENDBRANCH   7   9
ENDBRANCH   6   7
ENDBRANCH   5   6
ENDBRANCH   4   5
ENDBRANCH   3   4
ENDBRANCH   2   3
ENDBRANCH   1   2
BRANCH   1  27
ATOM     27  O   UNL A   1      35.409  33.980  29.277  1.00  0.00    -0.377 OA
BRANCH  27  28
ATOM     28  C   UNL A   1      34.635  33.807  30.465  1.00  0.00     0.188 C 
BRANCH  28  29
ATOM     29  C   UNL A   1      35.385  33.337  31.733  1.00  0.00     0.188 C 
BRANCH  29  30
ATOM     30  O   UNL A   1      35.141  31.986  32.115  1.00  0.00    -0.376 OA
BRANCH  30  31
ATOM     31  C   UNL A   1      36.089  30.946  31.923  1.00  0.00     0.202 C 
BRANCH  31  32
ATOM     32  C   UNL A   1      37.436  31.020  32.645  1.00  0.00     0.261 C 
BRANCH  32  33
ATOM     33  O   UNL A   1      38.265  32.083  32.222  1.00  0.00    -0.460 OA
BRANCH  33  34
ATOM     34  C   UNL A   1      39.058  32.605  33.158  1.00  0.00     0.338 C 
ATOM     35  O   UNL A   1      38.713  33.218  34.184  1.00  0.00    -0.246 OA
BRANCH  34  36
ATOM     36  C   UNL A   1      40.436  32.478  32.737  1.00  0.00     0.060 A 
ATOM     37  C   UNL A   1      40.622  32.206  31.381  1.00  0.00     0.016 A 
ATOM     38  C   UNL A   1      41.375  32.150  33.726  1.00  0.00     0.016 A 
ATOM     39  C   UNL A   1      41.612  31.322  31.054  1.00  0.00     0.010 A 
ATOM     40  C   UNL A   1      42.339  31.240  33.402  1.00  0.00     0.010 A 
ATOM     41  C   UNL A   1      42.378  30.775  32.089  1.00  0.00    -0.014 A 
BRANCH  41  42
ATOM     42  C   UNL A   1      43.359  29.783  31.735  1.00  0.00     0.031 A 
ATOM     43  C   UNL A   1      44.366  30.348  30.814  1.00  0.00     0.074 A 
ATOM     44  C   UNL A   1      43.361  28.563  32.301  1.00  0.00     0.049 A 
ATOM     45  N   UNL A   1      44.579  30.032  29.582  1.00  0.00    -0.248 NA
ATOM     46  C   UNL A   1      45.058  31.580  31.245  1.00  0.00     0.031 C 
ATOM     47  C   UNL A   1      42.539  28.094  33.421  1.00  0.00     0.029 A 
ATOM     48  N   UNL A   1      44.193  27.515  32.077  1.00  0.00    -0.354 N 
ATOM     49  C   UNL A   1      45.633  30.847  29.186  1.00  0.00     0.074 A 
ATOM     50  C   UNL A   1      45.701  31.922  30.132  1.00  0.00     0.031 C 
ATOM     51  C   UNL A   1      43.082  26.962  33.924  1.00  0.00     0.029 A 
ATOM     52  C   UNL A   1      44.215  26.573  33.100  1.00  0.00     0.049 A 
ATOM     53  H   UNL A   1      44.736  27.429  31.261  1.00  0.00     0.167 HD
ATOM     54  C   UNL A   1      46.576  30.373  28.331  1.00  0.00     0.037 A 
ATOM     55  C   UNL A   1      45.163  25.619  33.287  1.00  0.00     0.037 A 
ATOM     56  C   UNL A   1      46.062  29.265  27.564  1.00  0.00     0.049 A 
ATOM     57  C   UNL A   1      45.906  25.486  32.003  1.00  0.00     0.074 A 
ATOM     58  C   UNL A   1      44.984  29.092  26.717  1.00  0.00     0.029 A 
ATOM     59  N   UNL A   1      46.465  28.005  27.931  1.00  0.00    -0.354 N 
ATOM     60  N   UNL A   1      45.392  25.006  30.905  1.00  0.00    -0.248 NA
ATOM     61  C   UNL A   1      47.100  26.301  31.821  1.00  0.00     0.031 C 
ATOM     62  C   UNL A   1      44.526  27.765  26.955  1.00  0.00     0.029 A 
ATOM     63  C   UNL A   1      45.379  27.170  27.886  1.00  0.00     0.049 A 
ATOM     64  H   UNL A   1      47.381  27.744  28.183  1.00  0.00     0.167 HD
ATOM     65  C   UNL A   1      45.921  25.790  29.889  1.00  0.00     0.074 A 
ATOM     66  C   UNL A   1      47.045  26.493  30.501  1.00  0.00     0.031 C 
ATOM     67  C   UNL A   1      45.217  26.011  28.739  1.00  0.00     0.037 A 
BRANCH  54  68
ATOM     68  C   UNL A   1      48.055  30.621  28.530  1.00  0.00     0.058 A 
ATOM     69  C   UNL A   1      48.775  31.266  27.506  1.00  0.00     0.135 A 
ATOM     70  C   UNL A   1      48.846  30.009  29.534  1.00  0.00     0.135 A 
ATOM     71  F   UNL A   1      48.130  31.872  26.498  1.00  0.00    -0.206 F 
ATOM     72  C   UNL A   1      50.168  31.233  27.439  1.00  0.00     0.059 A 
ATOM     73  C   UNL A   1      50.233  30.015  29.517  1.00  0.00     0.059 A 
ATOM     74  F   UNL A   1      48.329  29.288  30.533  1.00  0.00    -0.206 F 
ATOM     75  C   UNL A   1      50.885  30.590  28.444  1.00  0.00     0.060 A 
BRANCH  75  76
ATOM     76  S   UNL A   1      52.674  30.462  28.315  1.00  0.00     0.124 S 
ATOM     77  O   UNL A   1      52.881  30.736  26.898  1.00  0.00    -0.237 OA
ATOM     78  O   UNL A   1      53.115  31.498  29.243  1.00  0.00    -0.237 OA
ATOM     79  O   UNL A   1      52.942  29.091  28.742  1.00  0.00    -0.744 OA
ENDBRANCH  75  76
ENDBRANCH  54  68
BRANCH  55  80
ATOM     80  C   UNL A   1      45.696  25.064  34.562  1.00  0.00     0.058 A 
ATOM     81  C   UNL A   1      46.537  25.838  35.384  1.00  0.00     0.135 A 
ATOM     82  C   UNL A   1      45.176  23.890  35.145  1.00  0.00     0.135 A 
ATOM     83  F   UNL A   1      47.071  26.979  34.921  1.00  0.00    -0.206 F 
ATOM     84  C   UNL A   1      46.789  25.508  36.721  1.00  0.00     0.059 A 
ATOM     85  C   UNL A   1      45.427  23.532  36.469  1.00  0.00     0.059 A 
ATOM     86  F   UNL A   1      44.326  23.098  34.476  1.00  0.00    -0.206 F 
ATOM     87  C   UNL A   1      46.207  24.363  37.263  1.00  0.00     0.060 A 
BRANCH  87  88
ATOM     88  S   UNL A   1      46.366  24.038  39.034  1.00  0.00     0.124 S 
ATOM     89  O   UNL A   1      45.044  23.519  39.365  1.00  0.00    -0.237 OA
ATOM     90  O   UNL A   1      47.458  23.073  39.074  1.00  0.00    -0.237 OA
ATOM     91  O   UNL A   1      46.677  25.351  39.593  1.00  0.00    -0.744 OA
ENDBRANCH  87  88
ENDBRANCH  55  80
BRANCH  67  92
ATOM     92  C   UNL A   1      44.064  25.091  28.431  1.00  0.00     0.058 A 
ATOM     93  C   UNL A   1      42.728  25.308  28.813  1.00  0.00     0.135 A 
ATOM     94  C   UNL A   1      44.320  23.984  27.607  1.00  0.00     0.135 A 
ATOM     95  F   UNL A   1      42.375  26.401  29.506  1.00  0.00    -0.206 F 
ATOM     96  C   UNL A   1      41.707  24.429  28.444  1.00  0.00     0.059 A 
ATOM     97  C   UNL A   1      43.314  23.117  27.195  1.00  0.00     0.059 A 
ATOM     98  F   UNL A   1      45.564  23.755  27.154  1.00  0.00    -0.206 F 
ATOM     99  C   UNL A   1      42.011  23.333  27.635  1.00  0.00     0.060 A 
BRANCH  99 100
ATOM    100  S   UNL A   1      40.688  22.219  27.119  1.00  0.00     0.124 S 
ATOM    101  O   UNL A   1      39.519  23.091  27.155  1.00  0.00    -0.237 OA
ATOM    102  O   UNL A   1      41.126  21.799  25.791  1.00  0.00    -0.237 OA
ATOM    103  O   UNL A   1      40.711  21.167  28.133  1.00  0.00    -0.744 OA
ENDBRANCH  99 100
ENDBRANCH  67  92
ENDBRANCH  41  42
ENDBRANCH  34  36
ENDBRANCH  33  34
ENDBRANCH  32  33
ENDBRANCH  31  32
ENDBRANCH  30  31
ENDBRANCH  29  30
ENDBRANCH  28  29
ENDBRANCH  27  28
ENDBRANCH   1  27
TORSDOF 27
ENDMDL
MODEL 3
REMARK VINA RESULT:      -8.0      6.614     15.003
REMARK SMILES CCn1cc(CNC(=O)[C@H]2CC=CC[C@H]2C(=O)OCCOCCOCCOCCOC(=O)c2ccc(-c3c4nc(c(-c5c(F)cc(S(=O)(=O)[O-])cc5F)c5ccc([nH]5)c(-c5c(F)cc(S(=O)(=O)[O-])cc5F)c5nc(c(-c6c(F)cc(S(=O)(=O)[O-])cc6F)c6ccc3[nH]6)C=C5)C=C4)cc2)cn1
REMARK SMILES IDX 23 1 22 2 21 3 20 4 19 5 18 6 16 7 17 8 15 9 10 10 11 11
REMARK SMILES IDX 12 12 14 13 13 14 8 15 7 16 9 18 6 19 5 20 3 21 4 22 100 23
REMARK SMILES IDX 99 24 2 25 1 26 24 27 25 28 26 29 27 30 28 31 29 32 30 33
REMARK SMILES IDX 31 34 32 35 33 36 34 37 98 38 35 39 97 40 36 41 37 42 38 43
REMARK SMILES IDX 91 44 39 45 96 46 90 47 92 48 40 49 95 50 89 51 88 52 41 54
REMARK SMILES IDX 75 55 54 56 74 57 55 58 58 59 73 60 93 61 56 62 57 63 72 65
REMARK SMILES IDX 94 66 59 67 42 68 43 69 52 70 44 71 45 72 51 73 53 74 46 75
REMARK SMILES IDX 47 76 48 77 49 78 50 79 76 80 77 81 86 82 78 83 79 84 85 85
REMARK SMILES IDX 87 86 80 87 81 88 82 89 83 90 84 91 60 92 61 93 70 94 62 95
REMARK SMILES IDX 63 96 69 97 71 98 64 99 65 100 66 101 67 102 68 103
REMARK H PARENT 7 17 92 53 58 64
REMARK Flexibility Score: inf
ROOT
ATOM      1  C   UNL A   1      45.768  42.774  25.760  1.00  0.00     0.188 C 
ENDROOT
BRANCH   1   2
ATOM      2  C   UNL A   1      44.586  42.737  24.767  1.00  0.00     0.188 C 
BRANCH   2   3
ATOM      3  O   UNL A   1      43.824  43.915  24.522  1.00  0.00    -0.376 OA
BRANCH   3   4
ATOM      4  C   UNL A   1      43.412  44.198  23.191  1.00  0.00     0.202 C 
BRANCH   4   5
ATOM      5  C   UNL A   1      43.420  43.042  22.192  1.00  0.00     0.261 C 
BRANCH   5   6
ATOM      6  O   UNL A   1      43.425  43.473  20.813  1.00  0.00    -0.463 OA
BRANCH   6   7
ATOM      7  C   UNL A   1      42.233  43.669  20.200  1.00  0.00     0.310 C 
ATOM      8  O   UNL A   1      41.164  43.270  20.646  1.00  0.00    -0.252 OA
BRANCH   7   9
ATOM      9  C   UNL A   1      42.343  44.401  18.859  1.00  0.00     0.115 C 
ATOM     10  C   UNL A   1      42.925  45.832  18.742  1.00  0.00     0.096 C 
ATOM     11  C   UNL A   1      42.510  46.352  17.326  1.00  0.00     0.041 C 
ATOM     12  C   UNL A   1      42.887  45.390  16.233  1.00  0.00    -0.030 C 
ATOM     13  C   UNL A   1      42.927  43.449  17.803  1.00  0.00     0.043 C 
ATOM     14  C   UNL A   1      43.103  44.087  16.458  1.00  0.00    -0.030 C 
BRANCH  10  15
ATOM     15  C   UNL A   1      44.407  46.239  18.901  1.00  0.00     0.224 C 
ATOM     16  N   UNL A   1      45.488  45.433  18.803  1.00  0.00    -0.352 N 
ATOM     17  H   UNL A   1      46.294  45.832  18.402  1.00  0.00     0.163 HD
ATOM     18  O   UNL A   1      44.679  47.426  19.133  1.00  0.00    -0.275 OA
BRANCH  16  19
ATOM     19  C   UNL A   1      45.596  44.075  19.209  1.00  0.00     0.155 C 
BRANCH  19  20
ATOM     20  C   UNL A   1      46.824  43.721  19.928  1.00  0.00     0.009 A 
ATOM     21  N   UNL A   1      48.965  43.587  20.401  1.00  0.00    -0.273 N 
ATOM     22  C   UNL A   1      48.089  43.937  19.423  1.00  0.00     0.114 A 
ATOM     23  N   UNL A   1      48.351  43.184  21.532  1.00  0.00    -0.181 NA
ATOM     24  C   UNL A   1      47.048  43.281  21.244  1.00  0.00     0.140 A 
BRANCH  21  25
ATOM     25  C   UNL A   1      50.411  43.551  20.319  1.00  0.00     0.141 C 
ATOM     26  C   UNL A   1      51.147  44.272  21.441  1.00  0.00     0.029 C 
ENDBRANCH  21  25
ENDBRANCH  19  20
ENDBRANCH  16  19
ENDBRANCH  10  15
ENDBRANCH   7   9
ENDBRANCH   6   7
ENDBRANCH   5   6
ENDBRANCH   4   5
ENDBRANCH   3   4
ENDBRANCH   2   3
ENDBRANCH   1   2
BRANCH   1  27
ATOM     27  O   UNL A   1      45.626  41.973  26.923  1.00  0.00    -0.377 OA
BRANCH  27  28
ATOM     28  C   UNL A   1      44.873  42.545  27.993  1.00  0.00     0.188 C 
BRANCH  28  29
ATOM     29  C   UNL A   1      45.499  42.484  29.406  1.00  0.00     0.188 C 
BRANCH  29  30
ATOM     30  O   UNL A   1      45.026  41.424  30.233  1.00  0.00    -0.376 OA
BRANCH  30  31
ATOM     31  C   UNL A   1      45.836  40.787  31.210  1.00  0.00     0.202 C 
BRANCH  31  32
ATOM     32  C   UNL A   1      45.634  41.129  32.687  1.00  0.00     0.261 C 
BRANCH  32  33
ATOM     33  O   UNL A   1      45.367  40.013  33.512  1.00  0.00    -0.460 OA
BRANCH  33  34
ATOM     34  C   UNL A   1      44.095  39.620  33.559  1.00  0.00     0.338 C 
ATOM     35  O   UNL A   1      43.082  40.342  33.564  1.00  0.00    -0.246 OA
BRANCH  34  36
ATOM     36  C   UNL A   1      44.046  38.187  33.749  1.00  0.00     0.060 A 
ATOM     37  C   UNL A   1      43.730  37.445  32.611  1.00  0.00     0.016 A 
ATOM     38  C   UNL A   1      43.830  37.727  35.056  1.00  0.00     0.016 A 
ATOM     39  C   UNL A   1      42.904  36.370  32.779  1.00  0.00     0.010 A 
ATOM     40  C   UNL A   1      42.976  36.674  35.219  1.00  0.00     0.010 A 
ATOM     41  C   UNL A   1      42.458  36.074  34.073  1.00  0.00    -0.014 A 
BRANCH  41  42
ATOM     42  C   UNL A   1      41.523  34.991  34.220  1.00  0.00     0.031 A 
ATOM     43  C   UNL A   1      41.921  33.839  33.385  1.00  0.00     0.074 A 
ATOM     44  C   UNL A   1      40.515  35.047  35.108  1.00  0.00     0.049 A 
ATOM     45  N   UNL A   1      41.302  33.349  32.365  1.00  0.00    -0.248 NA
ATOM     46  C   UNL A   1      43.293  33.321  33.560  1.00  0.00     0.031 C 
ATOM     47  C   UNL A   1      40.285  36.066  36.138  1.00  0.00     0.029 A 
ATOM     48  N   UNL A   1      39.546  34.133  35.366  1.00  0.00    -0.354 N 
ATOM     49  C   UNL A   1      42.089  32.277  31.957  1.00  0.00     0.074 A 
ATOM     50  C   UNL A   1      43.385  32.471  32.541  1.00  0.00     0.031 C 
ATOM     51  C   UNL A   1      39.403  35.586  37.045  1.00  0.00     0.029 A 
ATOM     52  C   UNL A   1      38.931  34.284  36.605  1.00  0.00     0.049 A 
ATOM     53  H   UNL A   1      39.299  33.423  34.730  1.00  0.00     0.167 HD
ATOM     54  C   UNL A   1      41.506  31.149  31.476  1.00  0.00     0.037 A 
ATOM     55  C   UNL A   1      38.178  33.351  37.241  1.00  0.00     0.037 A 
ATOM     56  C   UNL A   1      40.179  31.427  30.984  1.00  0.00     0.049 A 
ATOM     57  C   UNL A   1      37.781  32.342  36.220  1.00  0.00     0.074 A 
ATOM     58  C   UNL A   1      39.660  32.287  30.035  1.00  0.00     0.029 A 
ATOM     59  N   UNL A   1      39.123  31.048  31.775  1.00  0.00    -0.354 N 
ATOM     60  N   UNL A   1      36.961  32.581  35.234  1.00  0.00    -0.248 NA
ATOM     61  C   UNL A   1      38.641  31.181  36.040  1.00  0.00     0.031 C 
ATOM     62  C   UNL A   1      38.407  32.715  30.559  1.00  0.00     0.029 A 
ATOM     63  C   UNL A   1      38.192  32.053  31.770  1.00  0.00     0.049 A 
ATOM     64  H   UNL A   1      39.047  30.196  32.263  1.00  0.00     0.167 HD
ATOM     65  C   UNL A   1      37.489  31.886  34.154  1.00  0.00     0.074 A 
ATOM     66  C   UNL A   1      38.454  30.959  34.737  1.00  0.00     0.031 C 
ATOM     67  C   UNL A   1      37.303  32.335  32.877  1.00  0.00     0.037 A 
BRANCH  54  68
ATOM     68  C   UNL A   1      41.963  29.762  31.874  1.00  0.00     0.058 A 
ATOM     69  C   UNL A   1      41.980  29.424  33.241  1.00  0.00     0.135 A 
ATOM     70  C   UNL A   1      42.648  28.864  31.020  1.00  0.00     0.135 A 
ATOM     71  F   UNL A   1      41.369  30.208  34.144  1.00  0.00    -0.206 F 
ATOM     72  C   UNL A   1      42.690  28.329  33.729  1.00  0.00     0.059 A 
ATOM     73  C   UNL A   1      43.312  27.736  31.479  1.00  0.00     0.059 A 
ATOM     74  F   UNL A   1      42.799  29.074  29.708  1.00  0.00    -0.206 F 
ATOM     75  C   UNL A   1      43.366  27.500  32.839  1.00  0.00     0.060 A 
BRANCH  75  76
ATOM     76  S   UNL A   1      44.362  26.142  33.468  1.00  0.00     0.124 S 
ATOM     77  O   UNL A   1      45.650  26.796  33.664  1.00  0.00    -0.237 OA
ATOM     78  O   UNL A   1      43.635  25.775  34.680  1.00  0.00    -0.237 OA
ATOM     79  O   UNL A   1      44.307  25.159  32.389  1.00  0.00    -0.744 OA
ENDBRANCH  75  76
ENDBRANCH  54  68
BRANCH  55  80
ATOM     80  C   UNL A   1      38.060  33.077  38.701  1.00  0.00     0.058 A 
ATOM     81  C   UNL A   1      36.833  32.666  39.256  1.00  0.00     0.135 A 
ATOM     82  C   UNL A   1      39.191  32.934  39.530  1.00  0.00     0.135 A 
ATOM     83  F   UNL A   1      35.703  32.754  38.537  1.00  0.00    -0.206 F 
ATOM     84  C   UNL A   1      36.743  32.082  40.524  1.00  0.00     0.059 A 
ATOM     85  C   UNL A   1      39.122  32.370  40.804  1.00  0.00     0.059 A 
ATOM     86  F   UNL A   1      40.419  33.247  39.095  1.00  0.00    -0.206 F 
ATOM     87  C   UNL A   1      37.900  31.916  41.283  1.00  0.00     0.060 A 
BRANCH  87  88
ATOM     88  S   UNL A   1      37.822  30.987  42.832  1.00  0.00     0.124 S 
ATOM     89  O   UNL A   1      36.436  31.189  43.237  1.00  0.00    -0.237 OA
ATOM     90  O   UNL A   1      38.171  29.638  42.401  1.00  0.00    -0.237 OA
ATOM     91  O   UNL A   1      38.819  31.646  43.672  1.00  0.00    -0.744 OA
ENDBRANCH  87  88
ENDBRANCH  55  80
BRANCH  67  92
ATOM     92  C   UNL A   1      36.211  33.346  32.637  1.00  0.00     0.058 A 
ATOM     93  C   UNL A   1      34.929  33.053  32.140  1.00  0.00     0.135 A 
ATOM     94  C   UNL A   1      36.451  34.669  33.040  1.00  0.00     0.135 A 
ATOM     95  F   UNL A   1      34.575  31.795  31.836  1.00  0.00    -0.206 F 
ATOM     96  C   UNL A   1      33.953  34.043  31.993  1.00  0.00     0.059 A 
ATOM     97  C   UNL A   1      35.485  35.663  32.939  1.00  0.00     0.059 A 
ATOM     98  F   UNL A   1      37.635  35.003  33.582  1.00  0.00    -0.206 F 
ATOM     99  C   UNL A   1      34.243  35.348  32.394  1.00  0.00     0.060 A 
BRANCH  99 100
ATOM    100  S   UNL A   1      32.972  36.621  32.248  1.00  0.00     0.124 S 
ATOM    101  O   UNL A   1      33.449  37.640  33.177  1.00  0.00    -0.237 OA
ATOM    102  O   UNL A   1      33.036  36.973  30.832  1.00  0.00    -0.237 OA
ATOM    103  O   UNL A   1      31.749  35.932  32.654  1.00  0.00    -0.744 OA
ENDBRANCH  99 100
ENDBRANCH  67  92
ENDBRANCH  41  42
ENDBRANCH  34  36
ENDBRANCH  33  34
ENDBRANCH  32  33
ENDBRANCH  31  32
ENDBRANCH  30  31
ENDBRANCH  29  30
ENDBRANCH  28  29
ENDBRANCH  27  28
ENDBRANCH   1  27
TORSDOF 27
ENDMDL
