MODEL 1
REMARK VINA RESULT:      -9.5      0.000      0.000
REMARK SMILES Cc1c(Br)c(C)c2c(c1Br)O[C@H](C(F)(F)F)C(C(=O)OCCOCCOCCOCCOC(=O)c1ccc(-c3c4nc(c(-c5c(F)cc(S(=O)(=O)[O-])cc5F)c5ccc([nH]5)c(-c5c(F)cc(S(=O)(=O)[O-])cc5F)c5nc(c(-c6c(F)cc(S(=O)(=O)[O-])cc6F)c6ccc3[nH]6)C=C5)C=C4)cc1)=C2
REMARK SMILES IDX 27 1 26 2 25 3 24 4 23 5 22 6 21 7 20 8 18 9 19 10 17 11
REMARK SMILES IDX 1 12 2 13 3 14 9 15 4 16 5 17 8 18 10 19 6 20 7 21 11 22
REMARK SMILES IDX 101 23 12 24 13 25 14 26 15 27 16 28 28 29 29 30 30 31 31 32
REMARK SMILES IDX 32 33 33 34 34 35 35 36 36 37 100 38 37 39 99 40 38 41 39 42
REMARK SMILES IDX 40 43 93 44 41 45 98 46 92 47 94 48 42 49 97 50 91 51 90 52
REMARK SMILES IDX 43 54 77 55 56 56 76 57 57 58 60 59 75 60 95 61 58 62 59 63
REMARK SMILES IDX 74 65 96 66 61 67 44 68 45 69 54 70 46 71 47 72 53 73 55 74
REMARK SMILES IDX 48 75 49 76 50 77 51 78 52 79 78 80 79 81 88 82 80 83 81 84
REMARK SMILES IDX 87 85 89 86 82 87 83 88 84 89 85 90 86 91 62 92 63 93 72 94
REMARK SMILES IDX 64 95 65 96 71 97 73 98 66 99 67 100 68 101 69 102 70 103
REMARK H PARENT 94 53 60 64
REMARK Flexibility Score: inf
ROOT
ATOM      1  C   UNL A   1      40.782  20.235  26.762  1.00  0.00     0.188 C 
ENDROOT
BRANCH   1   2
ATOM      2  O   UNL A   1      39.537  20.931  26.689  1.00  0.00    -0.377 OA
BRANCH   2   3
ATOM      3  C   UNL A   1      38.953  21.109  25.409  1.00  0.00     0.188 C 
BRANCH   3   4
ATOM      4  C   UNL A   1      37.434  21.359  25.474  1.00  0.00     0.188 C 
BRANCH   4   5
ATOM      5  O   UNL A   1      37.035  22.603  24.928  1.00  0.00    -0.376 OA
BRANCH   5   6
ATOM      6  C   UNL A   1      36.144  22.684  23.827  1.00  0.00     0.202 C 
BRANCH   6   7
ATOM      7  C   UNL A   1      35.116  23.810  23.595  1.00  0.00     0.261 C 
BRANCH   7   8
ATOM      8  O   UNL A   1      33.862  23.713  24.268  1.00  0.00    -0.460 OA
BRANCH   8   9
ATOM      9  C   UNL A   1      33.759  24.266  25.487  1.00  0.00     0.338 C 
ATOM     10  O   UNL A   1      34.177  23.813  26.539  1.00  0.00    -0.246 OA
BRANCH   9  11
ATOM     11  C   UNL A   1      33.221  25.634  25.308  1.00  0.00     0.087 C 
ATOM     12  C   UNL A   1      31.161  31.748  26.087  1.00  0.00     0.047 C 
ATOM     13  C   UNL A   1      31.950  30.468  25.963  1.00  0.00    -0.019 A 
ATOM     14  C   UNL A   1      33.146  30.273  26.698  1.00  0.00     0.025 A 
ATOM     15  C   UNL A   1      31.538  29.443  25.087  1.00  0.00     0.064 A 
ATOM     16  Br  UNL A   1      33.838  31.731  27.739  1.00  0.00    -0.050 Br
ATOM     17  C   UNL A   1      33.831  29.034  26.677  1.00  0.00    -0.026 A 
ATOM     18  C   UNL A   1      32.187  28.198  25.076  1.00  0.00     0.142 A 
ATOM     19  Br  UNL A   1      30.067  29.708  23.885  1.00  0.00    -0.046 Br
ATOM     20  C   UNL A   1      35.135  28.811  27.413  1.00  0.00     0.046 C 
ATOM     21  C   UNL A   1      33.283  27.969  25.919  1.00  0.00     0.022 A 
ATOM     22  O   UNL A   1      31.704  27.253  24.212  1.00  0.00    -0.474 OA
ATOM     23  C   UNL A   1      33.790  26.604  26.033  1.00  0.00     0.027 C 
ATOM     24  C   UNL A   1      32.147  25.877  24.289  1.00  0.00     0.316 C 
BRANCH  24  25
ATOM     25  C   UNL A   1      30.919  24.986  24.512  1.00  0.00     0.430 C 
ATOM     26  F   UNL A   1      30.922  23.922  23.673  1.00  0.00    -0.167 F 
ATOM     27  F   UNL A   1      30.871  24.498  25.771  1.00  0.00    -0.167 F 
ATOM     28  F   UNL A   1      29.770  25.669  24.297  1.00  0.00    -0.167 F 
ENDBRANCH  24  25
ENDBRANCH   9  11
ENDBRANCH   8   9
ENDBRANCH   7   8
ENDBRANCH   6   7
ENDBRANCH   5   6
ENDBRANCH   4   5
ENDBRANCH   3   4
ENDBRANCH   2   3
ENDBRANCH   1   2
BRANCH   1  29
ATOM     29  C   UNL A   1      42.122  20.932  26.422  1.00  0.00     0.188 C 
BRANCH  29  30
ATOM     30  O   UNL A   1      42.325  22.171  27.095  1.00  0.00    -0.376 OA
BRANCH  30  31
ATOM     31  C   UNL A   1      41.769  23.339  26.516  1.00  0.00     0.202 C 
BRANCH  31  32
ATOM     32  C   UNL A   1      40.566  23.939  27.254  1.00  0.00     0.261 C 
BRANCH  32  33
ATOM     33  O   UNL A   1      39.903  25.022  26.584  1.00  0.00    -0.460 OA
BRANCH  33  34
ATOM     34  C   UNL A   1      40.614  26.150  26.368  1.00  0.00     0.338 C 
ATOM     35  O   UNL A   1      41.201  26.465  25.347  1.00  0.00    -0.246 OA
BRANCH  34  36
ATOM     36  C   UNL A   1      40.397  27.034  27.530  1.00  0.00     0.060 A 
ATOM     37  C   UNL A   1      40.983  28.307  27.540  1.00  0.00     0.016 A 
ATOM     38  C   UNL A   1      39.594  26.615  28.593  1.00  0.00     0.016 A 
ATOM     39  C   UNL A   1      40.787  29.155  28.630  1.00  0.00     0.010 A 
ATOM     40  C   UNL A   1      39.417  27.457  29.694  1.00  0.00     0.010 A 
ATOM     41  C   UNL A   1      40.035  28.717  29.730  1.00  0.00    -0.014 A 
BRANCH  41  42
ATOM     42  C   UNL A   1      40.063  29.490  30.995  1.00  0.00     0.031 A 
ATOM     43  C   UNL A   1      41.171  29.206  31.973  1.00  0.00     0.074 A 
ATOM     44  C   UNL A   1      39.146  30.437  31.261  1.00  0.00     0.049 A 
ATOM     45  N   UNL A   1      41.386  29.720  33.155  1.00  0.00    -0.248 NA
ATOM     46  C   UNL A   1      42.173  28.208  31.560  1.00  0.00     0.031 C 
ATOM     47  C   UNL A   1      38.056  30.834  30.371  1.00  0.00     0.029 A 
ATOM     48  N   UNL A   1      38.988  31.240  32.364  1.00  0.00    -0.354 N 
ATOM     49  C   UNL A   1      42.550  29.120  33.620  1.00  0.00     0.074 A 
ATOM     50  C   UNL A   1      42.974  28.172  32.615  1.00  0.00     0.031 C 
ATOM     51  C   UNL A   1      37.341  31.806  30.965  1.00  0.00     0.029 A 
ATOM     52  C   UNL A   1      37.900  32.078  32.288  1.00  0.00     0.049 A 
ATOM     53  H   UNL A   1      39.596  31.217  33.137  1.00  0.00     0.167 HD
ATOM     54  C   UNL A   1      43.215  29.351  34.775  1.00  0.00     0.037 A 
ATOM     55  C   UNL A   1      37.407  32.950  33.191  1.00  0.00     0.037 A 
ATOM     56  C   UNL A   1      42.785  30.289  35.777  1.00  0.00     0.049 A 
ATOM     57  C   UNL A   1      38.111  33.114  34.518  1.00  0.00     0.074 A 
ATOM     58  C   UNL A   1      43.385  30.587  36.987  1.00  0.00     0.029 A 
ATOM     59  N   UNL A   1      41.650  31.080  35.686  1.00  0.00    -0.354 N 
ATOM     60  N   UNL A   1      39.213  32.543  34.945  1.00  0.00    -0.248 NA
ATOM     61  C   UNL A   1      37.504  34.039  35.487  1.00  0.00     0.031 C 
ATOM     62  C   UNL A   1      42.586  31.521  37.652  1.00  0.00     0.029 A 
ATOM     63  C   UNL A   1      41.519  31.849  36.830  1.00  0.00     0.049 A 
ATOM     64  H   UNL A   1      41.028  31.092  34.924  1.00  0.00     0.167 HD
ATOM     65  C   UNL A   1      39.447  33.065  36.214  1.00  0.00     0.074 A 
ATOM     66  C   UNL A   1      38.378  34.002  36.484  1.00  0.00     0.031 C 
ATOM     67  C   UNL A   1      40.457  32.793  37.078  1.00  0.00     0.037 A 
BRANCH  54  68
ATOM     68  C   UNL A   1      44.477  28.576  35.025  1.00  0.00     0.058 A 
ATOM     69  C   UNL A   1      45.729  29.068  34.622  1.00  0.00     0.135 A 
ATOM     70  C   UNL A   1      44.446  27.365  35.735  1.00  0.00     0.135 A 
ATOM     71  F   UNL A   1      45.814  30.209  33.919  1.00  0.00    -0.206 F 
ATOM     72  C   UNL A   1      46.905  28.383  34.910  1.00  0.00     0.059 A 
ATOM     73  C   UNL A   1      45.611  26.677  36.057  1.00  0.00     0.059 A 
ATOM     74  F   UNL A   1      43.274  26.848  36.135  1.00  0.00    -0.206 F 
ATOM     75  C   UNL A   1      46.836  27.193  35.636  1.00  0.00     0.060 A 
BRANCH  75  76
ATOM     76  S   UNL A   1      48.377  26.341  36.033  1.00  0.00     0.124 S 
ATOM     77  O   UNL A   1      49.095  27.370  36.781  1.00  0.00    -0.237 OA
ATOM     78  O   UNL A   1      47.908  25.202  36.813  1.00  0.00    -0.237 OA
ATOM     79  O   UNL A   1      48.934  26.016  34.724  1.00  0.00    -0.744 OA
ENDBRANCH  75  76
ENDBRANCH  54  68
BRANCH  55  80
ATOM     80  C   UNL A   1      36.186  33.742  32.883  1.00  0.00     0.058 A 
ATOM     81  C   UNL A   1      36.269  34.953  32.178  1.00  0.00     0.135 A 
ATOM     82  C   UNL A   1      34.913  33.317  33.297  1.00  0.00     0.135 A 
ATOM     83  F   UNL A   1      37.462  35.411  31.772  1.00  0.00    -0.206 F 
ATOM     84  C   UNL A   1      35.140  35.720  31.906  1.00  0.00     0.059 A 
ATOM     85  C   UNL A   1      33.765  34.053  33.014  1.00  0.00     0.059 A 
ATOM     86  F   UNL A   1      34.776  32.164  33.971  1.00  0.00    -0.206 F 
ATOM     87  C   UNL A   1      33.891  35.259  32.327  1.00  0.00     0.060 A 
BRANCH  87  88
ATOM     88  S   UNL A   1      32.431  36.248  31.936  1.00  0.00     0.124 S 
ATOM     89  O   UNL A   1      32.728  37.498  32.624  1.00  0.00    -0.237 OA
ATOM     90  O   UNL A   1      32.479  36.295  30.477  1.00  0.00    -0.237 OA
ATOM     91  O   UNL A   1      31.334  35.465  32.495  1.00  0.00    -0.744 OA
ENDBRANCH  87  88
ENDBRANCH  55  80
BRANCH  67  92
ATOM     92  C   UNL A   1      40.490  33.535  38.386  1.00  0.00     0.058 A 
ATOM     93  C   UNL A   1      41.322  34.647  38.582  1.00  0.00     0.135 A 
ATOM     94  C   UNL A   1      39.605  33.189  39.421  1.00  0.00     0.135 A 
ATOM     95  F   UNL A   1      42.190  35.019  37.627  1.00  0.00    -0.206 F 
ATOM     96  C   UNL A   1      41.284  35.384  39.762  1.00  0.00     0.059 A 
ATOM     97  C   UNL A   1      39.528  33.928  40.597  1.00  0.00     0.059 A 
ATOM     98  F   UNL A   1      38.777  32.140  39.280  1.00  0.00    -0.206 F 
ATOM     99  C   UNL A   1      40.376  35.023  40.760  1.00  0.00     0.060 A 
BRANCH  99 100
ATOM    100  S   UNL A   1      40.300  36.025  42.259  1.00  0.00     0.124 S 
ATOM    101  O   UNL A   1      40.881  37.284  41.803  1.00  0.00    -0.237 OA
ATOM    102  O   UNL A   1      38.868  36.053  42.540  1.00  0.00    -0.237 OA
ATOM    103  O   UNL A   1      41.107  35.273  43.215  1.00  0.00    -0.744 OA
ENDBRANCH  99 100
ENDBRANCH  67  92
ENDBRANCH  41  42
ENDBRANCH  34  36
ENDBRANCH  33  34
ENDBRANCH  32  33
ENDBRANCH  31  32
ENDBRANCH  30  31
ENDBRANCH  29  30
ENDBRANCH   1  29
TORSDOF 24
ENDMDL
MODEL 2
REMARK VINA RESULT:      -9.4     10.511     15.754
REMARK SMILES Cc1c(Br)c(C)c2c(c1Br)O[C@H](C(F)(F)F)C(C(=O)OCCOCCOCCOCCOC(=O)c1ccc(-c3c4nc(c(-c5c(F)cc(S(=O)(=O)[O-])cc5F)c5ccc([nH]5)c(-c5c(F)cc(S(=O)(=O)[O-])cc5F)c5nc(c(-c6c(F)cc(S(=O)(=O)[O-])cc6F)c6ccc3[nH]6)C=C5)C=C4)cc1)=C2
REMARK SMILES IDX 27 1 26 2 25 3 24 4 23 5 22 6 21 7 20 8 18 9 19 10 17 11
REMARK SMILES IDX 1 12 2 13 3 14 9 15 4 16 5 17 8 18 10 19 6 20 7 21 11 22
REMARK SMILES IDX 101 23 12 24 13 25 14 26 15 27 16 28 28 29 29 30 30 31 31 32
REMARK SMILES IDX 32 33 33 34 34 35 35 36 36 37 100 38 37 39 99 40 38 41 39 42
REMARK SMILES IDX 40 43 93 44 41 45 98 46 92 47 94 48 42 49 97 50 91 51 90 52
REMARK SMILES IDX 43 54 77 55 56 56 76 57 57 58 60 59 75 60 95 61 58 62 59 63
REMARK SMILES IDX 74 65 96 66 61 67 44 68 45 69 54 70 46 71 47 72 53 73 55 74
REMARK SMILES IDX 48 75 49 76 50 77 51 78 52 79 78 80 79 81 88 82 80 83 81 84
REMARK SMILES IDX 87 85 89 86 82 87 83 88 84 89 85 90 86 91 62 92 63 93 72 94
REMARK SMILES IDX 64 95 65 96 71 97 73 98 66 99 67 100 68 101 69 102 70 103
REMARK H PARENT 94 53 60 64
REMARK Flexibility Score: inf
ROOT
ATOM      1  C   UNL A   1      45.466  41.905  31.768  1.00  0.00     0.188 C 
ENDROOT
BRANCH   1   2
ATOM      2  O   UNL A   1      45.546  43.071  30.947  1.00  0.00    -0.377 OA
BRANCH   2   3
ATOM      3  C   UNL A   1      45.061  42.980  29.618  1.00  0.00     0.188 C 
BRANCH   3   4
ATOM      4  C   UNL A   1      45.553  44.131  28.720  1.00  0.00     0.188 C 
BRANCH   4   5
ATOM      5  O   UNL A   1      45.347  43.907  27.338  1.00  0.00    -0.376 OA
BRANCH   5   6
ATOM      6  C   UNL A   1      45.954  44.726  26.350  1.00  0.00     0.202 C 
BRANCH   6   7
ATOM      7  C   UNL A   1      46.267  44.291  24.904  1.00  0.00     0.261 C 
BRANCH   7   8
ATOM      8  O   UNL A   1      45.179  44.212  23.985  1.00  0.00    -0.460 OA
BRANCH   8   9
ATOM      9  C   UNL A   1      45.070  43.104  23.234  1.00  0.00     0.338 C 
ATOM     10  O   UNL A   1      45.341  41.962  23.563  1.00  0.00    -0.246 OA
BRANCH   9  11
ATOM     11  C   UNL A   1      44.366  43.482  21.988  1.00  0.00     0.087 C 
ATOM     12  C   UNL A   1      41.957  46.565  16.798  1.00  0.00     0.047 C 
ATOM     13  C   UNL A   1      42.816  45.879  17.833  1.00  0.00    -0.019 A 
ATOM     14  C   UNL A   1      44.173  46.244  18.013  1.00  0.00     0.025 A 
ATOM     15  C   UNL A   1      42.300  44.835  18.626  1.00  0.00     0.064 A 
ATOM     16  Br  UNL A   1      44.955  47.518  16.808  1.00  0.00    -0.050 Br
ATOM     17  C   UNL A   1      44.954  45.689  19.056  1.00  0.00    -0.026 A 
ATOM     18  C   UNL A   1      43.050  44.295  19.685  1.00  0.00     0.142 A 
ATOM     19  Br  UNL A   1      40.552  44.119  18.297  1.00  0.00    -0.046 Br
ATOM     20  C   UNL A   1      46.419  46.023  19.245  1.00  0.00     0.046 C 
ATOM     21  C   UNL A   1      44.342  44.770  19.945  1.00  0.00     0.022 A 
ATOM     22  O   UNL A   1      42.461  43.301  20.418  1.00  0.00    -0.474 OA
ATOM     23  C   UNL A   1      44.999  44.337  21.176  1.00  0.00     0.027 C 
ATOM     24  C   UNL A   1      43.048  42.844  21.661  1.00  0.00     0.316 C 
BRANCH  24  25
ATOM     25  C   UNL A   1      42.016  43.032  22.780  1.00  0.00     0.430 C 
ATOM     26  F   UNL A   1      40.802  42.556  22.415  1.00  0.00    -0.167 F 
ATOM     27  F   UNL A   1      42.373  42.384  23.911  1.00  0.00    -0.167 F 
ATOM     28  F   UNL A   1      41.863  44.340  23.094  1.00  0.00    -0.167 F 
ENDBRANCH  24  25
ENDBRANCH   9  11
ENDBRANCH   8   9
ENDBRANCH   7   8
ENDBRANCH   6   7
ENDBRANCH   5   6
ENDBRANCH   4   5
ENDBRANCH   3   4
ENDBRANCH   2   3
ENDBRANCH   1   2
BRANCH   1  29
ATOM     29  C   UNL A   1      45.940  40.521  31.260  1.00  0.00     0.188 C 
BRANCH  29  30
ATOM     30  O   UNL A   1      46.470  39.676  32.277  1.00  0.00    -0.376 OA
BRANCH  30  31
ATOM     31  C   UNL A   1      46.842  38.357  31.914  1.00  0.00     0.202 C 
BRANCH  31  32
ATOM     32  C   UNL A   1      47.583  38.219  30.578  1.00  0.00     0.261 C 
BRANCH  32  33
ATOM     33  O   UNL A   1      47.726  36.880  30.082  1.00  0.00    -0.460 OA
BRANCH  33  34
ATOM     34  C   UNL A   1      47.521  36.681  28.761  1.00  0.00     0.338 C 
ATOM     35  O   UNL A   1      47.671  37.492  27.863  1.00  0.00    -0.246 OA
BRANCH  34  36
ATOM     36  C   UNL A   1      47.267  35.239  28.569  1.00  0.00     0.060 A 
ATOM     37  C   UNL A   1      47.038  34.751  27.276  1.00  0.00     0.016 A 
ATOM     38  C   UNL A   1      47.281  34.371  29.664  1.00  0.00     0.016 A 
ATOM     39  C   UNL A   1      46.797  33.391  27.079  1.00  0.00     0.010 A 
ATOM     40  C   UNL A   1      47.017  33.013  29.467  1.00  0.00     0.010 A 
ATOM     41  C   UNL A   1      46.746  32.523  28.179  1.00  0.00    -0.014 A 
BRANCH  41  42
ATOM     42  C   UNL A   1      46.212  31.150  28.009  1.00  0.00     0.031 A 
ATOM     43  C   UNL A   1      47.170  30.063  27.605  1.00  0.00     0.074 A 
ATOM     44  C   UNL A   1      44.916  30.867  28.234  1.00  0.00     0.049 A 
ATOM     45  N   UNL A   1      46.936  28.801  27.359  1.00  0.00    -0.248 NA
ATOM     46  C   UNL A   1      48.583  30.453  27.458  1.00  0.00     0.031 C 
ATOM     47  C   UNL A   1      43.904  31.826  28.676  1.00  0.00     0.029 A 
ATOM     48  N   UNL A   1      44.229  29.683  28.119  1.00  0.00    -0.354 N 
ATOM     49  C   UNL A   1      48.170  28.245  27.043  1.00  0.00     0.074 A 
ATOM     50  C   UNL A   1      49.144  29.312  27.085  1.00  0.00     0.031 C 
ATOM     51  C   UNL A   1      42.724  31.191  28.795  1.00  0.00     0.029 A 
ATOM     52  C   UNL A   1      42.888  29.790  28.406  1.00  0.00     0.049 A 
ATOM     53  H   UNL A   1      44.657  28.838  27.855  1.00  0.00     0.167 HD
ATOM     54  C   UNL A   1      48.467  26.956  26.761  1.00  0.00     0.037 A 
ATOM     55  C   UNL A   1      41.908  28.866  28.345  1.00  0.00     0.037 A 
ATOM     56  C   UNL A   1      47.494  25.898  26.710  1.00  0.00     0.049 A 
ATOM     57  C   UNL A   1      42.249  27.456  27.925  1.00  0.00     0.074 A 
ATOM     58  C   UNL A   1      47.694  24.560  26.422  1.00  0.00     0.029 A 
ATOM     59  N   UNL A   1      46.138  26.057  26.956  1.00  0.00    -0.354 N 
ATOM     60  N   UNL A   1      43.421  26.941  27.632  1.00  0.00    -0.248 NA
ATOM     61  C   UNL A   1      41.135  26.500  27.825  1.00  0.00     0.031 C 
ATOM     62  C   UNL A   1      46.454  23.919  26.442  1.00  0.00     0.029 A 
ATOM     63  C   UNL A   1      45.487  24.845  26.802  1.00  0.00     0.049 A 
ATOM     64  H   UNL A   1      45.704  26.905  27.201  1.00  0.00     0.167 HD
ATOM     65  C   UNL A   1      43.188  25.599  27.347  1.00  0.00     0.074 A 
ATOM     66  C   UNL A   1      41.767  25.378  27.510  1.00  0.00     0.031 C 
ATOM     67  C   UNL A   1      44.072  24.635  26.984  1.00  0.00     0.037 A 
BRANCH  54  68
ATOM     68  C   UNL A   1      49.902  26.612  26.477  1.00  0.00     0.058 A 
ATOM     69  C   UNL A   1      50.405  26.597  25.166  1.00  0.00     0.135 A 
ATOM     70  C   UNL A   1      50.800  26.363  27.527  1.00  0.00     0.135 A 
ATOM     71  F   UNL A   1      49.584  26.806  24.123  1.00  0.00    -0.206 F 
ATOM     72  C   UNL A   1      51.747  26.343  24.906  1.00  0.00     0.059 A 
ATOM     73  C   UNL A   1      52.152  26.132  27.292  1.00  0.00     0.059 A 
ATOM     74  F   UNL A   1      50.368  26.355  28.797  1.00  0.00    -0.206 F 
ATOM     75  C   UNL A   1      52.614  26.120  25.977  1.00  0.00     0.060 A 
BRANCH  75  76
ATOM     76  S   UNL A   1      54.360  25.832  25.619  1.00  0.00     0.124 S 
ATOM     77  O   UNL A   1      54.289  24.672  24.735  1.00  0.00    -0.237 OA
ATOM     78  O   UNL A   1      54.758  27.086  24.989  1.00  0.00    -0.237 OA
ATOM     79  O   UNL A   1      54.941  25.581  26.934  1.00  0.00    -0.744 OA
ENDBRANCH  75  76
ENDBRANCH  54  68
BRANCH  55  80
ATOM     80  C   UNL A   1      40.507  29.233  28.690  1.00  0.00     0.058 A 
ATOM     81  C   UNL A   1      39.555  29.473  27.686  1.00  0.00     0.135 A 
ATOM     82  C   UNL A   1      40.093  29.367  30.024  1.00  0.00     0.135 A 
ATOM     83  F   UNL A   1      39.904  29.372  26.395  1.00  0.00    -0.206 F 
ATOM     84  C   UNL A   1      38.249  29.844  27.991  1.00  0.00     0.059 A 
ATOM     85  C   UNL A   1      38.784  29.711  30.356  1.00  0.00     0.059 A 
ATOM     86  F   UNL A   1      40.961  29.145  31.024  1.00  0.00    -0.206 F 
ATOM     87  C   UNL A   1      37.873  29.958  29.331  1.00  0.00     0.060 A 
BRANCH  87  88
ATOM     88  S   UNL A   1      36.165  30.406  29.711  1.00  0.00     0.124 S 
ATOM     89  O   UNL A   1      35.444  29.782  28.608  1.00  0.00    -0.237 OA
ATOM     90  O   UNL A   1      35.977  29.796  31.024  1.00  0.00    -0.237 OA
ATOM     91  O   UNL A   1      36.190  31.865  29.703  1.00  0.00    -0.744 OA
ENDBRANCH  87  88
ENDBRANCH  55  80
BRANCH  67  92
ATOM     92  C   UNL A   1      43.551  23.241  26.770  1.00  0.00     0.058 A 
ATOM     93  C   UNL A   1      43.465  22.675  25.490  1.00  0.00     0.135 A 
ATOM     94  C   UNL A   1      43.227  22.428  27.869  1.00  0.00     0.135 A 
ATOM     95  F   UNL A   1      43.758  23.409  24.404  1.00  0.00    -0.206 F 
ATOM     96  C   UNL A   1      43.066  21.354  25.305  1.00  0.00     0.059 A 
ATOM     97  C   UNL A   1      42.855  21.096  27.711  1.00  0.00     0.059 A 
ATOM     98  F   UNL A   1      43.305  22.916  29.118  1.00  0.00    -0.206 F 
ATOM     99  C   UNL A   1      42.773  20.569  26.423  1.00  0.00     0.060 A 
BRANCH  99 100
ATOM    100  S   UNL A   1      42.315  18.842  26.167  1.00  0.00     0.124 S 
ATOM    101  O   UNL A   1      43.232  18.448  25.102  1.00  0.00    -0.237 OA
ATOM    102  O   UNL A   1      42.575  18.256  27.478  1.00  0.00    -0.237 OA
ATOM    103  O   UNL A   1      40.907  18.914  25.786  1.00  0.00    -0.744 OA
ENDBRANCH  99 100
ENDBRANCH  67  92
ENDBRANCH  41  42
ENDBRANCH  34  36
ENDBRANCH  33  34
ENDBRANCH  32  33
ENDBRANCH  31  32
ENDBRANCH  30  31
ENDBRANCH  29  30
ENDBRANCH   1  29
TORSDOF 24
ENDMDL
MODEL 3
REMARK VINA RESULT:      -9.4      1.713      2.447
REMARK SMILES Cc1c(Br)c(C)c2c(c1Br)O[C@H](C(F)(F)F)C(C(=O)OCCOCCOCCOCCOC(=O)c1ccc(-c3c4nc(c(-c5c(F)cc(S(=O)(=O)[O-])cc5F)c5ccc([nH]5)c(-c5c(F)cc(S(=O)(=O)[O-])cc5F)c5nc(c(-c6c(F)cc(S(=O)(=O)[O-])cc6F)c6ccc3[nH]6)C=C5)C=C4)cc1)=C2
REMARK SMILES IDX 27 1 26 2 25 3 24 4 23 5 22 6 21 7 20 8 18 9 19 10 17 11
REMARK SMILES IDX 1 12 2 13 3 14 9 15 4 16 5 17 8 18 10 19 6 20 7 21 11 22
REMARK SMILES IDX 101 23 12 24 13 25 14 26 15 27 16 28 28 29 29 30 30 31 31 32
REMARK SMILES IDX 32 33 33 34 34 35 35 36 36 37 100 38 37 39 99 40 38 41 39 42
REMARK SMILES IDX 40 43 93 44 41 45 98 46 92 47 94 48 42 49 97 50 91 51 90 52
REMARK SMILES IDX 43 54 77 55 56 56 76 57 57 58 60 59 75 60 95 61 58 62 59 63
REMARK SMILES IDX 74 65 96 66 61 67 44 68 45 69 54 70 46 71 47 72 53 73 55 74
REMARK SMILES IDX 48 75 49 76 50 77 51 78 52 79 78 80 79 81 88 82 80 83 81 84
REMARK SMILES IDX 87 85 89 86 82 87 83 88 84 89 85 90 86 91 62 92 63 93 72 94
REMARK SMILES IDX 64 95 65 96 71 97 73 98 66 99 67 100 68 101 69 102 70 103
REMARK H PARENT 94 53 60 64
REMARK Flexibility Score: inf
ROOT
ATOM      1  C   UNL A   1      41.097  20.625  27.255  1.00  0.00     0.188 C 
ENDROOT
BRANCH   1   2
ATOM      2  O   UNL A   1      39.867  21.340  27.127  1.00  0.00    -0.377 OA
BRANCH   2   3
ATOM      3  C   UNL A   1      39.263  21.392  25.845  1.00  0.00     0.188 C 
BRANCH   3   4
ATOM      4  C   UNL A   1      38.163  22.466  25.745  1.00  0.00     0.188 C 
BRANCH   4   5
ATOM      5  O   UNL A   1      36.851  21.937  25.681  1.00  0.00    -0.376 OA
BRANCH   5   6
ATOM      6  C   UNL A   1      35.774  22.525  26.394  1.00  0.00     0.202 C 
BRANCH   6   7
ATOM      7  C   UNL A   1      34.287  22.151  26.226  1.00  0.00     0.261 C 
BRANCH   7   8
ATOM      8  O   UNL A   1      33.413  23.136  25.674  1.00  0.00    -0.460 OA
BRANCH   8   9
ATOM      9  C   UNL A   1      33.717  23.638  24.466  1.00  0.00     0.338 C 
ATOM     10  O   UNL A   1      34.216  23.044  23.526  1.00  0.00    -0.246 OA
BRANCH   9  11
ATOM     11  C   UNL A   1      33.150  25.004  24.402  1.00  0.00     0.087 C 
ATOM     12  C   UNL A   1      31.007  31.005  25.681  1.00  0.00     0.047 C 
ATOM     13  C   UNL A   1      31.815  29.752  25.443  1.00  0.00    -0.019 A 
ATOM     14  C   UNL A   1      33.034  29.528  26.130  1.00  0.00     0.025 A 
ATOM     15  C   UNL A   1      31.395  28.787  24.505  1.00  0.00     0.064 A 
ATOM     16  Br  UNL A   1      33.730  30.919  27.256  1.00  0.00    -0.050 Br
ATOM     17  C   UNL A   1      33.739  28.307  25.999  1.00  0.00    -0.026 A 
ATOM     18  C   UNL A   1      32.066  27.558  24.386  1.00  0.00     0.142 A 
ATOM     19  Br  UNL A   1      29.887  29.110  23.366  1.00  0.00    -0.046 Br
ATOM     20  C   UNL A   1      35.067  28.056  26.683  1.00  0.00     0.046 C 
ATOM     21  C   UNL A   1      33.188  27.289  25.181  1.00  0.00     0.022 A 
ATOM     22  O   UNL A   1      31.575  26.670  23.468  1.00  0.00    -0.474 OA
ATOM     23  C   UNL A   1      33.722  25.930  25.180  1.00  0.00     0.027 C 
ATOM     24  C   UNL A   1      32.044  25.300  23.432  1.00  0.00     0.316 C 
BRANCH  24  25
ATOM     25  C   UNL A   1      30.838  24.372  23.622  1.00  0.00     0.430 C 
ATOM     26  F   UNL A   1      30.565  24.181  24.934  1.00  0.00    -0.167 F 
ATOM     27  F   UNL A   1      29.720  24.872  23.052  1.00  0.00    -0.167 F 
ATOM     28  F   UNL A   1      31.063  23.155  23.073  1.00  0.00    -0.167 F 
ENDBRANCH  24  25
ENDBRANCH   9  11
ENDBRANCH   8   9
ENDBRANCH   7   8
ENDBRANCH   6   7
ENDBRANCH   5   6
ENDBRANCH   4   5
ENDBRANCH   3   4
ENDBRANCH   2   3
ENDBRANCH   1   2
BRANCH   1  29
ATOM     29  C   UNL A   1      42.398  21.119  26.577  1.00  0.00     0.188 C 
BRANCH  29  30
ATOM     30  O   UNL A   1      42.569  22.533  26.599  1.00  0.00    -0.376 OA
BRANCH  30  31
ATOM     31  C   UNL A   1      42.735  23.199  25.359  1.00  0.00     0.202 C 
BRANCH  31  32
ATOM     32  C   UNL A   1      42.558  24.723  25.395  1.00  0.00     0.261 C 
BRANCH  32  33
ATOM     33  O   UNL A   1      43.732  25.477  25.731  1.00  0.00    -0.460 OA
BRANCH  33  34
ATOM     34  C   UNL A   1      44.276  25.272  26.951  1.00  0.00     0.338 C 
ATOM     35  O   UNL A   1      45.233  24.566  27.219  1.00  0.00    -0.246 OA
BRANCH  34  36
ATOM     36  C   UNL A   1      43.625  26.211  27.885  1.00  0.00     0.060 A 
ATOM     37  C   UNL A   1      43.960  27.570  27.834  1.00  0.00     0.016 A 
ATOM     38  C   UNL A   1      42.667  25.750  28.792  1.00  0.00     0.016 A 
ATOM     39  C   UNL A   1      43.353  28.470  28.710  1.00  0.00     0.010 A 
ATOM     40  C   UNL A   1      42.076  26.649  29.683  1.00  0.00     0.010 A 
ATOM     41  C   UNL A   1      42.438  28.006  29.666  1.00  0.00    -0.014 A 
BRANCH  41  42
ATOM     42  C   UNL A   1      42.014  28.897  30.773  1.00  0.00     0.031 A 
ATOM     43  C   UNL A   1      42.797  28.852  32.057  1.00  0.00     0.074 A 
ATOM     44  C   UNL A   1      40.977  29.744  30.636  1.00  0.00     0.049 A 
ATOM     45  N   UNL A   1      42.599  29.504  33.172  1.00  0.00    -0.248 NA
ATOM     46  C   UNL A   1      43.963  27.951  32.085  1.00  0.00     0.031 C 
ATOM     47  C   UNL A   1      40.175  29.912  29.425  1.00  0.00     0.029 A 
ATOM     48  N   UNL A   1      40.423  30.625  31.531  1.00  0.00    -0.354 N 
ATOM     49  C   UNL A   1      43.618  29.102  34.028  1.00  0.00     0.074 A 
ATOM     50  C   UNL A   1      44.409  28.120  33.321  1.00  0.00     0.031 C 
ATOM     51  C   UNL A   1      39.229  30.840  29.655  1.00  0.00     0.029 A 
ATOM     52  C   UNL A   1      39.337  31.309  31.036  1.00  0.00     0.049 A 
ATOM     53  H   UNL A   1      40.770  30.755  32.443  1.00  0.00     0.167 HD
ATOM     54  C   UNL A   1      43.881  29.528  35.284  1.00  0.00     0.037 A 
ATOM     55  C   UNL A   1      38.519  32.197  31.636  1.00  0.00     0.037 A 
ATOM     56  C   UNL A   1      43.086  30.499  35.988  1.00  0.00     0.049 A 
ATOM     57  C   UNL A   1      38.773  32.578  33.075  1.00  0.00     0.074 A 
ATOM     58  C   UNL A   1      43.265  30.987  37.269  1.00  0.00     0.029 A 
ATOM     59  N   UNL A   1      41.964  31.129  35.471  1.00  0.00    -0.354 N 
ATOM     60  N   UNL A   1      39.742  32.195  33.873  1.00  0.00    -0.248 NA
ATOM     61  C   UNL A   1      37.821  33.511  33.698  1.00  0.00     0.031 C 
ATOM     62  C   UNL A   1      42.222  31.875  37.547  1.00  0.00     0.029 A 
ATOM     63  C   UNL A   1      41.427  31.984  36.417  1.00  0.00     0.049 A 
ATOM     64  H   UNL A   1      41.603  30.987  34.566  1.00  0.00     0.167 HD
ATOM     65  C   UNL A   1      39.535  32.864  35.075  1.00  0.00     0.074 A 
ATOM     66  C   UNL A   1      38.354  33.682  34.900  1.00  0.00     0.031 C 
ATOM     67  C   UNL A   1      40.259  32.807  36.222  1.00  0.00     0.037 A 
BRANCH  54  68
ATOM     68  C   UNL A   1      45.074  28.946  35.987  1.00  0.00     0.058 A 
ATOM     69  C   UNL A   1      44.970  27.779  36.761  1.00  0.00     0.135 A 
ATOM     70  C   UNL A   1      46.347  29.518  35.831  1.00  0.00     0.135 A 
ATOM     71  F   UNL A   1      43.772  27.205  36.962  1.00  0.00    -0.206 F 
ATOM     72  C   UNL A   1      46.085  27.203  37.359  1.00  0.00     0.059 A 
ATOM     73  C   UNL A   1      47.480  28.944  36.399  1.00  0.00     0.059 A 
ATOM     74  F   UNL A   1      46.499  30.639  35.110  1.00  0.00    -0.206 F 
ATOM     75  C   UNL A   1      47.337  27.788  37.165  1.00  0.00     0.060 A 
BRANCH  75  76
ATOM     76  S   UNL A   1      48.776  27.000  37.917  1.00  0.00     0.124 S 
ATOM     77  O   UNL A   1      49.016  27.867  39.068  1.00  0.00    -0.237 OA
ATOM     78  O   UNL A   1      48.273  25.666  38.223  1.00  0.00    -0.237 OA
ATOM     79  O   UNL A   1      49.788  27.062  36.867  1.00  0.00    -0.744 OA
ENDBRANCH  75  76
ENDBRANCH  54  68
BRANCH  55  80
ATOM     80  C   UNL A   1      37.380  32.796  30.887  1.00  0.00     0.058 A 
ATOM     81  C   UNL A   1      37.583  33.860  29.994  1.00  0.00     0.135 A 
ATOM     82  C   UNL A   1      36.067  32.331  31.058  1.00  0.00     0.135 A 
ATOM     83  F   UNL A   1      38.816  34.350  29.805  1.00  0.00    -0.206 F 
ATOM     84  C   UNL A   1      36.526  34.449  29.307  1.00  0.00     0.059 A 
ATOM     85  C   UNL A   1      34.996  32.887  30.362  1.00  0.00     0.059 A 
ATOM     86  F   UNL A   1      35.817  31.314  31.896  1.00  0.00    -0.206 F 
ATOM     87  C   UNL A   1      35.235  33.952  29.497  1.00  0.00     0.060 A 
BRANCH  87  88
ATOM     88  S   UNL A   1      33.877  34.705  28.572  1.00  0.00     0.124 S 
ATOM     89  O   UNL A   1      34.422  34.734  27.220  1.00  0.00    -0.237 OA
ATOM     90  O   UNL A   1      32.791  33.756  28.803  1.00  0.00    -0.237 OA
ATOM     91  O   UNL A   1      33.713  36.005  29.214  1.00  0.00    -0.744 OA
ENDBRANCH  87  88
ENDBRANCH  55  80
BRANCH  67  92
ATOM     92  C   UNL A   1      39.829  33.674  37.374  1.00  0.00     0.058 A 
ATOM     93  C   UNL A   1      38.885  33.235  38.314  1.00  0.00     0.135 A 
ATOM     94  C   UNL A   1      40.443  34.918  37.594  1.00  0.00     0.135 A 
ATOM     95  F   UNL A   1      38.263  32.056  38.150  1.00  0.00    -0.206 F 
ATOM     96  C   UNL A   1      38.556  34.004  39.427  1.00  0.00     0.059 A 
ATOM     97  C   UNL A   1      40.153  35.690  38.715  1.00  0.00     0.059 A 
ATOM     98  F   UNL A   1      41.364  35.379  36.732  1.00  0.00    -0.206 F 
ATOM     99  C   UNL A   1      39.203  35.226  39.624  1.00  0.00     0.060 A 
BRANCH  99 100
ATOM    100  S   UNL A   1      38.808  36.182  41.103  1.00  0.00     0.124 S 
ATOM    101  O   UNL A   1      40.066  36.119  41.841  1.00  0.00    -0.237 OA
ATOM    102  O   UNL A   1      38.465  37.486  40.546  1.00  0.00    -0.237 OA
ATOM    103  O   UNL A   1      37.695  35.447  41.698  1.00  0.00    -0.744 OA
ENDBRANCH  99 100
ENDBRANCH  67  92
ENDBRANCH  41  42
ENDBRANCH  34  36
ENDBRANCH  33  34
ENDBRANCH  32  33
ENDBRANCH  31  32
ENDBRANCH  30  31
ENDBRANCH  29  30
ENDBRANCH   1  29
TORSDOF 24
ENDMDL
