MODEL 1
REMARK VINA RESULT:      -9.3      0.000      0.000
REMARK SMILES C[C@@H](Sc1nc2ccccc2c(=O)n1N)C(=O)OCCOCCOCCOCCOC(=O)c1ccc(-c2c3nc(c(-c4c(F)cc(S(=O)(=O)[O-])cc4F)c4ccc([nH]4)c(-c4c(F)cc(S(=O)(=O)[O-])cc4F)c4nc(c(-c5c(F)cc(S(=O)(=O)[O-])cc5F)c5ccc2[nH]5)C=C4)C=C3)cc1
REMARK SMILES IDX 24 1 23 2 22 3 21 4 20 5 19 6 18 7 16 8 17 9 2 10 1 11 3 12
REMARK SMILES IDX 4 13 5 14 14 15 6 16 12 17 7 18 11 19 13 20 8 21 10 22 9 23
REMARK SMILES IDX 15 24 25 27 26 28 27 29 28 30 29 31 30 32 31 33 32 34 33 35
REMARK SMILES IDX 34 36 98 37 35 38 97 39 36 40 37 41 38 42 91 43 39 44 96 45
REMARK SMILES IDX 90 46 92 47 40 48 95 49 89 50 88 51 41 53 75 54 54 55 74 56
REMARK SMILES IDX 55 57 58 58 73 59 93 60 56 61 57 62 72 64 94 65 59 66 42 67
REMARK SMILES IDX 43 68 52 69 44 70 45 71 51 72 53 73 46 74 47 75 48 76 49 77
REMARK SMILES IDX 50 78 76 79 77 80 86 81 78 82 79 83 85 84 87 85 80 86 81 87
REMARK SMILES IDX 82 88 83 89 84 90 60 91 61 92 70 93 62 94 63 95 69 96 71 97
REMARK SMILES IDX 64 98 65 99 66 100 67 101 68 102
REMARK H PARENT 15 25 15 26 92 52 58 63
REMARK Flexibility Score: inf
ROOT
ATOM      1  O   UNL A   1      34.501  31.901  27.371  1.00  0.00    -0.377 OA
ENDROOT
BRANCH   1   2
ATOM      2  C   UNL A   1      34.163  30.547  27.579  1.00  0.00     0.188 C 
BRANCH   2   3
ATOM      3  C   UNL A   1      33.180  29.963  26.552  1.00  0.00     0.188 C 
BRANCH   3   4
ATOM      4  O   UNL A   1      31.849  29.608  26.896  1.00  0.00    -0.376 OA
BRANCH   4   5
ATOM      5  C   UNL A   1      31.431  28.263  27.074  1.00  0.00     0.202 C 
BRANCH   5   6
ATOM      6  C   UNL A   1      32.195  27.058  26.506  1.00  0.00     0.261 C 
BRANCH   6   7
ATOM      7  O   UNL A   1      32.064  25.827  27.221  1.00  0.00    -0.462 OA
BRANCH   7   8
ATOM      8  C   UNL A   1      31.484  24.816  26.539  1.00  0.00     0.319 C 
ATOM      9  O   UNL A   1      30.312  24.471  26.682  1.00  0.00    -0.251 OA
BRANCH   8  10
ATOM     10  C   UNL A   1      32.415  24.141  25.532  1.00  0.00     0.161 C 
ATOM     11  C   UNL A   1      33.227  22.921  25.983  1.00  0.00     0.032 C 
BRANCH  10  12
ATOM     12  S   UNL A   1      31.354  23.767  24.095  1.00  0.00    -0.071 SA
BRANCH  12  13
ATOM     13  C   UNL A   1      31.175  25.363  23.430  1.00  0.00     0.191 A 
ATOM     14  N   UNL A   1      30.001  25.891  23.523  1.00  0.00    -0.222 NA
ATOM     15  N   UNL A   1      32.288  26.014  22.911  1.00  0.00    -0.202 N 
ATOM     16  C   UNL A   1      29.841  27.213  23.115  1.00  0.00     0.079 A 
ATOM     17  C   UNL A   1      32.231  27.360  22.548  1.00  0.00     0.280 A 
ATOM     18  C   UNL A   1      28.571  27.782  23.213  1.00  0.00     0.029 A 
ATOM     19  C   UNL A   1      30.907  28.001  22.682  1.00  0.00     0.068 A 
ATOM     20  O   UNL A   1      33.205  28.003  22.159  1.00  0.00    -0.267 OA
ATOM     21  C   UNL A   1      28.378  29.132  22.925  1.00  0.00     0.002 A 
ATOM     22  C   UNL A   1      30.727  29.357  22.397  1.00  0.00     0.016 A 
ATOM     23  C   UNL A   1      29.458  29.923  22.532  1.00  0.00     0.001 A 
BRANCH  15  24
ATOM     24  N   UNL A   1      33.544  25.346  22.723  1.00  0.00    -0.334 N 
ATOM     25  H   UNL A   1      34.156  25.641  22.010  1.00  0.00     0.178 HD
ATOM     26  H   UNL A   1      33.795  24.593  23.305  1.00  0.00     0.178 HD
ENDBRANCH  15  24
ENDBRANCH  12  13
ENDBRANCH  10  12
ENDBRANCH   8  10
ENDBRANCH   7   8
ENDBRANCH   6   7
ENDBRANCH   5   6
ENDBRANCH   4   5
ENDBRANCH   3   4
ENDBRANCH   2   3
ENDBRANCH   1   2
BRANCH   1  27
ATOM     27  C   UNL A   1      35.432  32.489  28.274  1.00  0.00     0.188 C 
BRANCH  27  28
ATOM     28  C   UNL A   1      34.894  33.153  29.559  1.00  0.00     0.188 C 
BRANCH  28  29
ATOM     29  O   UNL A   1      34.512  32.232  30.574  1.00  0.00    -0.376 OA
BRANCH  29  30
ATOM     30  C   UNL A   1      35.121  32.350  31.851  1.00  0.00     0.202 C 
BRANCH  30  31
ATOM     31  C   UNL A   1      36.549  31.797  32.003  1.00  0.00     0.261 C 
BRANCH  31  32
ATOM     32  O   UNL A   1      36.677  30.369  32.064  1.00  0.00    -0.460 OA
BRANCH  32  33
ATOM     33  C   UNL A   1      36.924  29.717  30.911  1.00  0.00     0.338 C 
ATOM     34  O   UNL A   1      36.097  29.191  30.177  1.00  0.00    -0.246 OA
BRANCH  33  35
ATOM     35  C   UNL A   1      38.343  29.909  30.554  1.00  0.00     0.060 A 
ATOM     36  C   UNL A   1      38.664  30.179  29.218  1.00  0.00     0.016 A 
ATOM     37  C   UNL A   1      39.351  29.782  31.514  1.00  0.00     0.016 A 
ATOM     38  C   UNL A   1      39.998  30.236  28.820  1.00  0.00     0.010 A 
ATOM     39  C   UNL A   1      40.689  29.821  31.110  1.00  0.00     0.010 A 
ATOM     40  C   UNL A   1      41.014  29.984  29.751  1.00  0.00    -0.014 A 
BRANCH  40  41
ATOM     41  C   UNL A   1      42.360  29.610  29.249  1.00  0.00     0.031 A 
ATOM     42  C   UNL A   1      42.548  28.213  28.714  1.00  0.00     0.074 A 
ATOM     43  C   UNL A   1      43.368  30.498  29.196  1.00  0.00     0.049 A 
ATOM     44  N   UNL A   1      43.610  27.652  28.199  1.00  0.00    -0.248 NA
ATOM     45  C   UNL A   1      41.373  27.326  28.774  1.00  0.00     0.031 C 
ATOM     46  C   UNL A   1      43.294  31.890  29.633  1.00  0.00     0.029 A 
ATOM     47  N   UNL A   1      44.654  30.355  28.740  1.00  0.00    -0.354 N 
ATOM     48  C   UNL A   1      43.236  26.349  27.886  1.00  0.00     0.074 A 
ATOM     49  C   UNL A   1      41.861  26.190  28.302  1.00  0.00     0.031 C 
ATOM     50  C   UNL A   1      44.486  32.477  29.420  1.00  0.00     0.029 A 
ATOM     51  C   UNL A   1      45.413  31.495  28.859  1.00  0.00     0.049 A 
ATOM     52  H   UNL A   1      45.002  29.514  28.363  1.00  0.00     0.167 HD
ATOM     53  C   UNL A   1      43.967  25.375  27.294  1.00  0.00     0.037 A 
ATOM     54  C   UNL A   1      46.709  31.712  28.555  1.00  0.00     0.037 A 
ATOM     55  C   UNL A   1      45.333  25.543  26.876  1.00  0.00     0.049 A 
ATOM     56  C   UNL A   1      47.523  30.594  27.950  1.00  0.00     0.074 A 
ATOM     57  C   UNL A   1      46.160  24.627  26.249  1.00  0.00     0.029 A 
ATOM     58  N   UNL A   1      46.078  26.700  27.048  1.00  0.00    -0.354 N 
ATOM     59  N   UNL A   1      47.152  29.373  27.641  1.00  0.00    -0.248 NA
ATOM     60  C   UNL A   1      48.929  30.889  27.643  1.00  0.00     0.031 C 
ATOM     61  C   UNL A   1      47.423  25.209  26.100  1.00  0.00     0.029 A 
ATOM     62  C   UNL A   1      47.362  26.514  26.565  1.00  0.00     0.049 A 
ATOM     63  H   UNL A   1      45.743  27.532  27.455  1.00  0.00     0.167 HD
ATOM     64  C   UNL A   1      48.265  28.772  27.058  1.00  0.00     0.074 A 
ATOM     65  C   UNL A   1      49.320  29.765  27.060  1.00  0.00     0.031 C 
ATOM     66  C   UNL A   1      48.399  27.518  26.559  1.00  0.00     0.037 A 
BRANCH  53  67
ATOM     67  C   UNL A   1      43.316  24.030  27.110  1.00  0.00     0.058 A 
ATOM     68  C   UNL A   1      43.279  23.068  28.133  1.00  0.00     0.135 A 
ATOM     69  C   UNL A   1      42.708  23.704  25.887  1.00  0.00     0.135 A 
ATOM     70  F   UNL A   1      43.864  23.316  29.316  1.00  0.00    -0.206 F 
ATOM     71  C   UNL A   1      42.695  21.821  27.938  1.00  0.00     0.059 A 
ATOM     72  C   UNL A   1      42.088  22.475  25.680  1.00  0.00     0.059 A 
ATOM     73  F   UNL A   1      42.718  24.583  24.871  1.00  0.00    -0.206 F 
ATOM     74  C   UNL A   1      42.103  21.534  26.707  1.00  0.00     0.060 A 
BRANCH  74  75
ATOM     75  S   UNL A   1      41.352  19.909  26.467  1.00  0.00     0.124 S 
ATOM     76  O   UNL A   1      42.182  19.360  25.400  1.00  0.00    -0.237 OA
ATOM     77  O   UNL A   1      41.518  19.293  27.780  1.00  0.00    -0.237 OA
ATOM     78  O   UNL A   1      39.976  20.222  26.094  1.00  0.00    -0.744 OA
ENDBRANCH  74  75
ENDBRANCH  53  67
BRANCH  54  79
ATOM     79  C   UNL A   1      47.319  33.048  28.799  1.00  0.00     0.058 A 
ATOM     80  C   UNL A   1      47.334  34.034  27.801  1.00  0.00     0.135 A 
ATOM     81  C   UNL A   1      47.910  33.364  30.034  1.00  0.00     0.135 A 
ATOM     82  F   UNL A   1      46.795  33.778  26.599  1.00  0.00    -0.206 F 
ATOM     83  C   UNL A   1      47.924  35.276  28.010  1.00  0.00     0.059 A 
ATOM     84  C   UNL A   1      48.480  34.610  30.277  1.00  0.00     0.059 A 
ATOM     85  F   UNL A   1      47.917  32.459  31.027  1.00  0.00    -0.206 F 
ATOM     86  C   UNL A   1      48.491  35.557  29.253  1.00  0.00     0.060 A 
BRANCH  86  87
ATOM     87  S   UNL A   1      49.209  37.191  29.528  1.00  0.00     0.124 S 
ATOM     88  O   UNL A   1      50.023  36.959  30.715  1.00  0.00    -0.237 OA
ATOM     89  O   UNL A   1      49.941  37.414  28.285  1.00  0.00    -0.237 OA
ATOM     90  O   UNL A   1      48.039  38.044  29.722  1.00  0.00    -0.744 OA
ENDBRANCH  86  87
ENDBRANCH  54  79
BRANCH  66  91
ATOM     91  C   UNL A   1      49.709  27.164  25.901  1.00  0.00     0.058 A 
ATOM     92  C   UNL A   1      49.925  27.325  24.524  1.00  0.00     0.135 A 
ATOM     93  C   UNL A   1      50.779  26.690  26.679  1.00  0.00     0.135 A 
ATOM     94  F   UNL A   1      48.938  27.775  23.732  1.00  0.00    -0.206 F 
ATOM     95  C   UNL A   1      51.139  26.985  23.934  1.00  0.00     0.059 A 
ATOM     96  C   UNL A   1      52.013  26.380  26.116  1.00  0.00     0.059 A 
ATOM     97  F   UNL A   1      50.636  26.535  28.005  1.00  0.00    -0.206 F 
ATOM     98  C   UNL A   1      52.176  26.511  24.739  1.00  0.00     0.060 A 
BRANCH  98  99
ATOM     99  S   UNL A   1      53.748  26.077  23.964  1.00  0.00     0.124 S 
ATOM    100  O   UNL A   1      54.573  27.231  24.309  1.00  0.00    -0.237 OA
ATOM    101  O   UNL A   1      54.093  24.828  24.633  1.00  0.00    -0.237 OA
ATOM    102  O   UNL A   1      53.407  25.952  22.550  1.00  0.00    -0.744 OA
ENDBRANCH  98  99
ENDBRANCH  66  91
ENDBRANCH  40  41
ENDBRANCH  33  35
ENDBRANCH  32  33
ENDBRANCH  31  32
ENDBRANCH  30  31
ENDBRANCH  29  30
ENDBRANCH  28  29
ENDBRANCH  27  28
ENDBRANCH   1  27
TORSDOF 26
ENDMDL
MODEL 2
REMARK VINA RESULT:      -9.0      5.128      9.412
REMARK SMILES C[C@@H](Sc1nc2ccccc2c(=O)n1N)C(=O)OCCOCCOCCOCCOC(=O)c1ccc(-c2c3nc(c(-c4c(F)cc(S(=O)(=O)[O-])cc4F)c4ccc([nH]4)c(-c4c(F)cc(S(=O)(=O)[O-])cc4F)c4nc(c(-c5c(F)cc(S(=O)(=O)[O-])cc5F)c5ccc2[nH]5)C=C4)C=C3)cc1
REMARK SMILES IDX 24 1 23 2 22 3 21 4 20 5 19 6 18 7 16 8 17 9 2 10 1 11 3 12
REMARK SMILES IDX 4 13 5 14 14 15 6 16 12 17 7 18 11 19 13 20 8 21 10 22 9 23
REMARK SMILES IDX 15 24 25 27 26 28 27 29 28 30 29 31 30 32 31 33 32 34 33 35
REMARK SMILES IDX 34 36 98 37 35 38 97 39 36 40 37 41 38 42 91 43 39 44 96 45
REMARK SMILES IDX 90 46 92 47 40 48 95 49 89 50 88 51 41 53 75 54 54 55 74 56
REMARK SMILES IDX 55 57 58 58 73 59 93 60 56 61 57 62 72 64 94 65 59 66 42 67
REMARK SMILES IDX 43 68 52 69 44 70 45 71 51 72 53 73 46 74 47 75 48 76 49 77
REMARK SMILES IDX 50 78 76 79 77 80 86 81 78 82 79 83 85 84 87 85 80 86 81 87
REMARK SMILES IDX 82 88 83 89 84 90 60 91 61 92 70 93 62 94 63 95 69 96 71 97
REMARK SMILES IDX 64 98 65 99 66 100 67 101 68 102
REMARK H PARENT 15 25 15 26 92 52 58 63
REMARK Flexibility Score: inf
ROOT
ATOM      1  O   UNL A   1      30.968  26.185  26.864  1.00  0.00    -0.377 OA
ENDROOT
BRANCH   1   2
ATOM      2  C   UNL A   1      30.550  26.134  25.518  1.00  0.00     0.188 C 
BRANCH   2   3
ATOM      3  C   UNL A   1      30.618  24.741  24.873  1.00  0.00     0.188 C 
BRANCH   3   4
ATOM      4  O   UNL A   1      30.360  23.554  25.608  1.00  0.00    -0.376 OA
BRANCH   4   5
ATOM      5  C   UNL A   1      31.381  22.637  25.975  1.00  0.00     0.202 C 
BRANCH   5   6
ATOM      6  C   UNL A   1      32.261  22.808  27.221  1.00  0.00     0.261 C 
BRANCH   6   7
ATOM      7  O   UNL A   1      33.580  23.317  27.003  1.00  0.00    -0.462 OA
BRANCH   7   8
ATOM      8  C   UNL A   1      34.486  22.418  26.562  1.00  0.00     0.319 C 
ATOM      9  O   UNL A   1      34.571  21.265  26.980  1.00  0.00    -0.251 OA
BRANCH   8  10
ATOM     10  C   UNL A   1      35.397  22.954  25.458  1.00  0.00     0.161 C 
ATOM     11  C   UNL A   1      36.872  22.540  25.454  1.00  0.00     0.032 C 
BRANCH  10  12
ATOM     12  S   UNL A   1      34.553  22.505  23.901  1.00  0.00    -0.071 SA
BRANCH  12  13
ATOM     13  C   UNL A   1      33.960  24.066  23.421  1.00  0.00     0.191 A 
ATOM     14  N   UNL A   1      34.228  25.047  24.215  1.00  0.00    -0.222 NA
ATOM     15  N   UNL A   1      33.308  24.202  22.201  1.00  0.00    -0.202 N 
ATOM     16  C   UNL A   1      33.879  26.334  23.812  1.00  0.00     0.079 A 
ATOM     17  C   UNL A   1      32.989  25.462  21.691  1.00  0.00     0.280 A 
ATOM     18  C   UNL A   1      34.166  27.393  24.674  1.00  0.00     0.029 A 
ATOM     19  C   UNL A   1      33.322  26.606  22.563  1.00  0.00     0.068 A 
ATOM     20  O   UNL A   1      32.486  25.641  20.582  1.00  0.00    -0.267 OA
ATOM     21  C   UNL A   1      33.941  28.710  24.274  1.00  0.00     0.002 A 
ATOM     22  C   UNL A   1      33.098  27.922  22.149  1.00  0.00     0.016 A 
ATOM     23  C   UNL A   1      33.421  28.974  23.006  1.00  0.00     0.001 A 
BRANCH  15  24
ATOM     24  N   UNL A   1      32.931  23.068  21.406  1.00  0.00    -0.334 N 
ATOM     25  H   UNL A   1      33.624  22.499  21.000  1.00  0.00     0.178 HD
ATOM     26  H   UNL A   1      31.979  22.858  21.267  1.00  0.00     0.178 HD
ENDBRANCH  15  24
ENDBRANCH  12  13
ENDBRANCH  10  12
ENDBRANCH   8  10
ENDBRANCH   7   8
ENDBRANCH   6   7
ENDBRANCH   5   6
ENDBRANCH   4   5
ENDBRANCH   3   4
ENDBRANCH   2   3
ENDBRANCH   1   2
BRANCH   1  27
ATOM     27  C   UNL A   1      31.738  27.312  27.269  1.00  0.00     0.188 C 
BRANCH  27  28
ATOM     28  C   UNL A   1      31.397  28.692  26.667  1.00  0.00     0.188 C 
BRANCH  28  29
ATOM     29  O   UNL A   1      31.966  29.790  27.370  1.00  0.00    -0.376 OA
BRANCH  29  30
ATOM     30  C   UNL A   1      32.333  30.945  26.628  1.00  0.00     0.202 C 
BRANCH  30  31
ATOM     31  C   UNL A   1      33.007  32.092  27.401  1.00  0.00     0.261 C 
BRANCH  31  32
ATOM     32  O   UNL A   1      34.417  31.963  27.635  1.00  0.00    -0.460 OA
BRANCH  32  33
ATOM     33  C   UNL A   1      34.840  31.979  28.914  1.00  0.00     0.338 C 
ATOM     34  O   UNL A   1      34.213  32.379  29.886  1.00  0.00    -0.246 OA
BRANCH  33  35
ATOM     35  C   UNL A   1      36.115  31.241  28.999  1.00  0.00     0.060 A 
ATOM     36  C   UNL A   1      36.111  29.967  29.581  1.00  0.00     0.016 A 
ATOM     37  C   UNL A   1      37.310  31.812  28.552  1.00  0.00     0.016 A 
ATOM     38  C   UNL A   1      37.314  29.297  29.799  1.00  0.00     0.010 A 
ATOM     39  C   UNL A   1      38.517  31.147  28.788  1.00  0.00     0.010 A 
ATOM     40  C   UNL A   1      38.526  29.917  29.470  1.00  0.00    -0.014 A 
BRANCH  40  41
ATOM     41  C   UNL A   1      39.773  29.413  30.095  1.00  0.00     0.031 A 
ATOM     42  C   UNL A   1      40.204  30.030  31.403  1.00  0.00     0.074 A 
ATOM     43  C   UNL A   1      40.468  28.390  29.567  1.00  0.00     0.049 A 
ATOM     44  N   UNL A   1      41.232  29.751  32.159  1.00  0.00    -0.248 NA
ATOM     45  C   UNL A   1      39.354  31.114  31.926  1.00  0.00     0.031 C 
ATOM     46  C   UNL A   1      40.125  27.679  28.338  1.00  0.00     0.029 A 
ATOM     47  N   UNL A   1      41.609  27.769  30.009  1.00  0.00    -0.354 N 
ATOM     48  C   UNL A   1      41.161  30.629  33.235  1.00  0.00     0.074 A 
ATOM     49  C   UNL A   1      40.009  31.475  33.017  1.00  0.00     0.031 C 
ATOM     50  C   UNL A   1      41.037  26.712  28.125  1.00  0.00     0.029 A 
ATOM     51  C   UNL A   1      42.041  26.756  29.187  1.00  0.00     0.049 A 
ATOM     52  H   UNL A   1      42.075  28.025  30.839  1.00  0.00     0.167 HD
ATOM     53  C   UNL A   1      41.973  30.718  34.314  1.00  0.00     0.037 A 
ATOM     54  C   UNL A   1      43.129  25.963  29.282  1.00  0.00     0.037 A 
ATOM     55  C   UNL A   1      43.114  29.868  34.529  1.00  0.00     0.049 A 
ATOM     56  C   UNL A   1      44.054  26.119  30.464  1.00  0.00     0.074 A 
ATOM     57  C   UNL A   1      43.993  29.860  35.598  1.00  0.00     0.029 A 
ATOM     58  N   UNL A   1      43.540  28.879  33.654  1.00  0.00    -0.354 N 
ATOM     59  N   UNL A   1      43.964  26.940  31.484  1.00  0.00    -0.248 NA
ATOM     60  C   UNL A   1      45.223  25.230  30.511  1.00  0.00     0.031 C 
ATOM     61  C   UNL A   1      44.986  28.910  35.339  1.00  0.00     0.029 A 
ATOM     62  C   UNL A   1      44.684  28.273  34.145  1.00  0.00     0.049 A 
ATOM     63  H   UNL A   1      43.095  28.643  32.808  1.00  0.00     0.167 HD
ATOM     64  C   UNL A   1      45.037  26.632  32.318  1.00  0.00     0.074 A 
ATOM     65  C   UNL A   1      45.760  25.550  31.680  1.00  0.00     0.031 C 
ATOM     66  C   UNL A   1      45.385  27.185  33.506  1.00  0.00     0.037 A 
BRANCH  53  67
ATOM     67  C   UNL A   1      41.682  31.801  35.319  1.00  0.00     0.058 A 
ATOM     68  C   UNL A   1      42.402  33.007  35.351  1.00  0.00     0.135 A 
ATOM     69  C   UNL A   1      40.654  31.630  36.260  1.00  0.00     0.135 A 
ATOM     70  F   UNL A   1      43.410  33.216  34.489  1.00  0.00    -0.206 F 
ATOM     71  C   UNL A   1      42.136  33.988  36.301  1.00  0.00     0.059 A 
ATOM     72  C   UNL A   1      40.349  32.611  37.199  1.00  0.00     0.059 A 
ATOM     73  F   UNL A   1      39.937  30.495  36.280  1.00  0.00    -0.206 F 
ATOM     74  C   UNL A   1      41.108  33.780  37.222  1.00  0.00     0.060 A 
BRANCH  74  75
ATOM     75  S   UNL A   1      40.777  35.059  38.452  1.00  0.00     0.124 S 
ATOM     76  O   UNL A   1      40.538  36.223  37.604  1.00  0.00    -0.237 OA
ATOM     77  O   UNL A   1      39.608  34.530  39.146  1.00  0.00    -0.237 OA
ATOM     78  O   UNL A   1      42.005  35.100  39.239  1.00  0.00    -0.744 OA
ENDBRANCH  74  75
ENDBRANCH  53  67
BRANCH  54  79
ATOM     79  C   UNL A   1      43.398  24.937  28.237  1.00  0.00     0.058 A 
ATOM     80  C   UNL A   1      44.147  25.244  27.091  1.00  0.00     0.135 A 
ATOM     81  C   UNL A   1      42.903  23.628  28.359  1.00  0.00     0.135 A 
ATOM     82  F   UNL A   1      44.631  26.484  26.920  1.00  0.00    -0.206 F 
ATOM     83  C   UNL A   1      44.381  24.300  26.097  1.00  0.00     0.059 A 
ATOM     84  C   UNL A   1      43.149  22.658  27.393  1.00  0.00     0.059 A 
ATOM     85  F   UNL A   1      42.185  23.278  29.439  1.00  0.00    -0.206 F 
ATOM     86  C   UNL A   1      43.882  23.007  26.259  1.00  0.00     0.060 A 
BRANCH  86  87
ATOM     87  S   UNL A   1      44.237  21.777  24.986  1.00  0.00     0.124 S 
ATOM     88  O   UNL A   1      43.307  20.712  25.337  1.00  0.00    -0.237 OA
ATOM     89  O   UNL A   1      43.935  22.512  23.761  1.00  0.00    -0.237 OA
ATOM     90  O   UNL A   1      45.651  21.475  25.195  1.00  0.00    -0.744 OA
ENDBRANCH  86  87
ENDBRANCH  54  79
BRANCH  66  91
ATOM     91  C   UNL A   1      46.559  26.586  34.239  1.00  0.00     0.058 A 
ATOM     92  C   UNL A   1      46.428  25.469  35.078  1.00  0.00     0.135 A 
ATOM     93  C   UNL A   1      47.845  27.123  34.062  1.00  0.00     0.135 A 
ATOM     94  F   UNL A   1      45.224  24.913  35.283  1.00  0.00    -0.206 F 
ATOM     95  C   UNL A   1      47.523  24.935  35.752  1.00  0.00     0.059 A 
ATOM     96  C   UNL A   1      48.959  26.582  34.696  1.00  0.00     0.059 A 
ATOM     97  F   UNL A   1      48.034  28.180  33.255  1.00  0.00    -0.206 F 
ATOM     98  C   UNL A   1      48.784  25.500  35.556  1.00  0.00     0.060 A 
BRANCH  98  99
ATOM     99  S   UNL A   1      50.197  24.796  36.432  1.00  0.00     0.124 S 
ATOM    100  O   UNL A   1      49.566  24.289  37.646  1.00  0.00    -0.237 OA
ATOM    101  O   UNL A   1      50.674  23.784  35.495  1.00  0.00    -0.237 OA
ATOM    102  O   UNL A   1      51.086  25.939  36.619  1.00  0.00    -0.744 OA
ENDBRANCH  98  99
ENDBRANCH  66  91
ENDBRANCH  40  41
ENDBRANCH  33  35
ENDBRANCH  32  33
ENDBRANCH  31  32
ENDBRANCH  30  31
ENDBRANCH  29  30
ENDBRANCH  28  29
ENDBRANCH  27  28
ENDBRANCH   1  27
TORSDOF 26
ENDMDL
MODEL 3
REMARK VINA RESULT:      -8.9      6.248     13.868
REMARK SMILES C[C@@H](Sc1nc2ccccc2c(=O)n1N)C(=O)OCCOCCOCCOCCOC(=O)c1ccc(-c2c3nc(c(-c4c(F)cc(S(=O)(=O)[O-])cc4F)c4ccc([nH]4)c(-c4c(F)cc(S(=O)(=O)[O-])cc4F)c4nc(c(-c5c(F)cc(S(=O)(=O)[O-])cc5F)c5ccc2[nH]5)C=C4)C=C3)cc1
REMARK SMILES IDX 24 1 23 2 22 3 21 4 20 5 19 6 18 7 16 8 17 9 2 10 1 11 3 12
REMARK SMILES IDX 4 13 5 14 14 15 6 16 12 17 7 18 11 19 13 20 8 21 10 22 9 23
REMARK SMILES IDX 15 24 25 27 26 28 27 29 28 30 29 31 30 32 31 33 32 34 33 35
REMARK SMILES IDX 34 36 98 37 35 38 97 39 36 40 37 41 38 42 91 43 39 44 96 45
REMARK SMILES IDX 90 46 92 47 40 48 95 49 89 50 88 51 41 53 75 54 54 55 74 56
REMARK SMILES IDX 55 57 58 58 73 59 93 60 56 61 57 62 72 64 94 65 59 66 42 67
REMARK SMILES IDX 43 68 52 69 44 70 45 71 51 72 53 73 46 74 47 75 48 76 49 77
REMARK SMILES IDX 50 78 76 79 77 80 86 81 78 82 79 83 85 84 87 85 80 86 81 87
REMARK SMILES IDX 82 88 83 89 84 90 60 91 61 92 70 93 62 94 63 95 69 96 71 97
REMARK SMILES IDX 64 98 65 99 66 100 67 101 68 102
REMARK H PARENT 15 25 15 26 92 52 58 63
REMARK Flexibility Score: inf
ROOT
ATOM      1  O   UNL A   1      44.648  19.928  24.205  1.00  0.00    -0.377 OA
ENDROOT
BRANCH   1   2
ATOM      2  C   UNL A   1      45.915  20.362  24.645  1.00  0.00     0.188 C 
BRANCH   2   3
ATOM      3  C   UNL A   1      46.113  21.886  24.640  1.00  0.00     0.188 C 
BRANCH   3   4
ATOM      4  O   UNL A   1      45.345  22.752  25.461  1.00  0.00    -0.376 OA
BRANCH   4   5
ATOM      5  C   UNL A   1      45.820  23.264  26.698  1.00  0.00     0.202 C 
BRANCH   5   6
ATOM      6  C   UNL A   1      46.674  24.534  26.814  1.00  0.00     0.261 C 
BRANCH   6   7
ATOM      7  O   UNL A   1      47.483  24.862  25.681  1.00  0.00    -0.462 OA
BRANCH   7   8
ATOM      8  C   UNL A   1      47.213  26.049  25.096  1.00  0.00     0.319 C 
ATOM      9  O   UNL A   1      47.177  26.225  23.880  1.00  0.00    -0.251 OA
BRANCH   8  10
ATOM     10  C   UNL A   1      46.919  27.171  26.091  1.00  0.00     0.161 C 
ATOM     11  C   UNL A   1      47.822  28.409  26.093  1.00  0.00     0.032 C 
BRANCH  10  12
ATOM     12  S   UNL A   1      45.167  27.600  25.804  1.00  0.00    -0.071 SA
BRANCH  12  13
ATOM     13  C   UNL A   1      44.794  28.369  27.318  1.00  0.00     0.191 A 
ATOM     14  N   UNL A   1      45.461  27.959  28.344  1.00  0.00    -0.222 NA
ATOM     15  N   UNL A   1      43.877  29.412  27.345  1.00  0.00    -0.202 N 
ATOM     16  C   UNL A   1      45.284  28.629  29.553  1.00  0.00     0.079 A 
ATOM     17  C   UNL A   1      43.694  30.180  28.496  1.00  0.00     0.280 A 
ATOM     18  C   UNL A   1      46.003  28.183  30.662  1.00  0.00     0.029 A 
ATOM     19  C   UNL A   1      44.476  29.758  29.676  1.00  0.00     0.068 A 
ATOM     20  O   UNL A   1      42.955  31.163  28.549  1.00  0.00    -0.267 OA
ATOM     21  C   UNL A   1      45.949  28.884  31.867  1.00  0.00     0.002 A 
ATOM     22  C   UNL A   1      44.419  30.473  30.876  1.00  0.00     0.016 A 
ATOM     23  C   UNL A   1      45.170  30.036  31.969  1.00  0.00     0.001 A 
BRANCH  15  24
ATOM     24  N   UNL A   1      43.076  29.755  26.205  1.00  0.00    -0.334 N 
ATOM     25  H   UNL A   1      43.132  29.214  25.384  1.00  0.00     0.178 HD
ATOM     26  H   UNL A   1      42.472  30.531  26.242  1.00  0.00     0.178 HD
ENDBRANCH  15  24
ENDBRANCH  12  13
ENDBRANCH  10  12
ENDBRANCH   8  10
ENDBRANCH   7   8
ENDBRANCH   6   7
ENDBRANCH   5   6
ENDBRANCH   4   5
ENDBRANCH   3   4
ENDBRANCH   2   3
ENDBRANCH   1   2
BRANCH   1  27
ATOM     27  C   UNL A   1      44.061  18.823  24.886  1.00  0.00     0.188 C 
BRANCH  27  28
ATOM     28  C   UNL A   1      43.020  19.107  25.991  1.00  0.00     0.188 C 
BRANCH  28  29
ATOM     29  O   UNL A   1      42.559  20.452  26.024  1.00  0.00    -0.376 OA
BRANCH  29  30
ATOM     30  C   UNL A   1      42.002  20.941  27.236  1.00  0.00     0.202 C 
BRANCH  30  31
ATOM     31  C   UNL A   1      42.716  22.125  27.910  1.00  0.00     0.261 C 
BRANCH  31  32
ATOM     32  O   UNL A   1      41.874  23.159  28.442  1.00  0.00    -0.460 OA
BRANCH  32  33
ATOM     33  C   UNL A   1      41.230  23.950  27.563  1.00  0.00     0.338 C 
ATOM     34  O   UNL A   1      40.745  23.610  26.491  1.00  0.00    -0.246 OA
BRANCH  33  35
ATOM     35  C   UNL A   1      41.011  25.270  28.188  1.00  0.00     0.060 A 
ATOM     36  C   UNL A   1      42.116  25.947  28.720  1.00  0.00     0.016 A 
ATOM     37  C   UNL A   1      39.729  25.816  28.288  1.00  0.00     0.016 A 
ATOM     38  C   UNL A   1      41.930  27.131  29.433  1.00  0.00     0.010 A 
ATOM     39  C   UNL A   1      39.542  26.994  29.019  1.00  0.00     0.010 A 
ATOM     40  C   UNL A   1      40.635  27.619  29.646  1.00  0.00    -0.014 A 
BRANCH  40  41
ATOM     41  C   UNL A   1      40.415  28.590  30.747  1.00  0.00     0.031 A 
ATOM     42  C   UNL A   1      41.299  28.486  31.964  1.00  0.00     0.074 A 
ATOM     43  C   UNL A   1      39.514  29.583  30.646  1.00  0.00     0.049 A 
ATOM     44  N   UNL A   1      41.326  29.225  33.042  1.00  0.00    -0.248 NA
ATOM     45  C   UNL A   1      42.287  27.393  31.964  1.00  0.00     0.031 C 
ATOM     46  C   UNL A   1      38.640  29.819  29.499  1.00  0.00     0.029 A 
ATOM     47  N   UNL A   1      39.194  30.585  31.527  1.00  0.00    -0.354 N 
ATOM     48  C   UNL A   1      42.319  28.681  33.849  1.00  0.00     0.074 A 
ATOM     49  C   UNL A   1      42.847  27.528  33.155  1.00  0.00     0.031 C 
ATOM     50  C   UNL A   1      37.882  30.903  29.746  1.00  0.00     0.029 A 
ATOM     51  C   UNL A   1      38.199  31.420  31.078  1.00  0.00     0.049 A 
ATOM     52  H   UNL A   1      39.637  30.696  32.400  1.00  0.00     0.167 HD
ATOM     53  C   UNL A   1      42.762  29.108  35.056  1.00  0.00     0.037 A 
ATOM     54  C   UNL A   1      37.609  32.473  31.680  1.00  0.00     0.037 A 
ATOM     55  C   UNL A   1      42.237  30.261  35.738  1.00  0.00     0.049 A 
ATOM     56  C   UNL A   1      38.078  32.896  33.050  1.00  0.00     0.074 A 
ATOM     57  C   UNL A   1      42.627  30.792  36.955  1.00  0.00     0.029 A 
ATOM     58  N   UNL A   1      41.203  31.057  35.267  1.00  0.00    -0.354 N 
ATOM     59  N   UNL A   1      39.031  32.385  33.795  1.00  0.00    -0.248 NA
ATOM     60  C   UNL A   1      37.396  34.047  33.657  1.00  0.00     0.031 C 
ATOM     61  C   UNL A   1      41.787  31.870  37.249  1.00  0.00     0.029 A 
ATOM     62  C   UNL A   1      40.923  32.058  36.180  1.00  0.00     0.049 A 
ATOM     63  H   UNL A   1      40.737  30.928  34.409  1.00  0.00     0.167 HD
ATOM     64  C   UNL A   1      39.096  33.184  34.934  1.00  0.00     0.074 A 
ATOM     65  C   UNL A   1      38.085  34.209  34.779  1.00  0.00     0.031 C 
ATOM     66  C   UNL A   1      39.922  33.084  36.005  1.00  0.00     0.037 A 
BRANCH  53  67
ATOM     67  C   UNL A   1      43.834  28.295  35.732  1.00  0.00     0.058 A 
ATOM     68  C   UNL A   1      45.190  28.658  35.686  1.00  0.00     0.135 A 
ATOM     69  C   UNL A   1      43.493  27.138  36.450  1.00  0.00     0.135 A 
ATOM     70  F   UNL A   1      45.578  29.743  34.996  1.00  0.00    -0.206 F 
ATOM     71  C   UNL A   1      46.172  27.883  36.296  1.00  0.00     0.059 A 
ATOM     72  C   UNL A   1      44.454  26.366  37.096  1.00  0.00     0.059 A 
ATOM     73  F   UNL A   1      42.212  26.740  36.524  1.00  0.00    -0.206 F 
ATOM     74  C   UNL A   1      45.793  26.738  36.998  1.00  0.00     0.060 A 
BRANCH  74  75
ATOM     75  S   UNL A   1      47.078  25.740  37.782  1.00  0.00     0.124 S 
ATOM     76  O   UNL A   1      46.765  24.409  37.270  1.00  0.00    -0.237 OA
ATOM     77  O   UNL A   1      48.300  26.346  37.265  1.00  0.00    -0.237 OA
ATOM     78  O   UNL A   1      46.838  25.935  39.208  1.00  0.00    -0.744 OA
ENDBRANCH  74  75
ENDBRANCH  53  67
BRANCH  54  79
ATOM     79  C   UNL A   1      36.520  33.216  30.987  1.00  0.00     0.058 A 
ATOM     80  C   UNL A   1      35.186  33.109  31.407  1.00  0.00     0.135 A 
ATOM     81  C   UNL A   1      36.791  34.041  29.884  1.00  0.00     0.135 A 
ATOM     82  F   UNL A   1      34.872  32.322  32.448  1.00  0.00    -0.206 F 
ATOM     83  C   UNL A   1      34.158  33.778  30.751  1.00  0.00     0.059 A 
ATOM     84  C   UNL A   1      35.784  34.744  29.229  1.00  0.00     0.059 A 
ATOM     85  F   UNL A   1      38.052  34.185  29.444  1.00  0.00    -0.206 F 
ATOM     86  C   UNL A   1      34.468  34.597  29.665  1.00  0.00     0.060 A 
BRANCH  86  87
ATOM     87  S   UNL A   1      33.131  35.501  28.854  1.00  0.00     0.124 S 
ATOM     88  O   UNL A   1      32.473  34.440  28.101  1.00  0.00    -0.237 OA
ATOM     89  O   UNL A   1      32.389  36.032  29.993  1.00  0.00    -0.237 OA
ATOM     90  O   UNL A   1      33.837  36.498  28.053  1.00  0.00    -0.744 OA
ENDBRANCH  86  87
ENDBRANCH  54  79
BRANCH  66  91
ATOM     91  C   UNL A   1      39.825  34.152  37.064  1.00  0.00     0.058 A 
ATOM     92  C   UNL A   1      40.480  35.388  36.946  1.00  0.00     0.135 A 
ATOM     93  C   UNL A   1      39.026  33.943  38.201  1.00  0.00     0.135 A 
ATOM     94  F   UNL A   1      41.256  35.644  35.881  1.00  0.00    -0.206 F 
ATOM     95  C   UNL A   1      40.384  36.359  37.939  1.00  0.00     0.059 A 
ATOM     96  C   UNL A   1      38.887  34.914  39.188  1.00  0.00     0.059 A 
ATOM     97  F   UNL A   1      38.360  32.787  38.358  1.00  0.00    -0.206 F 
ATOM     98  C   UNL A   1      39.586  36.111  39.058  1.00  0.00     0.060 A 
BRANCH  98  99
ATOM     99  S   UNL A   1      39.467  37.379  40.337  1.00  0.00     0.124 S 
ATOM    100  O   UNL A   1      38.832  38.472  39.607  1.00  0.00    -0.237 OA
ATOM    101  O   UNL A   1      38.640  36.728  41.348  1.00  0.00    -0.237 OA
ATOM    102  O   UNL A   1      40.856  37.607  40.722  1.00  0.00    -0.744 OA
ENDBRANCH  98  99
ENDBRANCH  66  91
ENDBRANCH  40  41
ENDBRANCH  33  35
ENDBRANCH  32  33
ENDBRANCH  31  32
ENDBRANCH  30  31
ENDBRANCH  29  30
ENDBRANCH  28  29
ENDBRANCH  27  28
ENDBRANCH   1  27
TORSDOF 26
ENDMDL
