MODEL 1
REMARK VINA RESULT:      -9.8      0.000      0.000
REMARK SMILES C[C@@H](C(=O)OCCOCCOCCOCCOC(=O)c1ccc(-c2c3nc(c(-c4c(F)cc(S(=O)(=O)[O-])cc4F)c4ccc([nH]4)c(-c4c(F)cc(S(=O)(=O)[O-])cc4F)c4nc(c(-c5c(F)cc(S(=O)(=O)[O-])cc5F)c5ccc2[nH]5)C=C4)C=C3)cc1)c1ccc(C[C@@H]2CCC[C@@H]2O)cc1F
REMARK SMILES IDX 10 1 9 2 8 3 7 4 6 5 5 6 3 7 4 8 2 9 1 10 86 11 87 12 98 13
REMARK SMILES IDX 88 14 97 15 99 16 89 17 90 18 91 19 92 20 95 21 93 22 94 23
REMARK SMILES IDX 96 24 11 26 12 27 13 28 14 29 15 30 16 31 17 32 18 33 19 34
REMARK SMILES IDX 20 35 21 36 85 37 22 38 84 39 23 40 24 41 25 42 78 43 26 44
REMARK SMILES IDX 83 45 77 46 79 47 27 48 82 49 76 50 75 51 28 53 62 54 41 55
REMARK SMILES IDX 61 56 42 57 45 58 60 59 80 60 43 61 44 62 59 64 81 65 46 66
REMARK SMILES IDX 29 67 30 68 39 69 31 70 32 71 38 72 40 73 33 74 34 75 35 76
REMARK SMILES IDX 36 77 37 78 63 79 64 80 73 81 65 82 66 83 72 84 74 85 67 86
REMARK SMILES IDX 68 87 69 88 70 89 71 90 47 91 48 92 57 93 49 94 50 95 56 96
REMARK SMILES IDX 58 97 51 98 52 99 53 100 54 101 55 102
REMARK H PARENT 96 25 79 52 45 63
REMARK Flexibility Score: inf
ROOT
ATOM      1  C   UNL A   1      37.357  21.148  24.588  1.00  0.00     0.188 C 
ENDROOT
BRANCH   1   2
ATOM      2  C   UNL A   1      36.055  20.973  25.381  1.00  0.00     0.188 C 
BRANCH   2   3
ATOM      3  O   UNL A   1      35.064  21.975  25.309  1.00  0.00    -0.376 OA
BRANCH   3   4
ATOM      4  C   UNL A   1      34.125  22.002  24.241  1.00  0.00     0.202 C 
BRANCH   4   5
ATOM      5  C   UNL A   1      32.742  22.693  24.261  1.00  0.00     0.261 C 
BRANCH   5   6
ATOM      6  O   UNL A   1      32.726  24.124  24.221  1.00  0.00    -0.463 OA
BRANCH   6   7
ATOM      7  C   UNL A   1      32.898  24.798  25.384  1.00  0.00     0.313 C 
ATOM      8  O   UNL A   1      33.993  25.051  25.878  1.00  0.00    -0.252 OA
BRANCH   7   9
ATOM      9  C   UNL A   1      31.583  25.350  25.956  1.00  0.00     0.129 C 
ATOM     10  C   UNL A   1      30.559  24.256  26.308  1.00  0.00     0.025 C 
BRANCH   9  11
ATOM     11  C   UNL A   1      31.017  26.536  25.166  1.00  0.00     0.002 A 
ATOM     12  C   UNL A   1      29.961  26.382  24.254  1.00  0.00     0.008 A 
ATOM     13  C   UNL A   1      31.590  27.810  25.244  1.00  0.00     0.127 A 
ATOM     14  C   UNL A   1      29.502  27.438  23.468  1.00  0.00     0.004 A 
ATOM     15  C   UNL A   1      31.190  28.853  24.400  1.00  0.00     0.043 A 
ATOM     16  F   UNL A   1      32.606  28.043  26.087  1.00  0.00    -0.207 F 
ATOM     17  C   UNL A   1      30.186  28.649  23.447  1.00  0.00    -0.045 A 
BRANCH  17  18
ATOM     18  C   UNL A   1      29.926  29.643  22.343  1.00  0.00     0.041 C 
BRANCH  18  19
ATOM     19  C   UNL A   1      28.491  30.239  22.264  1.00  0.00     0.022 C 
ATOM     20  C   UNL A   1      27.968  30.561  20.854  1.00  0.00     0.007 C 
ATOM     21  C   UNL A   1      28.235  31.560  23.002  1.00  0.00     0.117 C 
ATOM     22  C   UNL A   1      28.142  32.072  20.644  1.00  0.00     0.003 C 
ATOM     23  C   UNL A   1      28.561  32.653  21.991  1.00  0.00     0.032 C 
BRANCH  21  24
ATOM     24  O   UNL A   1      28.944  31.678  24.217  1.00  0.00    -0.393 OA
ATOM     25  H   UNL A   1      29.172  30.794  24.546  1.00  0.00     0.210 HD
ENDBRANCH  21  24
ENDBRANCH  18  19
ENDBRANCH  17  18
ENDBRANCH   9  11
ENDBRANCH   7   9
ENDBRANCH   6   7
ENDBRANCH   5   6
ENDBRANCH   4   5
ENDBRANCH   3   4
ENDBRANCH   2   3
ENDBRANCH   1   2
BRANCH   1  26
ATOM     26  O   UNL A   1      38.483  21.477  25.373  1.00  0.00    -0.377 OA
BRANCH  26  27
ATOM     27  C   UNL A   1      38.408  22.636  26.195  1.00  0.00     0.188 C 
BRANCH  27  28
ATOM     28  C   UNL A   1      39.668  23.194  26.896  1.00  0.00     0.188 C 
BRANCH  28  29
ATOM     29  O   UNL A   1      40.556  22.215  27.419  1.00  0.00    -0.376 OA
BRANCH  29  30
ATOM     30  C   UNL A   1      41.867  22.126  26.879  1.00  0.00     0.202 C 
BRANCH  30  31
ATOM     31  C   UNL A   1      42.288  23.188  25.851  1.00  0.00     0.261 C 
BRANCH  31  32
ATOM     32  O   UNL A   1      42.934  24.360  26.371  1.00  0.00    -0.460 OA
BRANCH  32  33
ATOM     33  C   UNL A   1      42.405  25.562  26.061  1.00  0.00     0.338 C 
ATOM     34  O   UNL A   1      41.900  25.889  24.999  1.00  0.00    -0.246 OA
BRANCH  33  35
ATOM     35  C   UNL A   1      42.346  26.363  27.302  1.00  0.00     0.060 A 
ATOM     36  C   UNL A   1      41.578  25.895  28.377  1.00  0.00     0.016 A 
ATOM     37  C   UNL A   1      43.053  27.563  27.408  1.00  0.00     0.016 A 
ATOM     38  C   UNL A   1      41.483  26.647  29.547  1.00  0.00     0.010 A 
ATOM     39  C   UNL A   1      42.937  28.327  28.571  1.00  0.00     0.010 A 
ATOM     40  C   UNL A   1      42.120  27.891  29.631  1.00  0.00    -0.014 A 
BRANCH  40  41
ATOM     41  C   UNL A   1      41.764  28.827  30.726  1.00  0.00     0.031 A 
ATOM     42  C   UNL A   1      42.574  28.776  31.993  1.00  0.00     0.074 A 
ATOM     43  C   UNL A   1      40.765  29.718  30.595  1.00  0.00     0.049 A 
ATOM     44  N   UNL A   1      42.420  29.442  33.107  1.00  0.00    -0.248 NA
ATOM     45  C   UNL A   1      43.713  27.839  32.005  1.00  0.00     0.031 C 
ATOM     46  C   UNL A   1      39.940  29.894  29.401  1.00  0.00     0.029 A 
ATOM     47  N   UNL A   1      40.269  30.636  31.487  1.00  0.00    -0.354 N 
ATOM     48  C   UNL A   1      43.434  29.003  33.952  1.00  0.00     0.074 A 
ATOM     49  C   UNL A   1      44.175  27.989  33.236  1.00  0.00     0.031 C 
ATOM     50  C   UNL A   1      39.026  30.851  29.643  1.00  0.00     0.029 A 
ATOM     51  C   UNL A   1      39.177  31.327  31.017  1.00  0.00     0.049 A 
ATOM     52  H   UNL A   1      40.658  30.784  32.380  1.00  0.00     0.167 HD
ATOM     53  C   UNL A   1      43.727  29.416  35.208  1.00  0.00     0.037 A 
ATOM     54  C   UNL A   1      38.378  32.220  31.638  1.00  0.00     0.037 A 
ATOM     55  C   UNL A   1      42.980  30.423  35.915  1.00  0.00     0.049 A 
ATOM     56  C   UNL A   1      38.674  32.608  33.066  1.00  0.00     0.074 A 
ATOM     57  C   UNL A   1      43.199  30.918  37.189  1.00  0.00     0.029 A 
ATOM     58  N   UNL A   1      41.867  31.083  35.416  1.00  0.00    -0.354 N 
ATOM     59  N   UNL A   1      39.645  32.199  33.850  1.00  0.00    -0.248 NA
ATOM     60  C   UNL A   1      37.769  33.581  33.694  1.00  0.00     0.031 C 
ATOM     61  C   UNL A   1      42.183  31.833  37.482  1.00  0.00     0.029 A 
ATOM     62  C   UNL A   1      41.372  31.960  36.366  1.00  0.00     0.049 A 
ATOM     63  H   UNL A   1      41.485  30.946  34.519  1.00  0.00     0.167 HD
ATOM     64  C   UNL A   1      39.485  32.890  35.049  1.00  0.00     0.074 A 
ATOM     65  C   UNL A   1      38.333  33.749  34.883  1.00  0.00     0.031 C 
ATOM     66  C   UNL A   1      40.227  32.820  36.182  1.00  0.00     0.037 A 
BRANCH  53  67
ATOM     67  C   UNL A   1      44.884  28.757  35.907  1.00  0.00     0.058 A 
ATOM     68  C   UNL A   1      44.722  27.594  36.676  1.00  0.00     0.135 A 
ATOM     69  C   UNL A   1      46.182  29.278  35.775  1.00  0.00     0.135 A 
ATOM     70  F   UNL A   1      43.501  27.065  36.854  1.00  0.00    -0.206 F 
ATOM     71  C   UNL A   1      45.800  26.985  37.311  1.00  0.00     0.059 A 
ATOM     72  C   UNL A   1      47.280  28.668  36.376  1.00  0.00     0.059 A 
ATOM     73  F   UNL A   1      46.394  30.392  35.056  1.00  0.00    -0.206 F 
ATOM     74  C   UNL A   1      47.076  27.528  37.151  1.00  0.00     0.060 A 
BRANCH  74  75
ATOM     75  S   UNL A   1      48.465  26.718  37.971  1.00  0.00     0.124 S 
ATOM     76  O   UNL A   1      48.823  25.694  36.995  1.00  0.00    -0.237 OA
ATOM     77  O   UNL A   1      49.419  27.812  38.121  1.00  0.00    -0.237 OA
ATOM     78  O   UNL A   1      47.884  26.220  39.215  1.00  0.00    -0.744 OA
ENDBRANCH  74  75
ENDBRANCH  53  67
BRANCH  54  79
ATOM     79  C   UNL A   1      37.204  32.794  30.923  1.00  0.00     0.058 A 
ATOM     80  C   UNL A   1      37.344  33.877  30.044  1.00  0.00     0.135 A 
ATOM     81  C   UNL A   1      35.913  32.275  31.117  1.00  0.00     0.135 A 
ATOM     82  F   UNL A   1      38.553  34.420  29.834  1.00  0.00    -0.206 F 
ATOM     83  C   UNL A   1      36.247  34.436  29.394  1.00  0.00     0.059 A 
ATOM     84  C   UNL A   1      34.806  32.797  30.456  1.00  0.00     0.059 A 
ATOM     85  F   UNL A   1      35.723  31.234  31.944  1.00  0.00    -0.206 F 
ATOM     86  C   UNL A   1      34.982  33.885  29.604  1.00  0.00     0.060 A 
BRANCH  86  87
ATOM     87  S   UNL A   1      33.573  34.588  28.718  1.00  0.00     0.124 S 
ATOM     88  O   UNL A   1      34.187  35.727  28.044  1.00  0.00    -0.237 OA
ATOM     89  O   UNL A   1      33.170  33.479  27.859  1.00  0.00    -0.237 OA
ATOM     90  O   UNL A   1      32.635  34.918  29.787  1.00  0.00    -0.744 OA
ENDBRANCH  86  87
ENDBRANCH  54  79
BRANCH  66  91
ATOM     91  C   UNL A   1      39.851  33.730  37.323  1.00  0.00     0.058 A 
ATOM     92  C   UNL A   1      39.034  33.300  38.380  1.00  0.00     0.135 A 
ATOM     93  C   UNL A   1      40.369  35.035  37.387  1.00  0.00     0.135 A 
ATOM     94  F   UNL A   1      38.509  32.065  38.369  1.00  0.00    -0.206 F 
ATOM     95  C   UNL A   1      38.722  34.139  39.446  1.00  0.00     0.059 A 
ATOM     96  C   UNL A   1      40.098  35.879  38.459  1.00  0.00     0.059 A 
ATOM     97  F   UNL A   1      41.166  35.496  36.410  1.00  0.00    -0.206 F 
ATOM     98  C   UNL A   1      39.263  35.426  39.479  1.00  0.00     0.060 A 
BRANCH  98  99
ATOM     99  S   UNL A   1      38.878  36.491  40.885  1.00  0.00     0.124 S 
ATOM    100  O   UNL A   1      40.149  36.502  41.602  1.00  0.00    -0.237 OA
ATOM    101  O   UNL A   1      38.507  37.743  40.235  1.00  0.00    -0.237 OA
ATOM    102  O   UNL A   1      37.787  35.790  41.556  1.00  0.00    -0.744 OA
ENDBRANCH  98  99
ENDBRANCH  66  91
ENDBRANCH  40  41
ENDBRANCH  33  35
ENDBRANCH  32  33
ENDBRANCH  31  32
ENDBRANCH  30  31
ENDBRANCH  29  30
ENDBRANCH  28  29
ENDBRANCH  27  28
ENDBRANCH  26  27
ENDBRANCH   1  26
TORSDOF 27
ENDMDL
MODEL 2
REMARK VINA RESULT:      -9.7      2.036      4.506
REMARK SMILES C[C@@H](C(=O)OCCOCCOCCOCCOC(=O)c1ccc(-c2c3nc(c(-c4c(F)cc(S(=O)(=O)[O-])cc4F)c4ccc([nH]4)c(-c4c(F)cc(S(=O)(=O)[O-])cc4F)c4nc(c(-c5c(F)cc(S(=O)(=O)[O-])cc5F)c5ccc2[nH]5)C=C4)C=C3)cc1)c1ccc(C[C@@H]2CCC[C@@H]2O)cc1F
REMARK SMILES IDX 10 1 9 2 8 3 7 4 6 5 5 6 3 7 4 8 2 9 1 10 86 11 87 12 98 13
REMARK SMILES IDX 88 14 97 15 99 16 89 17 90 18 91 19 92 20 95 21 93 22 94 23
REMARK SMILES IDX 96 24 11 26 12 27 13 28 14 29 15 30 16 31 17 32 18 33 19 34
REMARK SMILES IDX 20 35 21 36 85 37 22 38 84 39 23 40 24 41 25 42 78 43 26 44
REMARK SMILES IDX 83 45 77 46 79 47 27 48 82 49 76 50 75 51 28 53 62 54 41 55
REMARK SMILES IDX 61 56 42 57 45 58 60 59 80 60 43 61 44 62 59 64 81 65 46 66
REMARK SMILES IDX 29 67 30 68 39 69 31 70 32 71 38 72 40 73 33 74 34 75 35 76
REMARK SMILES IDX 36 77 37 78 63 79 64 80 73 81 65 82 66 83 72 84 74 85 67 86
REMARK SMILES IDX 68 87 69 88 70 89 71 90 47 91 48 92 57 93 49 94 50 95 56 96
REMARK SMILES IDX 58 97 51 98 52 99 53 100 54 101 55 102
REMARK H PARENT 96 25 79 52 45 63
REMARK Flexibility Score: inf
ROOT
ATOM      1  C   UNL A   1      36.802  21.519  24.493  1.00  0.00     0.188 C 
ENDROOT
BRANCH   1   2
ATOM      2  C   UNL A   1      35.705  22.325  25.202  1.00  0.00     0.188 C 
BRANCH   2   3
ATOM      3  O   UNL A   1      35.156  23.455  24.558  1.00  0.00    -0.376 OA
BRANCH   3   4
ATOM      4  C   UNL A   1      35.125  24.722  25.203  1.00  0.00     0.202 C 
BRANCH   4   5
ATOM      5  C   UNL A   1      34.124  25.866  24.917  1.00  0.00     0.261 C 
BRANCH   5   6
ATOM      6  O   UNL A   1      33.153  25.641  23.890  1.00  0.00    -0.463 OA
BRANCH   6   7
ATOM      7  C   UNL A   1      31.917  26.173  24.051  1.00  0.00     0.313 C 
ATOM      8  O   UNL A   1      31.566  27.252  23.582  1.00  0.00    -0.252 OA
BRANCH   7   9
ATOM      9  C   UNL A   1      30.941  25.220  24.758  1.00  0.00     0.129 C 
ATOM     10  C   UNL A   1      30.544  25.685  26.171  1.00  0.00     0.025 C 
BRANCH   9  11
ATOM     11  C   UNL A   1      31.335  23.742  24.651  1.00  0.00     0.002 A 
ATOM     12  C   UNL A   1      31.724  22.995  25.774  1.00  0.00     0.008 A 
ATOM     13  C   UNL A   1      31.421  23.094  23.414  1.00  0.00     0.127 A 
ATOM     14  C   UNL A   1      32.169  21.678  25.669  1.00  0.00     0.004 A 
ATOM     15  C   UNL A   1      31.944  21.801  23.291  1.00  0.00     0.043 A 
ATOM     16  F   UNL A   1      31.072  23.736  22.290  1.00  0.00    -0.207 F 
ATOM     17  C   UNL A   1      32.395  21.109  24.421  1.00  0.00    -0.045 A 
BRANCH  17  18
ATOM     18  C   UNL A   1      33.215  19.849  24.304  1.00  0.00     0.041 C 
BRANCH  18  19
ATOM     19  C   UNL A   1      32.429  18.508  24.233  1.00  0.00     0.022 C 
ATOM     20  C   UNL A   1      32.868  17.412  25.219  1.00  0.00     0.007 C 
ATOM     21  C   UNL A   1      32.444  17.752  22.897  1.00  0.00     0.117 C 
ATOM     22  C   UNL A   1      33.757  16.434  24.438  1.00  0.00     0.003 C 
ATOM     23  C   UNL A   1      33.663  16.837  22.970  1.00  0.00     0.032 C 
BRANCH  21  24
ATOM     24  O   UNL A   1      32.433  18.597  21.767  1.00  0.00    -0.393 OA
ATOM     25  H   UNL A   1      33.240  19.135  21.757  1.00  0.00     0.210 HD
ENDBRANCH  21  24
ENDBRANCH  18  19
ENDBRANCH  17  18
ENDBRANCH   9  11
ENDBRANCH   7   9
ENDBRANCH   6   7
ENDBRANCH   5   6
ENDBRANCH   4   5
ENDBRANCH   3   4
ENDBRANCH   2   3
ENDBRANCH   1   2
BRANCH   1  26
ATOM     26  O   UNL A   1      38.031  21.465  25.184  1.00  0.00    -0.377 OA
BRANCH  26  27
ATOM     27  C   UNL A   1      38.262  22.422  26.211  1.00  0.00     0.188 C 
BRANCH  27  28
ATOM     28  C   UNL A   1      39.697  22.755  26.679  1.00  0.00     0.188 C 
BRANCH  28  29
ATOM     29  O   UNL A   1      40.417  21.671  27.250  1.00  0.00    -0.376 OA
BRANCH  29  30
ATOM     30  C   UNL A   1      41.742  21.422  26.803  1.00  0.00     0.202 C 
BRANCH  30  31
ATOM     31  C   UNL A   1      42.488  22.572  26.108  1.00  0.00     0.261 C 
BRANCH  31  32
ATOM     32  O   UNL A   1      42.846  23.692  26.932  1.00  0.00    -0.460 OA
BRANCH  32  33
ATOM     33  C   UNL A   1      42.925  24.906  26.347  1.00  0.00     0.338 C 
ATOM     34  O   UNL A   1      43.221  25.143  25.187  1.00  0.00    -0.246 OA
BRANCH  33  35
ATOM     35  C   UNL A   1      42.384  25.900  27.297  1.00  0.00     0.060 A 
ATOM     36  C   UNL A   1      42.814  27.231  27.207  1.00  0.00     0.016 A 
ATOM     37  C   UNL A   1      41.448  25.524  28.263  1.00  0.00     0.016 A 
ATOM     38  C   UNL A   1      42.340  28.181  28.111  1.00  0.00     0.010 A 
ATOM     39  C   UNL A   1      40.993  26.472  29.184  1.00  0.00     0.010 A 
ATOM     40  C   UNL A   1      41.467  27.796  29.134  1.00  0.00    -0.014 A 
BRANCH  40  41
ATOM     41  C   UNL A   1      41.220  28.714  30.274  1.00  0.00     0.031 A 
ATOM     42  C   UNL A   1      42.092  28.579  31.494  1.00  0.00     0.074 A 
ATOM     43  C   UNL A   1      40.266  29.661  30.224  1.00  0.00     0.049 A 
ATOM     44  N   UNL A   1      42.033  29.216  32.633  1.00  0.00    -0.248 NA
ATOM     45  C   UNL A   1      43.176  27.583  31.416  1.00  0.00     0.031 C 
ATOM     46  C   UNL A   1      39.390  29.919  29.082  1.00  0.00     0.029 A 
ATOM     47  N   UNL A   1      39.868  30.574  31.168  1.00  0.00    -0.354 N 
ATOM     48  C   UNL A   1      43.064  28.696  33.409  1.00  0.00     0.074 A 
ATOM     49  C   UNL A   1      43.710  27.669  32.624  1.00  0.00     0.031 C 
ATOM     50  C   UNL A   1      38.544  30.915  29.401  1.00  0.00     0.029 A 
ATOM     51  C   UNL A   1      38.793  31.337  30.779  1.00  0.00     0.049 A 
ATOM     52  H   UNL A   1      40.311  30.673  32.042  1.00  0.00     0.167 HD
ATOM     53  C   UNL A   1      43.444  29.052  34.658  1.00  0.00     0.037 A 
ATOM     54  C   UNL A   1      38.078  32.251  31.467  1.00  0.00     0.037 A 
ATOM     55  C   UNL A   1      42.793  30.074  35.435  1.00  0.00     0.049 A 
ATOM     56  C   UNL A   1      38.469  32.576  32.889  1.00  0.00     0.074 A 
ATOM     57  C   UNL A   1      43.105  30.516  36.708  1.00  0.00     0.029 A 
ATOM     58  N   UNL A   1      41.692  30.808  35.016  1.00  0.00    -0.354 N 
ATOM     59  N   UNL A   1      39.456  32.091  33.606  1.00  0.00    -0.248 NA
ATOM     60  C   UNL A   1      37.653  33.575  33.593  1.00  0.00     0.031 C 
ATOM     61  C   UNL A   1      42.157  31.473  37.083  1.00  0.00     0.029 A 
ATOM     62  C   UNL A   1      41.297  31.680  36.016  1.00  0.00     0.049 A 
ATOM     63  H   UNL A   1      41.257  30.721  34.137  1.00  0.00     0.167 HD
ATOM     64  C   UNL A   1      39.398  32.750  34.832  1.00  0.00     0.074 A 
ATOM     65  C   UNL A   1      38.287  33.675  34.753  1.00  0.00     0.031 C 
ATOM     66  C   UNL A   1      40.193  32.605  35.921  1.00  0.00     0.037 A 
BRANCH  53  67
ATOM     67  C   UNL A   1      44.599  28.311  35.274  1.00  0.00     0.058 A 
ATOM     68  C   UNL A   1      45.919  28.781  35.178  1.00  0.00     0.135 A 
ATOM     69  C   UNL A   1      44.378  27.130  36.002  1.00  0.00     0.135 A 
ATOM     70  F   UNL A   1      46.192  29.892  34.476  1.00  0.00    -0.206 F 
ATOM     71  C   UNL A   1      46.980  28.095  35.759  1.00  0.00     0.059 A 
ATOM     72  C   UNL A   1      45.421  26.444  36.618  1.00  0.00     0.059 A 
ATOM     73  F   UNL A   1      43.137  26.632  36.122  1.00  0.00    -0.206 F 
ATOM     74  C   UNL A   1      46.720  26.929  36.481  1.00  0.00     0.060 A 
BRANCH  74  75
ATOM     75  S   UNL A   1      48.108  26.059  37.240  1.00  0.00     0.124 S 
ATOM     76  O   UNL A   1      47.748  24.666  36.994  1.00  0.00    -0.237 OA
ATOM     77  O   UNL A   1      49.245  26.564  36.477  1.00  0.00    -0.237 OA
ATOM     78  O   UNL A   1      48.054  26.482  38.636  1.00  0.00    -0.744 OA
ENDBRANCH  74  75
ENDBRANCH  53  67
BRANCH  54  79
ATOM     79  C   UNL A   1      36.902  32.909  30.835  1.00  0.00     0.058 A 
ATOM     80  C   UNL A   1      35.591  32.550  31.180  1.00  0.00     0.135 A 
ATOM     81  C   UNL A   1      37.067  33.908  29.860  1.00  0.00     0.135 A 
ATOM     82  F   UNL A   1      35.377  31.592  32.094  1.00  0.00    -0.206 F 
ATOM     83  C   UNL A   1      34.487  33.141  30.572  1.00  0.00     0.059 A 
ATOM     84  C   UNL A   1      35.979  34.535  29.260  1.00  0.00     0.059 A 
ATOM     85  F   UNL A   1      38.300  34.295  29.496  1.00  0.00    -0.206 F 
ATOM     86  C   UNL A   1      34.692  34.138  29.616  1.00  0.00     0.060 A 
BRANCH  86  87
ATOM     87  S   UNL A   1      33.252  34.932  28.870  1.00  0.00     0.124 S 
ATOM     88  O   UNL A   1      33.846  36.126  28.281  1.00  0.00    -0.237 OA
ATOM     89  O   UNL A   1      32.797  33.913  27.929  1.00  0.00    -0.237 OA
ATOM     90  O   UNL A   1      32.368  35.163  30.009  1.00  0.00    -0.744 OA
ENDBRANCH  86  87
ENDBRANCH  54  79
BRANCH  66  91
ATOM     91  C   UNL A   1      39.927  33.496  37.106  1.00  0.00     0.058 A 
ATOM     92  C   UNL A   1      40.608  34.709  37.295  1.00  0.00     0.135 A 
ATOM     93  C   UNL A   1      38.929  33.156  38.036  1.00  0.00     0.135 A 
ATOM     94  F   UNL A   1      41.574  35.080  36.440  1.00  0.00    -0.206 F 
ATOM     95  C   UNL A   1      40.328  35.539  38.375  1.00  0.00     0.059 A 
ATOM     96  C   UNL A   1      38.608  33.988  39.104  1.00  0.00     0.059 A 
ATOM     97  F   UNL A   1      38.236  32.015  37.899  1.00  0.00    -0.206 F 
ATOM     98  C   UNL A   1      39.323  35.173  39.272  1.00  0.00     0.060 A 
BRANCH  98  99
ATOM     99  S   UNL A   1      38.947  36.279  40.650  1.00  0.00     0.124 S 
ATOM    100  O   UNL A   1      40.204  36.263  41.391  1.00  0.00    -0.237 OA
ATOM    101  O   UNL A   1      38.630  37.529  39.967  1.00  0.00    -0.237 OA
ATOM    102  O   UNL A   1      37.821  35.628  41.311  1.00  0.00    -0.744 OA
ENDBRANCH  98  99
ENDBRANCH  66  91
ENDBRANCH  40  41
ENDBRANCH  33  35
ENDBRANCH  32  33
ENDBRANCH  31  32
ENDBRANCH  30  31
ENDBRANCH  29  30
ENDBRANCH  28  29
ENDBRANCH  27  28
ENDBRANCH  26  27
ENDBRANCH   1  26
TORSDOF 27
ENDMDL
MODEL 3
REMARK VINA RESULT:      -8.8      6.116     11.012
REMARK SMILES C[C@@H](C(=O)OCCOCCOCCOCCOC(=O)c1ccc(-c2c3nc(c(-c4c(F)cc(S(=O)(=O)[O-])cc4F)c4ccc([nH]4)c(-c4c(F)cc(S(=O)(=O)[O-])cc4F)c4nc(c(-c5c(F)cc(S(=O)(=O)[O-])cc5F)c5ccc2[nH]5)C=C4)C=C3)cc1)c1ccc(C[C@@H]2CCC[C@@H]2O)cc1F
REMARK SMILES IDX 10 1 9 2 8 3 7 4 6 5 5 6 3 7 4 8 2 9 1 10 86 11 87 12 98 13
REMARK SMILES IDX 88 14 97 15 99 16 89 17 90 18 91 19 92 20 95 21 93 22 94 23
REMARK SMILES IDX 96 24 11 26 12 27 13 28 14 29 15 30 16 31 17 32 18 33 19 34
REMARK SMILES IDX 20 35 21 36 85 37 22 38 84 39 23 40 24 41 25 42 78 43 26 44
REMARK SMILES IDX 83 45 77 46 79 47 27 48 82 49 76 50 75 51 28 53 62 54 41 55
REMARK SMILES IDX 61 56 42 57 45 58 60 59 80 60 43 61 44 62 59 64 81 65 46 66
REMARK SMILES IDX 29 67 30 68 39 69 31 70 32 71 38 72 40 73 33 74 34 75 35 76
REMARK SMILES IDX 36 77 37 78 63 79 64 80 73 81 65 82 66 83 72 84 74 85 67 86
REMARK SMILES IDX 68 87 69 88 70 89 71 90 47 91 48 92 57 93 49 94 50 95 56 96
REMARK SMILES IDX 58 97 51 98 52 99 53 100 54 101 55 102
REMARK H PARENT 96 25 79 52 45 63
REMARK Flexibility Score: inf
ROOT
ATOM      1  C   UNL A   1      36.640  21.381  24.979  1.00  0.00     0.188 C 
ENDROOT
BRANCH   1   2
ATOM      2  C   UNL A   1      35.850  22.566  25.550  1.00  0.00     0.188 C 
BRANCH   2   3
ATOM      3  O   UNL A   1      35.529  23.651  24.705  1.00  0.00    -0.376 OA
BRANCH   3   4
ATOM      4  C   UNL A   1      35.238  24.936  25.241  1.00  0.00     0.202 C 
BRANCH   4   5
ATOM      5  C   UNL A   1      33.914  25.716  25.068  1.00  0.00     0.261 C 
BRANCH   5   6
ATOM      6  O   UNL A   1      33.047  25.303  24.006  1.00  0.00    -0.463 OA
BRANCH   6   7
ATOM      7  C   UNL A   1      31.789  25.807  23.976  1.00  0.00     0.313 C 
ATOM      8  O   UNL A   1      31.474  26.837  23.387  1.00  0.00    -0.252 OA
BRANCH   7   9
ATOM      9  C   UNL A   1      30.755  24.877  24.630  1.00  0.00     0.129 C 
ATOM     10  C   UNL A   1      30.043  25.506  25.841  1.00  0.00     0.025 C 
BRANCH   9  11
ATOM     11  C   UNL A   1      31.264  23.447  24.850  1.00  0.00     0.002 A 
ATOM     12  C   UNL A   1      31.551  22.952  26.131  1.00  0.00     0.008 A 
ATOM     13  C   UNL A   1      31.558  22.600  23.776  1.00  0.00     0.127 A 
ATOM     14  C   UNL A   1      32.098  21.685  26.330  1.00  0.00     0.004 A 
ATOM     15  C   UNL A   1      32.183  21.361  23.961  1.00  0.00     0.043 A 
ATOM     16  F   UNL A   1      31.318  22.996  22.518  1.00  0.00    -0.207 F 
ATOM     17  C   UNL A   1      32.527  20.926  25.246  1.00  0.00    -0.045 A 
BRANCH  17  18
ATOM     18  C   UNL A   1      33.442  19.748  25.466  1.00  0.00     0.041 C 
BRANCH  18  19
ATOM     19  C   UNL A   1      33.752  18.862  24.226  1.00  0.00     0.022 C 
ATOM     20  C   UNL A   1      32.639  17.894  23.789  1.00  0.00     0.007 C 
ATOM     21  C   UNL A   1      34.965  17.925  24.313  1.00  0.00     0.117 C 
ATOM     22  C   UNL A   1      33.010  16.508  24.332  1.00  0.00     0.003 C 
ATOM     23  C   UNL A   1      34.424  16.624  24.895  1.00  0.00     0.032 C 
BRANCH  21  24
ATOM     24  O   UNL A   1      36.048  18.466  25.039  1.00  0.00    -0.393 OA
ATOM     25  H   UNL A   1      36.131  19.412  24.840  1.00  0.00     0.210 HD
ENDBRANCH  21  24
ENDBRANCH  18  19
ENDBRANCH  17  18
ENDBRANCH   9  11
ENDBRANCH   7   9
ENDBRANCH   6   7
ENDBRANCH   5   6
ENDBRANCH   4   5
ENDBRANCH   3   4
ENDBRANCH   2   3
ENDBRANCH   1   2
BRANCH   1  26
ATOM     26  O   UNL A   1      37.837  21.087  25.667  1.00  0.00    -0.377 OA
BRANCH  26  27
ATOM     27  C   UNL A   1      38.690  22.170  26.015  1.00  0.00     0.188 C 
BRANCH  27  28
ATOM     28  C   UNL A   1      40.215  21.962  26.170  1.00  0.00     0.188 C 
BRANCH  28  29
ATOM     29  O   UNL A   1      40.617  21.280  27.350  1.00  0.00    -0.376 OA
BRANCH  29  30
ATOM     30  C   UNL A   1      40.893  19.888  27.273  1.00  0.00     0.202 C 
BRANCH  30  31
ATOM     31  C   UNL A   1      41.587  19.368  26.005  1.00  0.00     0.261 C 
BRANCH  31  32
ATOM     32  O   UNL A   1      43.019  19.286  26.049  1.00  0.00    -0.460 OA
BRANCH  32  33
ATOM     33  C   UNL A   1      43.720  19.962  25.114  1.00  0.00     0.338 C 
ATOM     34  O   UNL A   1      43.989  19.586  23.985  1.00  0.00    -0.246 OA
BRANCH  33  35
ATOM     35  C   UNL A   1      43.930  21.337  25.615  1.00  0.00     0.060 A 
ATOM     36  C   UNL A   1      43.865  22.407  24.713  1.00  0.00     0.016 A 
ATOM     37  C   UNL A   1      44.179  21.569  26.970  1.00  0.00     0.016 A 
ATOM     38  C   UNL A   1      44.090  23.710  25.156  1.00  0.00     0.010 A 
ATOM     39  C   UNL A   1      44.429  22.872  27.408  1.00  0.00     0.010 A 
ATOM     40  C   UNL A   1      44.422  23.943  26.495  1.00  0.00    -0.014 A 
BRANCH  40  41
ATOM     41  C   UNL A   1      44.973  25.261  26.897  1.00  0.00     0.031 A 
ATOM     42  C   UNL A   1      44.095  26.178  27.707  1.00  0.00     0.074 A 
ATOM     43  C   UNL A   1      46.225  25.631  26.576  1.00  0.00     0.049 A 
ATOM     44  N   UNL A   1      44.323  27.396  28.122  1.00  0.00    -0.248 NA
ATOM     45  C   UNL A   1      42.777  25.645  28.098  1.00  0.00     0.031 C 
ATOM     46  C   UNL A   1      47.185  24.814  25.836  1.00  0.00     0.029 A 
ATOM     47  N   UNL A   1      46.899  26.800  26.825  1.00  0.00    -0.354 N 
ATOM     48  C   UNL A   1      43.179  27.778  28.815  1.00  0.00     0.074 A 
ATOM     49  C   UNL A   1      42.246  26.676  28.736  1.00  0.00     0.031 C 
ATOM     50  C   UNL A   1      48.320  25.516  25.674  1.00  0.00     0.029 A 
ATOM     51  C   UNL A   1      48.155  26.843  26.266  1.00  0.00     0.049 A 
ATOM     52  H   UNL A   1      46.519  27.540  27.353  1.00  0.00     0.167 HD
ATOM     53  C   UNL A   1      42.933  28.938  29.468  1.00  0.00     0.037 A 
ATOM     54  C   UNL A   1      49.053  27.849  26.216  1.00  0.00     0.037 A 
ATOM     55  C   UNL A   1      43.866  30.032  29.539  1.00  0.00     0.049 A 
ATOM     56  C   UNL A   1      48.727  29.164  26.883  1.00  0.00     0.074 A 
ATOM     57  C   UNL A   1      43.717  31.248  30.181  1.00  0.00     0.029 A 
ATOM     58  N   UNL A   1      45.118  30.047  28.940  1.00  0.00    -0.354 N 
ATOM     59  N   UNL A   1      47.649  29.507  27.550  1.00  0.00    -0.248 NA
ATOM     60  C   UNL A   1      49.739  30.225  26.794  1.00  0.00     0.031 C 
ATOM     61  C   UNL A   1      44.852  32.022  29.921  1.00  0.00     0.029 A 
ATOM     62  C   UNL A   1      45.739  31.261  29.175  1.00  0.00     0.049 A 
ATOM     63  H   UNL A   1      45.505  29.304  28.424  1.00  0.00     0.167 HD
ATOM     64  C   UNL A   1      47.870  30.812  27.986  1.00  0.00     0.074 A 
ATOM     65  C   UNL A   1      49.187  31.189  27.518  1.00  0.00     0.031 C 
ATOM     66  C   UNL A   1      47.058  31.621  28.711  1.00  0.00     0.037 A 
BRANCH  53  67
ATOM     67  C   UNL A   1      41.593  29.095  30.132  1.00  0.00     0.058 A 
ATOM     68  C   UNL A   1      40.446  29.464  29.411  1.00  0.00     0.135 A 
ATOM     69  C   UNL A   1      41.446  28.837  31.505  1.00  0.00     0.135 A 
ATOM     70  F   UNL A   1      40.531  29.743  28.100  1.00  0.00    -0.206 F 
ATOM     71  C   UNL A   1      39.208  29.596  30.031  1.00  0.00     0.059 A 
ATOM     72  C   UNL A   1      40.211  28.933  32.140  1.00  0.00     0.059 A 
ATOM     73  F   UNL A   1      42.510  28.487  32.245  1.00  0.00    -0.206 F 
ATOM     74  C   UNL A   1      39.099  29.325  31.396  1.00  0.00     0.060 A 
BRANCH  74  75
ATOM     75  S   UNL A   1      37.483  29.489  32.181  1.00  0.00     0.124 S 
ATOM     76  O   UNL A   1      37.472  28.333  33.071  1.00  0.00    -0.237 OA
ATOM     77  O   UNL A   1      37.586  30.790  32.834  1.00  0.00    -0.237 OA
ATOM     78  O   UNL A   1      36.550  29.425  31.059  1.00  0.00    -0.744 OA
ENDBRANCH  74  75
ENDBRANCH  53  67
BRANCH  54  79
ATOM     79  C   UNL A   1      50.339  27.665  25.489  1.00  0.00     0.058 A 
ATOM     80  C   UNL A   1      50.401  27.723  24.089  1.00  0.00     0.135 A 
ATOM     81  C   UNL A   1      51.535  27.416  26.183  1.00  0.00     0.135 A 
ATOM     82  F   UNL A   1      49.286  27.944  23.377  1.00  0.00    -0.206 F 
ATOM     83  C   UNL A   1      51.595  27.525  23.402  1.00  0.00     0.059 A 
ATOM     84  C   UNL A   1      52.747  27.245  25.521  1.00  0.00     0.059 A 
ATOM     85  F   UNL A   1      51.535  27.356  27.524  1.00  0.00    -0.206 F 
ATOM     86  C   UNL A   1      52.765  27.291  24.128  1.00  0.00     0.060 A 
BRANCH  86  87
ATOM     87  S   UNL A   1      54.316  27.084  23.227  1.00  0.00     0.124 S 
ATOM     88  O   UNL A   1      53.857  26.474  21.985  1.00  0.00    -0.237 OA
ATOM     89  O   UNL A   1      54.795  28.460  23.125  1.00  0.00    -0.237 OA
ATOM     90  O   UNL A   1      55.100  26.219  24.103  1.00  0.00    -0.744 OA
ENDBRANCH  86  87
ENDBRANCH  54  79
BRANCH  66  91
ATOM     91  C   UNL A   1      47.581  32.983  29.088  1.00  0.00     0.058 A 
ATOM     92  C   UNL A   1      47.349  34.116  28.293  1.00  0.00     0.135 A 
ATOM     93  C   UNL A   1      48.273  33.164  30.298  1.00  0.00     0.135 A 
ATOM     94  F   UNL A   1      46.696  34.000  27.126  1.00  0.00    -0.206 F 
ATOM     95  C   UNL A   1      47.808  35.375  28.670  1.00  0.00     0.059 A 
ATOM     96  C   UNL A   1      48.711  34.419  30.711  1.00  0.00     0.059 A 
ATOM     97  F   UNL A   1      48.513  32.118  31.104  1.00  0.00    -0.206 F 
ATOM     98  C   UNL A   1      48.484  35.517  29.883  1.00  0.00     0.060 A 
BRANCH  98  99
ATOM     99  S   UNL A   1      49.042  37.162  30.376  1.00  0.00     0.124 S 
ATOM    100  O   UNL A   1      50.326  36.862  31.001  1.00  0.00    -0.237 OA
ATOM    101  O   UNL A   1      49.107  37.864  29.098  1.00  0.00    -0.237 OA
ATOM    102  O   UNL A   1      47.995  37.620  31.284  1.00  0.00    -0.744 OA
ENDBRANCH  98  99
ENDBRANCH  66  91
ENDBRANCH  40  41
ENDBRANCH  33  35
ENDBRANCH  32  33
ENDBRANCH  31  32
ENDBRANCH  30  31
ENDBRANCH  29  30
ENDBRANCH  28  29
ENDBRANCH  27  28
ENDBRANCH  26  27
ENDBRANCH   1  26
TORSDOF 27
ENDMDL
