MODEL 1
REMARK VINA RESULT:      -7.8      0.000      0.000
REMARK SMILES O=C1C[C@H](c2cn[nH]c2C(=O)OCCOCCOCCOCCOC(=O)c2ccc(-c3c4nc(c(-c5c(F)cc(S(=O)(=O)[O-])cc5F)c5ccc([nH]5)c(-c5c(F)cc(S(=O)(=O)[O-])cc5F)c5nc(c(-c6c(F)cc(S(=O)(=O)[O-])cc6F)c6ccc3[nH]6)C=C5)C=C4)cc2)c2c(-c3cccs3)n[nH]c2N1
REMARK SMILES IDX 19 1 18 2 17 3 16 4 15 5 14 6 13 7 12 8 10 9 11 10 9 11 5 12
REMARK SMILES IDX 6 13 7 14 8 15 4 17 1 18 2 19 3 20 103 21 102 22 93 24
REMARK SMILES IDX 101 25 94 26 100 27 95 29 96 30 99 31 97 32 98 33 20 34
REMARK SMILES IDX 21 35 22 36 23 37 24 38 25 39 26 40 27 41 28 42 92 43 29 44
REMARK SMILES IDX 91 45 30 46 31 47 32 48 85 49 33 50 90 51 84 52 86 53 34 54
REMARK SMILES IDX 89 55 83 56 82 57 35 59 69 60 48 61 68 62 49 63 52 64 67 65
REMARK SMILES IDX 87 66 50 67 51 68 66 70 88 71 53 72 36 73 37 74 46 75 38 76
REMARK SMILES IDX 39 77 45 78 47 79 40 80 41 81 42 82 43 83 44 84 70 85 71 86
REMARK SMILES IDX 80 87 72 88 73 89 79 90 81 91 74 92 75 93 76 94 77 95 78 96
REMARK SMILES IDX 54 97 55 98 64 99 56 100 57 101 63 102 65 103 58 104 59 105
REMARK SMILES IDX 60 106 61 107 62 108
REMARK H PARENT 8 16 103 23 101 28 86 58 52 69
REMARK Flexibility Score: inf
ROOT
ATOM      1  C   UNL A   1      33.250  35.441  28.946  1.00  0.00     0.188 C 
ENDROOT
BRANCH   1   2
ATOM      2  O   UNL A   1      34.179  35.387  30.003  1.00  0.00    -0.377 OA
BRANCH   2   3
ATOM      3  C   UNL A   1      33.658  34.989  31.254  1.00  0.00     0.188 C 
BRANCH   3   4
ATOM      4  C   UNL A   1      34.286  33.768  31.970  1.00  0.00     0.188 C 
BRANCH   4   5
ATOM      5  O   UNL A   1      35.610  33.385  31.667  1.00  0.00    -0.376 OA
BRANCH   5   6
ATOM      6  C   UNL A   1      36.729  34.247  31.681  1.00  0.00     0.202 C 
BRANCH   6   7
ATOM      7  C   UNL A   1      37.974  34.048  32.546  1.00  0.00     0.261 C 
BRANCH   7   8
ATOM      8  O   UNL A   1      37.836  34.362  33.931  1.00  0.00    -0.459 OA
BRANCH   8   9
ATOM      9  C   UNL A   1      37.335  33.379  34.715  1.00  0.00     0.356 C 
ATOM     10  O   UNL A   1      36.166  33.332  35.100  1.00  0.00    -0.244 OA
BRANCH   9  11
ATOM     11  C   UNL A   1      38.251  32.277  34.867  1.00  0.00     0.147 A 
ATOM     12  C   UNL A   1      39.630  32.065  34.995  1.00  0.00     0.013 A 
ATOM     13  C   UNL A   1      39.719  30.644  35.136  1.00  0.00     0.140 A 
ATOM     14  N   UNL A   1      38.548  30.022  35.048  1.00  0.00    -0.183 NA
ATOM     15  N   UNL A   1      37.685  31.025  34.896  1.00  0.00    -0.271 N 
ATOM     16  H   UNL A   1      36.715  30.879  34.812  1.00  0.00     0.190 HD
BRANCH  12  17
ATOM     17  C   UNL A   1      40.871  32.949  35.112  1.00  0.00     0.069 C 
ATOM     18  O   UNL A   1      41.965  34.300  31.787  1.00  0.00    -0.275 OA
ATOM     19  C   UNL A   1      41.612  34.289  32.967  1.00  0.00     0.226 C 
ATOM     20  C   UNL A   1      41.696  33.011  33.798  1.00  0.00     0.114 C 
ATOM     21  N   UNL A   1      41.257  35.460  33.584  1.00  0.00    -0.311 N 
ATOM     22  C   UNL A   1      40.840  35.436  34.883  1.00  0.00     0.132 A 
ATOM     23  H   UNL A   1      41.303  36.313  33.094  1.00  0.00     0.171 HD
ATOM     24  C   UNL A   1      40.670  34.317  35.652  1.00  0.00     0.031 A 
ATOM     25  N   UNL A   1      40.467  36.501  35.642  1.00  0.00    -0.262 N 
ATOM     26  C   UNL A   1      40.226  34.811  36.905  1.00  0.00     0.108 A 
ATOM     27  N   UNL A   1      40.022  36.139  36.866  1.00  0.00    -0.173 NA
ATOM     28  H   UNL A   1      40.515  37.434  35.333  1.00  0.00     0.192 HD
BRANCH  26  29
ATOM     29  C   UNL A   1      39.823  33.958  38.068  1.00  0.00     0.055 A 
ATOM     30  C   UNL A   1      40.688  33.576  39.072  1.00  0.00     0.022 A 
ATOM     31  S   UNL A   1      38.223  33.455  38.381  1.00  0.00    -0.142 S 
ATOM     32  C   UNL A   1      39.993  33.010  40.182  1.00  0.00     0.012 A 
ATOM     33  C   UNL A   1      38.654  32.833  39.913  1.00  0.00     0.065 A 
ENDBRANCH  26  29
ENDBRANCH  12  17
ENDBRANCH   9  11
ENDBRANCH   8   9
ENDBRANCH   7   8
ENDBRANCH   6   7
ENDBRANCH   5   6
ENDBRANCH   4   5
ENDBRANCH   3   4
ENDBRANCH   2   3
ENDBRANCH   1   2
BRANCH   1  34
ATOM     34  C   UNL A   1      33.010  34.082  28.266  1.00  0.00     0.188 C 
BRANCH  34  35
ATOM     35  O   UNL A   1      33.943  33.005  28.315  1.00  0.00    -0.376 OA
BRANCH  35  36
ATOM     36  C   UNL A   1      35.343  33.117  28.098  1.00  0.00     0.202 C 
BRANCH  36  37
ATOM     37  C   UNL A   1      36.308  31.932  28.098  1.00  0.00     0.261 C 
BRANCH  37  38
ATOM     38  O   UNL A   1      37.071  31.823  29.273  1.00  0.00    -0.460 OA
BRANCH  38  39
ATOM     39  C   UNL A   1      37.903  30.769  29.259  1.00  0.00     0.338 C 
ATOM     40  O   UNL A   1      38.114  30.007  28.331  1.00  0.00    -0.246 OA
BRANCH  39  41
ATOM     41  C   UNL A   1      38.495  30.634  30.602  1.00  0.00     0.060 A 
ATOM     42  C   UNL A   1      39.699  31.321  30.709  1.00  0.00     0.016 A 
ATOM     43  C   UNL A   1      38.235  29.437  31.286  1.00  0.00     0.016 A 
ATOM     44  C   UNL A   1      40.786  30.560  31.031  1.00  0.00     0.010 A 
ATOM     45  C   UNL A   1      39.321  28.675  31.607  1.00  0.00     0.010 A 
ATOM     46  C   UNL A   1      40.575  29.209  31.332  1.00  0.00    -0.014 A 
BRANCH  46  47
ATOM     47  C   UNL A   1      41.736  28.363  31.399  1.00  0.00     0.031 A 
ATOM     48  C   UNL A   1      42.192  28.219  32.791  1.00  0.00     0.074 A 
ATOM     49  C   UNL A   1      42.242  27.760  30.310  1.00  0.00     0.049 A 
ATOM     50  N   UNL A   1      43.218  28.771  33.345  1.00  0.00    -0.248 NA
ATOM     51  C   UNL A   1      41.235  27.627  33.742  1.00  0.00     0.031 C 
ATOM     52  C   UNL A   1      41.673  27.653  28.963  1.00  0.00     0.029 A 
ATOM     53  N   UNL A   1      43.365  27.004  30.226  1.00  0.00    -0.354 N 
ATOM     54  C   UNL A   1      43.161  28.371  34.674  1.00  0.00     0.074 A 
ATOM     55  C   UNL A   1      41.815  27.922  34.903  1.00  0.00     0.031 C 
ATOM     56  C   UNL A   1      42.324  26.680  28.282  1.00  0.00     0.029 A 
ATOM     57  C   UNL A   1      43.429  26.201  29.092  1.00  0.00     0.049 A 
ATOM     58  H   UNL A   1      44.073  27.022  30.910  1.00  0.00     0.167 HD
ATOM     59  C   UNL A   1      44.294  28.155  35.390  1.00  0.00     0.037 A 
ATOM     60  C   UNL A   1      44.274  25.146  28.950  1.00  0.00     0.037 A 
ATOM     61  C   UNL A   1      45.431  28.778  34.758  1.00  0.00     0.049 A 
ATOM     62  C   UNL A   1      45.367  25.339  29.952  1.00  0.00     0.074 A 
ATOM     63  C   UNL A   1      45.762  30.083  34.449  1.00  0.00     0.029 A 
ATOM     64  N   UNL A   1      46.239  27.984  33.978  1.00  0.00    -0.354 N 
ATOM     65  N   UNL A   1      46.222  26.329  29.906  1.00  0.00    -0.248 NA
ATOM     66  C   UNL A   1      45.175  24.751  31.273  1.00  0.00     0.031 C 
ATOM     67  C   UNL A   1      46.406  30.010  33.181  1.00  0.00     0.029 A 
ATOM     68  C   UNL A   1      46.497  28.666  32.815  1.00  0.00     0.049 A 
ATOM     69  H   UNL A   1      46.573  27.088  34.211  1.00  0.00     0.167 HD
ATOM     70  C   UNL A   1      46.370  26.748  31.225  1.00  0.00     0.074 A 
ATOM     71  C   UNL A   1      45.734  25.704  32.026  1.00  0.00     0.031 C 
ATOM     72  C   UNL A   1      46.728  28.029  31.534  1.00  0.00     0.037 A 
BRANCH  59  73
ATOM     73  C   UNL A   1      44.426  27.067  36.426  1.00  0.00     0.058 A 
ATOM     74  C   UNL A   1      44.893  27.405  37.709  1.00  0.00     0.135 A 
ATOM     75  C   UNL A   1      44.370  25.682  36.143  1.00  0.00     0.135 A 
ATOM     76  F   UNL A   1      44.987  28.690  38.086  1.00  0.00    -0.206 F 
ATOM     77  C   UNL A   1      45.346  26.443  38.612  1.00  0.00     0.059 A 
ATOM     78  C   UNL A   1      44.760  24.707  37.049  1.00  0.00     0.059 A 
ATOM     79  F   UNL A   1      44.032  25.195  34.944  1.00  0.00    -0.206 F 
ATOM     80  C   UNL A   1      45.291  25.097  38.263  1.00  0.00     0.060 A 
BRANCH  80  81
ATOM     81  S   UNL A   1      45.981  23.861  39.370  1.00  0.00     0.124 S 
ATOM     82  O   UNL A   1      45.827  22.647  38.579  1.00  0.00    -0.237 OA
ATOM     83  O   UNL A   1      47.346  24.345  39.545  1.00  0.00    -0.237 OA
ATOM     84  O   UNL A   1      45.132  23.958  40.553  1.00  0.00    -0.744 OA
ENDBRANCH  80  81
ENDBRANCH  59  73
BRANCH  60  85
ATOM     85  C   UNL A   1      43.952  23.825  28.344  1.00  0.00     0.058 A 
ATOM     86  C   UNL A   1      43.095  22.908  28.977  1.00  0.00     0.135 A 
ATOM     87  C   UNL A   1      44.277  23.538  27.001  1.00  0.00     0.135 A 
ATOM     88  F   UNL A   1      42.703  23.118  30.243  1.00  0.00    -0.206 F 
ATOM     89  C   UNL A   1      42.577  21.786  28.314  1.00  0.00     0.059 A 
ATOM     90  C   UNL A   1      43.782  22.426  26.323  1.00  0.00     0.059 A 
ATOM     91  F   UNL A   1      45.024  24.384  26.276  1.00  0.00    -0.206 F 
ATOM     92  C   UNL A   1      42.917  21.561  26.979  1.00  0.00     0.060 A 
BRANCH  92  93
ATOM     93  S   UNL A   1      42.147  20.195  26.074  1.00  0.00     0.124 S 
ATOM     94  O   UNL A   1      42.009  19.183  27.116  1.00  0.00    -0.237 OA
ATOM     95  O   UNL A   1      40.906  20.797  25.602  1.00  0.00    -0.237 OA
ATOM     96  O   UNL A   1      43.123  19.885  25.031  1.00  0.00    -0.744 OA
ENDBRANCH  92  93
ENDBRANCH  60  85
BRANCH  72  97
ATOM     97  C   UNL A   1      47.202  28.934  30.423  1.00  0.00     0.058 A 
ATOM     98  C   UNL A   1      46.356  29.746  29.645  1.00  0.00     0.135 A 
ATOM     99  C   UNL A   1      48.583  29.138  30.290  1.00  0.00     0.135 A 
ATOM    100  F   UNL A   1      45.024  29.680  29.785  1.00  0.00    -0.206 F 
ATOM    101  C   UNL A   1      46.863  30.704  28.762  1.00  0.00     0.059 A 
ATOM    102  C   UNL A   1      49.110  30.105  29.440  1.00  0.00     0.059 A 
ATOM    103  F   UNL A   1      49.441  28.438  31.052  1.00  0.00    -0.206 F 
ATOM    104  C   UNL A   1      48.245  30.881  28.672  1.00  0.00     0.060 A 
BRANCH 104 105
ATOM    105  S   UNL A   1      48.905  32.185  27.610  1.00  0.00     0.124 S 
ATOM    106  O   UNL A   1      49.479  31.422  26.506  1.00  0.00    -0.237 OA
ATOM    107  O   UNL A   1      47.715  32.969  27.289  1.00  0.00    -0.237 OA
ATOM    108  O   UNL A   1      49.874  32.866  28.466  1.00  0.00    -0.744 OA
ENDBRANCH 104 105
ENDBRANCH  72  97
ENDBRANCH  46  47
ENDBRANCH  39  41
ENDBRANCH  38  39
ENDBRANCH  37  38
ENDBRANCH  36  37
ENDBRANCH  35  36
ENDBRANCH  34  35
ENDBRANCH   1  34
TORSDOF 25
ENDMDL
MODEL 2
REMARK VINA RESULT:      -7.7      5.612     12.752
REMARK SMILES O=C1C[C@H](c2cn[nH]c2C(=O)OCCOCCOCCOCCOC(=O)c2ccc(-c3c4nc(c(-c5c(F)cc(S(=O)(=O)[O-])cc5F)c5ccc([nH]5)c(-c5c(F)cc(S(=O)(=O)[O-])cc5F)c5nc(c(-c6c(F)cc(S(=O)(=O)[O-])cc6F)c6ccc3[nH]6)C=C5)C=C4)cc2)c2c(-c3cccs3)n[nH]c2N1
REMARK SMILES IDX 19 1 18 2 17 3 16 4 15 5 14 6 13 7 12 8 10 9 11 10 9 11 5 12
REMARK SMILES IDX 6 13 7 14 8 15 4 17 1 18 2 19 3 20 103 21 102 22 93 24
REMARK SMILES IDX 101 25 94 26 100 27 95 29 96 30 99 31 97 32 98 33 20 34
REMARK SMILES IDX 21 35 22 36 23 37 24 38 25 39 26 40 27 41 28 42 92 43 29 44
REMARK SMILES IDX 91 45 30 46 31 47 32 48 85 49 33 50 90 51 84 52 86 53 34 54
REMARK SMILES IDX 89 55 83 56 82 57 35 59 69 60 48 61 68 62 49 63 52 64 67 65
REMARK SMILES IDX 87 66 50 67 51 68 66 70 88 71 53 72 36 73 37 74 46 75 38 76
REMARK SMILES IDX 39 77 45 78 47 79 40 80 41 81 42 82 43 83 44 84 70 85 71 86
REMARK SMILES IDX 80 87 72 88 73 89 79 90 81 91 74 92 75 93 76 94 77 95 78 96
REMARK SMILES IDX 54 97 55 98 64 99 56 100 57 101 63 102 65 103 58 104 59 105
REMARK SMILES IDX 60 106 61 107 62 108
REMARK H PARENT 8 16 103 23 101 28 86 58 52 69
REMARK Flexibility Score: inf
ROOT
ATOM      1  C   UNL A   1      44.164  23.829  27.842  1.00  0.00     0.188 C 
ENDROOT
BRANCH   1   2
ATOM      2  O   UNL A   1      43.043  23.472  27.068  1.00  0.00    -0.377 OA
BRANCH   2   3
ATOM      3  C   UNL A   1      41.802  23.498  27.742  1.00  0.00     0.188 C 
BRANCH   3   4
ATOM      4  C   UNL A   1      40.580  24.131  27.033  1.00  0.00     0.188 C 
BRANCH   4   5
ATOM      5  O   UNL A   1      39.283  23.644  27.306  1.00  0.00    -0.376 OA
BRANCH   5   6
ATOM      6  C   UNL A   1      38.099  24.090  26.677  1.00  0.00     0.202 C 
BRANCH   6   7
ATOM      7  C   UNL A   1      37.511  23.489  25.400  1.00  0.00     0.261 C 
BRANCH   7   8
ATOM      8  O   UNL A   1      36.289  24.063  24.939  1.00  0.00    -0.459 OA
BRANCH   8   9
ATOM      9  C   UNL A   1      35.561  23.304  24.086  1.00  0.00     0.356 C 
ATOM     10  O   UNL A   1      35.691  22.085  23.963  1.00  0.00    -0.244 OA
BRANCH   9  11
ATOM     11  C   UNL A   1      34.465  24.034  23.501  1.00  0.00     0.147 A 
ATOM     12  C   UNL A   1      33.484  24.954  23.895  1.00  0.00     0.013 A 
ATOM     13  C   UNL A   1      32.789  25.217  22.673  1.00  0.00     0.140 A 
ATOM     14  N   UNL A   1      33.233  24.508  21.641  1.00  0.00    -0.183 NA
ATOM     15  N   UNL A   1      34.242  23.815  22.163  1.00  0.00    -0.271 N 
ATOM     16  H   UNL A   1      34.788  23.192  21.630  1.00  0.00     0.190 HD
BRANCH  12  17
ATOM     17  C   UNL A   1      33.139  25.709  25.178  1.00  0.00     0.069 C 
ATOM     18  O   UNL A   1      31.915  29.188  24.488  1.00  0.00    -0.275 OA
ATOM     19  C   UNL A   1      31.931  28.038  24.928  1.00  0.00     0.226 C 
ATOM     20  C   UNL A   1      33.235  27.250  25.018  1.00  0.00     0.114 C 
ATOM     21  N   UNL A   1      30.790  27.495  25.460  1.00  0.00    -0.311 N 
ATOM     22  C   UNL A   1      30.807  26.210  25.920  1.00  0.00     0.132 A 
ATOM     23  H   UNL A   1      29.964  28.028  25.511  1.00  0.00     0.171 HD
ATOM     24  C   UNL A   1      31.865  25.345  25.847  1.00  0.00     0.031 A 
ATOM     25  N   UNL A   1      29.774  25.530  26.485  1.00  0.00    -0.262 N 
ATOM     26  C   UNL A   1      31.390  24.152  26.447  1.00  0.00     0.108 A 
ATOM     27  N   UNL A   1      30.084  24.243  26.757  1.00  0.00    -0.173 NA
ATOM     28  H   UNL A   1      28.896  25.931  26.673  1.00  0.00     0.192 HD
BRANCH  26  29
ATOM     29  C   UNL A   1      32.161  22.871  26.537  1.00  0.00     0.055 A 
ATOM     30  C   UNL A   1      31.943  21.788  25.712  1.00  0.00     0.022 A 
ATOM     31  S   UNL A   1      33.494  22.625  27.574  1.00  0.00    -0.142 S 
ATOM     32  C   UNL A   1      32.984  20.819  25.826  1.00  0.00     0.012 A 
ATOM     33  C   UNL A   1      33.861  21.123  26.844  1.00  0.00     0.065 A 
ENDBRANCH  26  29
ENDBRANCH  12  17
ENDBRANCH   9  11
ENDBRANCH   8   9
ENDBRANCH   7   8
ENDBRANCH   6   7
ENDBRANCH   5   6
ENDBRANCH   4   5
ENDBRANCH   3   4
ENDBRANCH   2   3
ENDBRANCH   1   2
BRANCH   1  34
ATOM     34  C   UNL A   1      43.801  24.477  29.189  1.00  0.00     0.188 C 
BRANCH  34  35
ATOM     35  O   UNL A   1      44.740  25.178  30.000  1.00  0.00    -0.376 OA
BRANCH  35  36
ATOM     36  C   UNL A   1      44.428  25.909  31.180  1.00  0.00     0.202 C 
BRANCH  36  37
ATOM     37  C   UNL A   1      44.696  25.404  32.597  1.00  0.00     0.261 C 
BRANCH  37  38
ATOM     38  O   UNL A   1      44.049  26.150  33.596  1.00  0.00    -0.460 OA
BRANCH  38  39
ATOM     39  C   UNL A   1      43.383  25.382  34.473  1.00  0.00     0.338 C 
ATOM     40  O   UNL A   1      43.503  24.180  34.642  1.00  0.00    -0.246 OA
BRANCH  39  41
ATOM     41  C   UNL A   1      42.410  26.232  35.181  1.00  0.00     0.060 A 
ATOM     42  C   UNL A   1      41.250  26.421  34.438  1.00  0.00     0.016 A 
ATOM     43  C   UNL A   1      42.936  27.212  36.036  1.00  0.00     0.016 A 
ATOM     44  C   UNL A   1      40.949  27.718  34.131  1.00  0.00     0.010 A 
ATOM     45  C   UNL A   1      42.637  28.508  35.730  1.00  0.00     0.010 A 
ATOM     46  C   UNL A   1      41.752  28.724  34.679  1.00  0.00    -0.014 A 
BRANCH  46  47
ATOM     47  C   UNL A   1      41.603  30.049  34.140  1.00  0.00     0.031 A 
ATOM     48  C   UNL A   1      42.615  30.303  33.101  1.00  0.00     0.074 A 
ATOM     49  C   UNL A   1      40.611  30.869  34.527  1.00  0.00     0.049 A 
ATOM     50  N   UNL A   1      43.674  31.033  33.193  1.00  0.00    -0.248 NA
ATOM     51  C   UNL A   1      42.594  29.410  31.928  1.00  0.00     0.031 C 
ATOM     52  C   UNL A   1      39.432  30.571  35.347  1.00  0.00     0.029 A 
ATOM     53  N   UNL A   1      40.404  32.156  34.154  1.00  0.00    -0.354 N 
ATOM     54  C   UNL A   1      44.316  30.881  31.971  1.00  0.00     0.074 A 
ATOM     55  C   UNL A   1      43.769  29.695  31.372  1.00  0.00     0.031 C 
ATOM     56  C   UNL A   1      38.526  31.566  35.199  1.00  0.00     0.029 A 
ATOM     57  C   UNL A   1      39.114  32.619  34.392  1.00  0.00     0.049 A 
ATOM     58  H   UNL A   1      41.107  32.714  33.750  1.00  0.00     0.167 HD
ATOM     59  C   UNL A   1      45.020  31.902  31.418  1.00  0.00     0.037 A 
ATOM     60  C   UNL A   1      38.588  33.736  33.825  1.00  0.00     0.037 A 
ATOM     61  C   UNL A   1      45.337  32.905  32.405  1.00  0.00     0.049 A 
ATOM     62  C   UNL A   1      39.744  34.560  33.355  1.00  0.00     0.074 A 
ATOM     63  C   UNL A   1      46.075  32.904  33.572  1.00  0.00     0.029 A 
ATOM     64  N   UNL A   1      44.527  34.014  32.467  1.00  0.00    -0.354 N 
ATOM     65  N   UNL A   1      40.620  35.101  34.163  1.00  0.00    -0.248 NA
ATOM     66  C   UNL A   1      40.217  34.334  31.994  1.00  0.00     0.031 C 
ATOM     67  C   UNL A   1      45.347  33.733  34.471  1.00  0.00     0.029 A 
ATOM     68  C   UNL A   1      44.245  34.252  33.789  1.00  0.00     0.049 A 
ATOM     69  H   UNL A   1      44.206  34.544  31.701  1.00  0.00     0.167 HD
ATOM     70  C   UNL A   1      41.852  34.916  33.544  1.00  0.00     0.074 A 
ATOM     71  C   UNL A   1      41.532  34.479  32.186  1.00  0.00     0.031 C 
ATOM     72  C   UNL A   1      43.012  34.850  34.262  1.00  0.00     0.037 A 
BRANCH  59  73
ATOM     73  C   UNL A   1      45.069  32.167  29.934  1.00  0.00     0.058 A 
ATOM     74  C   UNL A   1      46.311  32.450  29.336  1.00  0.00     0.135 A 
ATOM     75  C   UNL A   1      43.933  32.417  29.128  1.00  0.00     0.135 A 
ATOM     76  F   UNL A   1      47.455  32.249  30.009  1.00  0.00    -0.206 F 
ATOM     77  C   UNL A   1      46.411  33.013  28.064  1.00  0.00     0.059 A 
ATOM     78  C   UNL A   1      44.015  32.922  27.839  1.00  0.00     0.059 A 
ATOM     79  F   UNL A   1      42.679  32.284  29.573  1.00  0.00    -0.206 F 
ATOM     80  C   UNL A   1      45.254  33.261  27.332  1.00  0.00     0.060 A 
BRANCH  80  81
ATOM     81  S   UNL A   1      45.367  34.095  25.744  1.00  0.00     0.124 S 
ATOM     82  O   UNL A   1      44.659  33.162  24.877  1.00  0.00    -0.237 OA
ATOM     83  O   UNL A   1      44.687  35.357  26.020  1.00  0.00    -0.237 OA
ATOM     84  O   UNL A   1      46.805  34.202  25.521  1.00  0.00    -0.744 OA
ENDBRANCH  80  81
ENDBRANCH  59  73
BRANCH  60  85
ATOM     85  C   UNL A   1      37.207  33.895  33.290  1.00  0.00     0.058 A 
ATOM     86  C   UNL A   1      36.159  34.397  34.080  1.00  0.00     0.135 A 
ATOM     87  C   UNL A   1      36.945  33.798  31.906  1.00  0.00     0.135 A 
ATOM     88  F   UNL A   1      36.330  34.558  35.400  1.00  0.00    -0.206 F 
ATOM     89  C   UNL A   1      34.931  34.795  33.530  1.00  0.00     0.059 A 
ATOM     90  C   UNL A   1      35.731  34.180  31.338  1.00  0.00     0.059 A 
ATOM     91  F   UNL A   1      37.899  33.405  31.049  1.00  0.00    -0.206 F 
ATOM     92  C   UNL A   1      34.732  34.695  32.153  1.00  0.00     0.060 A 
BRANCH  92  93
ATOM     93  S   UNL A   1      33.206  35.333  31.416  1.00  0.00     0.124 S 
ATOM     94  O   UNL A   1      33.478  36.765  31.352  1.00  0.00    -0.237 OA
ATOM     95  O   UNL A   1      33.165  34.635  30.137  1.00  0.00    -0.237 OA
ATOM     96  O   UNL A   1      32.175  34.938  32.373  1.00  0.00    -0.744 OA
ENDBRANCH  92  93
ENDBRANCH  60  85
BRANCH  72  97
ATOM     97  C   UNL A   1      42.979  35.222  35.724  1.00  0.00     0.058 A 
ATOM     98  C   UNL A   1      43.060  36.541  36.210  1.00  0.00     0.135 A 
ATOM     99  C   UNL A   1      42.642  34.221  36.646  1.00  0.00     0.135 A 
ATOM    100  F   UNL A   1      43.282  37.566  35.376  1.00  0.00    -0.206 F 
ATOM    101  C   UNL A   1      42.833  36.844  37.555  1.00  0.00     0.059 A 
ATOM    102  C   UNL A   1      42.383  34.503  37.984  1.00  0.00     0.059 A 
ATOM    103  F   UNL A   1      42.487  32.952  36.231  1.00  0.00    -0.206 F 
ATOM    104  C   UNL A   1      42.487  35.817  38.435  1.00  0.00     0.060 A 
BRANCH 104 105
ATOM    105  S   UNL A   1      42.093  36.215  40.153  1.00  0.00     0.124 S 
ATOM    106  O   UNL A   1      42.588  37.582  40.273  1.00  0.00    -0.237 OA
ATOM    107  O   UNL A   1      40.642  36.059  40.193  1.00  0.00    -0.237 OA
ATOM    108  O   UNL A   1      42.838  35.214  40.915  1.00  0.00    -0.744 OA
ENDBRANCH 104 105
ENDBRANCH  72  97
ENDBRANCH  46  47
ENDBRANCH  39  41
ENDBRANCH  38  39
ENDBRANCH  37  38
ENDBRANCH  36  37
ENDBRANCH  35  36
ENDBRANCH  34  35
ENDBRANCH   1  34
TORSDOF 25
ENDMDL
MODEL 3
REMARK VINA RESULT:      -7.7      1.612      2.305
REMARK SMILES O=C1C[C@H](c2cn[nH]c2C(=O)OCCOCCOCCOCCOC(=O)c2ccc(-c3c4nc(c(-c5c(F)cc(S(=O)(=O)[O-])cc5F)c5ccc([nH]5)c(-c5c(F)cc(S(=O)(=O)[O-])cc5F)c5nc(c(-c6c(F)cc(S(=O)(=O)[O-])cc6F)c6ccc3[nH]6)C=C5)C=C4)cc2)c2c(-c3cccs3)n[nH]c2N1
REMARK SMILES IDX 19 1 18 2 17 3 16 4 15 5 14 6 13 7 12 8 10 9 11 10 9 11 5 12
REMARK SMILES IDX 6 13 7 14 8 15 4 17 1 18 2 19 3 20 103 21 102 22 93 24
REMARK SMILES IDX 101 25 94 26 100 27 95 29 96 30 99 31 97 32 98 33 20 34
REMARK SMILES IDX 21 35 22 36 23 37 24 38 25 39 26 40 27 41 28 42 92 43 29 44
REMARK SMILES IDX 91 45 30 46 31 47 32 48 85 49 33 50 90 51 84 52 86 53 34 54
REMARK SMILES IDX 89 55 83 56 82 57 35 59 69 60 48 61 68 62 49 63 52 64 67 65
REMARK SMILES IDX 87 66 50 67 51 68 66 70 88 71 53 72 36 73 37 74 46 75 38 76
REMARK SMILES IDX 39 77 45 78 47 79 40 80 41 81 42 82 43 83 44 84 70 85 71 86
REMARK SMILES IDX 80 87 72 88 73 89 79 90 81 91 74 92 75 93 76 94 77 95 78 96
REMARK SMILES IDX 54 97 55 98 64 99 56 100 57 101 63 102 65 103 58 104 59 105
REMARK SMILES IDX 60 106 61 107 62 108
REMARK H PARENT 8 16 103 23 101 28 86 58 52 69
REMARK Flexibility Score: inf
ROOT
ATOM      1  C   UNL A   1      33.727  35.225  28.771  1.00  0.00     0.188 C 
ENDROOT
BRANCH   1   2
ATOM      2  O   UNL A   1      34.619  34.966  29.829  1.00  0.00    -0.377 OA
BRANCH   2   3
ATOM      3  C   UNL A   1      34.027  34.513  31.029  1.00  0.00     0.188 C 
BRANCH   3   4
ATOM      4  C   UNL A   1      34.685  33.335  31.788  1.00  0.00     0.188 C 
BRANCH   4   5
ATOM      5  O   UNL A   1      36.065  33.082  31.625  1.00  0.00    -0.376 OA
BRANCH   5   6
ATOM      6  C   UNL A   1      37.079  34.065  31.652  1.00  0.00     0.202 C 
BRANCH   6   7
ATOM      7  C   UNL A   1      38.260  34.076  32.624  1.00  0.00     0.261 C 
BRANCH   7   8
ATOM      8  O   UNL A   1      37.950  34.359  33.988  1.00  0.00    -0.459 OA
BRANCH   8   9
ATOM      9  C   UNL A   1      37.419  33.338  34.701  1.00  0.00     0.356 C 
ATOM     10  O   UNL A   1      36.232  33.262  35.019  1.00  0.00    -0.244 OA
BRANCH   9  11
ATOM     11  C   UNL A   1      38.340  32.239  34.854  1.00  0.00     0.147 A 
ATOM     12  C   UNL A   1      39.714  32.036  35.040  1.00  0.00     0.013 A 
ATOM     13  C   UNL A   1      39.812  30.612  35.132  1.00  0.00     0.140 A 
ATOM     14  N   UNL A   1      38.654  29.983  34.967  1.00  0.00    -0.183 NA
ATOM     15  N   UNL A   1      37.788  30.982  34.811  1.00  0.00    -0.271 N 
ATOM     16  H   UNL A   1      36.824  30.830  34.675  1.00  0.00     0.190 HD
BRANCH  12  17
ATOM     17  C   UNL A   1      40.938  32.927  35.248  1.00  0.00     0.069 C 
ATOM     18  O   UNL A   1      42.286  34.260  32.010  1.00  0.00    -0.275 OA
ATOM     19  C   UNL A   1      41.841  34.255  33.158  1.00  0.00     0.226 C 
ATOM     20  C   UNL A   1      41.864  32.984  34.003  1.00  0.00     0.114 C 
ATOM     21  N   UNL A   1      41.433  35.429  33.737  1.00  0.00    -0.311 N 
ATOM     22  C   UNL A   1      40.914  35.413  34.999  1.00  0.00     0.132 A 
ATOM     23  H   UNL A   1      41.513  36.278  33.246  1.00  0.00     0.171 HD
ATOM     24  C   UNL A   1      40.688  34.298  35.760  1.00  0.00     0.031 A 
ATOM     25  N   UNL A   1      40.477  36.481  35.718  1.00  0.00    -0.262 N 
ATOM     26  C   UNL A   1      40.145  34.798  36.970  1.00  0.00     0.108 A 
ATOM     27  N   UNL A   1      39.939  36.126  36.905  1.00  0.00    -0.173 NA
ATOM     28  H   UNL A   1      40.546  37.412  35.406  1.00  0.00     0.192 HD
BRANCH  26  29
ATOM     29  C   UNL A   1      39.655  33.952  38.105  1.00  0.00     0.055 A 
ATOM     30  C   UNL A   1      40.453  33.539  39.150  1.00  0.00     0.022 A 
ATOM     31  S   UNL A   1      38.026  33.496  38.327  1.00  0.00    -0.142 S 
ATOM     32  C   UNL A   1      39.683  32.988  40.217  1.00  0.00     0.012 A 
ATOM     33  C   UNL A   1      38.355  32.853  39.877  1.00  0.00     0.065 A 
ENDBRANCH  26  29
ENDBRANCH  12  17
ENDBRANCH   9  11
ENDBRANCH   8   9
ENDBRANCH   7   8
ENDBRANCH   6   7
ENDBRANCH   5   6
ENDBRANCH   4   5
ENDBRANCH   3   4
ENDBRANCH   2   3
ENDBRANCH   1   2
BRANCH   1  34
ATOM     34  C   UNL A   1      33.315  33.964  27.990  1.00  0.00     0.188 C 
BRANCH  34  35
ATOM     35  O   UNL A   1      34.041  32.739  28.041  1.00  0.00    -0.376 OA
BRANCH  35  36
ATOM     36  C   UNL A   1      35.444  32.602  27.854  1.00  0.00     0.202 C 
BRANCH  36  37
ATOM     37  C   UNL A   1      36.209  31.291  28.029  1.00  0.00     0.261 C 
BRANCH  37  38
ATOM     38  O   UNL A   1      37.127  31.308  29.092  1.00  0.00    -0.460 OA
BRANCH  38  39
ATOM     39  C   UNL A   1      37.153  30.154  29.777  1.00  0.00     0.338 C 
ATOM     40  O   UNL A   1      36.460  29.168  29.591  1.00  0.00    -0.246 OA
BRANCH  39  41
ATOM     41  C   UNL A   1      38.137  30.291  30.867  1.00  0.00     0.060 A 
ATOM     42  C   UNL A   1      39.095  31.258  30.582  1.00  0.00     0.016 A 
ATOM     43  C   UNL A   1      38.418  29.133  31.608  1.00  0.00     0.016 A 
ATOM     44  C   UNL A   1      40.387  30.818  30.552  1.00  0.00     0.010 A 
ATOM     45  C   UNL A   1      39.709  28.692  31.577  1.00  0.00     0.010 A 
ATOM     46  C   UNL A   1      40.636  29.491  30.916  1.00  0.00    -0.014 A 
BRANCH  46  47
ATOM     47  C   UNL A   1      41.942  28.964  30.621  1.00  0.00     0.031 A 
ATOM     48  C   UNL A   1      42.752  28.872  31.846  1.00  0.00     0.074 A 
ATOM     49  C   UNL A   1      42.287  28.564  29.385  1.00  0.00     0.049 A 
ATOM     50  N   UNL A   1      43.726  29.638  32.207  1.00  0.00    -0.248 NA
ATOM     51  C   UNL A   1      42.229  28.010  32.921  1.00  0.00     0.031 C 
ATOM     52  C   UNL A   1      41.440  28.382  28.202  1.00  0.00     0.029 A 
ATOM     53  N   UNL A   1      43.498  28.122  28.963  1.00  0.00    -0.354 N 
ATOM     54  C   UNL A   1      44.097  29.171  33.461  1.00  0.00     0.074 A 
ATOM     55  C   UNL A   1      42.995  28.385  33.943  1.00  0.00     0.031 C 
ATOM     56  C   UNL A   1      42.109  27.641  27.287  1.00  0.00     0.029 A 
ATOM     57  C   UNL A   1      43.462  27.419  27.763  1.00  0.00     0.049 A 
ATOM     58  H   UNL A   1      44.330  28.285  29.463  1.00  0.00     0.167 HD
ATOM     59  C   UNL A   1      45.392  29.215  33.869  1.00  0.00     0.037 A 
ATOM     60  C   UNL A   1      44.467  26.621  27.316  1.00  0.00     0.037 A 
ATOM     61  C   UNL A   1      46.156  30.136  33.066  1.00  0.00     0.049 A 
ATOM     62  C   UNL A   1      45.700  27.035  28.055  1.00  0.00     0.074 A 
ATOM     63  C   UNL A   1      46.085  31.495  32.834  1.00  0.00     0.029 A 
ATOM     64  N   UNL A   1      46.906  29.613  32.038  1.00  0.00    -0.354 N 
ATOM     65  N   UNL A   1      46.260  28.211  27.923  1.00  0.00    -0.248 NA
ATOM     66  C   UNL A   1      45.986  26.353  29.312  1.00  0.00     0.031 C 
ATOM     67  C   UNL A   1      46.390  31.651  31.452  1.00  0.00     0.029 A 
ATOM     68  C   UNL A   1      46.699  30.394  30.929  1.00  0.00     0.049 A 
ATOM     69  H   UNL A   1      47.488  28.820  32.088  1.00  0.00     0.167 HD
ATOM     70  C   UNL A   1      46.630  28.587  29.210  1.00  0.00     0.074 A 
ATOM     71  C   UNL A   1      46.478  27.378  30.017  1.00  0.00     0.031 C 
ATOM     72  C   UNL A   1      46.745  29.901  29.567  1.00  0.00     0.037 A 
BRANCH  59  73
ATOM     73  C   UNL A   1      46.028  28.145  34.722  1.00  0.00     0.058 A 
ATOM     74  C   UNL A   1      46.100  26.832  34.220  1.00  0.00     0.135 A 
ATOM     75  C   UNL A   1      46.325  28.289  36.097  1.00  0.00     0.135 A 
ATOM     76  F   UNL A   1      45.839  26.578  32.928  1.00  0.00    -0.206 F 
ATOM     77  C   UNL A   1      46.369  25.738  35.042  1.00  0.00     0.059 A 
ATOM     78  C   UNL A   1      46.652  27.221  36.919  1.00  0.00     0.059 A 
ATOM     79  F   UNL A   1      46.219  29.453  36.748  1.00  0.00    -0.206 F 
ATOM     80  C   UNL A   1      46.626  25.944  36.394  1.00  0.00     0.060 A 
BRANCH  80  81
ATOM     81  S   UNL A   1      46.855  24.532  37.482  1.00  0.00     0.124 S 
ATOM     82  O   UNL A   1      47.757  23.702  36.693  1.00  0.00    -0.237 OA
ATOM     83  O   UNL A   1      47.430  25.158  38.668  1.00  0.00    -0.237 OA
ATOM     84  O   UNL A   1      45.501  24.013  37.649  1.00  0.00    -0.744 OA
ENDBRANCH  80  81
ENDBRANCH  59  73
BRANCH  60  85
ATOM     85  C   UNL A   1      44.322  25.293  26.659  1.00  0.00     0.058 A 
ATOM     86  C   UNL A   1      44.876  25.026  25.395  1.00  0.00     0.135 A 
ATOM     87  C   UNL A   1      43.854  24.171  27.377  1.00  0.00     0.135 A 
ATOM     88  F   UNL A   1      45.379  26.027  24.657  1.00  0.00    -0.206 F 
ATOM     89  C   UNL A   1      44.976  23.725  24.881  1.00  0.00     0.059 A 
ATOM     90  C   UNL A   1      43.936  22.870  26.884  1.00  0.00     0.059 A 
ATOM     91  F   UNL A   1      43.378  24.299  28.624  1.00  0.00    -0.206 F 
ATOM     92  C   UNL A   1      44.515  22.650  25.642  1.00  0.00     0.060 A 
BRANCH  92  93
ATOM     93  S   UNL A   1      44.764  20.957  25.049  1.00  0.00     0.124 S 
ATOM     94  O   UNL A   1      43.669  20.245  25.700  1.00  0.00    -0.237 OA
ATOM     95  O   UNL A   1      44.651  21.116  23.604  1.00  0.00    -0.237 OA
ATOM     96  O   UNL A   1      46.100  20.619  25.533  1.00  0.00    -0.744 OA
ENDBRANCH  92  93
ENDBRANCH  60  85
BRANCH  72  97
ATOM     97  C   UNL A   1      46.701  30.950  28.484  1.00  0.00     0.058 A 
ATOM     98  C   UNL A   1      45.520  31.546  28.004  1.00  0.00     0.135 A 
ATOM     99  C   UNL A   1      47.916  31.517  28.073  1.00  0.00     0.135 A 
ATOM    100  F   UNL A   1      44.319  31.125  28.425  1.00  0.00    -0.206 F 
ATOM    101  C   UNL A   1      45.549  32.644  27.139  1.00  0.00     0.059 A 
ATOM    102  C   UNL A   1      47.969  32.628  27.237  1.00  0.00     0.059 A 
ATOM    103  F   UNL A   1      49.076  31.032  28.547  1.00  0.00    -0.206 F 
ATOM    104  C   UNL A   1      46.782  33.184  26.766  1.00  0.00     0.060 A 
BRANCH 104 105
ATOM    105  S   UNL A   1      46.826  34.664  25.732  1.00  0.00     0.124 S 
ATOM    106  O   UNL A   1      48.126  34.543  25.078  1.00  0.00    -0.237 OA
ATOM    107  O   UNL A   1      45.662  34.487  24.869  1.00  0.00    -0.237 OA
ATOM    108  O   UNL A   1      46.714  35.758  26.695  1.00  0.00    -0.744 OA
ENDBRANCH 104 105
ENDBRANCH  72  97
ENDBRANCH  46  47
ENDBRANCH  39  41
ENDBRANCH  38  39
ENDBRANCH  37  38
ENDBRANCH  36  37
ENDBRANCH  35  36
ENDBRANCH  34  35
ENDBRANCH   1  34
TORSDOF 25
ENDMDL
