MODEL 1
REMARK VINA RESULT:      -7.0      0.000      0.000
REMARK SMILES COc1ccccc1C(=O)N/C(=C/c1ccc2c(c1)OCO2)C(=O)Nc1ccc(C(=O)OCCOCCOCCOCCOC(=O)c2ccc(-c3c4nc(c(-c5c(F)cc(S(=O)(=O)[O-])cc5F)c5ccc([nH]5)c(-c5c(F)cc(S(=O)(=O)[O-])cc5F)c5nc(c(-c6c(F)cc(S(=O)(=O)[O-])cc6F)c6ccc3[nH]6)C=C5)C=C4)cc2)cc1
REMARK SMILES IDX 37 1 36 2 35 3 34 4 33 5 32 6 30 7 31 8 29 9 26 10 27 11
REMARK SMILES IDX 114 12 28 13 113 14 25 15 23 16 24 17 12 19 13 20 11 21 9 22
REMARK SMILES IDX 10 23 8 25 3 26 4 27 5 28 7 29 6 30 2 31 1 32 14 33 15 34
REMARK SMILES IDX 19 35 16 36 18 37 17 38 20 39 22 40 21 41 38 42 39 43 40 44
REMARK SMILES IDX 41 45 42 46 43 47 44 48 45 49 46 50 47 51 48 52 112 53 49 54
REMARK SMILES IDX 111 55 50 56 51 57 52 58 105 59 53 60 110 61 104 62 106 63
REMARK SMILES IDX 54 64 109 65 103 66 102 67 55 69 89 70 68 71 88 72 69 73
REMARK SMILES IDX 72 74 87 75 107 76 70 77 71 78 86 80 108 81 73 82 56 83
REMARK SMILES IDX 57 84 66 85 58 86 59 87 65 88 67 89 60 90 61 91 62 92 63 93
REMARK SMILES IDX 64 94 90 95 91 96 100 97 92 98 93 99 99 100 101 101 94 102
REMARK SMILES IDX 95 103 96 104 97 105 98 106 74 107 75 108 84 109 76 110
REMARK SMILES IDX 77 111 83 112 85 113 78 114 79 115 80 116 81 117 82 118
REMARK H PARENT 25 18 11 24 106 68 72 79
REMARK Flexibility Score: inf
ROOT
ATOM      1  C   UNL A   1      45.680  17.153  40.670  1.00  0.00     0.188 C 
ENDROOT
BRANCH   1   2
ATOM      2  C   UNL A   1      46.990  16.691  41.330  1.00  0.00     0.188 C 
BRANCH   2   3
ATOM      3  O   UNL A   1      47.124  16.544  42.739  1.00  0.00    -0.376 OA
BRANCH   3   4
ATOM      4  C   UNL A   1      47.752  17.526  43.551  1.00  0.00     0.202 C 
BRANCH   4   5
ATOM      5  C   UNL A   1      48.409  18.792  42.969  1.00  0.00     0.261 C 
BRANCH   5   6
ATOM      6  O   UNL A   1      49.472  19.351  43.747  1.00  0.00    -0.460 OA
BRANCH   6   7
ATOM      7  C   UNL A   1      50.696  19.161  43.226  1.00  0.00     0.338 C 
ATOM      8  O   UNL A   1      51.627  18.550  43.722  1.00  0.00    -0.246 OA
BRANCH   7   9
ATOM      9  C   UNL A   1      50.721  19.617  41.833  1.00  0.00     0.060 A 
ATOM     10  C   UNL A   1      50.712  20.982  38.365  1.00  0.00     0.041 A 
ATOM     11  C   UNL A   1      50.917  22.103  39.719  1.00  0.00     0.027 A 
ATOM     12  C   UNL A   1      50.603  19.256  38.713  1.00  0.00     0.027 A 
ATOM     13  C   UNL A   1      50.876  21.391  41.607  1.00  0.00     0.018 A 
ATOM     14  C   UNL A   1      50.614  18.599  40.384  1.00  0.00     0.018 A 
BRANCH  10  15
ATOM     15  N   UNL A   1      49.913  21.568  37.363  1.00  0.00    -0.321 N 
ATOM     16  C   UNL A   1      50.502  22.012  36.175  1.00  0.00     0.272 C 
ATOM     17  O   UNL A   1      50.250  21.476  35.095  1.00  0.00    -0.267 OA
ATOM     18  H   UNL A   1      48.943  21.665  37.498  1.00  0.00     0.170 HD
BRANCH  16  19
ATOM     19  C   UNL A   1      51.370  23.283  36.211  1.00  0.00     0.108 C 
ATOM     20  C   UNL A   1      50.928  24.543  35.926  1.00  0.00     0.040 C 
BRANCH  19  21
ATOM     21  N   UNL A   1      52.711  23.172  36.558  1.00  0.00    -0.317 N 
ATOM     22  C   UNL A   1      53.813  22.521  36.049  1.00  0.00     0.259 C 
ATOM     23  O   UNL A   1      54.896  22.687  36.616  1.00  0.00    -0.269 OA
ATOM     24  H   UNL A   1      52.926  23.685  37.370  1.00  0.00     0.170 HD
BRANCH  22  25
ATOM     25  C   UNL A   1      53.774  21.540  34.951  1.00  0.00     0.082 A 
ATOM     26  C   UNL A   1      53.750  21.819  33.582  1.00  0.00     0.131 A 
ATOM     27  C   UNL A   1      53.476  20.767  32.692  1.00  0.00     0.047 A 
ATOM     28  C   UNL A   1      53.396  19.445  33.133  1.00  0.00     0.004 A 
ATOM     29  C   UNL A   1      53.787  20.198  35.380  1.00  0.00     0.018 A 
ATOM     30  C   UNL A   1      53.614  19.153  34.473  1.00  0.00     0.001 A 
BRANCH  26  31
ATOM     31  O   UNL A   1      53.914  23.014  32.939  1.00  0.00    -0.496 OA
ATOM     32  C   UNL A   1      52.782  23.859  32.771  1.00  0.00     0.278 C 
ENDBRANCH  26  31
ENDBRANCH  22  25
ENDBRANCH  19  21
BRANCH  20  33
ATOM     33  C   UNL A   1      49.659  24.838  35.232  1.00  0.00    -0.019 A 
ATOM     34  C   UNL A   1      48.990  26.342  35.946  1.00  0.00     0.012 A 
ATOM     35  C   UNL A   1      49.363  24.525  33.510  1.00  0.00     0.058 A 
ATOM     36  C   UNL A   1      48.051  27.656  34.730  1.00  0.00     0.051 A 
ATOM     37  C   UNL A   1      48.492  25.682  32.479  1.00  0.00     0.166 A 
ATOM     38  C   UNL A   1      47.855  27.195  33.016  1.00  0.00     0.165 A 
ATOM     39  O   UNL A   1      48.686  25.823  31.123  1.00  0.00    -0.454 OA
ATOM     40  O   UNL A   1      47.761  28.023  31.939  1.00  0.00    -0.454 OA
ATOM     41  C   UNL A   1      48.567  27.280  30.965  1.00  0.00     0.468 C 
ENDBRANCH  20  33
ENDBRANCH  16  19
ENDBRANCH  10  15
ENDBRANCH   7   9
ENDBRANCH   6   7
ENDBRANCH   5   6
ENDBRANCH   4   5
ENDBRANCH   3   4
ENDBRANCH   2   3
ENDBRANCH   1   2
BRANCH   1  42
ATOM     42  O   UNL A   1      45.775  18.385  39.992  1.00  0.00    -0.377 OA
BRANCH  42  43
ATOM     43  C   UNL A   1      45.788  18.310  38.578  1.00  0.00     0.188 C 
BRANCH  43  44
ATOM     44  C   UNL A   1      46.593  19.396  37.842  1.00  0.00     0.188 C 
BRANCH  44  45
ATOM     45  O   UNL A   1      45.762  20.341  37.173  1.00  0.00    -0.376 OA
BRANCH  45  46
ATOM     46  C   UNL A   1      46.137  20.720  35.857  1.00  0.00     0.202 C 
BRANCH  46  47
ATOM     47  C   UNL A   1      45.043  21.321  34.957  1.00  0.00     0.261 C 
BRANCH  47  48
ATOM     48  O   UNL A   1      45.004  22.752  34.822  1.00  0.00    -0.460 OA
BRANCH  48  49
ATOM     49  C   UNL A   1      43.979  23.325  34.152  1.00  0.00     0.338 C 
ATOM     50  O   UNL A   1      43.192  22.768  33.410  1.00  0.00    -0.246 OA
BRANCH  49  51
ATOM     51  C   UNL A   1      43.842  24.714  34.664  1.00  0.00     0.060 A 
ATOM     52  C   UNL A   1      42.932  24.977  35.699  1.00  0.00     0.016 A 
ATOM     53  C   UNL A   1      44.659  25.739  34.178  1.00  0.00     0.016 A 
ATOM     54  C   UNL A   1      42.850  26.257  36.259  1.00  0.00     0.010 A 
ATOM     55  C   UNL A   1      44.547  27.028  34.714  1.00  0.00     0.010 A 
ATOM     56  C   UNL A   1      43.638  27.298  35.751  1.00  0.00    -0.014 A 
BRANCH  56  57
ATOM     57  C   UNL A   1      43.413  28.702  36.187  1.00  0.00     0.031 A 
ATOM     58  C   UNL A   1      44.222  29.231  37.339  1.00  0.00     0.074 A 
ATOM     59  C   UNL A   1      42.494  29.487  35.593  1.00  0.00     0.049 A 
ATOM     60  N   UNL A   1      44.124  30.372  37.968  1.00  0.00    -0.248 NA
ATOM     61  C   UNL A   1      45.284  28.349  37.850  1.00  0.00     0.031 C 
ATOM     62  C   UNL A   1      41.677  29.113  34.440  1.00  0.00     0.029 A 
ATOM     63  N   UNL A   1      42.079  30.762  35.900  1.00  0.00    -0.354 N 
ATOM     64  C   UNL A   1      45.100  30.343  38.957  1.00  0.00     0.074 A 
ATOM     65  C   UNL A   1      45.768  29.064  38.855  1.00  0.00     0.031 C 
ATOM     66  C   UNL A   1      40.838  30.126  34.154  1.00  0.00     0.029 A 
ATOM     67  C   UNL A   1      41.029  31.202  35.127  1.00  0.00     0.049 A 
ATOM     68  H   UNL A   1      42.493  31.308  36.606  1.00  0.00     0.167 HD
ATOM     69  C   UNL A   1      45.411  31.296  39.866  1.00  0.00     0.037 A 
ATOM     70  C   UNL A   1      40.284  32.324  35.218  1.00  0.00     0.037 A 
ATOM     71  C   UNL A   1      44.741  32.566  39.968  1.00  0.00     0.049 A 
ATOM     72  C   UNL A   1      40.590  33.333  36.299  1.00  0.00     0.074 A 
ATOM     73  C   UNL A   1      45.007  33.609  40.838  1.00  0.00     0.029 A 
ATOM     74  N   UNL A   1      43.663  32.960  39.190  1.00  0.00    -0.354 N 
ATOM     75  N   UNL A   1      41.537  33.311  37.206  1.00  0.00    -0.248 NA
ATOM     76  C   UNL A   1      39.720  34.518  36.374  1.00  0.00     0.031 C 
ATOM     77  C   UNL A   1      44.050  34.607  40.629  1.00  0.00     0.029 A 
ATOM     78  C   UNL A   1      43.225  34.212  39.588  1.00  0.00     0.049 A 
ATOM     79  H   UNL A   1      43.268  32.428  38.463  1.00  0.00     0.167 HD
ATOM     80  C   UNL A   1      41.389  34.481  37.946  1.00  0.00     0.074 A 
ATOM     81  C   UNL A   1      40.272  35.199  37.369  1.00  0.00     0.031 C 
ATOM     82  C   UNL A   1      42.110  34.920  39.006  1.00  0.00     0.037 A 
BRANCH  69  83
ATOM     83  C   UNL A   1      46.506  30.992  40.852  1.00  0.00     0.058 A 
ATOM     84  C   UNL A   1      46.244  30.367  42.081  1.00  0.00     0.135 A 
ATOM     85  C   UNL A   1      47.842  31.292  40.541  1.00  0.00     0.135 A 
ATOM     86  F   UNL A   1      44.983  30.076  42.437  1.00  0.00    -0.206 F 
ATOM     87  C   UNL A   1      47.267  30.067  42.976  1.00  0.00     0.059 A 
ATOM     88  C   UNL A   1      48.883  30.977  41.408  1.00  0.00     0.059 A 
ATOM     89  F   UNL A   1      48.146  31.895  39.381  1.00  0.00    -0.206 F 
ATOM     90  C   UNL A   1      48.584  30.375  42.628  1.00  0.00     0.060 A 
BRANCH  90  91
ATOM     91  S   UNL A   1      49.900  29.967  43.795  1.00  0.00     0.124 S 
ATOM     92  O   UNL A   1      50.804  31.099  43.618  1.00  0.00    -0.237 OA
ATOM     93  O   UNL A   1      49.184  29.922  45.066  1.00  0.00    -0.237 OA
ATOM     94  O   UNL A   1      50.399  28.684  43.312  1.00  0.00    -0.744 OA
ENDBRANCH  90  91
ENDBRANCH  69  83
BRANCH  70  95
ATOM     95  C   UNL A   1      39.141  32.539  34.288  1.00  0.00     0.058 A 
ATOM     96  C   UNL A   1      39.300  33.254  33.091  1.00  0.00     0.135 A 
ATOM     97  C   UNL A   1      37.859  32.047  34.586  1.00  0.00     0.135 A 
ATOM     98  F   UNL A   1      40.499  33.763  32.769  1.00  0.00    -0.206 F 
ATOM     99  C   UNL A   1      38.231  33.481  32.228  1.00  0.00     0.059 A 
ATOM    100  C   UNL A   1      36.783  32.238  33.727  1.00  0.00     0.059 A 
ATOM    101  F   UNL A   1      37.651  31.356  35.718  1.00  0.00    -0.206 F 
ATOM    102  C   UNL A   1      36.976  32.964  32.553  1.00  0.00     0.060 A 
BRANCH 102 103
ATOM    103  S   UNL A   1      35.608  33.215  31.401  1.00  0.00     0.124 S 
ATOM    104  O   UNL A   1      34.687  34.008  32.206  1.00  0.00    -0.237 OA
ATOM    105  O   UNL A   1      36.262  33.914  30.300  1.00  0.00    -0.237 OA
ATOM    106  O   UNL A   1      35.172  31.855  31.098  1.00  0.00    -0.744 OA
ENDBRANCH 102 103
ENDBRANCH  70  95
BRANCH  82 107
ATOM    107  C   UNL A   1      41.733  36.245  39.615  1.00  0.00     0.058 A 
ATOM    108  C   UNL A   1      42.341  37.443  39.206  1.00  0.00     0.135 A 
ATOM    109  C   UNL A   1      40.699  36.329  40.562  1.00  0.00     0.135 A 
ATOM    110  F   UNL A   1      43.340  37.421  38.309  1.00  0.00    -0.206 F 
ATOM    111  C   UNL A   1      41.947  38.673  39.723  1.00  0.00     0.059 A 
ATOM    112  C   UNL A   1      40.268  37.551  41.071  1.00  0.00     0.059 A 
ATOM    113  F   UNL A   1      40.075  35.216  40.981  1.00  0.00    -0.206 F 
ATOM    114  C   UNL A   1      40.905  38.717  40.650  1.00  0.00     0.060 A 
BRANCH 114 115
ATOM    115  S   UNL A   1      40.369  40.326  41.272  1.00  0.00     0.124 S 
ATOM    116  O   UNL A   1      39.942  39.991  42.627  1.00  0.00    -0.237 OA
ATOM    117  O   UNL A   1      41.589  41.121  41.171  1.00  0.00    -0.237 OA
ATOM    118  O   UNL A   1      39.301  40.709  40.354  1.00  0.00    -0.744 OA
ENDBRANCH 114 115
ENDBRANCH  82 107
ENDBRANCH  56  57
ENDBRANCH  49  51
ENDBRANCH  48  49
ENDBRANCH  47  48
ENDBRANCH  46  47
ENDBRANCH  45  46
ENDBRANCH  44  45
ENDBRANCH  43  44
ENDBRANCH  42  43
ENDBRANCH   1  42
TORSDOF 29
ENDMDL
MODEL 2
REMARK VINA RESULT:      -6.8      6.799     14.440
REMARK SMILES COc1ccccc1C(=O)N/C(=C/c1ccc2c(c1)OCO2)C(=O)Nc1ccc(C(=O)OCCOCCOCCOCCOC(=O)c2ccc(-c3c4nc(c(-c5c(F)cc(S(=O)(=O)[O-])cc5F)c5ccc([nH]5)c(-c5c(F)cc(S(=O)(=O)[O-])cc5F)c5nc(c(-c6c(F)cc(S(=O)(=O)[O-])cc6F)c6ccc3[nH]6)C=C5)C=C4)cc2)cc1
REMARK SMILES IDX 37 1 36 2 35 3 34 4 33 5 32 6 30 7 31 8 29 9 26 10 27 11
REMARK SMILES IDX 114 12 28 13 113 14 25 15 23 16 24 17 12 19 13 20 11 21 9 22
REMARK SMILES IDX 10 23 8 25 3 26 4 27 5 28 7 29 6 30 2 31 1 32 14 33 15 34
REMARK SMILES IDX 19 35 16 36 18 37 17 38 20 39 22 40 21 41 38 42 39 43 40 44
REMARK SMILES IDX 41 45 42 46 43 47 44 48 45 49 46 50 47 51 48 52 112 53 49 54
REMARK SMILES IDX 111 55 50 56 51 57 52 58 105 59 53 60 110 61 104 62 106 63
REMARK SMILES IDX 54 64 109 65 103 66 102 67 55 69 89 70 68 71 88 72 69 73
REMARK SMILES IDX 72 74 87 75 107 76 70 77 71 78 86 80 108 81 73 82 56 83
REMARK SMILES IDX 57 84 66 85 58 86 59 87 65 88 67 89 60 90 61 91 62 92 63 93
REMARK SMILES IDX 64 94 90 95 91 96 100 97 92 98 93 99 99 100 101 101 94 102
REMARK SMILES IDX 95 103 96 104 97 105 98 106 74 107 75 108 84 109 76 110
REMARK SMILES IDX 77 111 83 112 85 113 78 114 79 115 80 116 81 117 82 118
REMARK H PARENT 25 18 11 24 106 68 72 79
REMARK Flexibility Score: inf
ROOT
ATOM      1  C   UNL A   1      37.776  29.105  27.967  1.00  0.00     0.188 C 
ENDROOT
BRANCH   1   2
ATOM      2  C   UNL A   1      38.696  28.043  28.593  1.00  0.00     0.188 C 
BRANCH   2   3
ATOM      3  O   UNL A   1      39.635  28.355  29.616  1.00  0.00    -0.376 OA
BRANCH   3   4
ATOM      4  C   UNL A   1      39.695  27.635  30.839  1.00  0.00     0.202 C 
BRANCH   4   5
ATOM      5  C   UNL A   1      38.615  27.757  31.931  1.00  0.00     0.261 C 
BRANCH   5   6
ATOM      6  O   UNL A   1      39.097  28.017  33.252  1.00  0.00    -0.460 OA
BRANCH   6   7
ATOM      7  C   UNL A   1      40.138  28.865  33.303  1.00  0.00     0.338 C 
ATOM      8  O   UNL A   1      40.101  30.082  33.375  1.00  0.00    -0.246 OA
BRANCH   7   9
ATOM      9  C   UNL A   1      41.383  28.115  33.481  1.00  0.00     0.060 A 
ATOM     10  C   UNL A   1      44.590  26.226  33.705  1.00  0.00     0.041 A 
ATOM     11  C   UNL A   1      44.375  27.382  32.383  1.00  0.00     0.027 A 
ATOM     12  C   UNL A   1      43.307  26.079  34.908  1.00  0.00     0.027 A 
ATOM     13  C   UNL A   1      42.628  28.380  32.214  1.00  0.00     0.018 A 
ATOM     14  C   UNL A   1      41.766  26.993  34.802  1.00  0.00     0.018 A 
BRANCH  10  15
ATOM     15  N   UNL A   1      45.288  25.090  33.252  1.00  0.00    -0.321 N 
ATOM     16  C   UNL A   1      46.596  24.857  33.688  1.00  0.00     0.272 C 
ATOM     17  O   UNL A   1      46.871  23.889  34.399  1.00  0.00    -0.267 OA
ATOM     18  H   UNL A   1      44.857  24.461  32.629  1.00  0.00     0.170 HD
BRANCH  16  19
ATOM     19  C   UNL A   1      47.725  25.752  33.149  1.00  0.00     0.108 C 
ATOM     20  C   UNL A   1      48.464  26.621  33.899  1.00  0.00     0.040 C 
BRANCH  19  21
ATOM     21  N   UNL A   1      48.041  25.695  31.796  1.00  0.00    -0.317 N 
ATOM     22  C   UNL A   1      49.187  25.504  31.056  1.00  0.00     0.259 C 
ATOM     23  O   UNL A   1      49.084  25.472  29.828  1.00  0.00    -0.269 OA
ATOM     24  H   UNL A   1      47.250  25.823  31.226  1.00  0.00     0.170 HD
BRANCH  22  25
ATOM     25  C   UNL A   1      50.549  25.461  31.617  1.00  0.00     0.082 A 
ATOM     26  C   UNL A   1      51.437  26.534  31.737  1.00  0.00     0.131 A 
ATOM     27  C   UNL A   1      52.771  26.260  32.077  1.00  0.00     0.047 A 
ATOM     28  C   UNL A   1      53.176  24.978  32.453  1.00  0.00     0.004 A 
ATOM     29  C   UNL A   1      50.938  24.191  32.086  1.00  0.00     0.018 A 
ATOM     30  C   UNL A   1      52.242  23.953  32.517  1.00  0.00     0.001 A 
BRANCH  26  31
ATOM     31  O   UNL A   1      51.217  27.867  31.526  1.00  0.00    -0.496 OA
ATOM     32  C   UNL A   1      51.793  28.804  32.429  1.00  0.00     0.278 C 
ENDBRANCH  26  31
ENDBRANCH  22  25
ENDBRANCH  19  21
BRANCH  20  33
ATOM     33  C   UNL A   1      48.087  27.073  35.253  1.00  0.00    -0.019 A 
ATOM     34  C   UNL A   1      47.020  28.503  35.067  1.00  0.00     0.012 A 
ATOM     35  C   UNL A   1      47.802  25.988  36.628  1.00  0.00     0.058 A 
ATOM     36  C   UNL A   1      45.476  28.732  36.352  1.00  0.00     0.051 A 
ATOM     37  C   UNL A   1      46.461  26.244  37.767  1.00  0.00     0.166 A 
ATOM     38  C   UNL A   1      45.319  27.537  37.670  1.00  0.00     0.165 A 
ATOM     39  O   UNL A   1      45.827  25.244  38.470  1.00  0.00    -0.454 OA
ATOM     40  O   UNL A   1      44.179  27.146  38.304  1.00  0.00    -0.454 OA
ATOM     41  C   UNL A   1      44.432  25.708  38.437  1.00  0.00     0.468 C 
ENDBRANCH  20  33
ENDBRANCH  16  19
ENDBRANCH  10  15
ENDBRANCH   7   9
ENDBRANCH   6   7
ENDBRANCH   5   6
ENDBRANCH   4   5
ENDBRANCH   3   4
ENDBRANCH   2   3
ENDBRANCH   1   2
BRANCH   1  42
ATOM     42  O   UNL A   1      37.716  30.316  28.685  1.00  0.00    -0.377 OA
BRANCH  42  43
ATOM     43  C   UNL A   1      36.798  30.347  29.762  1.00  0.00     0.188 C 
BRANCH  43  44
ATOM     44  C   UNL A   1      36.397  31.740  30.280  1.00  0.00     0.188 C 
BRANCH  44  45
ATOM     45  O   UNL A   1      36.577  32.765  29.306  1.00  0.00    -0.376 OA
BRANCH  45  46
ATOM     46  C   UNL A   1      37.663  33.659  29.497  1.00  0.00     0.202 C 
BRANCH  46  47
ATOM     47  C   UNL A   1      38.279  33.732  30.905  1.00  0.00     0.261 C 
BRANCH  47  48
ATOM     48  O   UNL A   1      39.402  34.609  31.097  1.00  0.00    -0.460 OA
BRANCH  48  49
ATOM     49  C   UNL A   1      40.328  34.303  32.033  1.00  0.00     0.338 C 
ATOM     50  O   UNL A   1      40.196  34.382  33.240  1.00  0.00    -0.246 OA
BRANCH  49  51
ATOM     51  C   UNL A   1      41.457  33.636  31.334  1.00  0.00     0.060 A 
ATOM     52  C   UNL A   1      42.240  32.704  32.031  1.00  0.00     0.016 A 
ATOM     53  C   UNL A   1      41.697  33.869  29.977  1.00  0.00     0.016 A 
ATOM     54  C   UNL A   1      43.250  31.995  31.371  1.00  0.00     0.010 A 
ATOM     55  C   UNL A   1      42.733  33.188  29.328  1.00  0.00     0.010 A 
ATOM     56  C   UNL A   1      43.522  32.253  30.021  1.00  0.00    -0.014 A 
BRANCH  56  57
ATOM     57  C   UNL A   1      44.721  31.669  29.364  1.00  0.00     0.031 A 
ATOM     58  C   UNL A   1      44.635  30.261  28.841  1.00  0.00     0.074 A 
ATOM     59  C   UNL A   1      45.872  32.359  29.253  1.00  0.00     0.049 A 
ATOM     60  N   UNL A   1      45.574  29.503  28.339  1.00  0.00    -0.248 NA
ATOM     61  C   UNL A   1      43.310  29.624  28.897  1.00  0.00     0.031 C 
ATOM     62  C   UNL A   1      46.075  33.743  29.675  1.00  0.00     0.029 A 
ATOM     63  N   UNL A   1      47.100  31.973  28.766  1.00  0.00    -0.354 N 
ATOM     64  C   UNL A   1      44.959  28.295  28.030  1.00  0.00     0.074 A 
ATOM     65  C   UNL A   1      43.570  28.416  28.417  1.00  0.00     0.031 C 
ATOM     66  C   UNL A   1      47.358  34.082  29.456  1.00  0.00     0.029 A 
ATOM     67  C   UNL A   1      48.078  32.928  28.916  1.00  0.00     0.049 A 
ATOM     68  H   UNL A   1      47.262  31.096  28.351  1.00  0.00     0.167 HD
ATOM     69  C   UNL A   1      45.502  27.187  27.473  1.00  0.00     0.037 A 
ATOM     70  C   UNL A   1      49.406  32.865  28.683  1.00  0.00     0.037 A 
ATOM     71  C   UNL A   1      46.886  27.069  27.094  1.00  0.00     0.049 A 
ATOM     72  C   UNL A   1      50.007  31.588  28.148  1.00  0.00     0.074 A 
ATOM     73  C   UNL A   1      47.521  25.996  26.495  1.00  0.00     0.029 A 
ATOM     74  N   UNL A   1      47.850  28.045  27.292  1.00  0.00    -0.354 N 
ATOM     75  N   UNL A   1      49.410  30.465  27.827  1.00  0.00    -0.248 NA
ATOM     76  C   UNL A   1      51.466  31.566  27.949  1.00  0.00     0.031 C 
ATOM     77  C   UNL A   1      48.882  26.298  26.388  1.00  0.00     0.029 A 
ATOM     78  C   UNL A   1      49.084  27.583  26.866  1.00  0.00     0.049 A 
ATOM     79  H   UNL A   1      47.682  28.934  27.679  1.00  0.00     0.167 HD
ATOM     80  C   UNL A   1      50.413  29.612  27.374  1.00  0.00     0.074 A 
ATOM     81  C   UNL A   1      51.654  30.354  27.445  1.00  0.00     0.031 C 
ATOM     82  C   UNL A   1      50.316  28.331  26.941  1.00  0.00     0.037 A 
BRANCH  69  83
ATOM     83  C   UNL A   1      44.606  25.996  27.270  1.00  0.00     0.058 A 
ATOM     84  C   UNL A   1      44.316  25.101  28.312  1.00  0.00     0.135 A 
ATOM     85  C   UNL A   1      43.998  25.773  26.024  1.00  0.00     0.135 A 
ATOM     86  F   UNL A   1      44.885  25.257  29.517  1.00  0.00    -0.206 F 
ATOM     87  C   UNL A   1      43.466  24.015  28.120  1.00  0.00     0.059 A 
ATOM     88  C   UNL A   1      43.125  24.709  25.818  1.00  0.00     0.059 A 
ATOM     89  F   UNL A   1      44.248  26.594  24.993  1.00  0.00    -0.206 F 
ATOM     90  C   UNL A   1      42.874  23.830  26.869  1.00  0.00     0.060 A 
BRANCH  90  91
ATOM     91  S   UNL A   1      41.765  22.424  26.642  1.00  0.00     0.124 S 
ATOM     92  O   UNL A   1      42.149  21.568  27.761  1.00  0.00    -0.237 OA
ATOM     93  O   UNL A   1      40.449  23.047  26.745  1.00  0.00    -0.237 OA
ATOM     94  O   UNL A   1      42.117  21.922  25.319  1.00  0.00    -0.744 OA
ENDBRANCH  90  91
ENDBRANCH  69  83
BRANCH  70  95
ATOM     95  C   UNL A   1      50.276  34.034  28.997  1.00  0.00     0.058 A 
ATOM     96  C   UNL A   1      50.839  34.202  30.270  1.00  0.00     0.135 A 
ATOM     97  C   UNL A   1      50.548  35.016  28.030  1.00  0.00     0.135 A 
ATOM     98  F   UNL A   1      50.593  33.303  31.236  1.00  0.00    -0.206 F 
ATOM     99  C   UNL A   1      51.632  35.304  30.579  1.00  0.00     0.059 A 
ATOM    100  C   UNL A   1      51.360  36.111  28.306  1.00  0.00     0.059 A 
ATOM    101  F   UNL A   1      50.036  34.904  26.795  1.00  0.00    -0.206 F 
ATOM    102  C   UNL A   1      51.892  36.251  29.587  1.00  0.00     0.060 A 
BRANCH 102 103
ATOM    103  S   UNL A   1      52.968  37.647  29.979  1.00  0.00     0.124 S 
ATOM    104  O   UNL A   1      52.073  38.778  29.764  1.00  0.00    -0.237 OA
ATOM    105  O   UNL A   1      53.330  37.373  31.366  1.00  0.00    -0.237 OA
ATOM    106  O   UNL A   1      54.058  37.511  29.016  1.00  0.00    -0.744 OA
ENDBRANCH 102 103
ENDBRANCH  70  95
BRANCH  82 107
ATOM    107  C   UNL A   1      51.578  27.641  26.494  1.00  0.00     0.058 A 
ATOM    108  C   UNL A   1      52.159  27.908  25.244  1.00  0.00     0.135 A 
ATOM    109  C   UNL A   1      52.255  26.761  27.353  1.00  0.00     0.135 A 
ATOM    110  F   UNL A   1      51.551  28.736  24.379  1.00  0.00    -0.206 F 
ATOM    111  C   UNL A   1      53.358  27.318  24.858  1.00  0.00     0.059 A 
ATOM    112  C   UNL A   1      53.471  26.183  27.000  1.00  0.00     0.059 A 
ATOM    113  F   UNL A   1      51.750  26.478  28.565  1.00  0.00    -0.206 F 
ATOM    114  C   UNL A   1      54.011  26.461  25.746  1.00  0.00     0.060 A 
BRANCH 114 115
ATOM    115  S   UNL A   1      55.593  25.746  25.252  1.00  0.00     0.124 S 
ATOM    116  O   UNL A   1      55.321  24.317  25.373  1.00  0.00    -0.237 OA
ATOM    117  O   UNL A   1      55.750  26.247  23.890  1.00  0.00    -0.237 OA
ATOM    118  O   UNL A   1      56.534  26.289  26.226  1.00  0.00    -0.744 OA
ENDBRANCH 114 115
ENDBRANCH  82 107
ENDBRANCH  56  57
ENDBRANCH  49  51
ENDBRANCH  48  49
ENDBRANCH  47  48
ENDBRANCH  46  47
ENDBRANCH  45  46
ENDBRANCH  44  45
ENDBRANCH  43  44
ENDBRANCH  42  43
ENDBRANCH   1  42
TORSDOF 29
ENDMDL
MODEL 3
REMARK VINA RESULT:      -6.5      6.934     14.798
REMARK SMILES COc1ccccc1C(=O)N/C(=C/c1ccc2c(c1)OCO2)C(=O)Nc1ccc(C(=O)OCCOCCOCCOCCOC(=O)c2ccc(-c3c4nc(c(-c5c(F)cc(S(=O)(=O)[O-])cc5F)c5ccc([nH]5)c(-c5c(F)cc(S(=O)(=O)[O-])cc5F)c5nc(c(-c6c(F)cc(S(=O)(=O)[O-])cc6F)c6ccc3[nH]6)C=C5)C=C4)cc2)cc1
REMARK SMILES IDX 37 1 36 2 35 3 34 4 33 5 32 6 30 7 31 8 29 9 26 10 27 11
REMARK SMILES IDX 114 12 28 13 113 14 25 15 23 16 24 17 12 19 13 20 11 21 9 22
REMARK SMILES IDX 10 23 8 25 3 26 4 27 5 28 7 29 6 30 2 31 1 32 14 33 15 34
REMARK SMILES IDX 19 35 16 36 18 37 17 38 20 39 22 40 21 41 38 42 39 43 40 44
REMARK SMILES IDX 41 45 42 46 43 47 44 48 45 49 46 50 47 51 48 52 112 53 49 54
REMARK SMILES IDX 111 55 50 56 51 57 52 58 105 59 53 60 110 61 104 62 106 63
REMARK SMILES IDX 54 64 109 65 103 66 102 67 55 69 89 70 68 71 88 72 69 73
REMARK SMILES IDX 72 74 87 75 107 76 70 77 71 78 86 80 108 81 73 82 56 83
REMARK SMILES IDX 57 84 66 85 58 86 59 87 65 88 67 89 60 90 61 91 62 92 63 93
REMARK SMILES IDX 64 94 90 95 91 96 100 97 92 98 93 99 99 100 101 101 94 102
REMARK SMILES IDX 95 103 96 104 97 105 98 106 74 107 75 108 84 109 76 110
REMARK SMILES IDX 77 111 83 112 85 113 78 114 79 115 80 116 81 117 82 118
REMARK H PARENT 25 18 11 24 106 68 72 79
REMARK Flexibility Score: inf
ROOT
ATOM      1  C   UNL A   1      37.880  28.994  28.218  1.00  0.00     0.188 C 
ENDROOT
BRANCH   1   2
ATOM      2  C   UNL A   1      38.813  28.112  29.065  1.00  0.00     0.188 C 
BRANCH   2   3
ATOM      3  O   UNL A   1      39.688  28.652  30.049  1.00  0.00    -0.376 OA
BRANCH   3   4
ATOM      4  C   UNL A   1      39.756  28.139  31.372  1.00  0.00     0.202 C 
BRANCH   4   5
ATOM      5  C   UNL A   1      38.595  28.272  32.377  1.00  0.00     0.261 C 
BRANCH   5   6
ATOM      6  O   UNL A   1      38.900  28.974  33.585  1.00  0.00    -0.460 OA
BRANCH   6   7
ATOM      7  C   UNL A   1      39.839  29.926  33.449  1.00  0.00     0.338 C 
ATOM      8  O   UNL A   1      39.681  31.075  33.073  1.00  0.00    -0.246 OA
BRANCH   7   9
ATOM      9  C   UNL A   1      41.103  29.466  34.029  1.00  0.00     0.060 A 
ATOM     10  C   UNL A   1      44.371  28.201  35.302  1.00  0.00     0.041 A 
ATOM     11  C   UNL A   1      44.193  28.501  33.567  1.00  0.00     0.027 A 
ATOM     12  C   UNL A   1      43.018  28.593  36.364  1.00  0.00     0.027 A 
ATOM     13  C   UNL A   1      42.417  29.140  32.850  1.00  0.00     0.018 A 
ATOM     14  C   UNL A   1      41.447  29.208  35.751  1.00  0.00     0.018 A 
BRANCH  10  15
ATOM     15  N   UNL A   1      45.150  27.048  35.521  1.00  0.00    -0.321 N 
ATOM     16  C   UNL A   1      46.456  27.172  36.001  1.00  0.00     0.272 C 
ATOM     17  O   UNL A   1      46.771  26.755  37.117  1.00  0.00    -0.267 OA
ATOM     18  H   UNL A   1      44.775  26.156  35.335  1.00  0.00     0.170 HD
BRANCH  16  19
ATOM     19  C   UNL A   1      47.543  27.713  35.055  1.00  0.00     0.108 C 
ATOM     20  C   UNL A   1      47.861  27.179  33.840  1.00  0.00     0.040 C 
BRANCH  19  21
ATOM     21  N   UNL A   1      48.274  28.830  35.440  1.00  0.00    -0.317 N 
ATOM     22  C   UNL A   1      48.613  30.036  34.866  1.00  0.00     0.259 C 
ATOM     23  O   UNL A   1      49.266  30.835  35.541  1.00  0.00    -0.269 OA
ATOM     24  H   UNL A   1      48.643  28.736  36.347  1.00  0.00     0.170 HD
BRANCH  22  25
ATOM     25  C   UNL A   1      48.361  30.394  33.459  1.00  0.00     0.082 A 
ATOM     26  C   UNL A   1      47.224  31.026  32.948  1.00  0.00     0.131 A 
ATOM     27  C   UNL A   1      47.058  31.075  31.555  1.00  0.00     0.047 A 
ATOM     28  C   UNL A   1      48.070  30.661  30.688  1.00  0.00     0.004 A 
ATOM     29  C   UNL A   1      49.416  30.066  32.585  1.00  0.00     0.018 A 
ATOM     30  C   UNL A   1      49.278  30.213  31.206  1.00  0.00     0.001 A 
BRANCH  26  31
ATOM     31  O   UNL A   1      46.175  31.594  33.617  1.00  0.00    -0.496 OA
ATOM     32  C   UNL A   1      45.704  32.867  33.191  1.00  0.00     0.278 C 
ENDBRANCH  26  31
ENDBRANCH  22  25
ENDBRANCH  19  21
BRANCH  20  33
ATOM     33  C   UNL A   1      47.452  25.833  33.393  1.00  0.00    -0.019 A 
ATOM     34  C   UNL A   1      48.355  24.638  34.379  1.00  0.00     0.012 A 
ATOM     35  C   UNL A   1      45.812  25.411  32.861  1.00  0.00     0.058 A 
ATOM     36  C   UNL A   1      47.418  22.937  34.939  1.00  0.00     0.051 A 
ATOM     37  C   UNL A   1      45.033  23.884  33.334  1.00  0.00     0.166 A 
ATOM     38  C   UNL A   1      45.758  22.676  34.332  1.00  0.00     0.165 A 
ATOM     39  O   UNL A   1      43.673  23.706  33.467  1.00  0.00    -0.454 OA
ATOM     40  O   UNL A   1      44.762  21.958  34.922  1.00  0.00    -0.454 OA
ATOM     41  C   UNL A   1      43.612  22.822  34.640  1.00  0.00     0.468 C 
ENDBRANCH  20  33
ENDBRANCH  16  19
ENDBRANCH  10  15
ENDBRANCH   7   9
ENDBRANCH   6   7
ENDBRANCH   5   6
ENDBRANCH   4   5
ENDBRANCH   3   4
ENDBRANCH   2   3
ENDBRANCH   1   2
BRANCH   1  42
ATOM     42  O   UNL A   1      37.684  30.291  28.733  1.00  0.00    -0.377 OA
BRANCH  42  43
ATOM     43  C   UNL A   1      36.708  30.408  29.752  1.00  0.00     0.188 C 
BRANCH  43  44
ATOM     44  C   UNL A   1      36.232  31.834  30.084  1.00  0.00     0.188 C 
BRANCH  44  45
ATOM     45  O   UNL A   1      36.469  32.756  29.024  1.00  0.00    -0.376 OA
BRANCH  45  46
ATOM     46  C   UNL A   1      37.510  33.704  29.208  1.00  0.00     0.202 C 
BRANCH  46  47
ATOM     47  C   UNL A   1      38.045  33.896  30.638  1.00  0.00     0.261 C 
BRANCH  47  48
ATOM     48  O   UNL A   1      39.115  34.838  30.829  1.00  0.00    -0.460 OA
BRANCH  48  49
ATOM     49  C   UNL A   1      40.084  34.565  31.731  1.00  0.00     0.338 C 
ATOM     50  O   UNL A   1      39.996  34.651  32.941  1.00  0.00    -0.246 OA
BRANCH  49  51
ATOM     51  C   UNL A   1      41.203  33.922  30.993  1.00  0.00     0.060 A 
ATOM     52  C   UNL A   1      41.960  32.926  31.629  1.00  0.00     0.016 A 
ATOM     53  C   UNL A   1      41.457  34.243  29.657  1.00  0.00     0.016 A 
ATOM     54  C   UNL A   1      42.958  32.242  30.926  1.00  0.00     0.010 A 
ATOM     55  C   UNL A   1      42.483  33.584  28.968  1.00  0.00     0.010 A 
ATOM     56  C   UNL A   1      43.245  32.586  29.600  1.00  0.00    -0.014 A 
BRANCH  56  57
ATOM     57  C   UNL A   1      44.436  32.022  28.910  1.00  0.00     0.031 A 
ATOM     58  C   UNL A   1      44.398  30.579  28.483  1.00  0.00     0.074 A 
ATOM     59  C   UNL A   1      45.539  32.761  28.687  1.00  0.00     0.049 A 
ATOM     60  N   UNL A   1      45.347  29.839  27.975  1.00  0.00    -0.248 NA
ATOM     61  C   UNL A   1      43.115  29.881  28.658  1.00  0.00     0.031 C 
ATOM     62  C   UNL A   1      45.689  34.179  29.007  1.00  0.00     0.029 A 
ATOM     63  N   UNL A   1      46.757  32.406  28.154  1.00  0.00    -0.354 N 
ATOM     64  C   UNL A   1      44.783  28.583  27.780  1.00  0.00     0.074 A 
ATOM     65  C   UNL A   1      43.413  28.659  28.241  1.00  0.00     0.031 C 
ATOM     66  C   UNL A   1      46.938  34.567  28.691  1.00  0.00     0.029 A 
ATOM     67  C   UNL A   1      47.689  33.418  28.184  1.00  0.00     0.049 A 
ATOM     68  H   UNL A   1      46.944  31.513  27.785  1.00  0.00     0.167 HD
ATOM     69  C   UNL A   1      45.354  27.470  27.264  1.00  0.00     0.037 A 
ATOM     70  C   UNL A   1      49.002  33.408  27.876  1.00  0.00     0.037 A 
ATOM     71  C   UNL A   1      46.718  27.398  26.811  1.00  0.00     0.049 A 
ATOM     72  C   UNL A   1      49.642  32.130  27.388  1.00  0.00     0.074 A 
ATOM     73  C   UNL A   1      47.377  26.321  26.244  1.00  0.00     0.029 A 
ATOM     74  N   UNL A   1      47.638  28.433  26.889  1.00  0.00    -0.354 N 
ATOM     75  N   UNL A   1      49.090  30.959  27.175  1.00  0.00    -0.248 NA
ATOM     76  C   UNL A   1      51.086  32.170  27.105  1.00  0.00     0.031 C 
ATOM     77  C   UNL A   1      48.711  26.684  26.037  1.00  0.00     0.029 A 
ATOM     78  C   UNL A   1      48.869  28.007  26.420  1.00  0.00     0.049 A 
ATOM     79  H   UNL A   1      47.443  29.335  27.228  1.00  0.00     0.167 HD
ATOM     80  C   UNL A   1      50.111  30.131  26.718  1.00  0.00     0.074 A 
ATOM     81  C   UNL A   1      51.312  30.938  26.667  1.00  0.00     0.031 C 
ATOM     82  C   UNL A   1      50.060  28.820  26.374  1.00  0.00     0.037 A 
BRANCH  69  83
ATOM     83  C   UNL A   1      44.515  26.224  27.191  1.00  0.00     0.058 A 
ATOM     84  C   UNL A   1      44.388  25.350  28.282  1.00  0.00     0.135 A 
ATOM     85  C   UNL A   1      43.794  25.924  26.023  1.00  0.00     0.135 A 
ATOM     86  F   UNL A   1      45.071  25.579  29.415  1.00  0.00    -0.206 F 
ATOM     87  C   UNL A   1      43.590  24.212  28.212  1.00  0.00     0.059 A 
ATOM     88  C   UNL A   1      42.969  24.807  25.941  1.00  0.00     0.059 A 
ATOM     89  F   UNL A   1      43.885  26.723  24.949  1.00  0.00    -0.206 F 
ATOM     90  C   UNL A   1      42.883  23.951  27.037  1.00  0.00     0.060 A 
BRANCH  90  91
ATOM     91  S   UNL A   1      41.843  22.477  26.968  1.00  0.00     0.124 S 
ATOM     92  O   UNL A   1      42.490  21.619  27.956  1.00  0.00    -0.237 OA
ATOM     93  O   UNL A   1      40.534  23.003  27.347  1.00  0.00    -0.237 OA
ATOM     94  O   UNL A   1      41.963  22.039  25.582  1.00  0.00    -0.744 OA
ENDBRANCH  90  91
ENDBRANCH  69  83
BRANCH  70  95
ATOM     95  C   UNL A   1      49.823  34.638  28.063  1.00  0.00     0.058 A 
ATOM     96  C   UNL A   1      50.447  34.918  29.287  1.00  0.00     0.135 A 
ATOM     97  C   UNL A   1      49.987  35.566  27.021  1.00  0.00     0.135 A 
ATOM     98  F   UNL A   1      50.305  34.074  30.321  1.00  0.00    -0.206 F 
ATOM     99  C   UNL A   1      51.195  36.078  29.478  1.00  0.00     0.059 A 
ATOM    100  C   UNL A   1      50.752  36.716  27.178  1.00  0.00     0.059 A 
ATOM    101  F   UNL A   1      49.412  35.346  25.829  1.00  0.00    -0.206 F 
ATOM    102  C   UNL A   1      51.346  36.968  28.414  1.00  0.00     0.060 A 
BRANCH 102 103
ATOM    103  S   UNL A   1      52.364  38.441  28.652  1.00  0.00     0.124 S 
ATOM    104  O   UNL A   1      52.472  38.492  30.105  1.00  0.00    -0.237 OA
ATOM    105  O   UNL A   1      53.583  38.088  27.931  1.00  0.00    -0.237 OA
ATOM    106  O   UNL A   1      51.568  39.501  28.039  1.00  0.00    -0.744 OA
ENDBRANCH 102 103
ENDBRANCH  70  95
BRANCH  82 107
ATOM    107  C   UNL A   1      51.331  28.167  25.897  1.00  0.00     0.058 A 
ATOM    108  C   UNL A   1      51.689  28.159  24.539  1.00  0.00     0.135 A 
ATOM    109  C   UNL A   1      52.238  27.612  26.813  1.00  0.00     0.135 A 
ATOM    110  F   UNL A   1      50.856  28.670  23.618  1.00  0.00    -0.206 F 
ATOM    111  C   UNL A   1      52.893  27.611  24.107  1.00  0.00     0.059 A 
ATOM    112  C   UNL A   1      53.461  27.086  26.408  1.00  0.00     0.059 A 
ATOM    113  F   UNL A   1      51.952  27.603  28.126  1.00  0.00    -0.206 F 
ATOM    114  C   UNL A   1      53.776  27.083  25.050  1.00  0.00     0.060 A 
BRANCH 114 115
ATOM    115  S   UNL A   1      55.357  26.425  24.480  1.00  0.00     0.124 S 
ATOM    116  O   UNL A   1      55.225  25.010  24.811  1.00  0.00    -0.237 OA
ATOM    117  O   UNL A   1      55.334  26.747  23.056  1.00  0.00    -0.237 OA
ATOM    118  O   UNL A   1      56.340  27.165  25.267  1.00  0.00    -0.744 OA
ENDBRANCH 114 115
ENDBRANCH  82 107
ENDBRANCH  56  57
ENDBRANCH  49  51
ENDBRANCH  48  49
ENDBRANCH  47  48
ENDBRANCH  46  47
ENDBRANCH  45  46
ENDBRANCH  44  45
ENDBRANCH  43  44
ENDBRANCH  42  43
ENDBRANCH   1  42
TORSDOF 29
ENDMDL
