MODEL 1
REMARK VINA RESULT:     -10.9      0.000      0.000
REMARK SMILES Cc1ccc(C(=O)N2CCCC[C@@H]2C(=O)OCCOCCOCCOCCOC(=O)c2ccc(-c3c4nc(c(-c5c(F)cc(S(=O)(=O)[O-])cc5F)c5ccc([nH]5)c(-c5c(F)cc(S(=O)(=O)[O-])cc5F)c5nc(c(-c6c(F)cc(S(=O)(=O)[O-])cc6F)c6ccc3[nH]6)C=C5)C=C4)cc2)cc1S(=O)(=O)N1CCCCC1
REMARK SMILES IDX 21 1 20 2 19 3 18 4 17 5 16 6 14 7 15 8 13 9 8 10 9 11 10 12
REMARK SMILES IDX 12 13 11 14 6 15 7 16 5 17 1 18 2 19 3 20 98 21 4 22 97 23
REMARK SMILES IDX 99 24 100 25 101 26 102 27 103 28 107 29 104 30 106 31
REMARK SMILES IDX 105 32 22 33 23 34 24 35 25 36 26 37 27 38 28 39 29 40 30 41
REMARK SMILES IDX 31 42 32 43 96 44 33 45 95 46 34 47 35 48 36 49 89 50 37 51
REMARK SMILES IDX 94 52 88 53 90 54 38 55 93 56 87 57 86 58 39 60 73 61 52 62
REMARK SMILES IDX 72 63 53 64 56 65 71 66 91 67 54 68 55 69 70 71 92 72 57 73
REMARK SMILES IDX 40 74 41 75 50 76 42 77 43 78 49 79 51 80 44 81 45 82 46 83
REMARK SMILES IDX 47 84 48 85 74 86 75 87 84 88 76 89 77 90 83 91 85 92 78 93
REMARK SMILES IDX 79 94 80 95 81 96 82 97 58 98 59 99 68 100 60 101 61 102
REMARK SMILES IDX 67 103 69 104 62 105 63 106 64 107 65 108 66 109
REMARK H PARENT 90 59 56 70
REMARK Flexibility Score: inf
ROOT
ATOM      1  C   UNL A   1      33.806  30.431  27.182  1.00  0.00     0.188 C 
ENDROOT
BRANCH   1   2
ATOM      2  C   UNL A   1      32.444  29.876  26.698  1.00  0.00     0.188 C 
BRANCH   2   3
ATOM      3  O   UNL A   1      32.190  28.567  25.589  1.00  0.00    -0.376 OA
BRANCH   3   4
ATOM      4  C   UNL A   1      33.215  27.993  24.206  1.00  0.00     0.202 C 
BRANCH   4   5
ATOM      5  C   UNL A   1      32.718  26.813  22.794  1.00  0.00     0.261 C 
BRANCH   5   6
ATOM      6  O   UNL A   1      33.642  25.287  22.343  1.00  0.00    -0.462 OA
BRANCH   6   7
ATOM      7  C   UNL A   1      33.908  23.724  22.671  1.00  0.00     0.328 C 
ATOM      8  O   UNL A   1      34.765  22.998  22.127  1.00  0.00    -0.250 OA
BRANCH   7   9
ATOM      9  C   UNL A   1      33.280  23.043  24.049  1.00  0.00     0.195 C 
ATOM     10  N   UNL A   1      34.101  22.800  25.241  1.00  0.00    -0.325 N 
ATOM     11  C   UNL A   1      33.564  21.962  26.306  1.00  0.00     0.121 C 
ATOM     12  C   UNL A   1      33.397  20.549  25.817  1.00  0.00     0.022 C 
ATOM     13  C   UNL A   1      32.421  21.723  23.687  1.00  0.00     0.037 C 
ATOM     14  C   UNL A   1      32.379  20.536  24.689  1.00  0.00     0.005 C 
BRANCH  10  15
ATOM     15  C   UNL A   1      35.250  23.538  25.532  1.00  0.00     0.254 C 
ATOM     16  O   UNL A   1      35.105  24.732  25.796  1.00  0.00    -0.269 OA
BRANCH  15  17
ATOM     17  C   UNL A   1      36.583  22.865  25.161  1.00  0.00     0.041 A 
ATOM     18  C   UNL A   1      41.134  21.094  26.969  1.00  0.00     0.046 C 
ATOM     19  C   UNL A   1      39.923  21.765  26.425  1.00  0.00    -0.031 A 
ATOM     20  C   UNL A   1      38.819  20.709  25.707  1.00  0.00     0.005 A 
ATOM     21  C   UNL A   1      39.488  23.471  26.474  1.00  0.00     0.086 A 
ATOM     22  C   UNL A   1      37.277  21.206  25.084  1.00  0.00     0.014 A 
ATOM     23  C   UNL A   1      37.643  24.033  25.674  1.00  0.00     0.035 A 
BRANCH  21  24
ATOM     24  S   UNL A   1      40.978  24.563  27.244  1.00  0.00     0.243 S 
ATOM     25  O   UNL A   1      41.312  24.277  28.630  1.00  0.00    -0.207 OA
ATOM     26  O   UNL A   1      42.033  24.547  26.249  1.00  0.00    -0.207 OA
BRANCH  24  27
ATOM     27  N   UNL A   1      40.343  26.118  27.347  1.00  0.00    -0.198 NA
ATOM     28  C   UNL A   1      41.209  27.058  26.642  1.00  0.00     0.102 C 
ATOM     29  C   UNL A   1      39.568  26.520  28.531  1.00  0.00     0.102 C 
ATOM     30  C   UNL A   1      41.000  28.498  27.010  1.00  0.00     0.017 C 
ATOM     31  C   UNL A   1      39.254  28.001  28.657  1.00  0.00     0.017 C 
ATOM     32  C   UNL A   1      39.562  28.771  27.395  1.00  0.00     0.003 C 
ENDBRANCH  24  27
ENDBRANCH  21  24
ENDBRANCH  15  17
ENDBRANCH  10  15
ENDBRANCH   7   9
ENDBRANCH   6   7
ENDBRANCH   5   6
ENDBRANCH   4   5
ENDBRANCH   3   4
ENDBRANCH   2   3
ENDBRANCH   1   2
BRANCH   1  33
ATOM     33  O   UNL A   1      33.881  31.713  27.746  1.00  0.00    -0.377 OA
BRANCH  33  34
ATOM     34  C   UNL A   1      34.944  31.769  28.672  1.00  0.00     0.188 C 
BRANCH  34  35
ATOM     35  C   UNL A   1      35.833  33.000  28.471  1.00  0.00     0.188 C 
BRANCH  35  36
ATOM     36  O   UNL A   1      36.530  33.503  29.593  1.00  0.00    -0.376 OA
BRANCH  36  37
ATOM     37  C   UNL A   1      37.925  33.488  29.782  1.00  0.00     0.202 C 
BRANCH  37  38
ATOM     38  C   UNL A   1      38.335  32.048  29.782  1.00  0.00     0.261 C 
BRANCH  38  39
ATOM     39  O   UNL A   1      38.400  31.460  31.128  1.00  0.00    -0.460 OA
BRANCH  39  40
ATOM     40  C   UNL A   1      39.580  31.289  31.810  1.00  0.00     0.338 C 
ATOM     41  O   UNL A   1      39.792  31.803  32.901  1.00  0.00    -0.246 OA
BRANCH  40  42
ATOM     42  C   UNL A   1      40.532  30.301  31.196  1.00  0.00     0.060 A 
ATOM     43  C   UNL A   1      40.712  29.061  31.787  1.00  0.00     0.016 A 
ATOM     44  C   UNL A   1      41.431  30.666  30.203  1.00  0.00     0.016 A 
ATOM     45  C   UNL A   1      41.935  28.392  31.618  1.00  0.00     0.010 A 
ATOM     46  C   UNL A   1      42.721  30.108  30.226  1.00  0.00     0.010 A 
ATOM     47  C   UNL A   1      43.073  29.069  31.121  1.00  0.00    -0.014 A 
BRANCH  47  48
ATOM     48  C   UNL A   1      44.791  28.922  31.412  1.00  0.00     0.031 A 
ATOM     49  C   UNL A   1      45.022  27.719  30.157  1.00  0.00     0.074 A 
ATOM     50  C   UNL A   1      45.849  29.555  32.616  1.00  0.00     0.049 A 
ATOM     51  N   UNL A   1      46.125  27.126  29.801  1.00  0.00    -0.248 NA
ATOM     52  C   UNL A   1      43.929  27.097  29.372  1.00  0.00     0.031 C 
ATOM     53  C   UNL A   1      47.266  30.060  32.794  1.00  0.00     0.029 A 
ATOM     54  N   UNL A   1      45.838  29.542  34.127  1.00  0.00    -0.354 N 
ATOM     55  C   UNL A   1      46.021  26.714  28.511  1.00  0.00     0.074 A 
ATOM     56  C   UNL A   1      44.602  26.524  28.366  1.00  0.00     0.031 C 
ATOM     57  C   UNL A   1      47.957  29.641  33.865  1.00  0.00     0.029 A 
ATOM     58  C   UNL A   1      47.008  29.065  34.707  1.00  0.00     0.049 A 
ATOM     59  H   UNL A   1      45.067  29.847  34.658  1.00  0.00     0.167 HD
ATOM     60  C   UNL A   1      47.152  26.752  27.738  1.00  0.00     0.037 A 
ATOM     61  C   UNL A   1      47.337  28.451  35.864  1.00  0.00     0.037 A 
ATOM     62  C   UNL A   1      48.482  26.622  28.599  1.00  0.00     0.049 A 
ATOM     63  C   UNL A   1      48.469  27.320  35.565  1.00  0.00     0.074 A 
ATOM     64  C   UNL A   1      50.267  26.807  28.471  1.00  0.00     0.029 A 
ATOM     65  N   UNL A   1      48.205  25.825  30.260  1.00  0.00    -0.354 N 
ATOM     66  N   UNL A   1      48.803  26.949  34.337  1.00  0.00    -0.248 NA
ATOM     67  C   UNL A   1      49.318  26.550  36.478  1.00  0.00     0.031 C 
ATOM     68  C   UNL A   1      51.208  25.982  30.018  1.00  0.00     0.029 A 
ATOM     69  C   UNL A   1      49.931  25.401  31.234  1.00  0.00     0.049 A 
ATOM     70  H   UNL A   1      47.312  25.630  30.628  1.00  0.00     0.167 HD
ATOM     71  C   UNL A   1      49.775  25.882  34.205  1.00  0.00     0.074 A 
ATOM     72  C   UNL A   1      50.075  25.761  35.656  1.00  0.00     0.031 C 
ATOM     73  C   UNL A   1      50.207  25.113  32.981  1.00  0.00     0.037 A 
BRANCH  60  74
ATOM     74  C   UNL A   1      47.035  26.698  26.180  1.00  0.00     0.058 A 
ATOM     75  C   UNL A   1      46.512  27.787  25.470  1.00  0.00     0.135 A 
ATOM     76  C   UNL A   1      47.612  25.718  25.322  1.00  0.00     0.135 A 
ATOM     77  F   UNL A   1      45.626  28.603  26.060  1.00  0.00    -0.206 F 
ATOM     78  C   UNL A   1      46.875  28.069  24.134  1.00  0.00     0.059 A 
ATOM     79  C   UNL A   1      47.970  25.956  23.988  1.00  0.00     0.059 A 
ATOM     80  F   UNL A   1      47.855  24.465  25.704  1.00  0.00    -0.206 F 
ATOM     81  C   UNL A   1      47.693  27.187  23.432  1.00  0.00     0.060 A 
BRANCH  81  82
ATOM     82  S   UNL A   1      48.361  27.604  21.804  1.00  0.00     0.124 S 
ATOM     83  O   UNL A   1      47.213  28.188  21.119  1.00  0.00    -0.237 OA
ATOM     84  O   UNL A   1      49.439  28.526  22.146  1.00  0.00    -0.237 OA
ATOM     85  O   UNL A   1      48.798  26.311  21.280  1.00  0.00    -0.744 OA
ENDBRANCH  81  82
ENDBRANCH  60  74
BRANCH  61  86
ATOM     86  C   UNL A   1      46.268  28.895  36.879  1.00  0.00     0.058 A 
ATOM     87  C   UNL A   1      45.598  27.811  37.562  1.00  0.00     0.135 A 
ATOM     88  C   UNL A   1      46.422  30.043  37.678  1.00  0.00     0.135 A 
ATOM     89  F   UNL A   1      45.422  26.644  36.915  1.00  0.00    -0.206 F 
ATOM     90  C   UNL A   1      45.336  27.789  38.955  1.00  0.00     0.059 A 
ATOM     91  C   UNL A   1      46.129  30.052  39.073  1.00  0.00     0.059 A 
ATOM     92  F   UNL A   1      47.065  31.110  37.183  1.00  0.00    -0.206 F 
ATOM     93  C   UNL A   1      45.648  28.908  39.716  1.00  0.00     0.060 A 
BRANCH  93  94
ATOM     94  S   UNL A   1      45.617  28.861  41.547  1.00  0.00     0.124 S 
ATOM     95  O   UNL A   1      45.910  27.460  41.825  1.00  0.00    -0.237 OA
ATOM     96  O   UNL A   1      46.669  29.794  41.937  1.00  0.00    -0.237 OA
ATOM     97  O   UNL A   1      44.258  29.293  41.855  1.00  0.00    -0.744 OA
ENDBRANCH  93  94
ENDBRANCH  61  86
BRANCH  73  98
ATOM     98  C   UNL A   1      50.661  23.654  33.215  1.00  0.00     0.058 A 
ATOM     99  C   UNL A   1      51.995  23.222  33.051  1.00  0.00     0.135 A 
ATOM    100  C   UNL A   1      49.837  22.757  33.930  1.00  0.00     0.135 A 
ATOM    101  F   UNL A   1      52.948  24.016  32.543  1.00  0.00    -0.206 F 
ATOM    102  C   UNL A   1      52.454  21.981  33.491  1.00  0.00     0.059 A 
ATOM    103  C   UNL A   1      50.306  21.562  34.477  1.00  0.00     0.059 A 
ATOM    104  F   UNL A   1      48.552  23.034  34.180  1.00  0.00    -0.206 F 
ATOM    105  C   UNL A   1      51.608  21.163  34.220  1.00  0.00     0.060 A 
BRANCH 105 106
ATOM    106  S   UNL A   1      52.222  19.598  34.859  1.00  0.00     0.124 S 
ATOM    107  O   UNL A   1      50.982  18.960  35.287  1.00  0.00    -0.237 OA
ATOM    108  O   UNL A   1      52.868  18.999  33.694  1.00  0.00    -0.237 OA
ATOM    109  O   UNL A   1      53.131  20.005  35.926  1.00  0.00    -0.744 OA
ENDBRANCH 105 106
ENDBRANCH  73  98
ENDBRANCH  47  48
ENDBRANCH  40  42
ENDBRANCH  39  40
ENDBRANCH  38  39
ENDBRANCH  37  38
ENDBRANCH  36  37
ENDBRANCH  35  36
ENDBRANCH  34  35
ENDBRANCH  33  34
ENDBRANCH   1  33
TORSDOF 27
ENDMDL
MODEL 2
REMARK VINA RESULT:     -10.0      7.345     13.853
REMARK SMILES Cc1ccc(C(=O)N2CCCC[C@@H]2C(=O)OCCOCCOCCOCCOC(=O)c2ccc(-c3c4nc(c(-c5c(F)cc(S(=O)(=O)[O-])cc5F)c5ccc([nH]5)c(-c5c(F)cc(S(=O)(=O)[O-])cc5F)c5nc(c(-c6c(F)cc(S(=O)(=O)[O-])cc6F)c6ccc3[nH]6)C=C5)C=C4)cc2)cc1S(=O)(=O)N1CCCCC1
REMARK SMILES IDX 21 1 20 2 19 3 18 4 17 5 16 6 14 7 15 8 13 9 8 10 9 11 10 12
REMARK SMILES IDX 12 13 11 14 6 15 7 16 5 17 1 18 2 19 3 20 98 21 4 22 97 23
REMARK SMILES IDX 99 24 100 25 101 26 102 27 103 28 107 29 104 30 106 31
REMARK SMILES IDX 105 32 22 33 23 34 24 35 25 36 26 37 27 38 28 39 29 40 30 41
REMARK SMILES IDX 31 42 32 43 96 44 33 45 95 46 34 47 35 48 36 49 89 50 37 51
REMARK SMILES IDX 94 52 88 53 90 54 38 55 93 56 87 57 86 58 39 60 73 61 52 62
REMARK SMILES IDX 72 63 53 64 56 65 71 66 91 67 54 68 55 69 70 71 92 72 57 73
REMARK SMILES IDX 40 74 41 75 50 76 42 77 43 78 49 79 51 80 44 81 45 82 46 83
REMARK SMILES IDX 47 84 48 85 74 86 75 87 84 88 76 89 77 90 83 91 85 92 78 93
REMARK SMILES IDX 79 94 80 95 81 96 82 97 58 98 59 99 68 100 60 101 61 102
REMARK SMILES IDX 67 103 69 104 62 105 63 106 64 107 65 108 66 109
REMARK H PARENT 90 59 56 70
REMARK Flexibility Score: inf
ROOT
ATOM      1  C   UNL A   1      33.133  30.049  26.675  1.00  0.00     0.188 C 
ENDROOT
BRANCH   1   2
ATOM      2  C   UNL A   1      31.762  29.489  26.224  1.00  0.00     0.188 C 
BRANCH   2   3
ATOM      3  O   UNL A   1      31.468  28.392  24.913  1.00  0.00    -0.376 OA
BRANCH   3   4
ATOM      4  C   UNL A   1      32.528  27.934  23.514  1.00  0.00     0.202 C 
BRANCH   4   5
ATOM      5  C   UNL A   1      32.590  26.267  22.592  1.00  0.00     0.261 C 
BRANCH   5   6
ATOM      6  O   UNL A   1      33.992  25.079  22.688  1.00  0.00    -0.462 OA
BRANCH   6   7
ATOM      7  C   UNL A   1      34.445  23.544  22.935  1.00  0.00     0.328 C 
ATOM      8  O   UNL A   1      35.528  23.035  22.579  1.00  0.00    -0.250 OA
BRANCH   7   9
ATOM      9  C   UNL A   1      33.625  22.597  24.024  1.00  0.00     0.195 C 
ATOM     10  N   UNL A   1      34.304  21.929  25.141  1.00  0.00    -0.325 N 
ATOM     11  C   UNL A   1      33.585  20.907  25.892  1.00  0.00     0.121 C 
ATOM     12  C   UNL A   1      33.309  19.719  25.011  1.00  0.00     0.022 C 
ATOM     13  C   UNL A   1      32.662  21.552  23.254  1.00  0.00     0.037 C 
ATOM     14  C   UNL A   1      32.401  20.150  23.873  1.00  0.00     0.005 C 
BRANCH  10  15
ATOM     15  C   UNL A   1      35.496  22.402  25.693  1.00  0.00     0.254 C 
ATOM     16  O   UNL A   1      35.452  23.464  26.315  1.00  0.00    -0.269 OA
BRANCH  15  17
ATOM     17  C   UNL A   1      36.779  21.727  25.179  1.00  0.00     0.041 A 
ATOM     18  C   UNL A   1      41.397  19.726  26.519  1.00  0.00     0.046 C 
ATOM     19  C   UNL A   1      40.170  20.462  26.114  1.00  0.00    -0.031 A 
ATOM     20  C   UNL A   1      38.988  19.486  25.408  1.00  0.00     0.005 A 
ATOM     21  C   UNL A   1      39.788  22.170  26.313  1.00  0.00     0.086 A 
ATOM     22  C   UNL A   1      37.419  20.061  24.936  1.00  0.00     0.014 A 
ATOM     23  C   UNL A   1      37.907  22.830  25.693  1.00  0.00     0.035 A 
BRANCH  21  24
ATOM     24  S   UNL A   1      41.360  23.169  27.045  1.00  0.00     0.243 S 
ATOM     25  O   UNL A   1      41.760  22.804  28.395  1.00  0.00    -0.207 OA
ATOM     26  O   UNL A   1      42.355  23.164  25.992  1.00  0.00    -0.207 OA
BRANCH  24  27
ATOM     27  N   UNL A   1      40.791  24.739  27.257  1.00  0.00    -0.198 NA
ATOM     28  C   UNL A   1      41.109  25.547  26.084  1.00  0.00     0.102 C 
ATOM     29  C   UNL A   1      40.731  25.324  28.606  1.00  0.00     0.102 C 
ATOM     30  C   UNL A   1      41.048  27.029  26.310  1.00  0.00     0.017 C 
ATOM     31  C   UNL A   1      40.452  26.816  28.678  1.00  0.00     0.017 C 
ATOM     32  C   UNL A   1      40.012  27.392  27.353  1.00  0.00     0.003 C 
ENDBRANCH  24  27
ENDBRANCH  21  24
ENDBRANCH  15  17
ENDBRANCH  10  15
ENDBRANCH   7   9
ENDBRANCH   6   7
ENDBRANCH   5   6
ENDBRANCH   4   5
ENDBRANCH   3   4
ENDBRANCH   2   3
ENDBRANCH   1   2
BRANCH   1  33
ATOM     33  O   UNL A   1      33.209  31.305  27.296  1.00  0.00    -0.377 OA
BRANCH  33  34
ATOM     34  C   UNL A   1      34.519  31.527  27.772  1.00  0.00     0.188 C 
BRANCH  34  35
ATOM     35  C   UNL A   1      34.554  32.499  28.956  1.00  0.00     0.188 C 
BRANCH  35  36
ATOM     36  O   UNL A   1      35.260  32.101  30.115  1.00  0.00    -0.376 OA
BRANCH  36  37
ATOM     37  C   UNL A   1      36.159  32.893  30.855  1.00  0.00     0.202 C 
BRANCH  37  38
ATOM     38  C   UNL A   1      37.516  32.298  30.643  1.00  0.00     0.261 C 
BRANCH  38  39
ATOM     39  O   UNL A   1      37.753  31.085  31.440  1.00  0.00    -0.460 OA
BRANCH  39  40
ATOM     40  C   UNL A   1      38.893  30.889  32.178  1.00  0.00     0.338 C 
ATOM     41  O   UNL A   1      40.007  30.829  31.672  1.00  0.00    -0.246 OA
BRANCH  40  42
ATOM     42  C   UNL A   1      38.697  30.910  33.669  1.00  0.00     0.060 A 
ATOM     43  C   UNL A   1      37.873  31.865  34.241  1.00  0.00     0.016 A 
ATOM     44  C   UNL A   1      39.502  30.173  34.527  1.00  0.00     0.016 A 
ATOM     45  C   UNL A   1      38.114  32.276  35.562  1.00  0.00     0.010 A 
ATOM     46  C   UNL A   1      39.880  30.746  35.754  1.00  0.00     0.010 A 
ATOM     47  C   UNL A   1      39.333  31.970  36.210  1.00  0.00    -0.014 A 
BRANCH  47  48
ATOM     48  C   UNL A   1      40.311  32.794  37.402  1.00  0.00     0.031 A 
ATOM     49  C   UNL A   1      38.979  33.001  38.526  1.00  0.00     0.074 A 
ATOM     50  C   UNL A   1      41.930  33.383  37.407  1.00  0.00     0.049 A 
ATOM     51  N   UNL A   1      38.992  33.572  39.695  1.00  0.00    -0.248 NA
ATOM     52  C   UNL A   1      37.569  32.643  38.239  1.00  0.00     0.031 C 
ATOM     53  C   UNL A   1      43.116  33.564  38.331  1.00  0.00     0.029 A 
ATOM     54  N   UNL A   1      42.713  34.294  36.490  1.00  0.00    -0.354 N 
ATOM     55  C   UNL A   1      37.984  33.069  40.455  1.00  0.00     0.074 A 
ATOM     56  C   UNL A   1      37.022  32.675  39.460  1.00  0.00     0.031 C 
ATOM     57  C   UNL A   1      43.775  34.732  38.292  1.00  0.00     0.029 A 
ATOM     58  C   UNL A   1      43.331  35.361  37.131  1.00  0.00     0.049 A 
ATOM     59  H   UNL A   1      42.780  34.144  35.520  1.00  0.00     0.167 HD
ATOM     60  C   UNL A   1      38.208  32.936  41.800  1.00  0.00     0.037 A 
ATOM     61  C   UNL A   1      43.714  36.610  36.787  1.00  0.00     0.037 A 
ATOM     62  C   UNL A   1      39.289  33.967  42.343  1.00  0.00     0.049 A 
ATOM     63  C   UNL A   1      43.418  37.621  38.028  1.00  0.00     0.074 A 
ATOM     64  C   UNL A   1      40.301  34.317  43.789  1.00  0.00     0.029 A 
ATOM     65  N   UNL A   1      39.492  35.460  41.248  1.00  0.00    -0.354 N 
ATOM     66  N   UNL A   1      42.703  37.263  39.087  1.00  0.00    -0.248 NA
ATOM     67  C   UNL A   1      43.847  39.002  38.261  1.00  0.00     0.031 C 
ATOM     68  C   UNL A   1      41.078  36.147  43.722  1.00  0.00     0.029 A 
ATOM     69  C   UNL A   1      40.652  36.900  42.079  1.00  0.00     0.049 A 
ATOM     70  H   UNL A   1      39.079  35.542  40.358  1.00  0.00     0.167 HD
ATOM     71  C   UNL A   1      42.452  38.277  40.092  1.00  0.00     0.074 A 
ATOM     72  C   UNL A   1      43.299  39.329  39.471  1.00  0.00     0.031 C 
ATOM     73  C   UNL A   1      41.532  38.246  41.287  1.00  0.00     0.037 A 
BRANCH  60  74
ATOM     74  C   UNL A   1      37.288  32.005  42.655  1.00  0.00     0.058 A 
ATOM     75  C   UNL A   1      37.704  30.711  42.993  1.00  0.00     0.135 A 
ATOM     76  C   UNL A   1      36.105  32.392  43.349  1.00  0.00     0.135 A 
ATOM     77  F   UNL A   1      38.556  30.055  42.190  1.00  0.00    -0.206 F 
ATOM     78  C   UNL A   1      37.259  30.048  44.159  1.00  0.00     0.059 A 
ATOM     79  C   UNL A   1      35.623  31.749  44.498  1.00  0.00     0.059 A 
ATOM     80  F   UNL A   1      35.328  33.402  42.961  1.00  0.00    -0.206 F 
ATOM     81  C   UNL A   1      36.282  30.630  44.962  1.00  0.00     0.060 A 
BRANCH  81  82
ATOM     82  S   UNL A   1      35.835  29.931  46.569  1.00  0.00     0.124 S 
ATOM     83  O   UNL A   1      37.096  29.374  47.046  1.00  0.00    -0.237 OA
ATOM     84  O   UNL A   1      35.342  31.104  47.283  1.00  0.00    -0.237 OA
ATOM     85  O   UNL A   1      34.814  28.940  46.231  1.00  0.00    -0.744 OA
ENDBRANCH  81  82
ENDBRANCH  60  74
BRANCH  61  86
ATOM     86  C   UNL A   1      43.969  36.554  35.270  1.00  0.00     0.058 A 
ATOM     87  C   UNL A   1      45.099  35.740  34.878  1.00  0.00     0.135 A 
ATOM     88  C   UNL A   1      42.921  36.535  34.331  1.00  0.00     0.135 A 
ATOM     89  F   UNL A   1      46.153  35.646  35.710  1.00  0.00    -0.206 F 
ATOM     90  C   UNL A   1      45.082  34.821  33.799  1.00  0.00     0.059 A 
ATOM     91  C   UNL A   1      42.903  35.645  33.218  1.00  0.00     0.059 A 
ATOM     92  F   UNL A   1      41.794  37.214  34.587  1.00  0.00    -0.206 F 
ATOM     93  C   UNL A   1      43.953  34.749  32.994  1.00  0.00     0.060 A 
BRANCH  93  94
ATOM     94  S   UNL A   1      43.730  33.402  31.773  1.00  0.00     0.124 S 
ATOM     95  O   UNL A   1      42.515  33.811  31.080  1.00  0.00    -0.237 OA
ATOM     96  O   UNL A   1      44.943  33.460  30.965  1.00  0.00    -0.237 OA
ATOM     97  O   UNL A   1      43.604  32.221  32.620  1.00  0.00    -0.744 OA
ENDBRANCH  93  94
ENDBRANCH  61  86
BRANCH  73  98
ATOM     98  C   UNL A   1      40.937  39.603  41.726  1.00  0.00     0.058 A 
ATOM     99  C   UNL A   1      41.577  40.470  42.639  1.00  0.00     0.135 A 
ATOM    100  C   UNL A   1      39.893  40.198  40.984  1.00  0.00     0.135 A 
ATOM    101  F   UNL A   1      42.686  40.118  43.304  1.00  0.00    -0.206 F 
ATOM    102  C   UNL A   1      41.172  41.787  42.851  1.00  0.00     0.059 A 
ATOM    103  C   UNL A   1      39.549  41.546  41.099  1.00  0.00     0.059 A 
ATOM    104  F   UNL A   1      39.203  39.509  40.068  1.00  0.00    -0.206 F 
ATOM    105  C   UNL A   1      40.168  42.325  42.064  1.00  0.00     0.060 A 
BRANCH 105 106
ATOM    106  S   UNL A   1      39.702  44.048  42.278  1.00  0.00     0.124 S 
ATOM    107  O   UNL A   1      41.009  44.696  42.293  1.00  0.00    -0.237 OA
ATOM    108  O   UNL A   1      38.881  44.314  41.100  1.00  0.00    -0.237 OA
ATOM    109  O   UNL A   1      38.977  44.044  43.546  1.00  0.00    -0.744 OA
ENDBRANCH 105 106
ENDBRANCH  73  98
ENDBRANCH  47  48
ENDBRANCH  40  42
ENDBRANCH  39  40
ENDBRANCH  38  39
ENDBRANCH  37  38
ENDBRANCH  36  37
ENDBRANCH  35  36
ENDBRANCH  34  35
ENDBRANCH  33  34
ENDBRANCH   1  33
TORSDOF 27
ENDMDL
MODEL 3
REMARK VINA RESULT:      -9.9      2.949      3.851
REMARK SMILES Cc1ccc(C(=O)N2CCCC[C@@H]2C(=O)OCCOCCOCCOCCOC(=O)c2ccc(-c3c4nc(c(-c5c(F)cc(S(=O)(=O)[O-])cc5F)c5ccc([nH]5)c(-c5c(F)cc(S(=O)(=O)[O-])cc5F)c5nc(c(-c6c(F)cc(S(=O)(=O)[O-])cc6F)c6ccc3[nH]6)C=C5)C=C4)cc2)cc1S(=O)(=O)N1CCCCC1
REMARK SMILES IDX 21 1 20 2 19 3 18 4 17 5 16 6 14 7 15 8 13 9 8 10 9 11 10 12
REMARK SMILES IDX 12 13 11 14 6 15 7 16 5 17 1 18 2 19 3 20 98 21 4 22 97 23
REMARK SMILES IDX 99 24 100 25 101 26 102 27 103 28 107 29 104 30 106 31
REMARK SMILES IDX 105 32 22 33 23 34 24 35 25 36 26 37 27 38 28 39 29 40 30 41
REMARK SMILES IDX 31 42 32 43 96 44 33 45 95 46 34 47 35 48 36 49 89 50 37 51
REMARK SMILES IDX 94 52 88 53 90 54 38 55 93 56 87 57 86 58 39 60 73 61 52 62
REMARK SMILES IDX 72 63 53 64 56 65 71 66 91 67 54 68 55 69 70 71 92 72 57 73
REMARK SMILES IDX 40 74 41 75 50 76 42 77 43 78 49 79 51 80 44 81 45 82 46 83
REMARK SMILES IDX 47 84 48 85 74 86 75 87 84 88 76 89 77 90 83 91 85 92 78 93
REMARK SMILES IDX 79 94 80 95 81 96 82 97 58 98 59 99 68 100 60 101 61 102
REMARK SMILES IDX 67 103 69 104 62 105 63 106 64 107 65 108 66 109
REMARK H PARENT 90 59 56 70
REMARK Flexibility Score: inf
ROOT
ATOM      1  C   UNL A   1      32.707  29.758  25.751  1.00  0.00     0.188 C 
ENDROOT
BRANCH   1   2
ATOM      2  C   UNL A   1      31.360  29.677  24.991  1.00  0.00     0.188 C 
BRANCH   2   3
ATOM      3  O   UNL A   1      30.875  28.449  23.866  1.00  0.00    -0.376 OA
BRANCH   3   4
ATOM      4  C   UNL A   1      31.800  27.677  22.510  1.00  0.00     0.202 C 
BRANCH   4   5
ATOM      5  C   UNL A   1      32.007  25.817  22.147  1.00  0.00     0.261 C 
BRANCH   5   6
ATOM      6  O   UNL A   1      33.572  24.880  22.390  1.00  0.00    -0.462 OA
BRANCH   6   7
ATOM      7  C   UNL A   1      34.251  23.478  22.835  1.00  0.00     0.328 C 
ATOM      8  O   UNL A   1      35.409  23.106  22.557  1.00  0.00    -0.250 OA
BRANCH   7   9
ATOM      9  C   UNL A   1      33.556  22.559  24.029  1.00  0.00     0.195 C 
ATOM     10  N   UNL A   1      34.345  21.975  25.121  1.00  0.00    -0.325 N 
ATOM     11  C   UNL A   1      33.728  20.966  25.974  1.00  0.00     0.121 C 
ATOM     12  C   UNL A   1      33.436  19.724  25.175  1.00  0.00     0.022 C 
ATOM     13  C   UNL A   1      32.582  21.439  23.388  1.00  0.00     0.037 C 
ATOM     14  C   UNL A   1      32.427  20.062  24.091  1.00  0.00     0.005 C 
BRANCH  10  15
ATOM     15  C   UNL A   1      35.555  22.520  25.555  1.00  0.00     0.254 C 
ATOM     16  O   UNL A   1      35.528  23.658  26.024  1.00  0.00    -0.269 OA
BRANCH  15  17
ATOM     17  C   UNL A   1      36.821  21.780  25.091  1.00  0.00     0.041 A 
ATOM     18  C   UNL A   1      41.299  19.593  26.603  1.00  0.00     0.046 C 
ATOM     19  C   UNL A   1      40.119  20.378  26.149  1.00  0.00    -0.031 A 
ATOM     20  C   UNL A   1      38.917  19.445  25.420  1.00  0.00     0.005 A 
ATOM     21  C   UNL A   1      39.810  22.104  26.312  1.00  0.00     0.086 A 
ATOM     22  C   UNL A   1      37.391  20.083  24.891  1.00  0.00     0.014 A 
ATOM     23  C   UNL A   1      37.981  22.838  25.624  1.00  0.00     0.035 A 
BRANCH  21  24
ATOM     24  S   UNL A   1      41.403  23.042  27.080  1.00  0.00     0.243 S 
ATOM     25  O   UNL A   1      41.733  22.693  28.452  1.00  0.00    -0.207 OA
ATOM     26  O   UNL A   1      42.435  22.960  26.065  1.00  0.00    -0.207 OA
BRANCH  24  27
ATOM     27  N   UNL A   1      40.907  24.644  27.232  1.00  0.00    -0.198 NA
ATOM     28  C   UNL A   1      41.228  25.382  26.014  1.00  0.00     0.102 C 
ATOM     29  C   UNL A   1      40.908  25.292  28.553  1.00  0.00     0.102 C 
ATOM     30  C   UNL A   1      41.235  26.875  26.172  1.00  0.00     0.017 C 
ATOM     31  C   UNL A   1      40.695  26.797  28.561  1.00  0.00     0.017 C 
ATOM     32  C   UNL A   1      40.244  27.329  27.222  1.00  0.00     0.003 C 
ENDBRANCH  24  27
ENDBRANCH  21  24
ENDBRANCH  15  17
ENDBRANCH  10  15
ENDBRANCH   7   9
ENDBRANCH   6   7
ENDBRANCH   5   6
ENDBRANCH   4   5
ENDBRANCH   3   4
ENDBRANCH   2   3
ENDBRANCH   1   2
BRANCH   1  33
ATOM     33  O   UNL A   1      32.873  30.690  26.786  1.00  0.00    -0.377 OA
BRANCH  33  34
ATOM     34  C   UNL A   1      34.026  30.375  27.537  1.00  0.00     0.188 C 
BRANCH  34  35
ATOM     35  C   UNL A   1      34.786  31.623  27.996  1.00  0.00     0.188 C 
BRANCH  35  36
ATOM     36  O   UNL A   1      35.224  31.672  29.339  1.00  0.00    -0.376 OA
BRANCH  36  37
ATOM     37  C   UNL A   1      36.440  32.213  29.799  1.00  0.00     0.202 C 
BRANCH  37  38
ATOM     38  C   UNL A   1      37.063  31.168  30.671  1.00  0.00     0.261 C 
BRANCH  38  39
ATOM     39  O   UNL A   1      37.652  31.711  31.904  1.00  0.00    -0.460 OA
BRANCH  39  40
ATOM     40  C   UNL A   1      38.318  30.932  32.818  1.00  0.00     0.338 C 
ATOM     41  O   UNL A   1      37.991  29.777  33.064  1.00  0.00    -0.246 OA
BRANCH  40  42
ATOM     42  C   UNL A   1      39.570  31.543  33.382  1.00  0.00     0.060 A 
ATOM     43  C   UNL A   1      40.490  32.136  32.532  1.00  0.00     0.016 A 
ATOM     44  C   UNL A   1      39.972  31.319  34.692  1.00  0.00     0.016 A 
ATOM     45  C   UNL A   1      41.843  32.176  32.905  1.00  0.00     0.010 A 
ATOM     46  C   UNL A   1      41.343  31.155  34.956  1.00  0.00     0.010 A 
ATOM     47  C   UNL A   1      42.329  31.376  33.965  1.00  0.00    -0.014 A 
BRANCH  47  48
ATOM     48  C   UNL A   1      43.855  30.582  34.279  1.00  0.00     0.031 A 
ATOM     49  C   UNL A   1      43.435  29.149  33.357  1.00  0.00     0.074 A 
ATOM     50  C   UNL A   1      45.201  30.954  35.288  1.00  0.00     0.049 A 
ATOM     51  N   UNL A   1      44.151  28.081  33.155  1.00  0.00    -0.248 NA
ATOM     52  C   UNL A   1      42.106  28.894  32.752  1.00  0.00     0.031 C 
ATOM     53  C   UNL A   1      46.710  30.834  35.333  1.00  0.00     0.029 A 
ATOM     54  N   UNL A   1      45.347  31.281  36.756  1.00  0.00    -0.354 N 
ATOM     55  C   UNL A   1      43.751  27.478  32.006  1.00  0.00     0.074 A 
ATOM     56  C   UNL A   1      42.372  27.883  31.916  1.00  0.00     0.031 C 
ATOM     57  C   UNL A   1      47.277  30.410  36.472  1.00  0.00     0.029 A 
ATOM     58  C   UNL A   1      46.271  30.494  37.432  1.00  0.00     0.049 A 
ATOM     59  H   UNL A   1      44.831  31.994  37.198  1.00  0.00     0.167 HD
ATOM     60  C   UNL A   1      44.708  26.859  31.245  1.00  0.00     0.037 A 
ATOM     61  C   UNL A   1      46.440  30.071  38.704  1.00  0.00     0.037 A 
ATOM     62  C   UNL A   1      45.949  26.371  32.109  1.00  0.00     0.049 A 
ATOM     63  C   UNL A   1      46.968  28.531  38.690  1.00  0.00     0.074 A 
ATOM     64  C   UNL A   1      47.628  25.746  31.935  1.00  0.00     0.029 A 
ATOM     65  N   UNL A   1      45.548  26.157  33.915  1.00  0.00    -0.354 N 
ATOM     66  N   UNL A   1      46.986  27.792  37.589  1.00  0.00    -0.248 NA
ATOM     67  C   UNL A   1      47.516  27.697  39.762  1.00  0.00     0.031 C 
ATOM     68  C   UNL A   1      48.305  24.965  33.635  1.00  0.00     0.029 A 
ATOM     69  C   UNL A   1      47.040  25.267  34.959  1.00  0.00     0.049 A 
ATOM     70  H   UNL A   1      44.699  26.447  34.321  1.00  0.00     0.167 HD
ATOM     71  C   UNL A   1      47.413  26.413  37.722  1.00  0.00     0.074 A 
ATOM     72  C   UNL A   1      47.789  26.501  39.157  1.00  0.00     0.031 C 
ATOM     73  C   UNL A   1      47.358  25.284  36.723  1.00  0.00     0.037 A 
BRANCH  60  74
ATOM     74  C   UNL A   1      44.413  26.517  29.749  1.00  0.00     0.058 A 
ATOM     75  C   UNL A   1      44.358  27.533  28.786  1.00  0.00     0.135 A 
ATOM     76  C   UNL A   1      44.397  25.217  29.165  1.00  0.00     0.135 A 
ATOM     77  F   UNL A   1      43.997  28.774  29.147  1.00  0.00    -0.206 F 
ATOM     78  C   UNL A   1      44.664  27.309  27.425  1.00  0.00     0.059 A 
ATOM     79  C   UNL A   1      44.680  24.958  27.817  1.00  0.00     0.059 A 
ATOM     80  F   UNL A   1      44.095  24.114  29.850  1.00  0.00    -0.206 F 
ATOM     81  C   UNL A   1      44.923  26.019  26.971  1.00  0.00     0.060 A 
BRANCH  81  82
ATOM     82  S   UNL A   1      45.529  25.706  25.296  1.00  0.00     0.124 S 
ATOM     83  O   UNL A   1      45.909  27.035  24.831  1.00  0.00    -0.237 OA
ATOM     84  O   UNL A   1      46.627  24.776  25.540  1.00  0.00    -0.237 OA
ATOM     85  O   UNL A   1      44.368  25.126  24.622  1.00  0.00    -0.744 OA
ENDBRANCH  81  82
ENDBRANCH  60  74
BRANCH  61  86
ATOM     86  C   UNL A   1      45.764  31.140  39.581  1.00  0.00     0.058 A 
ATOM     87  C   UNL A   1      45.115  30.625  40.767  1.00  0.00     0.135 A 
ATOM     88  C   UNL A   1      46.315  32.422  39.764  1.00  0.00     0.135 A 
ATOM     89  F   UNL A   1      44.579  29.391  40.731  1.00  0.00    -0.206 F 
ATOM     90  C   UNL A   1      45.222  31.213  42.052  1.00  0.00     0.059 A 
ATOM     91  C   UNL A   1      46.398  33.047  41.042  1.00  0.00     0.059 A 
ATOM     92  F   UNL A   1      46.983  33.002  38.757  1.00  0.00    -0.206 F 
ATOM     93  C   UNL A   1      45.909  32.413  42.188  1.00  0.00     0.060 A 
BRANCH  93  94
ATOM     94  S   UNL A   1      46.345  33.087  43.835  1.00  0.00     0.124 S 
ATOM     95  O   UNL A   1      46.922  31.926  44.501  1.00  0.00    -0.237 OA
ATOM     96  O   UNL A   1      47.294  34.154  43.534  1.00  0.00    -0.237 OA
ATOM     97  O   UNL A   1      45.054  33.531  44.349  1.00  0.00    -0.744 OA
ENDBRANCH  93  94
ENDBRANCH  61  86
BRANCH  73  98
ATOM     98  C   UNL A   1      47.192  23.862  37.307  1.00  0.00     0.058 A 
ATOM     99  C   UNL A   1      48.272  22.969  37.488  1.00  0.00     0.135 A 
ATOM    100  C   UNL A   1      46.015  23.509  38.003  1.00  0.00     0.135 A 
ATOM    101  F   UNL A   1      49.504  23.235  37.036  1.00  0.00    -0.206 F 
ATOM    102  C   UNL A   1      48.171  21.794  38.231  1.00  0.00     0.059 A 
ATOM    103  C   UNL A   1      45.931  22.398  38.843  1.00  0.00     0.059 A 
ATOM    104  F   UNL A   1      44.913  24.265  37.943  1.00  0.00    -0.206 F 
ATOM    105  C   UNL A   1      47.002  21.523  38.921  1.00  0.00     0.060 A 
BRANCH 105 106
ATOM    106  S   UNL A   1      46.900  20.049  39.946  1.00  0.00     0.124 S 
ATOM    107  O   UNL A   1      47.093  18.999  38.952  1.00  0.00    -0.237 OA
ATOM    108  O   UNL A   1      47.998  20.231  40.892  1.00  0.00    -0.237 OA
ATOM    109  O   UNL A   1      45.564  20.138  40.529  1.00  0.00    -0.744 OA
ENDBRANCH 105 106
ENDBRANCH  73  98
ENDBRANCH  47  48
ENDBRANCH  40  42
ENDBRANCH  39  40
ENDBRANCH  38  39
ENDBRANCH  37  38
ENDBRANCH  36  37
ENDBRANCH  35  36
ENDBRANCH  34  35
ENDBRANCH  33  34
ENDBRANCH   1  33
TORSDOF 27
ENDMDL
