MODEL 1
REMARK VINA RESULT:      -9.1      0.000      0.000
REMARK SMILES C[C@@H](Oc1ccc(/C=C2\C(=O)[NH+]=C(OCCOCCOCCOCCOC(=O)c3ccc(-c4c5nc(c(-c6c(F)cc(S(=O)(=O)[O-])cc6F)c6ccc([nH]6)c(-c6c(F)cc(S(=O)(=O)[O-])cc6F)c6nc(c(-c7c(F)cc(S(=O)(=O)[O-])cc7F)c7ccc4[nH]7)C=C6)C=C5)cc3)N(c3ccc4c(c3)OCO4)C2=O)cc1)C(=O)[O-]
REMARK SMILES IDX 20 1 19 2 18 3 17 4 16 5 15 6 14 7 13 8 8 9 9 10 10 11
REMARK SMILES IDX 105 12 11 13 12 14 95 15 106 16 7 18 4 19 5 20 108 21 6 22
REMARK SMILES IDX 107 23 3 24 2 25 1 26 109 27 110 28 111 29 96 30 97 31
REMARK SMILES IDX 101 32 98 33 100 34 99 35 102 36 104 37 103 38 21 39 22 40
REMARK SMILES IDX 23 41 24 42 25 43 26 44 27 45 28 46 29 47 30 48 94 49 31 50
REMARK SMILES IDX 93 51 32 52 33 53 34 54 87 55 35 56 92 57 86 58 88 59 36 60
REMARK SMILES IDX 91 61 85 62 84 63 37 65 71 66 50 67 70 68 51 69 54 70 69 71
REMARK SMILES IDX 89 72 52 73 53 74 68 76 90 77 55 78 38 79 39 80 48 81 40 82
REMARK SMILES IDX 41 83 47 84 49 85 42 86 43 87 44 88 45 89 46 90 72 91 73 92
REMARK SMILES IDX 82 93 74 94 75 95 81 96 83 97 76 98 77 99 78 100 79 101
REMARK SMILES IDX 80 102 56 103 57 104 66 105 58 106 59 107 65 108 67 109
REMARK SMILES IDX 60 110 61 111 62 112 63 113 64 114
REMARK H PARENT 12 17 88 64 54 75
REMARK Flexibility Score: inf
ROOT
ATOM      1  O   UNL A   1      38.278  34.824  34.250  1.00  0.00    -0.377 OA
ENDROOT
BRANCH   1   2
ATOM      2  C   UNL A   1      39.270  34.254  33.415  1.00  0.00     0.188 C 
BRANCH   2   3
ATOM      3  C   UNL A   1      39.208  32.784  33.005  1.00  0.00     0.188 C 
BRANCH   3   4
ATOM      4  O   UNL A   1      38.492  32.429  31.831  1.00  0.00    -0.376 OA
BRANCH   4   5
ATOM      5  C   UNL A   1      37.886  31.138  31.861  1.00  0.00     0.202 C 
BRANCH   5   6
ATOM      6  C   UNL A   1      36.364  31.315  31.820  1.00  0.00     0.266 C 
BRANCH   6   7
ATOM      7  O   UNL A   1      35.854  32.306  30.883  1.00  0.00    -0.428 OA
BRANCH   7   8
ATOM      8  C   UNL A   1      35.295  31.895  29.714  1.00  0.00     0.465 C 
ATOM      9  C   UNL A   1      33.075  30.198  26.827  1.00  0.00     0.032 C 
ATOM     10  C   UNL A   1      33.968  30.872  27.583  1.00  0.00     0.155 C 
ATOM     11  C   UNL A   1      35.294  30.398  27.999  1.00  0.00     0.349 C 
ATOM     12  C   UNL A   1      33.613  32.250  28.027  1.00  0.00     0.357 C 
ATOM     13  O   UNL A   1      36.053  29.840  27.217  1.00  0.00    -0.240 OA
ATOM     14  N   UNL A   1      35.667  30.747  29.263  1.00  0.00    -0.171 N 
ATOM     15  N   UNL A   1      34.364  32.720  29.101  1.00  0.00    -0.123 N 
ATOM     16  O   UNL A   1      32.672  32.851  27.508  1.00  0.00    -0.240 OA
ATOM     17  H   UNL A   1      36.207  30.137  29.817  1.00  0.00     0.319 HD
BRANCH   9  18
ATOM     18  C   UNL A   1      33.047  28.834  26.243  1.00  0.00    -0.024 A 
ATOM     19  C   UNL A   1      32.911  26.150  25.342  1.00  0.00     0.120 A 
ATOM     20  C   UNL A   1      33.677  27.081  24.658  1.00  0.00     0.047 A 
ATOM     21  C   UNL A   1      32.230  26.536  26.490  1.00  0.00     0.047 A 
ATOM     22  C   UNL A   1      33.752  28.405  25.115  1.00  0.00     0.012 A 
ATOM     23  C   UNL A   1      32.281  27.867  26.921  1.00  0.00     0.012 A 
BRANCH  19  24
ATOM     24  O   UNL A   1      32.994  24.845  24.950  1.00  0.00    -0.485 OA
BRANCH  24  25
ATOM     25  C   UNL A   1      33.747  24.009  25.835  1.00  0.00     0.216 C 
ATOM     26  C   UNL A   1      35.228  24.006  25.469  1.00  0.00     0.059 C 
BRANCH  25  27
ATOM     27  C   UNL A   1      33.236  22.578  25.703  1.00  0.00     0.082 C 
ATOM     28  O   UNL A   1      32.399  22.189  24.900  1.00  0.00    -0.546 OA
ATOM     29  O   UNL A   1      33.721  21.725  26.631  1.00  0.00    -0.546 OA
ENDBRANCH  25  27
ENDBRANCH  24  25
ENDBRANCH  19  24
ENDBRANCH   9  18
BRANCH  15  30
ATOM     30  C   UNL A   1      34.044  34.014  29.603  1.00  0.00     0.144 A 
ATOM     31  C   UNL A   1      33.716  35.049  28.694  1.00  0.00     0.056 A 
ATOM     32  C   UNL A   1      34.023  34.258  30.982  1.00  0.00     0.103 A 
ATOM     33  C   UNL A   1      33.374  36.325  29.151  1.00  0.00     0.055 A 
ATOM     34  C   UNL A   1      33.631  35.511  31.400  1.00  0.00     0.170 A 
ATOM     35  C   UNL A   1      33.318  36.515  30.512  1.00  0.00     0.166 A 
ATOM     36  O   UNL A   1      33.476  35.901  32.695  1.00  0.00    -0.453 OA
ATOM     37  O   UNL A   1      32.938  37.660  31.140  1.00  0.00    -0.454 OA
ATOM     38  C   UNL A   1      32.889  37.205  32.508  1.00  0.00     0.468 C 
ENDBRANCH  15  30
ENDBRANCH   7   8
ENDBRANCH   6   7
ENDBRANCH   5   6
ENDBRANCH   4   5
ENDBRANCH   3   4
ENDBRANCH   2   3
ENDBRANCH   1   2
BRANCH   1  39
ATOM     39  C   UNL A   1      37.143  34.058  34.597  1.00  0.00     0.188 C 
BRANCH  39  40
ATOM     40  C   UNL A   1      36.836  33.838  36.083  1.00  0.00     0.188 C 
BRANCH  40  41
ATOM     41  O   UNL A   1      37.609  32.822  36.718  1.00  0.00    -0.376 OA
BRANCH  41  42
ATOM     42  C   UNL A   1      37.424  32.763  38.136  1.00  0.00     0.202 C 
BRANCH  42  43
ATOM     43  C   UNL A   1      38.618  33.330  38.915  1.00  0.00     0.261 C 
BRANCH  43  44
ATOM     44  O   UNL A   1      39.707  32.415  39.107  1.00  0.00    -0.460 OA
BRANCH  44  45
ATOM     45  C   UNL A   1      40.960  32.905  38.992  1.00  0.00     0.338 C 
ATOM     46  O   UNL A   1      41.552  33.582  39.816  1.00  0.00    -0.246 OA
BRANCH  45  47
ATOM     47  C   UNL A   1      41.580  32.330  37.774  1.00  0.00     0.060 A 
ATOM     48  C   UNL A   1      42.963  32.474  37.595  1.00  0.00     0.016 A 
ATOM     49  C   UNL A   1      40.825  31.611  36.841  1.00  0.00     0.016 A 
ATOM     50  C   UNL A   1      43.593  31.885  36.495  1.00  0.00     0.010 A 
ATOM     51  C   UNL A   1      41.449  31.052  35.721  1.00  0.00     0.010 A 
ATOM     52  C   UNL A   1      42.834  31.199  35.535  1.00  0.00    -0.014 A 
BRANCH  52  53
ATOM     53  C   UNL A   1      43.440  30.865  34.223  1.00  0.00     0.031 A 
ATOM     54  C   UNL A   1      44.050  29.498  34.072  1.00  0.00     0.074 A 
ATOM     55  C   UNL A   1      43.464  31.732  33.195  1.00  0.00     0.049 A 
ATOM     56  N   UNL A   1      44.650  28.961  33.042  1.00  0.00    -0.248 NA
ATOM     57  C   UNL A   1      43.970  28.616  35.250  1.00  0.00     0.031 C 
ATOM     58  C   UNL A   1      42.894  33.078  33.202  1.00  0.00     0.029 A 
ATOM     59  N   UNL A   1      44.004  31.603  31.937  1.00  0.00    -0.354 N 
ATOM     60  C   UNL A   1      45.006  27.681  33.442  1.00  0.00     0.074 A 
ATOM     61  C   UNL A   1      44.586  27.529  34.818  1.00  0.00     0.031 C 
ATOM     62  C   UNL A   1      43.127  33.656  32.009  1.00  0.00     0.029 A 
ATOM     63  C   UNL A   1      43.882  32.733  31.161  1.00  0.00     0.049 A 
ATOM     64  H   UNL A   1      44.439  30.779  31.621  1.00  0.00     0.167 HD
ATOM     65  C   UNL A   1      45.625  26.711  32.730  1.00  0.00     0.037 A 
ATOM     66  C   UNL A   1      44.342  32.989  29.918  1.00  0.00     0.037 A 
ATOM     67  C   UNL A   1      46.078  26.869  31.376  1.00  0.00     0.049 A 
ATOM     68  C   UNL A   1      45.101  31.919  29.168  1.00  0.00     0.074 A 
ATOM     69  C   UNL A   1      46.714  25.944  30.569  1.00  0.00     0.029 A 
ATOM     70  N   UNL A   1      45.959  28.035  30.635  1.00  0.00    -0.354 N 
ATOM     71  N   UNL A   1      45.390  30.694  29.542  1.00  0.00    -0.248 NA
ATOM     72  C   UNL A   1      45.595  32.266  27.828  1.00  0.00     0.031 C 
ATOM     73  C   UNL A   1      47.022  26.565  29.354  1.00  0.00     0.029 A 
ATOM     74  C   UNL A   1      46.532  27.861  29.388  1.00  0.00     0.049 A 
ATOM     75  H   UNL A   1      45.531  28.863  30.950  1.00  0.00     0.167 HD
ATOM     76  C   UNL A   1      46.073  30.119  28.473  1.00  0.00     0.074 A 
ATOM     77  C   UNL A   1      46.148  31.125  27.435  1.00  0.00     0.031 C 
ATOM     78  C   UNL A   1      46.590  28.870  28.359  1.00  0.00     0.037 A 
BRANCH  65  79
ATOM     79  C   UNL A   1      45.870  25.405  33.426  1.00  0.00     0.058 A 
ATOM     80  C   UNL A   1      44.932  24.362  33.378  1.00  0.00     0.135 A 
ATOM     81  C   UNL A   1      47.053  25.194  34.151  1.00  0.00     0.135 A 
ATOM     82  F   UNL A   1      43.773  24.524  32.720  1.00  0.00    -0.206 F 
ATOM     83  C   UNL A   1      45.146  23.162  34.046  1.00  0.00     0.059 A 
ATOM     84  C   UNL A   1      47.300  23.993  34.807  1.00  0.00     0.059 A 
ATOM     85  F   UNL A   1      47.975  26.165  34.238  1.00  0.00    -0.206 F 
ATOM     86  C   UNL A   1      46.334  22.989  34.761  1.00  0.00     0.060 A 
BRANCH  86  87
ATOM     87  S   UNL A   1      46.597  21.428  35.627  1.00  0.00     0.124 S 
ATOM     88  O   UNL A   1      48.001  21.541  36.011  1.00  0.00    -0.237 OA
ATOM     89  O   UNL A   1      45.633  21.510  36.720  1.00  0.00    -0.237 OA
ATOM     90  O   UNL A   1      46.304  20.422  34.611  1.00  0.00    -0.744 OA
ENDBRANCH  86  87
ENDBRANCH  65  79
BRANCH  66  91
ATOM     91  C   UNL A   1      44.113  34.321  29.291  1.00  0.00     0.058 A 
ATOM     92  C   UNL A   1      42.839  34.705  28.846  1.00  0.00     0.135 A 
ATOM     93  C   UNL A   1      45.170  35.223  29.096  1.00  0.00     0.135 A 
ATOM     94  F   UNL A   1      41.798  33.871  28.991  1.00  0.00    -0.206 F 
ATOM     95  C   UNL A   1      42.622  35.929  28.219  1.00  0.00     0.059 A 
ATOM     96  C   UNL A   1      44.975  36.462  28.493  1.00  0.00     0.059 A 
ATOM     97  F   UNL A   1      46.409  34.906  29.504  1.00  0.00    -0.206 F 
ATOM     98  C   UNL A   1      43.698  36.802  28.048  1.00  0.00     0.060 A 
BRANCH  98  99
ATOM     99  S   UNL A   1      43.397  38.408  27.276  1.00  0.00     0.124 S 
ATOM    100  O   UNL A   1      44.636  38.617  26.538  1.00  0.00    -0.237 OA
ATOM    101  O   UNL A   1      42.210  38.142  26.469  1.00  0.00    -0.237 OA
ATOM    102  O   UNL A   1      43.183  39.293  28.417  1.00  0.00    -0.744 OA
ENDBRANCH  98  99
ENDBRANCH  66  91
BRANCH  78 103
ATOM    103  C   UNL A   1      47.251  28.498  27.060  1.00  0.00     0.058 A 
ATOM    104  C   UNL A   1      48.641  28.589  26.884  1.00  0.00     0.135 A 
ATOM    105  C   UNL A   1      46.491  27.971  26.002  1.00  0.00     0.135 A 
ATOM    106  F   UNL A   1      49.414  29.087  27.863  1.00  0.00    -0.206 F 
ATOM    107  C   UNL A   1      49.252  28.189  25.699  1.00  0.00     0.059 A 
ATOM    108  C   UNL A   1      47.083  27.542  24.818  1.00  0.00     0.059 A 
ATOM    109  F   UNL A   1      45.160  27.849  26.123  1.00  0.00    -0.206 F 
ATOM    110  C   UNL A   1      48.464  27.665  24.672  1.00  0.00     0.060 A 
BRANCH 110 111
ATOM    111  S   UNL A   1      49.271  27.111  23.155  1.00  0.00     0.124 S 
ATOM    112  O   UNL A   1      50.570  26.674  23.656  1.00  0.00    -0.237 OA
ATOM    113  O   UNL A   1      48.380  26.050  22.694  1.00  0.00    -0.237 OA
ATOM    114  O   UNL A   1      49.289  28.309  22.322  1.00  0.00    -0.744 OA
ENDBRANCH 110 111
ENDBRANCH  78 103
ENDBRANCH  52  53
ENDBRANCH  45  47
ENDBRANCH  44  45
ENDBRANCH  43  44
ENDBRANCH  42  43
ENDBRANCH  41  42
ENDBRANCH  40  41
ENDBRANCH  39  40
ENDBRANCH   1  39
TORSDOF 27
ENDMDL
MODEL 2
REMARK VINA RESULT:      -9.0      4.397      8.620
REMARK SMILES C[C@@H](Oc1ccc(/C=C2\C(=O)[NH+]=C(OCCOCCOCCOCCOC(=O)c3ccc(-c4c5nc(c(-c6c(F)cc(S(=O)(=O)[O-])cc6F)c6ccc([nH]6)c(-c6c(F)cc(S(=O)(=O)[O-])cc6F)c6nc(c(-c7c(F)cc(S(=O)(=O)[O-])cc7F)c7ccc4[nH]7)C=C6)C=C5)cc3)N(c3ccc4c(c3)OCO4)C2=O)cc1)C(=O)[O-]
REMARK SMILES IDX 20 1 19 2 18 3 17 4 16 5 15 6 14 7 13 8 8 9 9 10 10 11
REMARK SMILES IDX 105 12 11 13 12 14 95 15 106 16 7 18 4 19 5 20 108 21 6 22
REMARK SMILES IDX 107 23 3 24 2 25 1 26 109 27 110 28 111 29 96 30 97 31
REMARK SMILES IDX 101 32 98 33 100 34 99 35 102 36 104 37 103 38 21 39 22 40
REMARK SMILES IDX 23 41 24 42 25 43 26 44 27 45 28 46 29 47 30 48 94 49 31 50
REMARK SMILES IDX 93 51 32 52 33 53 34 54 87 55 35 56 92 57 86 58 88 59 36 60
REMARK SMILES IDX 91 61 85 62 84 63 37 65 71 66 50 67 70 68 51 69 54 70 69 71
REMARK SMILES IDX 89 72 52 73 53 74 68 76 90 77 55 78 38 79 39 80 48 81 40 82
REMARK SMILES IDX 41 83 47 84 49 85 42 86 43 87 44 88 45 89 46 90 72 91 73 92
REMARK SMILES IDX 82 93 74 94 75 95 81 96 83 97 76 98 77 99 78 100 79 101
REMARK SMILES IDX 80 102 56 103 57 104 66 105 58 106 59 107 65 108 67 109
REMARK SMILES IDX 60 110 61 111 62 112 63 113 64 114
REMARK H PARENT 12 17 88 64 54 75
REMARK Flexibility Score: inf
ROOT
ATOM      1  O   UNL A   1      33.970  35.227  29.658  1.00  0.00    -0.377 OA
ENDROOT
BRANCH   1   2
ATOM      2  C   UNL A   1      33.929  34.661  28.359  1.00  0.00     0.188 C 
BRANCH   2   3
ATOM      3  C   UNL A   1      33.113  33.402  28.072  1.00  0.00     0.188 C 
BRANCH   3   4
ATOM      4  O   UNL A   1      33.716  32.346  27.338  1.00  0.00    -0.376 OA
BRANCH   4   5
ATOM      5  C   UNL A   1      33.053  31.087  27.438  1.00  0.00     0.202 C 
BRANCH   5   6
ATOM      6  C   UNL A   1      33.119  30.394  26.073  1.00  0.00     0.266 C 
BRANCH   6   7
ATOM      7  O   UNL A   1      31.900  29.737  25.622  1.00  0.00    -0.428 OA
BRANCH   7   8
ATOM      8  C   UNL A   1      31.987  28.655  24.804  1.00  0.00     0.465 C 
ATOM      9  C   UNL A   1      31.688  25.064  23.027  1.00  0.00     0.032 C 
ATOM     10  C   UNL A   1      31.966  26.328  23.415  1.00  0.00     0.155 C 
ATOM     11  C   UNL A   1      33.110  26.761  24.226  1.00  0.00     0.349 C 
ATOM     12  C   UNL A   1      31.054  27.417  22.962  1.00  0.00     0.357 C 
ATOM     13  O   UNL A   1      34.243  26.349  24.014  1.00  0.00    -0.240 OA
ATOM     14  N   UNL A   1      32.844  27.749  25.127  1.00  0.00    -0.171 N 
ATOM     15  N   UNL A   1      31.151  28.593  23.699  1.00  0.00    -0.123 N 
ATOM     16  O   UNL A   1      30.243  27.216  22.056  1.00  0.00    -0.240 OA
ATOM     17  H   UNL A   1      33.295  27.770  26.002  1.00  0.00     0.319 HD
BRANCH   9  18
ATOM     18  C   UNL A   1      32.316  23.747  23.298  1.00  0.00    -0.024 A 
ATOM     19  C   UNL A   1      33.295  21.150  23.873  1.00  0.00     0.120 A 
ATOM     20  C   UNL A   1      34.163  22.230  23.818  1.00  0.00     0.047 A 
ATOM     21  C   UNL A   1      31.936  21.354  23.669  1.00  0.00     0.047 A 
ATOM     22  C   UNL A   1      33.673  23.515  23.547  1.00  0.00     0.012 A 
ATOM     23  C   UNL A   1      31.457  22.634  23.364  1.00  0.00     0.012 A 
BRANCH  19  24
ATOM     24  O   UNL A   1      33.795  19.951  24.291  1.00  0.00    -0.485 OA
BRANCH  24  25
ATOM     25  C   UNL A   1      32.834  18.890  24.329  1.00  0.00     0.216 C 
ATOM     26  C   UNL A   1      32.783  18.238  25.707  1.00  0.00     0.059 C 
BRANCH  25  27
ATOM     27  C   UNL A   1      33.252  17.820  23.326  1.00  0.00     0.082 C 
ATOM     28  O   UNL A   1      34.282  17.162  23.371  1.00  0.00    -0.546 OA
ATOM     29  O   UNL A   1      32.417  17.687  22.273  1.00  0.00    -0.546 OA
ENDBRANCH  25  27
ENDBRANCH  24  25
ENDBRANCH  19  24
ENDBRANCH   9  18
BRANCH  15  30
ATOM     30  C   UNL A   1      30.274  29.658  23.346  1.00  0.00     0.144 A 
ATOM     31  C   UNL A   1      29.914  30.615  24.327  1.00  0.00     0.056 A 
ATOM     32  C   UNL A   1      29.793  29.781  22.036  1.00  0.00     0.103 A 
ATOM     33  C   UNL A   1      29.074  31.687  24.011  1.00  0.00     0.055 A 
ATOM     34  C   UNL A   1      29.011  30.878  21.746  1.00  0.00     0.170 A 
ATOM     35  C   UNL A   1      28.660  31.801  22.705  1.00  0.00     0.166 A 
ATOM     36  O   UNL A   1      28.526  31.201  20.516  1.00  0.00    -0.453 OA
ATOM     37  O   UNL A   1      27.904  32.811  22.196  1.00  0.00    -0.454 OA
ATOM     38  C   UNL A   1      27.965  32.501  20.789  1.00  0.00     0.468 C 
ENDBRANCH  15  30
ENDBRANCH   7   8
ENDBRANCH   6   7
ENDBRANCH   5   6
ENDBRANCH   4   5
ENDBRANCH   3   4
ENDBRANCH   2   3
ENDBRANCH   1   2
BRANCH   1  39
ATOM     39  C   UNL A   1      34.104  34.376  30.777  1.00  0.00     0.188 C 
BRANCH  39  40
ATOM     40  C   UNL A   1      34.855  34.899  32.008  1.00  0.00     0.188 C 
BRANCH  40  41
ATOM     41  O   UNL A   1      34.425  34.358  33.256  1.00  0.00    -0.376 OA
BRANCH  41  42
ATOM     42  C   UNL A   1      34.581  32.939  33.348  1.00  0.00     0.202 C 
BRANCH  42  43
ATOM     43  C   UNL A   1      35.898  32.445  32.735  1.00  0.00     0.261 C 
BRANCH  43  44
ATOM     44  O   UNL A   1      35.852  31.121  32.183  1.00  0.00    -0.460 OA
BRANCH  44  45
ATOM     45  C   UNL A   1      36.205  30.973  30.888  1.00  0.00     0.338 C 
ATOM     46  O   UNL A   1      35.571  31.348  29.916  1.00  0.00    -0.246 OA
BRANCH  45  47
ATOM     47  C   UNL A   1      37.588  30.441  30.836  1.00  0.00     0.060 A 
ATOM     48  C   UNL A   1      37.906  29.325  31.623  1.00  0.00     0.016 A 
ATOM     49  C   UNL A   1      38.552  30.996  29.987  1.00  0.00     0.016 A 
ATOM     50  C   UNL A   1      39.180  28.754  31.547  1.00  0.00     0.010 A 
ATOM     51  C   UNL A   1      39.837  30.447  29.938  1.00  0.00     0.010 A 
ATOM     52  C   UNL A   1      40.162  29.332  30.729  1.00  0.00    -0.014 A 
BRANCH  52  53
ATOM     53  C   UNL A   1      41.582  28.935  30.894  1.00  0.00     0.031 A 
ATOM     54  C   UNL A   1      42.395  29.687  31.912  1.00  0.00     0.074 A 
ATOM     55  C   UNL A   1      42.147  27.951  30.171  1.00  0.00     0.049 A 
ATOM     56  N   UNL A   1      43.652  29.547  32.243  1.00  0.00    -0.248 NA
ATOM     57  C   UNL A   1      41.688  30.742  32.659  1.00  0.00     0.031 C 
ATOM     58  C   UNL A   1      41.467  27.134  29.168  1.00  0.00     0.029 A 
ATOM     59  N   UNL A   1      43.438  27.479  30.171  1.00  0.00    -0.354 N 
ATOM     60  C   UNL A   1      43.882  30.484  33.241  1.00  0.00     0.074 A 
ATOM     61  C   UNL A   1      42.647  31.209  33.441  1.00  0.00     0.031 C 
ATOM     62  C   UNL A   1      42.354  26.269  28.638  1.00  0.00     0.029 A 
ATOM     63  C   UNL A   1      43.666  26.485  29.247  1.00  0.00     0.049 A 
ATOM     64  H   UNL A   1      44.135  27.821  30.776  1.00  0.00     0.167 HD
ATOM     65  C   UNL A   1      45.018  30.722  33.936  1.00  0.00     0.037 A 
ATOM     66  C   UNL A   1      44.808  25.841  28.926  1.00  0.00     0.037 A 
ATOM     67  C   UNL A   1      46.258  30.031  33.716  1.00  0.00     0.049 A 
ATOM     68  C   UNL A   1      46.086  26.177  29.660  1.00  0.00     0.074 A 
ATOM     69  C   UNL A   1      47.465  30.199  34.370  1.00  0.00     0.029 A 
ATOM     70  N   UNL A   1      46.455  29.051  32.754  1.00  0.00    -0.354 N 
ATOM     71  N   UNL A   1      46.279  27.034  30.635  1.00  0.00    -0.248 NA
ATOM     72  C   UNL A   1      47.301  25.458  29.249  1.00  0.00     0.031 C 
ATOM     73  C   UNL A   1      48.405  29.353  33.774  1.00  0.00     0.029 A 
ATOM     74  C   UNL A   1      47.771  28.622  32.781  1.00  0.00     0.049 A 
ATOM     75  H   UNL A   1      45.762  28.711  32.144  1.00  0.00     0.167 HD
ATOM     76  C   UNL A   1      47.627  26.935  30.971  1.00  0.00     0.074 A 
ATOM     77  C   UNL A   1      48.201  25.930  30.102  1.00  0.00     0.031 C 
ATOM     78  C   UNL A   1      48.327  27.612  31.915  1.00  0.00     0.037 A 
BRANCH  65  79
ATOM     79  C   UNL A   1      44.967  31.799  34.979  1.00  0.00     0.058 A 
ATOM     80  C   UNL A   1      44.631  31.514  36.311  1.00  0.00     0.135 A 
ATOM     81  C   UNL A   1      45.254  33.131  34.642  1.00  0.00     0.135 A 
ATOM     82  F   UNL A   1      44.322  30.260  36.678  1.00  0.00    -0.206 F 
ATOM     83  C   UNL A   1      44.556  32.517  37.271  1.00  0.00     0.059 A 
ATOM     84  C   UNL A   1      45.210  34.147  35.591  1.00  0.00     0.059 A 
ATOM     85  F   UNL A   1      45.569  33.457  33.379  1.00  0.00    -0.206 F 
ATOM     86  C   UNL A   1      44.845  33.832  36.899  1.00  0.00     0.060 A 
BRANCH  86  87
ATOM     87  S   UNL A   1      44.741  35.124  38.155  1.00  0.00     0.124 S 
ATOM     88  O   UNL A   1      45.795  34.717  39.079  1.00  0.00    -0.237 OA
ATOM     89  O   UNL A   1      45.007  36.333  37.383  1.00  0.00    -0.237 OA
ATOM     90  O   UNL A   1      43.378  34.994  38.662  1.00  0.00    -0.744 OA
ENDBRANCH  86  87
ENDBRANCH  65  79
BRANCH  66  91
ATOM     91  C   UNL A   1      44.814  24.813  27.848  1.00  0.00     0.058 A 
ATOM     92  C   UNL A   1      45.155  25.146  26.528  1.00  0.00     0.135 A 
ATOM     93  C   UNL A   1      44.449  23.483  28.110  1.00  0.00     0.135 A 
ATOM     94  F   UNL A   1      45.492  26.407  26.221  1.00  0.00    -0.206 F 
ATOM     95  C   UNL A   1      45.120  24.203  25.505  1.00  0.00     0.059 A 
ATOM     96  C   UNL A   1      44.430  22.517  27.109  1.00  0.00     0.059 A 
ATOM     97  F   UNL A   1      44.116  23.110  29.356  1.00  0.00    -0.206 F 
ATOM     98  C   UNL A   1      44.758  22.889  25.806  1.00  0.00     0.060 A 
BRANCH  98  99
ATOM     99  S   UNL A   1      44.763  21.662  24.479  1.00  0.00     0.124 S 
ATOM    100  O   UNL A   1      44.363  22.467  23.331  1.00  0.00    -0.237 OA
ATOM    101  O   UNL A   1      46.149  21.207  24.489  1.00  0.00    -0.237 OA
ATOM    102  O   UNL A   1      43.785  20.677  24.932  1.00  0.00    -0.744 OA
ENDBRANCH  98  99
ENDBRANCH  66  91
BRANCH  78 103
ATOM    103  C   UNL A   1      49.781  27.272  32.093  1.00  0.00     0.058 A 
ATOM    104  C   UNL A   1      50.200  26.232  32.938  1.00  0.00     0.135 A 
ATOM    105  C   UNL A   1      50.763  27.947  31.349  1.00  0.00     0.135 A 
ATOM    106  F   UNL A   1      49.302  25.556  33.672  1.00  0.00    -0.206 F 
ATOM    107  C   UNL A   1      51.543  25.885  33.053  1.00  0.00     0.059 A 
ATOM    108  C   UNL A   1      52.109  27.601  31.429  1.00  0.00     0.059 A 
ATOM    109  F   UNL A   1      50.416  28.940  30.516  1.00  0.00    -0.206 F 
ATOM    110  C   UNL A   1      52.491  26.575  32.294  1.00  0.00     0.060 A 
BRANCH 110 111
ATOM    111  S   UNL A   1      54.225  26.090  32.420  1.00  0.00     0.124 S 
ATOM    112  O   UNL A   1      54.127  24.635  32.384  1.00  0.00    -0.237 OA
ATOM    113  O   UNL A   1      54.813  26.716  31.239  1.00  0.00    -0.237 OA
ATOM    114  O   UNL A   1      54.645  26.660  33.696  1.00  0.00    -0.744 OA
ENDBRANCH 110 111
ENDBRANCH  78 103
ENDBRANCH  52  53
ENDBRANCH  45  47
ENDBRANCH  44  45
ENDBRANCH  43  44
ENDBRANCH  42  43
ENDBRANCH  41  42
ENDBRANCH  40  41
ENDBRANCH  39  40
ENDBRANCH   1  39
TORSDOF 27
ENDMDL
MODEL 3
REMARK VINA RESULT:      -9.0      6.713     12.827
REMARK SMILES C[C@@H](Oc1ccc(/C=C2\C(=O)[NH+]=C(OCCOCCOCCOCCOC(=O)c3ccc(-c4c5nc(c(-c6c(F)cc(S(=O)(=O)[O-])cc6F)c6ccc([nH]6)c(-c6c(F)cc(S(=O)(=O)[O-])cc6F)c6nc(c(-c7c(F)cc(S(=O)(=O)[O-])cc7F)c7ccc4[nH]7)C=C6)C=C5)cc3)N(c3ccc4c(c3)OCO4)C2=O)cc1)C(=O)[O-]
REMARK SMILES IDX 20 1 19 2 18 3 17 4 16 5 15 6 14 7 13 8 8 9 9 10 10 11
REMARK SMILES IDX 105 12 11 13 12 14 95 15 106 16 7 18 4 19 5 20 108 21 6 22
REMARK SMILES IDX 107 23 3 24 2 25 1 26 109 27 110 28 111 29 96 30 97 31
REMARK SMILES IDX 101 32 98 33 100 34 99 35 102 36 104 37 103 38 21 39 22 40
REMARK SMILES IDX 23 41 24 42 25 43 26 44 27 45 28 46 29 47 30 48 94 49 31 50
REMARK SMILES IDX 93 51 32 52 33 53 34 54 87 55 35 56 92 57 86 58 88 59 36 60
REMARK SMILES IDX 91 61 85 62 84 63 37 65 71 66 50 67 70 68 51 69 54 70 69 71
REMARK SMILES IDX 89 72 52 73 53 74 68 76 90 77 55 78 38 79 39 80 48 81 40 82
REMARK SMILES IDX 41 83 47 84 49 85 42 86 43 87 44 88 45 89 46 90 72 91 73 92
REMARK SMILES IDX 82 93 74 94 75 95 81 96 83 97 76 98 77 99 78 100 79 101
REMARK SMILES IDX 80 102 56 103 57 104 66 105 58 106 59 107 65 108 67 109
REMARK SMILES IDX 60 110 61 111 62 112 63 113 64 114
REMARK H PARENT 12 17 88 64 54 75
REMARK Flexibility Score: inf
ROOT
ATOM      1  O   UNL A   1      34.621  34.479  29.041  1.00  0.00    -0.377 OA
ENDROOT
BRANCH   1   2
ATOM      2  C   UNL A   1      34.646  33.497  28.020  1.00  0.00     0.188 C 
BRANCH   2   3
ATOM      3  C   UNL A   1      33.565  32.421  27.933  1.00  0.00     0.188 C 
BRANCH   3   4
ATOM      4  O   UNL A   1      33.815  31.259  27.155  1.00  0.00    -0.376 OA
BRANCH   4   5
ATOM      5  C   UNL A   1      32.829  30.235  27.266  1.00  0.00     0.202 C 
BRANCH   5   6
ATOM      6  C   UNL A   1      32.827  29.419  25.969  1.00  0.00     0.266 C 
BRANCH   6   7
ATOM      7  O   UNL A   1      31.658  28.583  25.733  1.00  0.00    -0.428 OA
BRANCH   7   8
ATOM      8  C   UNL A   1      31.792  27.432  25.023  1.00  0.00     0.465 C 
ATOM      9  C   UNL A   1      31.692  23.666  23.628  1.00  0.00     0.032 C 
ATOM     10  C   UNL A   1      31.889  24.979  23.873  1.00  0.00     0.155 C 
ATOM     11  C   UNL A   1      33.031  25.575  24.577  1.00  0.00     0.349 C 
ATOM     12  C   UNL A   1      30.876  25.947  23.363  1.00  0.00     0.357 C 
ATOM     13  O   UNL A   1      34.182  25.226  24.347  1.00  0.00    -0.240 OA
ATOM     14  N   UNL A   1      32.730  26.629  25.389  1.00  0.00    -0.171 N 
ATOM     15  N   UNL A   1      30.914  27.196  23.975  1.00  0.00    -0.123 N 
ATOM     16  O   UNL A   1      30.043  25.596  22.526  1.00  0.00    -0.240 OA
ATOM     17  H   UNL A   1      33.217  26.772  26.232  1.00  0.00     0.319 HD
BRANCH   9  18
ATOM     18  C   UNL A   1      32.432  22.432  23.995  1.00  0.00    -0.024 A 
ATOM     19  C   UNL A   1      33.668  19.951  24.588  1.00  0.00     0.120 A 
ATOM     20  C   UNL A   1      34.035  21.099  25.273  1.00  0.00     0.047 A 
ATOM     21  C   UNL A   1      32.671  20.021  23.624  1.00  0.00     0.047 A 
ATOM     22  C   UNL A   1      33.412  22.322  24.986  1.00  0.00     0.012 A 
ATOM     23  C   UNL A   1      32.076  21.251  23.317  1.00  0.00     0.012 A 
BRANCH  19  24
ATOM     24  O   UNL A   1      34.190  18.763  25.009  1.00  0.00    -0.485 OA
BRANCH  24  25
ATOM     25  C   UNL A   1      33.428  17.613  24.624  1.00  0.00     0.216 C 
ATOM     26  C   UNL A   1      32.600  17.082  25.789  1.00  0.00     0.059 C 
BRANCH  25  27
ATOM     27  C   UNL A   1      34.394  16.510  24.203  1.00  0.00     0.082 C 
ATOM     28  O   UNL A   1      35.306  16.061  24.882  1.00  0.00    -0.546 OA
ATOM     29  O   UNL A   1      34.235  16.086  22.931  1.00  0.00    -0.546 OA
ENDBRANCH  25  27
ENDBRANCH  24  25
ENDBRANCH  19  24
ENDBRANCH   9  18
BRANCH  15  30
ATOM     30  C   UNL A   1      29.943  28.154  23.564  1.00  0.00     0.144 A 
ATOM     31  C   UNL A   1      28.573  27.794  23.561  1.00  0.00     0.056 A 
ATOM     32  C   UNL A   1      30.329  29.448  23.194  1.00  0.00     0.103 A 
ATOM     33  C   UNL A   1      27.589  28.714  23.187  1.00  0.00     0.055 A 
ATOM     34  C   UNL A   1      29.331  30.345  22.882  1.00  0.00     0.170 A 
ATOM     35  C   UNL A   1      28.001  29.988  22.876  1.00  0.00     0.166 A 
ATOM     36  O   UNL A   1      29.514  31.659  22.580  1.00  0.00    -0.453 OA
ATOM     37  O   UNL A   1      27.189  31.032  22.560  1.00  0.00    -0.454 OA
ATOM     38  C   UNL A   1      28.145  32.111  22.534  1.00  0.00     0.468 C 
ENDBRANCH  15  30
ENDBRANCH   7   8
ENDBRANCH   6   7
ENDBRANCH   5   6
ENDBRANCH   4   5
ENDBRANCH   3   4
ENDBRANCH   2   3
ENDBRANCH   1   2
BRANCH   1  39
ATOM     39  C   UNL A   1      34.534  34.071  30.390  1.00  0.00     0.188 C 
BRANCH  39  40
ATOM     40  C   UNL A   1      34.034  35.081  31.429  1.00  0.00     0.188 C 
BRANCH  40  41
ATOM     41  O   UNL A   1      33.179  34.543  32.436  1.00  0.00    -0.376 OA
BRANCH  41  42
ATOM     42  C   UNL A   1      33.753  33.441  33.145  1.00  0.00     0.202 C 
BRANCH  42  43
ATOM     43  C   UNL A   1      34.945  33.853  34.019  1.00  0.00     0.261 C 
BRANCH  43  44
ATOM     44  O   UNL A   1      36.219  33.360  33.578  1.00  0.00    -0.460 OA
BRANCH  44  45
ATOM     45  C   UNL A   1      37.302  34.131  33.817  1.00  0.00     0.338 C 
ATOM     46  O   UNL A   1      37.658  35.102  33.169  1.00  0.00    -0.246 OA
BRANCH  45  47
ATOM     47  C   UNL A   1      37.895  33.722  35.113  1.00  0.00     0.060 A 
ATOM     48  C   UNL A   1      38.502  34.702  35.911  1.00  0.00     0.016 A 
ATOM     49  C   UNL A   1      37.812  32.401  35.568  1.00  0.00     0.016 A 
ATOM     50  C   UNL A   1      39.009  34.365  37.169  1.00  0.00     0.010 A 
ATOM     51  C   UNL A   1      38.352  32.058  36.811  1.00  0.00     0.010 A 
ATOM     52  C   UNL A   1      38.966  33.035  37.612  1.00  0.00    -0.014 A 
BRANCH  52  53
ATOM     53  C   UNL A   1      39.783  32.624  38.780  1.00  0.00     0.031 A 
ATOM     54  C   UNL A   1      41.263  32.458  38.563  1.00  0.00     0.074 A 
ATOM     55  C   UNL A   1      39.248  32.395  39.993  1.00  0.00     0.049 A 
ATOM     56  N   UNL A   1      42.194  32.099  39.408  1.00  0.00    -0.248 NA
ATOM     57  C   UNL A   1      41.757  32.738  37.204  1.00  0.00     0.031 C 
ATOM     58  C   UNL A   1      37.836  32.536  40.341  1.00  0.00     0.029 A 
ATOM     59  N   UNL A   1      39.842  31.982  41.161  1.00  0.00    -0.354 N 
ATOM     60  C   UNL A   1      43.380  32.121  38.687  1.00  0.00     0.074 A 
ATOM     61  C   UNL A   1      43.051  32.497  37.330  1.00  0.00     0.031 C 
ATOM     62  C   UNL A   1      37.670  32.202  41.635  1.00  0.00     0.029 A 
ATOM     63  C   UNL A   1      38.959  31.802  42.201  1.00  0.00     0.049 A 
ATOM     64  H   UNL A   1      40.811  31.830  41.247  1.00  0.00     0.167 HD
ATOM     65  C   UNL A   1      44.636  31.857  39.114  1.00  0.00     0.037 A 
ATOM     66  C   UNL A   1      39.171  31.350  43.455  1.00  0.00     0.037 A 
ATOM     67  C   UNL A   1      44.965  31.447  40.452  1.00  0.00     0.049 A 
ATOM     68  C   UNL A   1      40.572  30.984  43.889  1.00  0.00     0.074 A 
ATOM     69  C   UNL A   1      46.209  31.157  40.981  1.00  0.00     0.029 A 
ATOM     70  N   UNL A   1      44.040  31.250  41.466  1.00  0.00    -0.354 N 
ATOM     71  N   UNL A   1      41.693  31.055  43.211  1.00  0.00    -0.248 NA
ATOM     72  C   UNL A   1      40.735  30.477  45.260  1.00  0.00     0.031 C 
ATOM     73  C   UNL A   1      46.033  30.741  42.305  1.00  0.00     0.029 A 
ATOM     74  C   UNL A   1      44.683  30.819  42.613  1.00  0.00     0.049 A 
ATOM     75  H   UNL A   1      43.070  31.395  41.383  1.00  0.00     0.167 HD
ATOM     76  C   UNL A   1      42.695  30.630  44.080  1.00  0.00     0.074 A 
ATOM     77  C   UNL A   1      42.049  30.311  45.336  1.00  0.00     0.031 C 
ATOM     78  C   UNL A   1      44.028  30.515  43.861  1.00  0.00     0.037 A 
BRANCH  65  79
ATOM     79  C   UNL A   1      45.740  31.978  38.104  1.00  0.00     0.058 A 
ATOM     80  C   UNL A   1      46.432  33.184  37.917  1.00  0.00     0.135 A 
ATOM     81  C   UNL A   1      46.106  30.877  37.314  1.00  0.00     0.135 A 
ATOM     82  F   UNL A   1      46.101  34.272  38.629  1.00  0.00    -0.206 F 
ATOM     83  C   UNL A   1      47.435  33.304  36.961  1.00  0.00     0.059 A 
ATOM     84  C   UNL A   1      47.122  30.967  36.369  1.00  0.00     0.059 A 
ATOM     85  F   UNL A   1      45.465  29.706  37.447  1.00  0.00    -0.206 F 
ATOM     86  C   UNL A   1      47.771  32.189  36.190  1.00  0.00     0.060 A 
BRANCH  86  87
ATOM     87  S   UNL A   1      49.071  32.360  34.951  1.00  0.00     0.124 S 
ATOM     88  O   UNL A   1      48.726  31.292  34.017  1.00  0.00    -0.237 OA
ATOM     89  O   UNL A   1      48.863  33.719  34.464  1.00  0.00    -0.237 OA
ATOM     90  O   UNL A   1      50.297  32.151  35.715  1.00  0.00    -0.744 OA
ENDBRANCH  86  87
ENDBRANCH  65  79
BRANCH  66  91
ATOM     91  C   UNL A   1      38.033  31.203  44.404  1.00  0.00     0.058 A 
ATOM     92  C   UNL A   1      37.340  29.988  44.525  1.00  0.00     0.135 A 
ATOM     93  C   UNL A   1      37.594  32.283  45.187  1.00  0.00     0.135 A 
ATOM     94  F   UNL A   1      37.707  28.931  43.785  1.00  0.00    -0.206 F 
ATOM     95  C   UNL A   1      36.247  29.852  45.375  1.00  0.00     0.059 A 
ATOM     96  C   UNL A   1      36.518  32.165  46.062  1.00  0.00     0.059 A 
ATOM     97  F   UNL A   1      38.223  33.467  45.111  1.00  0.00    -0.206 F 
ATOM     98  C   UNL A   1      35.844  30.947  46.142  1.00  0.00     0.060 A 
BRANCH  98  99
ATOM     99  S   UNL A   1      34.453  30.746  47.279  1.00  0.00     0.124 S 
ATOM    100  O   UNL A   1      35.098  30.945  48.571  1.00  0.00    -0.237 OA
ATOM    101  O   UNL A   1      33.549  31.806  46.846  1.00  0.00    -0.237 OA
ATOM    102  O   UNL A   1      33.991  29.389  47.004  1.00  0.00    -0.744 OA
ENDBRANCH  98  99
ENDBRANCH  66  91
BRANCH  78 103
ATOM    103  C   UNL A   1      44.893  30.063  45.005  1.00  0.00     0.058 A 
ATOM    104  C   UNL A   1      45.095  28.702  45.287  1.00  0.00     0.135 A 
ATOM    105  C   UNL A   1      45.591  31.003  45.783  1.00  0.00     0.135 A 
ATOM    106  F   UNL A   1      44.451  27.763  44.576  1.00  0.00    -0.206 F 
ATOM    107  C   UNL A   1      45.942  28.290  46.312  1.00  0.00     0.059 A 
ATOM    108  C   UNL A   1      46.462  30.613  46.795  1.00  0.00     0.059 A 
ATOM    109  F   UNL A   1      45.445  32.315  45.546  1.00  0.00    -0.206 F 
ATOM    110  C   UNL A   1      46.623  29.253  47.060  1.00  0.00     0.060 A 
BRANCH 110 111
ATOM    111  S   UNL A   1      47.750  28.706  48.359  1.00  0.00     0.124 S 
ATOM    112  O   UNL A   1      48.819  28.089  47.581  1.00  0.00    -0.237 OA
ATOM    113  O   UNL A   1      48.094  29.959  49.026  1.00  0.00    -0.237 OA
ATOM    114  O   UNL A   1      46.938  27.787  49.150  1.00  0.00    -0.744 OA
ENDBRANCH 110 111
ENDBRANCH  78 103
ENDBRANCH  52  53
ENDBRANCH  45  47
ENDBRANCH  44  45
ENDBRANCH  43  44
ENDBRANCH  42  43
ENDBRANCH  41  42
ENDBRANCH  40  41
ENDBRANCH  39  40
ENDBRANCH   1  39
TORSDOF 27
ENDMDL
