MODEL 1
REMARK VINA RESULT:      -8.7      0.000      0.000
REMARK SMILES C[C@H](CNS(=O)(=O)CCC(=O)OCCOCCOCCOCCOC(=O)c1ccc(-c2c3nc(c(-c4c(F)cc(S(=O)(=O)[O-])cc4F)c4ccc([nH]4)c(-c4c(F)cc(S(=O)(=O)[O-])cc4F)c4nc(c(-c5c(F)cc(S(=O)(=O)[O-])cc5F)c5ccc2[nH]5)C=C4)C=C3)cc1)c1ccccc1
REMARK SMILES IDX 16 1 15 2 14 3 13 4 12 5 10 6 11 7 9 8 8 9 5 10 6 11 7 12
REMARK SMILES IDX 4 13 3 15 2 16 1 17 93 18 94 19 98 20 95 21 97 22 96 23
REMARK SMILES IDX 17 24 18 25 19 26 20 27 21 28 22 29 23 30 24 31 25 32 26 33
REMARK SMILES IDX 27 34 28 35 92 36 29 37 91 38 30 39 31 40 32 41 85 42 33 43
REMARK SMILES IDX 90 44 84 45 86 46 34 47 89 48 83 49 82 50 35 52 69 53 48 54
REMARK SMILES IDX 68 55 49 56 52 57 67 58 87 59 50 60 51 61 66 63 88 64 53 65
REMARK SMILES IDX 36 66 37 67 46 68 38 69 39 70 45 71 47 72 40 73 41 74 42 75
REMARK SMILES IDX 43 76 44 77 70 78 71 79 80 80 72 81 73 82 79 83 81 84 74 85
REMARK SMILES IDX 75 86 76 87 77 88 78 89 54 90 55 91 64 92 56 93 57 94 63 95
REMARK SMILES IDX 65 96 58 97 59 98 60 99 61 100 62 101
REMARK H PARENT 4 14 86 51 52 62
REMARK Flexibility Score: inf
ROOT
ATOM      1  C   UNL A   1      32.300  28.622  24.002  1.00  0.00     0.188 C 
ENDROOT
BRANCH   1   2
ATOM      2  O   UNL A   1      30.971  28.429  24.459  1.00  0.00    -0.376 OA
BRANCH   2   3
ATOM      3  C   UNL A   1      30.060  27.605  23.729  1.00  0.00     0.202 C 
BRANCH   3   4
ATOM      4  C   UNL A   1      29.657  26.208  24.227  1.00  0.00     0.261 C 
BRANCH   4   5
ATOM      5  O   UNL A   1      30.786  25.443  24.696  1.00  0.00    -0.463 OA
BRANCH   5   6
ATOM      6  C   UNL A   1      30.788  25.215  26.036  1.00  0.00     0.306 C 
ATOM      7  O   UNL A   1      30.855  26.100  26.885  1.00  0.00    -0.252 OA
BRANCH   6   8
ATOM      8  C   UNL A   1      30.487  23.789  26.419  1.00  0.00     0.140 C 
BRANCH   8   9
ATOM      9  C   UNL A   1      31.620  22.939  26.953  1.00  0.00     0.165 C 
BRANCH   9  10
ATOM     10  S   UNL A   1      32.454  21.940  25.742  1.00  0.00     0.212 S 
ATOM     11  O   UNL A   1      31.538  20.931  25.270  1.00  0.00    -0.212 OA
ATOM     12  O   UNL A   1      33.750  21.584  26.283  1.00  0.00    -0.212 OA
BRANCH  10  13
ATOM     13  N   UNL A   1      32.766  22.991  24.478  1.00  0.00    -0.215 NA
ATOM     14  H   UNL A   1      31.897  23.085  23.953  1.00  0.00     0.141 HD
BRANCH  13  15
ATOM     15  C   UNL A   1      33.838  22.675  23.484  1.00  0.00     0.106 C 
BRANCH  15  16
ATOM     16  C   UNL A   1      35.094  23.591  23.707  1.00  0.00     0.031 C 
ATOM     17  C   UNL A   1      34.592  24.928  24.289  1.00  0.00     0.014 C 
BRANCH  16  18
ATOM     18  C   UNL A   1      36.328  23.056  24.477  1.00  0.00    -0.044 A 
ATOM     19  C   UNL A   1      37.042  23.873  25.373  1.00  0.00     0.004 A 
ATOM     20  C   UNL A   1      36.888  21.788  24.281  1.00  0.00     0.004 A 
ATOM     21  C   UNL A   1      38.135  23.403  26.120  1.00  0.00     0.000 A 
ATOM     22  C   UNL A   1      37.951  21.285  25.051  1.00  0.00     0.000 A 
ATOM     23  C   UNL A   1      38.566  22.092  25.990  1.00  0.00     0.000 A 
ENDBRANCH  16  18
ENDBRANCH  15  16
ENDBRANCH  13  15
ENDBRANCH  10  13
ENDBRANCH   9  10
ENDBRANCH   8   9
ENDBRANCH   6   8
ENDBRANCH   5   6
ENDBRANCH   4   5
ENDBRANCH   3   4
ENDBRANCH   2   3
ENDBRANCH   1   2
BRANCH   1  24
ATOM     24  C   UNL A   1      33.177  29.339  25.030  1.00  0.00     0.188 C 
BRANCH  24  25
ATOM     25  O   UNL A   1      32.640  29.337  26.343  1.00  0.00    -0.377 OA
BRANCH  25  26
ATOM     26  C   UNL A   1      32.388  30.606  26.931  1.00  0.00     0.188 C 
BRANCH  26  27
ATOM     27  C   UNL A   1      33.592  31.458  27.345  1.00  0.00     0.188 C 
BRANCH  27  28
ATOM     28  O   UNL A   1      33.313  32.573  28.183  1.00  0.00    -0.376 OA
BRANCH  28  29
ATOM     29  C   UNL A   1      34.046  33.774  27.947  1.00  0.00     0.202 C 
BRANCH  29  30
ATOM     30  C   UNL A   1      33.536  35.034  28.658  1.00  0.00     0.261 C 
BRANCH  30  31
ATOM     31  O   UNL A   1      32.532  34.831  29.679  1.00  0.00    -0.460 OA
BRANCH  31  32
ATOM     32  C   UNL A   1      32.803  35.589  30.794  1.00  0.00     0.338 C 
ATOM     33  O   UNL A   1      32.178  36.593  31.114  1.00  0.00    -0.246 OA
BRANCH  32  34
ATOM     34  C   UNL A   1      33.901  35.074  31.663  1.00  0.00     0.060 A 
ATOM     35  C   UNL A   1      34.564  35.895  32.551  1.00  0.00     0.016 A 
ATOM     36  C   UNL A   1      34.393  33.781  31.496  1.00  0.00     0.016 A 
ATOM     37  C   UNL A   1      35.825  35.560  33.062  1.00  0.00     0.010 A 
ATOM     38  C   UNL A   1      35.570  33.373  32.156  1.00  0.00     0.010 A 
ATOM     39  C   UNL A   1      36.358  34.284  32.886  1.00  0.00    -0.014 A 
BRANCH  39  40
ATOM     40  C   UNL A   1      37.735  33.910  33.368  1.00  0.00     0.031 A 
ATOM     41  C   UNL A   1      37.969  33.749  34.857  1.00  0.00     0.074 A 
ATOM     42  C   UNL A   1      38.781  33.681  32.540  1.00  0.00     0.049 A 
ATOM     43  N   UNL A   1      39.081  33.819  35.542  1.00  0.00    -0.248 NA
ATOM     44  C   UNL A   1      36.776  33.497  35.684  1.00  0.00     0.031 C 
ATOM     45  C   UNL A   1      38.733  33.641  31.077  1.00  0.00     0.029 A 
ATOM     46  N   UNL A   1      40.112  33.442  32.818  1.00  0.00    -0.354 N 
ATOM     47  C   UNL A   1      38.710  33.727  36.882  1.00  0.00     0.074 A 
ATOM     48  C   UNL A   1      37.272  33.574  36.910  1.00  0.00     0.031 C 
ATOM     49  C   UNL A   1      39.951  33.357  30.594  1.00  0.00     0.029 A 
ATOM     50  C   UNL A   1      40.904  33.353  31.693  1.00  0.00     0.049 A 
ATOM     51  H   UNL A   1      40.462  33.344  33.734  1.00  0.00     0.167 HD
ATOM     52  C   UNL A   1      39.499  33.786  37.983  1.00  0.00     0.037 A 
ATOM     53  C   UNL A   1      42.246  33.365  31.542  1.00  0.00     0.037 A 
ATOM     54  C   UNL A   1      40.938  33.859  37.928  1.00  0.00     0.049 A 
ATOM     55  C   UNL A   1      43.111  33.522  32.764  1.00  0.00     0.074 A 
ATOM     56  C   UNL A   1      41.840  33.949  38.974  1.00  0.00     0.029 A 
ATOM     57  N   UNL A   1      41.686  33.824  36.760  1.00  0.00    -0.354 N 
ATOM     58  N   UNL A   1      42.752  33.587  34.024  1.00  0.00    -0.248 NA
ATOM     59  C   UNL A   1      44.559  33.647  32.543  1.00  0.00     0.031 C 
ATOM     60  C   UNL A   1      43.129  34.016  38.435  1.00  0.00     0.029 A 
ATOM     61  C   UNL A   1      43.036  33.909  37.057  1.00  0.00     0.049 A 
ATOM     62  H   UNL A   1      41.311  33.750  35.852  1.00  0.00     0.167 HD
ATOM     63  C   UNL A   1      43.930  33.749  34.746  1.00  0.00     0.074 A 
ATOM     64  C   UNL A   1      45.013  33.747  33.784  1.00  0.00     0.031 C 
ATOM     65  C   UNL A   1      44.099  33.894  36.084  1.00  0.00     0.037 A 
BRANCH  52  66
ATOM     66  C   UNL A   1      38.826  33.854  39.330  1.00  0.00     0.058 A 
ATOM     67  C   UNL A   1      38.798  35.020  40.109  1.00  0.00     0.135 A 
ATOM     68  C   UNL A   1      38.182  32.714  39.845  1.00  0.00     0.135 A 
ATOM     69  F   UNL A   1      39.410  36.135  39.680  1.00  0.00    -0.206 F 
ATOM     70  C   UNL A   1      38.190  35.045  41.363  1.00  0.00     0.059 A 
ATOM     71  C   UNL A   1      37.541  32.725  41.081  1.00  0.00     0.059 A 
ATOM     72  F   UNL A   1      38.174  31.569  39.145  1.00  0.00    -0.206 F 
ATOM     73  C   UNL A   1      37.567  33.891  41.841  1.00  0.00     0.060 A 
BRANCH  73  74
ATOM     74  S   UNL A   1      36.795  33.934  43.475  1.00  0.00     0.124 S 
ATOM     75  O   UNL A   1      35.501  33.316  43.201  1.00  0.00    -0.237 OA
ATOM     76  O   UNL A   1      37.720  33.141  44.277  1.00  0.00    -0.237 OA
ATOM     77  O   UNL A   1      36.754  35.358  43.795  1.00  0.00    -0.744 OA
ENDBRANCH  73  74
ENDBRANCH  52  66
BRANCH  53  78
ATOM     78  C   UNL A   1      42.854  33.337  30.177  1.00  0.00     0.058 A 
ATOM     79  C   UNL A   1      43.020  34.511  29.428  1.00  0.00     0.135 A 
ATOM     80  C   UNL A   1      43.281  32.131  29.592  1.00  0.00     0.135 A 
ATOM     81  F   UNL A   1      42.610  35.687  29.926  1.00  0.00    -0.206 F 
ATOM     82  C   UNL A   1      43.583  34.493  28.154  1.00  0.00     0.059 A 
ATOM     83  C   UNL A   1      43.881  32.092  28.336  1.00  0.00     0.059 A 
ATOM     84  F   UNL A   1      43.149  30.974  30.259  1.00  0.00    -0.206 F 
ATOM     85  C   UNL A   1      44.018  33.279  27.619  1.00  0.00     0.060 A 
BRANCH  85  86
ATOM     86  S   UNL A   1      44.806  33.276  25.994  1.00  0.00     0.124 S 
ATOM     87  O   UNL A   1      45.064  31.855  25.795  1.00  0.00    -0.237 OA
ATOM     88  O   UNL A   1      43.767  33.862  25.152  1.00  0.00    -0.237 OA
ATOM     89  O   UNL A   1      45.986  34.113  26.191  1.00  0.00    -0.744 OA
ENDBRANCH  85  86
ENDBRANCH  53  78
BRANCH  65  90
ATOM     90  C   UNL A   1      45.510  34.019  36.590  1.00  0.00     0.058 A 
ATOM     91  C   UNL A   1      46.109  35.270  36.804  1.00  0.00     0.135 A 
ATOM     92  C   UNL A   1      46.250  32.871  36.912  1.00  0.00     0.135 A 
ATOM     93  F   UNL A   1      45.448  36.398  36.501  1.00  0.00    -0.206 F 
ATOM     94  C   UNL A   1      47.404  35.377  37.300  1.00  0.00     0.059 A 
ATOM     95  C   UNL A   1      47.535  32.955  37.437  1.00  0.00     0.059 A 
ATOM     96  F   UNL A   1      45.718  31.651  36.733  1.00  0.00    -0.206 F 
ATOM     97  C   UNL A   1      48.107  34.213  37.618  1.00  0.00     0.060 A 
BRANCH  97  98
ATOM     98  S   UNL A   1      49.772  34.367  38.299  1.00  0.00     0.124 S 
ATOM     99  O   UNL A   1      50.143  35.710  37.867  1.00  0.00    -0.237 OA
ATOM    100  O   UNL A   1      49.539  34.203  39.730  1.00  0.00    -0.237 OA
ATOM    101  O   UNL A   1      50.503  33.277  37.660  1.00  0.00    -0.744 OA
ENDBRANCH  97  98
ENDBRANCH  65  90
ENDBRANCH  39  40
ENDBRANCH  32  34
ENDBRANCH  31  32
ENDBRANCH  30  31
ENDBRANCH  29  30
ENDBRANCH  28  29
ENDBRANCH  27  28
ENDBRANCH  26  27
ENDBRANCH  25  26
ENDBRANCH  24  25
ENDBRANCH   1  24
TORSDOF 29
ENDMDL
MODEL 2
REMARK VINA RESULT:      -8.2      4.900      6.614
REMARK SMILES C[C@H](CNS(=O)(=O)CCC(=O)OCCOCCOCCOCCOC(=O)c1ccc(-c2c3nc(c(-c4c(F)cc(S(=O)(=O)[O-])cc4F)c4ccc([nH]4)c(-c4c(F)cc(S(=O)(=O)[O-])cc4F)c4nc(c(-c5c(F)cc(S(=O)(=O)[O-])cc5F)c5ccc2[nH]5)C=C4)C=C3)cc1)c1ccccc1
REMARK SMILES IDX 16 1 15 2 14 3 13 4 12 5 10 6 11 7 9 8 8 9 5 10 6 11 7 12
REMARK SMILES IDX 4 13 3 15 2 16 1 17 93 18 94 19 98 20 95 21 97 22 96 23
REMARK SMILES IDX 17 24 18 25 19 26 20 27 21 28 22 29 23 30 24 31 25 32 26 33
REMARK SMILES IDX 27 34 28 35 92 36 29 37 91 38 30 39 31 40 32 41 85 42 33 43
REMARK SMILES IDX 90 44 84 45 86 46 34 47 89 48 83 49 82 50 35 52 69 53 48 54
REMARK SMILES IDX 68 55 49 56 52 57 67 58 87 59 50 60 51 61 66 63 88 64 53 65
REMARK SMILES IDX 36 66 37 67 46 68 38 69 39 70 45 71 47 72 40 73 41 74 42 75
REMARK SMILES IDX 43 76 44 77 70 78 71 79 80 80 72 81 73 82 79 83 81 84 74 85
REMARK SMILES IDX 75 86 76 87 77 88 78 89 54 90 55 91 64 92 56 93 57 94 63 95
REMARK SMILES IDX 65 96 58 97 59 98 60 99 61 100 62 101
REMARK H PARENT 4 14 86 51 52 62
REMARK Flexibility Score: inf
ROOT
ATOM      1  C   UNL A   1      30.338  25.333  25.579  1.00  0.00     0.188 C 
ENDROOT
BRANCH   1   2
ATOM      2  O   UNL A   1      31.368  24.617  24.917  1.00  0.00    -0.376 OA
BRANCH   2   3
ATOM      3  C   UNL A   1      32.094  25.209  23.838  1.00  0.00     0.202 C 
BRANCH   3   4
ATOM      4  C   UNL A   1      31.627  25.074  22.380  1.00  0.00     0.261 C 
BRANCH   4   5
ATOM      5  O   UNL A   1      32.624  24.459  21.538  1.00  0.00    -0.463 OA
BRANCH   5   6
ATOM      6  C   UNL A   1      33.170  23.325  22.053  1.00  0.00     0.306 C 
ATOM      7  O   UNL A   1      34.370  23.171  22.259  1.00  0.00    -0.252 OA
BRANCH   6   8
ATOM      8  C   UNL A   1      32.158  22.329  22.558  1.00  0.00     0.140 C 
BRANCH   8   9
ATOM      9  C   UNL A   1      32.606  20.898  22.761  1.00  0.00     0.165 C 
BRANCH   9  10
ATOM     10  S   UNL A   1      33.036  20.468  24.432  1.00  0.00     0.212 S 
ATOM     11  O   UNL A   1      33.816  19.255  24.408  1.00  0.00    -0.212 OA
ATOM     12  O   UNL A   1      31.835  20.573  25.235  1.00  0.00    -0.212 OA
BRANCH  10  13
ATOM     13  N   UNL A   1      34.029  21.715  24.940  1.00  0.00    -0.215 NA
ATOM     14  H   UNL A   1      33.981  22.439  24.223  1.00  0.00     0.141 HD
BRANCH  13  15
ATOM     15  C   UNL A   1      35.481  21.462  25.202  1.00  0.00     0.106 C 
BRANCH  15  16
ATOM     16  C   UNL A   1      36.300  22.801  25.135  1.00  0.00     0.031 C 
ATOM     17  C   UNL A   1      35.346  23.946  25.527  1.00  0.00     0.014 C 
BRANCH  16  18
ATOM     18  C   UNL A   1      37.668  22.919  25.855  1.00  0.00    -0.044 A 
ATOM     19  C   UNL A   1      38.099  24.139  26.408  1.00  0.00     0.004 A 
ATOM     20  C   UNL A   1      38.610  21.887  25.928  1.00  0.00     0.004 A 
ATOM     21  C   UNL A   1      39.311  24.267  27.106  1.00  0.00     0.000 A 
ATOM     22  C   UNL A   1      39.805  21.982  26.662  1.00  0.00     0.000 A 
ATOM     23  C   UNL A   1      40.149  23.175  27.271  1.00  0.00     0.000 A 
ENDBRANCH  16  18
ENDBRANCH  15  16
ENDBRANCH  13  15
ENDBRANCH  10  13
ENDBRANCH   9  10
ENDBRANCH   8   9
ENDBRANCH   6   8
ENDBRANCH   5   6
ENDBRANCH   4   5
ENDBRANCH   3   4
ENDBRANCH   2   3
ENDBRANCH   1   2
BRANCH   1  24
ATOM     24  C   UNL A   1      30.870  26.221  26.706  1.00  0.00     0.188 C 
BRANCH  24  25
ATOM     25  O   UNL A   1      32.274  26.417  26.669  1.00  0.00    -0.377 OA
BRANCH  25  26
ATOM     26  C   UNL A   1      32.742  27.730  26.942  1.00  0.00     0.188 C 
BRANCH  26  27
ATOM     27  C   UNL A   1      31.751  28.738  27.532  1.00  0.00     0.188 C 
BRANCH  27  28
ATOM     28  O   UNL A   1      31.510  29.908  26.759  1.00  0.00    -0.376 OA
BRANCH  28  29
ATOM     29  C   UNL A   1      32.634  30.720  26.424  1.00  0.00     0.202 C 
BRANCH  29  30
ATOM     30  C   UNL A   1      33.493  31.211  27.597  1.00  0.00     0.261 C 
BRANCH  30  31
ATOM     31  O   UNL A   1      34.815  30.636  27.708  1.00  0.00    -0.460 OA
BRANCH  31  32
ATOM     32  C   UNL A   1      35.753  31.604  27.979  1.00  0.00     0.338 C 
ATOM     33  O   UNL A   1      35.723  32.740  27.521  1.00  0.00    -0.246 OA
BRANCH  32  34
ATOM     34  C   UNL A   1      36.817  31.205  28.946  1.00  0.00     0.060 A 
ATOM     35  C   UNL A   1      37.958  31.963  29.116  1.00  0.00     0.016 A 
ATOM     36  C   UNL A   1      36.761  29.976  29.600  1.00  0.00     0.016 A 
ATOM     37  C   UNL A   1      39.120  31.424  29.685  1.00  0.00     0.010 A 
ATOM     38  C   UNL A   1      37.868  29.506  30.333  1.00  0.00     0.010 A 
ATOM     39  C   UNL A   1      39.103  30.183  30.319  1.00  0.00    -0.014 A 
BRANCH  39  40
ATOM     40  C   UNL A   1      40.346  29.549  30.886  1.00  0.00     0.031 A 
ATOM     41  C   UNL A   1      40.929  30.106  32.170  1.00  0.00     0.074 A 
ATOM     42  C   UNL A   1      40.964  28.483  30.326  1.00  0.00     0.049 A 
ATOM     43  N   UNL A   1      42.145  30.018  32.643  1.00  0.00    -0.248 NA
ATOM     44  C   UNL A   1      40.014  30.887  33.020  1.00  0.00     0.031 C 
ATOM     45  C   UNL A   1      40.486  27.712  29.178  1.00  0.00     0.029 A 
ATOM     46  N   UNL A   1      42.153  27.861  30.651  1.00  0.00    -0.354 N 
ATOM     47  C   UNL A   1      42.168  30.817  33.785  1.00  0.00     0.074 A 
ATOM     48  C   UNL A   1      40.838  31.363  33.943  1.00  0.00     0.031 C 
ATOM     49  C   UNL A   1      41.339  26.709  28.922  1.00  0.00     0.029 A 
ATOM     50  C   UNL A   1      42.507  26.855  29.777  1.00  0.00     0.049 A 
ATOM     51  H   UNL A   1      42.697  28.112  31.433  1.00  0.00     0.167 HD
ATOM     52  C   UNL A   1      43.212  31.083  34.609  1.00  0.00     0.037 A 
ATOM     53  C   UNL A   1      43.667  26.186  29.607  1.00  0.00     0.037 A 
ATOM     54  C   UNL A   1      44.507  30.466  34.477  1.00  0.00     0.049 A 
ATOM     55  C   UNL A   1      44.847  26.553  30.467  1.00  0.00     0.074 A 
ATOM     56  C   UNL A   1      45.647  30.675  35.235  1.00  0.00     0.029 A 
ATOM     57  N   UNL A   1      44.828  29.496  33.538  1.00  0.00    -0.354 N 
ATOM     58  N   UNL A   1      44.912  27.419  31.451  1.00  0.00    -0.248 NA
ATOM     59  C   UNL A   1      46.121  25.882  30.171  1.00  0.00     0.031 C 
ATOM     60  C   UNL A   1      46.667  29.866  34.723  1.00  0.00     0.029 A 
ATOM     61  C   UNL A   1      46.150  29.111  33.684  1.00  0.00     0.049 A 
ATOM     62  H   UNL A   1      44.206  29.135  32.865  1.00  0.00     0.167 HD
ATOM     63  C   UNL A   1      46.229  27.388  31.897  1.00  0.00     0.074 A 
ATOM     64  C   UNL A   1      46.920  26.401  31.093  1.00  0.00     0.031 C 
ATOM     65  C   UNL A   1      46.815  28.117  32.879  1.00  0.00     0.037 A 
BRANCH  52  66
ATOM     66  C   UNL A   1      43.021  32.136  35.670  1.00  0.00     0.058 A 
ATOM     67  C   UNL A   1      43.261  33.500  35.442  1.00  0.00     0.135 A 
ATOM     68  C   UNL A   1      42.574  31.763  36.951  1.00  0.00     0.135 A 
ATOM     69  F   UNL A   1      43.707  33.916  34.246  1.00  0.00    -0.206 F 
ATOM     70  C   UNL A   1      43.101  34.448  36.450  1.00  0.00     0.059 A 
ATOM     71  C   UNL A   1      42.376  32.697  37.964  1.00  0.00     0.059 A 
ATOM     72  F   UNL A   1      42.326  30.473  37.230  1.00  0.00    -0.206 F 
ATOM     73  C   UNL A   1      42.661  34.035  37.710  1.00  0.00     0.060 A 
BRANCH  73  74
ATOM     74  S   UNL A   1      42.472  35.274  39.012  1.00  0.00     0.124 S 
ATOM     75  O   UNL A   1      43.694  36.055  38.849  1.00  0.00    -0.237 OA
ATOM     76  O   UNL A   1      41.235  35.944  38.625  1.00  0.00    -0.237 OA
ATOM     77  O   UNL A   1      42.395  34.477  40.232  1.00  0.00    -0.744 OA
ENDBRANCH  73  74
ENDBRANCH  52  66
BRANCH  53  78
ATOM     78  C   UNL A   1      43.808  25.181  28.510  1.00  0.00     0.058 A 
ATOM     79  C   UNL A   1      43.615  23.812  28.746  1.00  0.00     0.135 A 
ATOM     80  C   UNL A   1      44.141  25.570  27.200  1.00  0.00     0.135 A 
ATOM     81  F   UNL A   1      43.317  23.381  29.981  1.00  0.00    -0.206 F 
ATOM     82  C   UNL A   1      43.746  22.868  27.730  1.00  0.00     0.059 A 
ATOM     83  C   UNL A   1      44.242  24.650  26.160  1.00  0.00     0.059 A 
ATOM     84  F   UNL A   1      44.339  26.866  26.911  1.00  0.00    -0.206 F 
ATOM     85  C   UNL A   1      44.053  23.298  26.437  1.00  0.00     0.060 A 
BRANCH  85  86
ATOM     86  S   UNL A   1      44.158  22.073  25.115  1.00  0.00     0.124 S 
ATOM     87  O   UNL A   1      44.222  22.922  23.931  1.00  0.00    -0.237 OA
ATOM     88  O   UNL A   1      45.384  21.360  25.458  1.00  0.00    -0.237 OA
ATOM     89  O   UNL A   1      42.929  21.301  25.274  1.00  0.00    -0.744 OA
ENDBRANCH  85  86
ENDBRANCH  53  78
BRANCH  65  90
ATOM     90  C   UNL A   1      48.266  27.843  33.167  1.00  0.00     0.058 A 
ATOM     91  C   UNL A   1      49.293  28.565  32.539  1.00  0.00     0.135 A 
ATOM     92  C   UNL A   1      48.628  26.880  34.122  1.00  0.00     0.135 A 
ATOM     93  F   UNL A   1      49.000  29.488  31.609  1.00  0.00    -0.206 F 
ATOM     94  C   UNL A   1      50.630  28.325  32.833  1.00  0.00     0.059 A 
ATOM     95  C   UNL A   1      49.957  26.645  34.453  1.00  0.00     0.059 A 
ATOM     96  F   UNL A   1      47.682  26.168  34.757  1.00  0.00    -0.206 F 
ATOM     97  C   UNL A   1      50.953  27.366  33.795  1.00  0.00     0.060 A 
BRANCH  97  98
ATOM     98  S   UNL A   1      52.691  27.093  34.196  1.00  0.00     0.124 S 
ATOM     99  O   UNL A   1      53.092  26.160  33.148  1.00  0.00    -0.237 OA
ATOM    100  O   UNL A   1      53.249  28.438  34.095  1.00  0.00    -0.237 OA
ATOM    101  O   UNL A   1      52.646  26.540  35.546  1.00  0.00    -0.744 OA
ENDBRANCH  97  98
ENDBRANCH  65  90
ENDBRANCH  39  40
ENDBRANCH  32  34
ENDBRANCH  31  32
ENDBRANCH  30  31
ENDBRANCH  29  30
ENDBRANCH  28  29
ENDBRANCH  27  28
ENDBRANCH  26  27
ENDBRANCH  25  26
ENDBRANCH  24  25
ENDBRANCH   1  24
TORSDOF 29
ENDMDL
MODEL 3
REMARK VINA RESULT:      -8.1      2.458      3.253
REMARK SMILES C[C@H](CNS(=O)(=O)CCC(=O)OCCOCCOCCOCCOC(=O)c1ccc(-c2c3nc(c(-c4c(F)cc(S(=O)(=O)[O-])cc4F)c4ccc([nH]4)c(-c4c(F)cc(S(=O)(=O)[O-])cc4F)c4nc(c(-c5c(F)cc(S(=O)(=O)[O-])cc5F)c5ccc2[nH]5)C=C4)C=C3)cc1)c1ccccc1
REMARK SMILES IDX 16 1 15 2 14 3 13 4 12 5 10 6 11 7 9 8 8 9 5 10 6 11 7 12
REMARK SMILES IDX 4 13 3 15 2 16 1 17 93 18 94 19 98 20 95 21 97 22 96 23
REMARK SMILES IDX 17 24 18 25 19 26 20 27 21 28 22 29 23 30 24 31 25 32 26 33
REMARK SMILES IDX 27 34 28 35 92 36 29 37 91 38 30 39 31 40 32 41 85 42 33 43
REMARK SMILES IDX 90 44 84 45 86 46 34 47 89 48 83 49 82 50 35 52 69 53 48 54
REMARK SMILES IDX 68 55 49 56 52 57 67 58 87 59 50 60 51 61 66 63 88 64 53 65
REMARK SMILES IDX 36 66 37 67 46 68 38 69 39 70 45 71 47 72 40 73 41 74 42 75
REMARK SMILES IDX 43 76 44 77 70 78 71 79 80 80 72 81 73 82 79 83 81 84 74 85
REMARK SMILES IDX 75 86 76 87 77 88 78 89 54 90 55 91 64 92 56 93 57 94 63 95
REMARK SMILES IDX 65 96 58 97 59 98 60 99 61 100 62 101
REMARK H PARENT 4 14 86 51 52 62
REMARK Flexibility Score: inf
ROOT
ATOM      1  C   UNL A   1      32.084  28.841  23.770  1.00  0.00     0.188 C 
ENDROOT
BRANCH   1   2
ATOM      2  O   UNL A   1      30.738  28.670  24.183  1.00  0.00    -0.376 OA
BRANCH   2   3
ATOM      3  C   UNL A   1      29.862  27.793  23.475  1.00  0.00     0.202 C 
BRANCH   3   4
ATOM      4  C   UNL A   1      29.439  26.432  24.053  1.00  0.00     0.261 C 
BRANCH   4   5
ATOM      5  O   UNL A   1      30.568  25.633  24.462  1.00  0.00    -0.463 OA
BRANCH   5   6
ATOM      6  C   UNL A   1      30.625  25.390  25.799  1.00  0.00     0.306 C 
ATOM      7  O   UNL A   1      30.899  26.240  26.642  1.00  0.00    -0.252 OA
BRANCH   6   8
ATOM      8  C   UNL A   1      30.116  24.030  26.201  1.00  0.00     0.140 C 
BRANCH   8   9
ATOM      9  C   UNL A   1      31.072  23.088  26.901  1.00  0.00     0.165 C 
BRANCH   9  10
ATOM     10  S   UNL A   1      32.193  22.215  25.832  1.00  0.00     0.212 S 
ATOM     11  O   UNL A   1      31.575  20.974  25.434  1.00  0.00    -0.212 OA
ATOM     12  O   UNL A   1      33.501  22.236  26.456  1.00  0.00    -0.212 OA
BRANCH  10  13
ATOM     13  N   UNL A   1      32.322  23.189  24.478  1.00  0.00    -0.215 NA
ATOM     14  H   UNL A   1      31.376  23.331  24.127  1.00  0.00     0.141 HD
BRANCH  13  15
ATOM     15  C   UNL A   1      33.153  22.752  23.313  1.00  0.00     0.106 C 
BRANCH  15  16
ATOM     16  C   UNL A   1      34.468  23.606  23.213  1.00  0.00     0.031 C 
ATOM     17  C   UNL A   1      34.066  25.088  23.350  1.00  0.00     0.014 C 
BRANCH  16  18
ATOM     18  C   UNL A   1      35.696  23.259  24.093  1.00  0.00    -0.044 A 
ATOM     19  C   UNL A   1      36.111  24.106  25.137  1.00  0.00     0.004 A 
ATOM     20  C   UNL A   1      36.537  22.163  23.871  1.00  0.00     0.004 A 
ATOM     21  C   UNL A   1      37.190  23.797  25.980  1.00  0.00     0.000 A 
ATOM     22  C   UNL A   1      37.593  21.811  24.731  1.00  0.00     0.000 A 
ATOM     23  C   UNL A   1      37.909  22.625  25.803  1.00  0.00     0.000 A 
ENDBRANCH  16  18
ENDBRANCH  15  16
ENDBRANCH  13  15
ENDBRANCH  10  13
ENDBRANCH   9  10
ENDBRANCH   8   9
ENDBRANCH   6   8
ENDBRANCH   5   6
ENDBRANCH   4   5
ENDBRANCH   3   4
ENDBRANCH   2   3
ENDBRANCH   1   2
BRANCH   1  24
ATOM     24  C   UNL A   1      32.990  29.330  24.902  1.00  0.00     0.188 C 
BRANCH  24  25
ATOM     25  O   UNL A   1      32.447  29.132  26.197  1.00  0.00    -0.377 OA
BRANCH  25  26
ATOM     26  C   UNL A   1      32.346  30.280  27.028  1.00  0.00     0.188 C 
BRANCH  26  27
ATOM     27  C   UNL A   1      33.613  31.105  27.272  1.00  0.00     0.188 C 
BRANCH  27  28
ATOM     28  O   UNL A   1      33.507  32.151  28.230  1.00  0.00    -0.376 OA
BRANCH  28  29
ATOM     29  C   UNL A   1      34.449  33.219  28.147  1.00  0.00     0.202 C 
BRANCH  29  30
ATOM     30  C   UNL A   1      34.172  34.441  29.032  1.00  0.00     0.261 C 
BRANCH  30  31
ATOM     31  O   UNL A   1      33.149  34.283  30.042  1.00  0.00    -0.460 OA
BRANCH  31  32
ATOM     32  C   UNL A   1      33.429  35.044  31.152  1.00  0.00     0.338 C 
ATOM     33  O   UNL A   1      32.788  36.031  31.491  1.00  0.00    -0.246 OA
BRANCH  32  34
ATOM     34  C   UNL A   1      34.562  34.553  31.990  1.00  0.00     0.060 A 
ATOM     35  C   UNL A   1      35.650  35.353  32.273  1.00  0.00     0.016 A 
ATOM     36  C   UNL A   1      34.627  33.220  32.390  1.00  0.00     0.016 A 
ATOM     37  C   UNL A   1      36.872  34.811  32.692  1.00  0.00     0.010 A 
ATOM     38  C   UNL A   1      35.796  32.707  32.984  1.00  0.00     0.010 A 
ATOM     39  C   UNL A   1      36.976  33.472  33.069  1.00  0.00    -0.014 A 
BRANCH  39  40
ATOM     40  C   UNL A   1      38.286  32.843  33.464  1.00  0.00     0.031 A 
ATOM     41  C   UNL A   1      38.857  33.145  34.835  1.00  0.00     0.074 A 
ATOM     42  C   UNL A   1      38.978  31.995  32.668  1.00  0.00     0.049 A 
ATOM     43  N   UNL A   1      40.089  33.065  35.265  1.00  0.00    -0.248 NA
ATOM     44  C   UNL A   1      37.903  33.625  35.850  1.00  0.00     0.031 C 
ATOM     45  C   UNL A   1      38.535  31.464  31.378  1.00  0.00     0.029 A 
ATOM     46  N   UNL A   1      40.226  31.428  32.831  1.00  0.00    -0.354 N 
ATOM     47  C   UNL A   1      40.077  33.583  36.558  1.00  0.00     0.074 A 
ATOM     48  C   UNL A   1      38.709  33.953  36.850  1.00  0.00     0.031 C 
ATOM     49  C   UNL A   1      39.464  30.629  30.892  1.00  0.00     0.029 A 
ATOM     50  C   UNL A   1      40.641  30.684  31.747  1.00  0.00     0.049 A 
ATOM     51  H   UNL A   1      40.769  31.543  33.645  1.00  0.00     0.167 HD
ATOM     52  C   UNL A   1      41.118  33.749  37.412  1.00  0.00     0.037 A 
ATOM     53  C   UNL A   1      41.850  30.181  31.417  1.00  0.00     0.037 A 
ATOM     54  C   UNL A   1      42.458  33.300  37.130  1.00  0.00     0.049 A 
ATOM     55  C   UNL A   1      43.018  30.450  32.327  1.00  0.00     0.074 A 
ATOM     56  C   UNL A   1      43.597  33.436  37.905  1.00  0.00     0.029 A 
ATOM     57  N   UNL A   1      42.833  32.604  35.991  1.00  0.00    -0.354 N 
ATOM     58  N   UNL A   1      43.037  31.072  33.482  1.00  0.00    -0.248 NA
ATOM     59  C   UNL A   1      44.336  29.985  31.873  1.00  0.00     0.031 C 
ATOM     60  C   UNL A   1      44.668  32.863  37.212  1.00  0.00     0.029 A 
ATOM     61  C   UNL A   1      44.188  32.319  36.032  1.00  0.00     0.049 A 
ATOM     62  H   UNL A   1      42.226  32.350  35.258  1.00  0.00     0.167 HD
ATOM     63  C   UNL A   1      44.364  31.062  33.898  1.00  0.00     0.074 A 
ATOM     64  C   UNL A   1      45.114  30.352  32.882  1.00  0.00     0.031 C 
ATOM     65  C   UNL A   1      44.914  31.599  35.015  1.00  0.00     0.037 A 
BRANCH  52  66
ATOM     66  C   UNL A   1      40.867  34.512  38.688  1.00  0.00     0.058 A 
ATOM     67  C   UNL A   1      40.284  33.928  39.822  1.00  0.00     0.135 A 
ATOM     68  C   UNL A   1      41.235  35.868  38.773  1.00  0.00     0.135 A 
ATOM     69  F   UNL A   1      39.895  32.643  39.797  1.00  0.00    -0.206 F 
ATOM     70  C   UNL A   1      40.041  34.665  40.979  1.00  0.00     0.059 A 
ATOM     71  C   UNL A   1      41.031  36.615  39.929  1.00  0.00     0.059 A 
ATOM     72  F   UNL A   1      41.798  36.481  37.721  1.00  0.00    -0.206 F 
ATOM     73  C   UNL A   1      40.416  36.010  41.022  1.00  0.00     0.060 A 
BRANCH  73  74
ATOM     74  S   UNL A   1      40.082  36.957  42.523  1.00  0.00     0.124 S 
ATOM     75  O   UNL A   1      39.135  36.086  43.212  1.00  0.00    -0.237 OA
ATOM     76  O   UNL A   1      41.405  37.058  43.128  1.00  0.00    -0.237 OA
ATOM     77  O   UNL A   1      39.528  38.211  42.021  1.00  0.00    -0.744 OA
ENDBRANCH  73  74
ENDBRANCH  52  66
BRANCH  53  78
ATOM     78  C   UNL A   1      42.045  29.469  30.118  1.00  0.00     0.058 A 
ATOM     79  C   UNL A   1      41.833  28.087  30.004  1.00  0.00     0.135 A 
ATOM     80  C   UNL A   1      42.450  30.158  28.960  1.00  0.00     0.135 A 
ATOM     81  F   UNL A   1      41.468  27.375  31.081  1.00  0.00    -0.206 F 
ATOM     82  C   UNL A   1      42.015  27.414  28.798  1.00  0.00     0.059 A 
ATOM     83  C   UNL A   1      42.602  29.515  27.735  1.00  0.00     0.059 A 
ATOM     84  F   UNL A   1      42.669  31.481  29.005  1.00  0.00    -0.206 F 
ATOM     85  C   UNL A   1      42.392  28.139  27.666  1.00  0.00     0.060 A 
BRANCH  85  86
ATOM     86  S   UNL A   1      42.563  27.269  26.093  1.00  0.00     0.124 S 
ATOM     87  O   UNL A   1      43.288  28.248  25.292  1.00  0.00    -0.237 OA
ATOM     88  O   UNL A   1      43.314  26.080  26.483  1.00  0.00    -0.237 OA
ATOM     89  O   UNL A   1      41.181  27.023  25.693  1.00  0.00    -0.744 OA
ENDBRANCH  85  86
ENDBRANCH  53  78
BRANCH  65  90
ATOM     90  C   UNL A   1      46.390  31.403  35.219  1.00  0.00     0.058 A 
ATOM     91  C   UNL A   1      46.904  30.258  35.846  1.00  0.00     0.135 A 
ATOM     92  C   UNL A   1      47.303  32.352  34.733  1.00  0.00     0.135 A 
ATOM     93  F   UNL A   1      46.072  29.326  36.338  1.00  0.00    -0.206 F 
ATOM     94  C   UNL A   1      48.273  30.071  36.003  1.00  0.00     0.059 A 
ATOM     95  C   UNL A   1      48.677  32.172  34.853  1.00  0.00     0.059 A 
ATOM     96  F   UNL A   1      46.863  33.462  34.118  1.00  0.00    -0.206 F 
ATOM     97  C   UNL A   1      49.152  31.032  35.499  1.00  0.00     0.060 A 
BRANCH  97  98
ATOM     98  S   UNL A   1      50.927  30.757  35.676  1.00  0.00     0.124 S 
ATOM     99  O   UNL A   1      51.451  32.109  35.517  1.00  0.00    -0.237 OA
ATOM    100  O   UNL A   1      51.023  30.192  37.018  1.00  0.00    -0.237 OA
ATOM    101  O   UNL A   1      51.237  29.832  34.589  1.00  0.00    -0.744 OA
ENDBRANCH  97  98
ENDBRANCH  65  90
ENDBRANCH  39  40
ENDBRANCH  32  34
ENDBRANCH  31  32
ENDBRANCH  30  31
ENDBRANCH  29  30
ENDBRANCH  28  29
ENDBRANCH  27  28
ENDBRANCH  26  27
ENDBRANCH  25  26
ENDBRANCH  24  25
ENDBRANCH   1  24
TORSDOF 29
ENDMDL
