MODEL 1
REMARK VINA RESULT:      -9.2      0.000      0.000
REMARK SMILES CC[C@@H](C)CN(CC)C(=O)N1CC[C@@](CC)(C(=O)OCCOCCOCCOCCOC(=O)c2ccc(-c3c4nc(c(-c5c(F)cc(S(=O)(=O)[O-])cc5F)c5ccc([nH]5)c(-c5c(F)cc(S(=O)(=O)[O-])cc5F)c5nc(c(-c6c(F)cc(S(=O)(=O)[O-])cc6F)c6ccc3[nH]6)C=C5)C=C4)cc2)C1
REMARK SMILES IDX 24 1 23 2 22 3 21 4 20 5 19 6 17 7 18 8 14 9 11 10 12 11
REMARK SMILES IDX 100 12 13 13 9 14 10 15 6 16 5 17 3 18 4 19 2 20 1 21 7 22
REMARK SMILES IDX 8 23 15 24 16 25 25 26 26 27 27 28 28 29 29 30 30 31 31 32
REMARK SMILES IDX 32 33 33 34 34 35 35 36 99 37 36 38 98 39 37 40 38 41 39 42
REMARK SMILES IDX 92 43 40 44 97 45 91 46 93 47 41 48 96 49 90 50 89 51 42 53
REMARK SMILES IDX 76 54 55 55 75 56 56 57 59 58 74 59 94 60 57 61 58 62 73 64
REMARK SMILES IDX 95 65 60 66 43 67 44 68 53 69 45 70 46 71 52 72 54 73 47 74
REMARK SMILES IDX 48 75 49 76 50 77 51 78 77 79 78 80 87 81 79 82 80 83 86 84
REMARK SMILES IDX 88 85 81 86 82 87 83 88 84 89 85 90 61 91 62 92 71 93 63 94
REMARK SMILES IDX 64 95 70 96 72 97 65 98 66 99 67 100 68 101 69 102
REMARK H PARENT 93 52 59 63
REMARK Flexibility Score: inf
ROOT
ATOM      1  C   UNL A   1      34.902  21.347  26.254  1.00  0.00     0.188 C 
ENDROOT
BRANCH   1   2
ATOM      2  C   UNL A   1      34.329  21.862  27.594  1.00  0.00     0.188 C 
BRANCH   2   3
ATOM      3  O   UNL A   1      32.928  22.025  27.795  1.00  0.00    -0.376 OA
BRANCH   3   4
ATOM      4  C   UNL A   1      32.211  22.967  27.018  1.00  0.00     0.202 C 
BRANCH   4   5
ATOM      5  C   UNL A   1      31.141  22.436  26.050  1.00  0.00     0.261 C 
BRANCH   5   6
ATOM      6  O   UNL A   1      31.128  23.015  24.732  1.00  0.00    -0.463 OA
BRANCH   6   7
ATOM      7  C   UNL A   1      32.220  22.775  23.965  1.00  0.00     0.314 C 
ATOM      8  O   UNL A   1      32.658  21.653  23.729  1.00  0.00    -0.252 OA
BRANCH   7   9
ATOM      9  C   UNL A   1      32.940  24.056  23.514  1.00  0.00     0.087 C 
ATOM     10  N   UNL A   1      33.219  25.991  24.976  1.00  0.00    -0.323 N 
ATOM     11  C   UNL A   1      34.403  25.181  25.124  1.00  0.00     0.122 C 
ATOM     12  C   UNL A   1      32.219  25.246  24.197  1.00  0.00     0.140 C 
ATOM     13  C   UNL A   1      34.413  24.296  23.896  1.00  0.00     0.042 C 
BRANCH  10  14
ATOM     14  C   UNL A   1      32.781  26.863  25.958  1.00  0.00     0.320 C 
ATOM     15  O   UNL A   1      31.897  26.517  26.743  1.00  0.00    -0.248 OA
BRANCH  14  16
ATOM     16  N   UNL A   1      33.287  28.158  25.968  1.00  0.00    -0.325 N 
BRANCH  16  17
ATOM     17  C   UNL A   1      33.951  28.652  24.751  1.00  0.00     0.124 C 
BRANCH  17  18
ATOM     18  C   UNL A   1      33.172  28.325  23.443  1.00  0.00     0.005 C 
ATOM     19  C   UNL A   1      34.094  28.530  22.235  1.00  0.00     0.009 C 
BRANCH  18  20
ATOM     20  C   UNL A   1      31.890  29.178  23.331  1.00  0.00     0.002 C 
ATOM     21  C   UNL A   1      30.623  28.434  22.939  1.00  0.00     0.004 C 
ENDBRANCH  18  20
ENDBRANCH  17  18
ENDBRANCH  16  17
BRANCH  16  22
ATOM     22  C   UNL A   1      33.200  29.110  27.074  1.00  0.00     0.118 C 
ATOM     23  C   UNL A   1      31.884  29.884  27.009  1.00  0.00     0.027 C 
ENDBRANCH  16  22
ENDBRANCH  14  16
ENDBRANCH  10  14
BRANCH   9  24
ATOM     24  C   UNL A   1      32.822  24.051  21.970  1.00  0.00     0.017 C 
ATOM     25  C   UNL A   1      32.688  25.460  21.378  1.00  0.00     0.005 C 
ENDBRANCH   9  24
ENDBRANCH   7   9
ENDBRANCH   6   7
ENDBRANCH   5   6
ENDBRANCH   4   5
ENDBRANCH   3   4
ENDBRANCH   2   3
ENDBRANCH   1   2
BRANCH   1  26
ATOM     26  O   UNL A   1      35.957  22.114  25.707  1.00  0.00    -0.377 OA
BRANCH  26  27
ATOM     27  C   UNL A   1      37.078  21.355  25.298  1.00  0.00     0.188 C 
BRANCH  27  28
ATOM     28  C   UNL A   1      38.426  21.998  25.651  1.00  0.00     0.188 C 
BRANCH  28  29
ATOM     29  O   UNL A   1      39.373  21.046  26.130  1.00  0.00    -0.376 OA
BRANCH  29  30
ATOM     30  C   UNL A   1      40.680  21.488  26.453  1.00  0.00     0.202 C 
BRANCH  30  31
ATOM     31  C   UNL A   1      40.812  22.388  27.691  1.00  0.00     0.261 C 
BRANCH  31  32
ATOM     32  O   UNL A   1      41.977  23.222  27.751  1.00  0.00    -0.460 OA
BRANCH  32  33
ATOM     33  C   UNL A   1      41.966  24.357  27.005  1.00  0.00     0.338 C 
ATOM     34  O   UNL A   1      42.019  24.435  25.804  1.00  0.00    -0.246 OA
BRANCH  33  35
ATOM     35  C   UNL A   1      41.649  25.478  27.925  1.00  0.00     0.060 A 
ATOM     36  C   UNL A   1      42.667  26.388  28.241  1.00  0.00     0.016 A 
ATOM     37  C   UNL A   1      40.354  25.668  28.412  1.00  0.00     0.016 A 
ATOM     38  C   UNL A   1      42.389  27.493  29.047  1.00  0.00     0.010 A 
ATOM     39  C   UNL A   1      40.087  26.753  29.252  1.00  0.00     0.010 A 
ATOM     40  C   UNL A   1      41.108  27.659  29.587  1.00  0.00    -0.014 A 
BRANCH  40  41
ATOM     41  C   UNL A   1      40.892  28.662  30.656  1.00  0.00     0.031 A 
ATOM     42  C   UNL A   1      41.726  28.554  31.902  1.00  0.00     0.074 A 
ATOM     43  C   UNL A   1      39.987  29.647  30.524  1.00  0.00     0.049 A 
ATOM     44  N   UNL A   1      41.696  29.281  32.987  1.00  0.00    -0.248 NA
ATOM     45  C   UNL A   1      42.727  27.476  31.924  1.00  0.00     0.031 C 
ATOM     46  C   UNL A   1      39.148  29.872  29.350  1.00  0.00     0.029 A 
ATOM     47  N   UNL A   1      39.616  30.636  31.401  1.00  0.00    -0.354 N 
ATOM     48  C   UNL A   1      42.666  28.744  33.825  1.00  0.00     0.074 A 
ATOM     49  C   UNL A   1      43.251  27.617  33.132  1.00  0.00     0.031 C 
ATOM     50  C   UNL A   1      38.337  30.919  29.590  1.00  0.00     0.029 A 
ATOM     51  C   UNL A   1      38.581  31.417  30.944  1.00  0.00     0.049 A 
ATOM     52  H   UNL A   1      40.050  30.773  32.274  1.00  0.00     0.167 HD
ATOM     53  C   UNL A   1      43.035  29.155  35.060  1.00  0.00     0.037 A 
ATOM     54  C   UNL A   1      37.891  32.398  31.561  1.00  0.00     0.037 A 
ATOM     55  C   UNL A   1      42.438  30.270  35.746  1.00  0.00     0.049 A 
ATOM     56  C   UNL A   1      38.274  32.799  32.963  1.00  0.00     0.074 A 
ATOM     57  C   UNL A   1      42.766  30.792  36.985  1.00  0.00     0.029 A 
ATOM     58  N   UNL A   1      41.375  31.020  35.264  1.00  0.00    -0.354 N 
ATOM     59  N   UNL A   1      39.226  32.317  33.728  1.00  0.00    -0.248 NA
ATOM     60  C   UNL A   1      37.491  33.877  33.586  1.00  0.00     0.031 C 
ATOM     61  C   UNL A   1      41.857  31.815  37.279  1.00  0.00     0.029 A 
ATOM     62  C   UNL A   1      41.005  31.974  36.198  1.00  0.00     0.049 A 
ATOM     63  H   UNL A   1      40.947  30.893  34.385  1.00  0.00     0.167 HD
ATOM     64  C   UNL A   1      39.166  33.043  34.916  1.00  0.00     0.074 A 
ATOM     65  C   UNL A   1      38.097  34.007  34.760  1.00  0.00     0.031 C 
ATOM     66  C   UNL A   1      39.928  32.920  36.032  1.00  0.00     0.037 A 
BRANCH  53  67
ATOM     67  C   UNL A   1      44.101  28.360  35.764  1.00  0.00     0.058 A 
ATOM     68  C   UNL A   1      43.798  27.234  36.545  1.00  0.00     0.135 A 
ATOM     69  C   UNL A   1      45.450  28.733  35.649  1.00  0.00     0.135 A 
ATOM     70  F   UNL A   1      42.522  26.845  36.707  1.00  0.00    -0.206 F 
ATOM     71  C   UNL A   1      44.790  26.524  37.214  1.00  0.00     0.059 A 
ATOM     72  C   UNL A   1      46.461  28.021  36.284  1.00  0.00     0.059 A 
ATOM     73  F   UNL A   1      45.796  29.806  34.921  1.00  0.00    -0.206 F 
ATOM     74  C   UNL A   1      46.120  26.928  37.078  1.00  0.00     0.060 A 
BRANCH  74  75
ATOM     75  S   UNL A   1      47.395  26.006  37.962  1.00  0.00     0.124 S 
ATOM     76  O   UNL A   1      48.256  25.576  36.864  1.00  0.00    -0.237 OA
ATOM     77  O   UNL A   1      47.956  27.022  38.846  1.00  0.00    -0.237 OA
ATOM     78  O   UNL A   1      46.649  24.943  38.626  1.00  0.00    -0.744 OA
ENDBRANCH  74  75
ENDBRANCH  53  67
BRANCH  54  79
ATOM     79  C   UNL A   1      36.749  33.046  30.861  1.00  0.00     0.058 A 
ATOM     80  C   UNL A   1      35.421  32.758  31.205  1.00  0.00     0.135 A 
ATOM     81  C   UNL A   1      36.970  33.990  29.845  1.00  0.00     0.135 A 
ATOM     82  F   UNL A   1      35.156  31.849  32.156  1.00  0.00    -0.206 F 
ATOM     83  C   UNL A   1      34.352  33.386  30.571  1.00  0.00     0.059 A 
ATOM     84  C   UNL A   1      35.919  34.649  29.214  1.00  0.00     0.059 A 
ATOM     85  F   UNL A   1      38.223  34.304  29.478  1.00  0.00    -0.206 F 
ATOM     86  C   UNL A   1      34.612  34.338  29.584  1.00  0.00     0.060 A 
BRANCH  86  87
ATOM     87  S   UNL A   1      33.221  35.209  28.831  1.00  0.00     0.124 S 
ATOM     88  O   UNL A   1      33.904  36.228  28.041  1.00  0.00    -0.237 OA
ATOM     89  O   UNL A   1      32.569  34.145  28.074  1.00  0.00    -0.237 OA
ATOM     90  O   UNL A   1      32.469  35.700  29.982  1.00  0.00    -0.744 OA
ENDBRANCH  86  87
ENDBRANCH  54  79
BRANCH  66  91
ATOM     91  C   UNL A   1      39.643  33.857  37.177  1.00  0.00     0.058 A 
ATOM     92  C   UNL A   1      38.838  33.473  38.261  1.00  0.00     0.135 A 
ATOM     93  C   UNL A   1      40.233  35.132  37.220  1.00  0.00     0.135 A 
ATOM     94  F   UNL A   1      38.245  32.269  38.270  1.00  0.00    -0.206 F 
ATOM     95  C   UNL A   1      38.611  34.327  39.336  1.00  0.00     0.059 A 
ATOM     96  C   UNL A   1      40.045  35.989  38.298  1.00  0.00     0.059 A 
ATOM     97  F   UNL A   1      41.022  35.545  36.215  1.00  0.00    -0.206 F 
ATOM     98  C   UNL A   1      39.222  35.583  39.348  1.00  0.00     0.060 A 
BRANCH  98  99
ATOM     99  S   UNL A   1      38.946  36.665  40.766  1.00  0.00     0.124 S 
ATOM    100  O   UNL A   1      40.293  36.776  41.317  1.00  0.00    -0.237 OA
ATOM    101  O   UNL A   1      38.417  37.872  40.138  1.00  0.00    -0.237 OA
ATOM    102  O   UNL A   1      37.993  35.921  41.582  1.00  0.00    -0.744 OA
ENDBRANCH  98  99
ENDBRANCH  66  91
ENDBRANCH  40  41
ENDBRANCH  33  35
ENDBRANCH  32  33
ENDBRANCH  31  32
ENDBRANCH  30  31
ENDBRANCH  29  30
ENDBRANCH  28  29
ENDBRANCH  27  28
ENDBRANCH  26  27
ENDBRANCH   1  26
TORSDOF 30
ENDMDL
MODEL 2
REMARK VINA RESULT:      -8.7      1.327      2.111
REMARK SMILES CC[C@@H](C)CN(CC)C(=O)N1CC[C@@](CC)(C(=O)OCCOCCOCCOCCOC(=O)c2ccc(-c3c4nc(c(-c5c(F)cc(S(=O)(=O)[O-])cc5F)c5ccc([nH]5)c(-c5c(F)cc(S(=O)(=O)[O-])cc5F)c5nc(c(-c6c(F)cc(S(=O)(=O)[O-])cc6F)c6ccc3[nH]6)C=C5)C=C4)cc2)C1
REMARK SMILES IDX 24 1 23 2 22 3 21 4 20 5 19 6 17 7 18 8 14 9 11 10 12 11
REMARK SMILES IDX 100 12 13 13 9 14 10 15 6 16 5 17 3 18 4 19 2 20 1 21 7 22
REMARK SMILES IDX 8 23 15 24 16 25 25 26 26 27 27 28 28 29 29 30 30 31 31 32
REMARK SMILES IDX 32 33 33 34 34 35 35 36 99 37 36 38 98 39 37 40 38 41 39 42
REMARK SMILES IDX 92 43 40 44 97 45 91 46 93 47 41 48 96 49 90 50 89 51 42 53
REMARK SMILES IDX 76 54 55 55 75 56 56 57 59 58 74 59 94 60 57 61 58 62 73 64
REMARK SMILES IDX 95 65 60 66 43 67 44 68 53 69 45 70 46 71 52 72 54 73 47 74
REMARK SMILES IDX 48 75 49 76 50 77 51 78 77 79 78 80 87 81 79 82 80 83 86 84
REMARK SMILES IDX 88 85 81 86 82 87 83 88 84 89 85 90 61 91 62 92 71 93 63 94
REMARK SMILES IDX 64 95 70 96 72 97 65 98 66 99 67 100 68 101 69 102
REMARK H PARENT 93 52 59 63
REMARK Flexibility Score: inf
ROOT
ATOM      1  C   UNL A   1      34.576  21.422  26.398  1.00  0.00     0.188 C 
ENDROOT
BRANCH   1   2
ATOM      2  C   UNL A   1      34.099  22.066  27.719  1.00  0.00     0.188 C 
BRANCH   2   3
ATOM      3  O   UNL A   1      32.724  22.350  27.959  1.00  0.00    -0.376 OA
BRANCH   3   4
ATOM      4  C   UNL A   1      32.086  23.394  27.247  1.00  0.00     0.202 C 
BRANCH   4   5
ATOM      5  C   UNL A   1      30.749  23.082  26.556  1.00  0.00     0.261 C 
BRANCH   5   6
ATOM      6  O   UNL A   1      30.634  23.482  25.178  1.00  0.00    -0.463 OA
BRANCH   6   7
ATOM      7  C   UNL A   1      31.712  23.236  24.393  1.00  0.00     0.314 C 
ATOM      8  O   UNL A   1      32.185  22.119  24.211  1.00  0.00    -0.252 OA
BRANCH   7   9
ATOM      9  C   UNL A   1      32.369  24.513  23.845  1.00  0.00     0.087 C 
ATOM     10  N   UNL A   1      32.258  26.654  25.014  1.00  0.00    -0.323 N 
ATOM     11  C   UNL A   1      33.478  26.011  25.435  1.00  0.00     0.122 C 
ATOM     12  C   UNL A   1      31.451  25.700  24.238  1.00  0.00     0.140 C 
ATOM     13  C   UNL A   1      33.743  24.968  24.370  1.00  0.00     0.042 C 
BRANCH  10  14
ATOM     14  C   UNL A   1      31.606  27.602  25.785  1.00  0.00     0.320 C 
ATOM     15  O   UNL A   1      30.827  27.248  26.672  1.00  0.00    -0.248 OA
BRANCH  14  16
ATOM     16  N   UNL A   1      31.774  28.945  25.467  1.00  0.00    -0.325 N 
BRANCH  16  17
ATOM     17  C   UNL A   1      31.392  29.391  24.117  1.00  0.00     0.124 C 
BRANCH  17  18
ATOM     18  C   UNL A   1      29.859  29.329  23.855  1.00  0.00     0.005 C 
ATOM     19  C   UNL A   1      29.578  28.367  22.694  1.00  0.00     0.009 C 
BRANCH  18  20
ATOM     20  C   UNL A   1      29.284  30.735  23.578  1.00  0.00     0.002 C 
ATOM     21  C   UNL A   1      27.778  30.818  23.389  1.00  0.00     0.004 C 
ENDBRANCH  18  20
ENDBRANCH  17  18
ENDBRANCH  16  17
BRANCH  16  22
ATOM     22  C   UNL A   1      32.272  29.987  26.362  1.00  0.00     0.118 C 
ATOM     23  C   UNL A   1      33.364  29.431  27.274  1.00  0.00     0.027 C 
ENDBRANCH  16  22
ENDBRANCH  14  16
ENDBRANCH  10  14
BRANCH   9  24
ATOM     24  C   UNL A   1      32.473  24.278  22.318  1.00  0.00     0.017 C 
ATOM     25  C   UNL A   1      32.914  25.531  21.551  1.00  0.00     0.005 C 
ENDBRANCH   9  24
ENDBRANCH   7   9
ENDBRANCH   6   7
ENDBRANCH   5   6
ENDBRANCH   4   5
ENDBRANCH   3   4
ENDBRANCH   2   3
ENDBRANCH   1   2
BRANCH   1  26
ATOM     26  O   UNL A   1      35.554  22.150  25.682  1.00  0.00    -0.377 OA
BRANCH  26  27
ATOM     27  C   UNL A   1      36.729  21.419  25.393  1.00  0.00     0.188 C 
BRANCH  27  28
ATOM     28  C   UNL A   1      38.019  22.242  25.517  1.00  0.00     0.188 C 
BRANCH  28  29
ATOM     29  O   UNL A   1      39.043  21.544  26.220  1.00  0.00    -0.376 OA
BRANCH  29  30
ATOM     30  C   UNL A   1      40.260  22.216  26.498  1.00  0.00     0.202 C 
BRANCH  30  31
ATOM     31  C   UNL A   1      40.250  23.183  27.692  1.00  0.00     0.261 C 
BRANCH  31  32
ATOM     32  O   UNL A   1      41.167  24.284  27.628  1.00  0.00    -0.460 OA
BRANCH  32  33
ATOM     33  C   UNL A   1      40.716  25.434  27.065  1.00  0.00     0.338 C 
ATOM     34  O   UNL A   1      40.328  25.585  25.934  1.00  0.00    -0.246 OA
BRANCH  33  35
ATOM     35  C   UNL A   1      40.572  26.426  28.161  1.00  0.00     0.060 A 
ATOM     36  C   UNL A   1      41.441  27.525  28.183  1.00  0.00     0.016 A 
ATOM     37  C   UNL A   1      39.554  26.310  29.110  1.00  0.00     0.016 A 
ATOM     38  C   UNL A   1      41.291  28.513  29.157  1.00  0.00     0.010 A 
ATOM     39  C   UNL A   1      39.431  27.280  30.110  1.00  0.00     0.010 A 
ATOM     40  C   UNL A   1      40.311  28.375  30.146  1.00  0.00    -0.014 A 
BRANCH  40  41
ATOM     41  C   UNL A   1      40.339  29.268  31.329  1.00  0.00     0.031 A 
ATOM     42  C   UNL A   1      41.387  29.018  32.376  1.00  0.00     0.074 A 
ATOM     43  C   UNL A   1      39.463  30.279  31.468  1.00  0.00     0.049 A 
ATOM     44  N   UNL A   1      41.590  29.631  33.512  1.00  0.00    -0.248 NA
ATOM     45  C   UNL A   1      42.333  27.924  32.103  1.00  0.00     0.031 C 
ATOM     46  C   UNL A   1      38.427  30.639  30.503  1.00  0.00     0.029 A 
ATOM     47  N   UNL A   1      39.302  31.181  32.490  1.00  0.00    -0.354 N 
ATOM     48  C   UNL A   1      42.679  28.993  34.094  1.00  0.00     0.074 A 
ATOM     49  C   UNL A   1      43.079  27.931  33.197  1.00  0.00     0.031 C 
ATOM     50  C   UNL A   1      37.717  31.671  30.993  1.00  0.00     0.029 A 
ATOM     51  C   UNL A   1      38.230  32.024  32.317  1.00  0.00     0.049 A 
ATOM     52  H   UNL A   1      39.897  31.220  33.274  1.00  0.00     0.167 HD
ATOM     53  C   UNL A   1      43.289  29.269  35.269  1.00  0.00     0.037 A 
ATOM     54  C   UNL A   1      37.707  32.949  33.146  1.00  0.00     0.037 A 
ATOM     55  C   UNL A   1      42.875  30.319  36.161  1.00  0.00     0.049 A 
ATOM     56  C   UNL A   1      38.361  33.199  34.481  1.00  0.00     0.074 A 
ATOM     57  C   UNL A   1      43.449  30.706  37.358  1.00  0.00     0.029 A 
ATOM     58  N   UNL A   1      41.770  31.135  35.965  1.00  0.00    -0.354 N 
ATOM     59  N   UNL A   1      39.421  32.623  35.000  1.00  0.00    -0.248 NA
ATOM     60  C   UNL A   1      37.751  34.222  35.343  1.00  0.00     0.031 C 
ATOM     61  C   UNL A   1      42.652  31.711  37.918  1.00  0.00     0.029 A 
ATOM     62  C   UNL A   1      41.619  31.995  37.040  1.00  0.00     0.049 A 
ATOM     63  H   UNL A   1      41.180  31.107  35.176  1.00  0.00     0.167 HD
ATOM     64  C   UNL A   1      39.613  33.224  36.241  1.00  0.00     0.074 A 
ATOM     65  C   UNL A   1      38.571  34.220  36.386  1.00  0.00     0.031 C 
ATOM     66  C   UNL A   1      40.566  32.975  37.175  1.00  0.00     0.037 A 
BRANCH  53  67
ATOM     67  C   UNL A   1      44.437  28.386  35.677  1.00  0.00     0.058 A 
ATOM     68  C   UNL A   1      44.252  27.239  36.466  1.00  0.00     0.135 A 
ATOM     69  C   UNL A   1      45.743  28.694  35.265  1.00  0.00     0.135 A 
ATOM     70  F   UNL A   1      43.027  26.910  36.906  1.00  0.00    -0.206 F 
ATOM     71  C   UNL A   1      45.326  26.447  36.859  1.00  0.00     0.059 A 
ATOM     72  C   UNL A   1      46.828  27.899  35.621  1.00  0.00     0.059 A 
ATOM     73  F   UNL A   1      45.978  29.782  34.515  1.00  0.00    -0.206 F 
ATOM     74  C   UNL A   1      46.612  26.788  36.433  1.00  0.00     0.060 A 
BRANCH  74  75
ATOM     75  S   UNL A   1      47.997  25.759  36.961  1.00  0.00     0.124 S 
ATOM     76  O   UNL A   1      48.710  26.667  37.855  1.00  0.00    -0.237 OA
ATOM     77  O   UNL A   1      47.322  24.636  37.605  1.00  0.00    -0.237 OA
ATOM     78  O   UNL A   1      48.682  25.442  35.713  1.00  0.00    -0.744 OA
ENDBRANCH  74  75
ENDBRANCH  53  67
BRANCH  54  79
ATOM     79  C   UNL A   1      36.479  33.687  32.743  1.00  0.00     0.058 A 
ATOM     80  C   UNL A   1      36.526  34.730  31.807  1.00  0.00     0.135 A 
ATOM     81  C   UNL A   1      35.225  33.342  33.273  1.00  0.00     0.135 A 
ATOM     82  F   UNL A   1      37.701  35.111  31.285  1.00  0.00    -0.206 F 
ATOM     83  C   UNL A   1      35.373  35.401  31.406  1.00  0.00     0.059 A 
ATOM     84  C   UNL A   1      34.056  33.981  32.869  1.00  0.00     0.059 A 
ATOM     85  F   UNL A   1      35.124  32.349  34.172  1.00  0.00    -0.206 F 
ATOM     86  C   UNL A   1      34.142  35.012  31.935  1.00  0.00     0.060 A 
BRANCH  86  87
ATOM     87  S   UNL A   1      32.645  35.830  31.343  1.00  0.00     0.124 S 
ATOM     88  O   UNL A   1      31.703  35.535  32.417  1.00  0.00    -0.237 OA
ATOM     89  O   UNL A   1      33.079  37.219  31.238  1.00  0.00    -0.237 OA
ATOM     90  O   UNL A   1      32.380  35.165  30.070  1.00  0.00    -0.744 OA
ENDBRANCH  86  87
ENDBRANCH  54  79
BRANCH  66  91
ATOM     91  C   UNL A   1      40.538  33.795  38.438  1.00  0.00     0.058 A 
ATOM     92  C   UNL A   1      41.316  34.955  38.581  1.00  0.00     0.135 A 
ATOM     93  C   UNL A   1      39.676  33.451  39.493  1.00  0.00     0.135 A 
ATOM     94  F   UNL A   1      42.161  35.327  37.607  1.00  0.00    -0.206 F 
ATOM     95  C   UNL A   1      41.256  35.733  39.734  1.00  0.00     0.059 A 
ATOM     96  C   UNL A   1      39.578  34.230  40.641  1.00  0.00     0.059 A 
ATOM     97  F   UNL A   1      38.901  32.359  39.404  1.00  0.00    -0.206 F 
ATOM     98  C   UNL A   1      40.381  35.364  40.758  1.00  0.00     0.060 A 
BRANCH  98  99
ATOM     99  S   UNL A   1      40.288  36.402  42.232  1.00  0.00     0.124 S 
ATOM    100  O   UNL A   1      40.613  37.716  41.686  1.00  0.00    -0.237 OA
ATOM    101  O   UNL A   1      38.905  36.216  42.657  1.00  0.00    -0.237 OA
ATOM    102  O   UNL A   1      41.294  35.825  43.118  1.00  0.00    -0.744 OA
ENDBRANCH  98  99
ENDBRANCH  66  91
ENDBRANCH  40  41
ENDBRANCH  33  35
ENDBRANCH  32  33
ENDBRANCH  31  32
ENDBRANCH  30  31
ENDBRANCH  29  30
ENDBRANCH  28  29
ENDBRANCH  27  28
ENDBRANCH  26  27
ENDBRANCH   1  26
TORSDOF 30
ENDMDL
MODEL 3
REMARK VINA RESULT:      -8.1      0.961      7.909
REMARK SMILES CC[C@@H](C)CN(CC)C(=O)N1CC[C@@](CC)(C(=O)OCCOCCOCCOCCOC(=O)c2ccc(-c3c4nc(c(-c5c(F)cc(S(=O)(=O)[O-])cc5F)c5ccc([nH]5)c(-c5c(F)cc(S(=O)(=O)[O-])cc5F)c5nc(c(-c6c(F)cc(S(=O)(=O)[O-])cc6F)c6ccc3[nH]6)C=C5)C=C4)cc2)C1
REMARK SMILES IDX 24 1 23 2 22 3 21 4 20 5 19 6 17 7 18 8 14 9 11 10 12 11
REMARK SMILES IDX 100 12 13 13 9 14 10 15 6 16 5 17 3 18 4 19 2 20 1 21 7 22
REMARK SMILES IDX 8 23 15 24 16 25 25 26 26 27 27 28 28 29 29 30 30 31 31 32
REMARK SMILES IDX 32 33 33 34 34 35 35 36 99 37 36 38 98 39 37 40 38 41 39 42
REMARK SMILES IDX 92 43 40 44 97 45 91 46 93 47 41 48 96 49 90 50 89 51 42 53
REMARK SMILES IDX 76 54 55 55 75 56 56 57 59 58 74 59 94 60 57 61 58 62 73 64
REMARK SMILES IDX 95 65 60 66 43 67 44 68 53 69 45 70 46 71 52 72 54 73 47 74
REMARK SMILES IDX 48 75 49 76 50 77 51 78 77 79 78 80 87 81 79 82 80 83 86 84
REMARK SMILES IDX 88 85 81 86 82 87 83 88 84 89 85 90 61 91 62 92 71 93 63 94
REMARK SMILES IDX 64 95 70 96 72 97 65 98 66 99 67 100 68 101 69 102
REMARK H PARENT 93 52 59 63
REMARK Flexibility Score: inf
ROOT
ATOM      1  C   UNL A   1      34.903  21.282  26.589  1.00  0.00     0.188 C 
ENDROOT
BRANCH   1   2
ATOM      2  C   UNL A   1      34.267  21.908  27.850  1.00  0.00     0.188 C 
BRANCH   2   3
ATOM      3  O   UNL A   1      32.855  22.027  27.995  1.00  0.00    -0.376 OA
BRANCH   3   4
ATOM      4  C   UNL A   1      32.146  22.976  27.219  1.00  0.00     0.202 C 
BRANCH   4   5
ATOM      5  C   UNL A   1      31.236  22.451  26.096  1.00  0.00     0.261 C 
BRANCH   5   6
ATOM      6  O   UNL A   1      31.442  23.019  24.789  1.00  0.00    -0.463 OA
BRANCH   6   7
ATOM      7  C   UNL A   1      32.695  22.911  24.283  1.00  0.00     0.314 C 
ATOM      8  O   UNL A   1      33.283  21.845  24.130  1.00  0.00    -0.252 OA
BRANCH   7   9
ATOM      9  C   UNL A   1      33.368  24.271  24.031  1.00  0.00     0.087 C 
ATOM     10  N   UNL A   1      32.734  26.295  25.240  1.00  0.00    -0.323 N 
ATOM     11  C   UNL A   1      33.831  25.702  25.965  1.00  0.00     0.122 C 
ATOM     12  C   UNL A   1      32.275  25.357  24.205  1.00  0.00     0.140 C 
ATOM     13  C   UNL A   1      34.485  24.771  24.966  1.00  0.00     0.042 C 
BRANCH  10  14
ATOM     14  C   UNL A   1      31.806  27.130  25.839  1.00  0.00     0.320 C 
ATOM     15  O   UNL A   1      31.061  26.696  26.719  1.00  0.00    -0.248 OA
BRANCH  14  16
ATOM     16  N   UNL A   1      31.670  28.426  25.353  1.00  0.00    -0.325 N 
BRANCH  16  17
ATOM     17  C   UNL A   1      30.531  28.718  24.467  1.00  0.00     0.124 C 
BRANCH  17  18
ATOM     18  C   UNL A   1      30.886  28.634  22.954  1.00  0.00     0.005 C 
ATOM     19  C   UNL A   1      30.168  29.759  22.199  1.00  0.00     0.009 C 
BRANCH  18  20
ATOM     20  C   UNL A   1      30.532  27.246  22.376  1.00  0.00     0.002 C 
ATOM     21  C   UNL A   1      31.472  26.706  21.310  1.00  0.00     0.004 C 
ENDBRANCH  18  20
ENDBRANCH  17  18
ENDBRANCH  16  17
BRANCH  16  22
ATOM     22  C   UNL A   1      32.540  29.558  25.663  1.00  0.00     0.118 C 
ATOM     23  C   UNL A   1      31.711  30.822  25.889  1.00  0.00     0.027 C 
ENDBRANCH  16  22
ENDBRANCH  14  16
ENDBRANCH  10  14
BRANCH   9  24
ATOM     24  C   UNL A   1      33.932  24.170  22.593  1.00  0.00     0.017 C 
ATOM     25  C   UNL A   1      33.005  23.404  21.641  1.00  0.00     0.005 C 
ENDBRANCH   9  24
ENDBRANCH   7   9
ENDBRANCH   6   7
ENDBRANCH   5   6
ENDBRANCH   4   5
ENDBRANCH   3   4
ENDBRANCH   2   3
ENDBRANCH   1   2
BRANCH   1  26
ATOM     26  O   UNL A   1      35.903  22.059  25.960  1.00  0.00    -0.377 OA
BRANCH  26  27
ATOM     27  C   UNL A   1      37.108  21.364  25.706  1.00  0.00     0.188 C 
BRANCH  27  28
ATOM     28  C   UNL A   1      38.347  22.269  25.647  1.00  0.00     0.188 C 
BRANCH  28  29
ATOM     29  O   UNL A   1      39.457  21.716  26.349  1.00  0.00    -0.376 OA
BRANCH  29  30
ATOM     30  C   UNL A   1      40.726  22.333  26.213  1.00  0.00     0.202 C 
BRANCH  30  31
ATOM     31  C   UNL A   1      41.073  23.416  27.247  1.00  0.00     0.261 C 
BRANCH  31  32
ATOM     32  O   UNL A   1      42.025  24.407  26.836  1.00  0.00    -0.460 OA
BRANCH  32  33
ATOM     33  C   UNL A   1      41.542  25.638  26.525  1.00  0.00     0.338 C 
ATOM     34  O   UNL A   1      41.084  25.992  25.469  1.00  0.00    -0.246 OA
BRANCH  33  35
ATOM     35  C   UNL A   1      41.473  26.408  27.793  1.00  0.00     0.060 A 
ATOM     36  C   UNL A   1      40.304  26.321  28.561  1.00  0.00     0.016 A 
ATOM     37  C   UNL A   1      42.566  27.149  28.249  1.00  0.00     0.016 A 
ATOM     38  C   UNL A   1      40.228  26.975  29.792  1.00  0.00     0.010 A 
ATOM     39  C   UNL A   1      42.472  27.837  29.462  1.00  0.00     0.010 A 
ATOM     40  C   UNL A   1      41.296  27.766  30.229  1.00  0.00    -0.014 A 
BRANCH  40  41
ATOM     41  C   UNL A   1      41.105  28.675  31.383  1.00  0.00     0.031 A 
ATOM     42  C   UNL A   1      40.025  29.716  31.289  1.00  0.00     0.074 A 
ATOM     43  C   UNL A   1      41.863  28.577  32.489  1.00  0.00     0.049 A 
ATOM     44  N   UNL A   1      39.691  30.647  32.143  1.00  0.00    -0.248 NA
ATOM     45  C   UNL A   1      39.214  29.704  30.061  1.00  0.00     0.031 C 
ATOM     46  C   UNL A   1      42.915  27.587  32.708  1.00  0.00     0.029 A 
ATOM     47  N   UNL A   1      41.869  29.336  33.633  1.00  0.00    -0.354 N 
ATOM     48  C   UNL A   1      38.639  31.337  31.554  1.00  0.00     0.074 A 
ATOM     49  C   UNL A   1      38.404  30.733  30.261  1.00  0.00     0.031 C 
ATOM     50  C   UNL A   1      43.485  27.817  33.905  1.00  0.00     0.029 A 
ATOM     51  C   UNL A   1      42.858  28.986  34.521  1.00  0.00     0.049 A 
ATOM     52  H   UNL A   1      41.225  30.062  33.802  1.00  0.00     0.167 HD
ATOM     53  C   UNL A   1      37.932  32.380  32.048  1.00  0.00     0.037 A 
ATOM     54  C   UNL A   1      43.232  29.564  35.681  1.00  0.00     0.037 A 
ATOM     55  C   UNL A   1      38.181  32.982  33.331  1.00  0.00     0.049 A 
ATOM     56  C   UNL A   1      42.475  30.766  36.184  1.00  0.00     0.074 A 
ATOM     57  C   UNL A   1      37.498  34.018  33.941  1.00  0.00     0.029 A 
ATOM     58  N   UNL A   1      39.208  32.619  34.190  1.00  0.00    -0.354 N 
ATOM     59  N   UNL A   1      41.449  31.381  35.642  1.00  0.00    -0.248 NA
ATOM     60  C   UNL A   1      42.923  31.353  37.455  1.00  0.00     0.031 C 
ATOM     61  C   UNL A   1      38.153  34.326  35.138  1.00  0.00     0.029 A 
ATOM     62  C   UNL A   1      39.204  33.438  35.307  1.00  0.00     0.049 A 
ATOM     63  H   UNL A   1      39.846  31.885  34.030  1.00  0.00     0.167 HD
ATOM     64  C   UNL A   1      41.120  32.417  36.513  1.00  0.00     0.074 A 
ATOM     65  C   UNL A   1      42.044  32.333  37.625  1.00  0.00     0.031 C 
ATOM     66  C   UNL A   1      40.141  33.351  36.402  1.00  0.00     0.037 A 
BRANCH  53  67
ATOM     67  C   UNL A   1      36.857  32.963  31.173  1.00  0.00     0.058 A 
ATOM     68  C   UNL A   1      35.492  32.748  31.423  1.00  0.00     0.135 A 
ATOM     69  C   UNL A   1      37.202  33.756  30.066  1.00  0.00     0.135 A 
ATOM     70  F   UNL A   1      35.106  31.980  32.455  1.00  0.00    -0.206 F 
ATOM     71  C   UNL A   1      34.509  33.270  30.589  1.00  0.00     0.059 A 
ATOM     72  C   UNL A   1      36.235  34.314  29.237  1.00  0.00     0.059 A 
ATOM     73  F   UNL A   1      38.491  33.989  29.776  1.00  0.00    -0.206 F 
ATOM     74  C   UNL A   1      34.891  34.051  29.496  1.00  0.00     0.060 A 
BRANCH  74  75
ATOM     75  S   UNL A   1      33.605  34.711  28.416  1.00  0.00     0.124 S 
ATOM     76  O   UNL A   1      34.370  35.638  27.586  1.00  0.00    -0.237 OA
ATOM     77  O   UNL A   1      33.119  33.511  27.742  1.00  0.00    -0.237 OA
ATOM     78  O   UNL A   1      32.665  35.330  29.344  1.00  0.00    -0.744 OA
ENDBRANCH  74  75
ENDBRANCH  53  67
BRANCH  54  79
ATOM     79  C   UNL A   1      44.402  29.025  36.427  1.00  0.00     0.058 A 
ATOM     80  C   UNL A   1      44.304  27.855  37.192  1.00  0.00     0.135 A 
ATOM     81  C   UNL A   1      45.651  29.663  36.366  1.00  0.00     0.135 A 
ATOM     82  F   UNL A   1      43.129  27.218  37.299  1.00  0.00    -0.206 F 
ATOM     83  C   UNL A   1      45.405  27.332  37.867  1.00  0.00     0.059 A 
ATOM     84  C   UNL A   1      46.771  29.147  37.010  1.00  0.00     0.059 A 
ATOM     85  F   UNL A   1      45.799  30.787  35.644  1.00  0.00    -0.206 F 
ATOM     86  C   UNL A   1      46.637  27.981  37.760  1.00  0.00     0.060 A 
BRANCH  86  87
ATOM     87  S   UNL A   1      48.076  27.246  38.567  1.00  0.00     0.124 S 
ATOM     88  O   UNL A   1      48.019  27.860  39.889  1.00  0.00    -0.237 OA
ATOM     89  O   UNL A   1      47.764  25.822  38.511  1.00  0.00    -0.237 OA
ATOM     90  O   UNL A   1      49.188  27.671  37.721  1.00  0.00    -0.744 OA
ENDBRANCH  86  87
ENDBRANCH  54  79
BRANCH  66  91
ATOM     91  C   UNL A   1      40.008  34.358  37.513  1.00  0.00     0.058 A 
ATOM     92  C   UNL A   1      39.183  34.124  38.625  1.00  0.00     0.135 A 
ATOM     93  C   UNL A   1      40.762  35.544  37.496  1.00  0.00     0.135 A 
ATOM     94  F   UNL A   1      38.436  33.011  38.691  1.00  0.00    -0.206 F 
ATOM     95  C   UNL A   1      39.094  35.039  39.669  1.00  0.00     0.059 A 
ATOM     96  C   UNL A   1      40.712  36.458  38.544  1.00  0.00     0.059 A 
ATOM     97  F   UNL A   1      41.577  35.812  36.463  1.00  0.00    -0.206 F 
ATOM     98  C   UNL A   1      39.866  36.202  39.621  1.00  0.00     0.060 A 
BRANCH  98  99
ATOM     99  S   UNL A   1      39.767  37.363  41.001  1.00  0.00     0.124 S 
ATOM    100  O   UNL A   1      41.172  37.501  41.371  1.00  0.00    -0.237 OA
ATOM    101  O   UNL A   1      39.158  38.535  40.379  1.00  0.00    -0.237 OA
ATOM    102  O   UNL A   1      38.928  36.668  41.971  1.00  0.00    -0.744 OA
ENDBRANCH  98  99
ENDBRANCH  66  91
ENDBRANCH  40  41
ENDBRANCH  33  35
ENDBRANCH  32  33
ENDBRANCH  31  32
ENDBRANCH  30  31
ENDBRANCH  29  30
ENDBRANCH  28  29
ENDBRANCH  27  28
ENDBRANCH  26  27
ENDBRANCH   1  26
TORSDOF 30
ENDMDL
