MODEL 1
REMARK VINA RESULT:     -11.1      0.000      0.000
REMARK SMILES Cc1ccccc1NC(=S)NN1C(=O)CS[C@H]1c1ccccc1C(=O)OCCOCCOCCOCCOC(=O)c1ccc(-c2c3nc(c(-c4c(F)cc(S(=O)(=O)[O-])cc4F)c4ccc([nH]4)c(-c4c(F)cc(S(=O)(=O)[O-])cc4F)c4nc(c(-c5c(F)cc(S(=O)(=O)[O-])cc5F)c5ccc2[nH]5)C=C4)C=C3)cc1
REMARK SMILES IDX 31 1 30 2 29 3 28 4 27 5 26 6 24 7 25 8 23 9 18 10 19 11
REMARK SMILES IDX 20 12 22 13 21 14 17 15 12 16 13 17 14 18 15 19 16 20 11 21
REMARK SMILES IDX 9 23 10 24 8 25 7 27 1 28 2 29 3 30 4 31 6 32 5 33 32 34
REMARK SMILES IDX 33 35 34 36 35 37 36 38 37 39 38 40 39 41 40 42 41 43 42 44
REMARK SMILES IDX 106 45 43 46 105 47 44 48 45 49 46 50 99 51 47 52 104 53
REMARK SMILES IDX 98 54 100 55 48 56 103 57 97 58 96 59 49 61 83 62 62 63
REMARK SMILES IDX 82 64 63 65 66 66 81 67 101 68 64 69 65 70 80 72 102 73
REMARK SMILES IDX 67 74 50 75 51 76 60 77 52 78 53 79 59 80 61 81 54 82 55 83
REMARK SMILES IDX 56 84 57 85 58 86 84 87 85 88 94 89 86 90 87 91 93 92 95 93
REMARK SMILES IDX 88 94 89 95 90 96 91 97 92 98 68 99 69 100 78 101 70 102
REMARK SMILES IDX 71 103 77 104 79 105 72 106 73 107 74 108 75 109 76 110
REMARK H PARENT 11 22 8 26 100 60 66 71
REMARK Flexibility Score: inf
ROOT
ATOM      1  C   UNL A   1      40.399  21.844  26.756  1.00  0.00     0.188 C 
ENDROOT
BRANCH   1   2
ATOM      2  C   UNL A   1      39.028  21.903  26.093  1.00  0.00     0.188 C 
BRANCH   2   3
ATOM      3  O   UNL A   1      38.556  23.222  26.327  1.00  0.00    -0.376 OA
BRANCH   3   4
ATOM      4  C   UNL A   1      39.345  24.003  27.277  1.00  0.00     0.202 C 
BRANCH   4   5
ATOM      5  C   UNL A   1      40.300  25.455  26.790  1.00  0.00     0.261 C 
BRANCH   5   6
ATOM      6  O   UNL A   1      40.449  27.136  27.556  1.00  0.00    -0.460 OA
BRANCH   6   7
ATOM      7  C   UNL A   1      39.962  28.629  27.388  1.00  0.00     0.338 C 
ATOM      8  O   UNL A   1      40.783  29.471  27.012  1.00  0.00    -0.246 OA
BRANCH   7   9
ATOM      9  C   UNL A   1      38.543  29.357  27.983  1.00  0.00     0.066 A 
ATOM     10  C   UNL A   1      38.410  29.479  29.385  1.00  0.00     0.001 A 
ATOM     11  C   UNL A   1      37.255  29.854  30.106  1.00  0.00     0.008 A 
ATOM     12  C   UNL A   1      36.072  29.941  29.427  1.00  0.00     0.000 A 
ATOM     13  C   UNL A   1      37.332  29.577  27.313  1.00  0.00     0.016 A 
ATOM     14  C   UNL A   1      36.108  29.791  28.039  1.00  0.00     0.001 A 
BRANCH  10  15
ATOM     15  C   UNL A   1      39.408  28.767  30.158  1.00  0.00     0.197 C 
ATOM     16  N   UNL A   1      40.394  29.716  30.622  1.00  0.00    -0.236 N 
ATOM     17  C   UNL A   1      40.885  29.015  31.826  1.00  0.00     0.252 C 
ATOM     18  O   UNL A   1      42.040  28.580  31.932  1.00  0.00    -0.272 OA
ATOM     19  C   UNL A   1      39.772  28.408  32.681  1.00  0.00     0.174 C 
ATOM     20  S   UNL A   1      38.661  27.739  31.453  1.00  0.00    -0.120 SA
BRANCH  16  21
ATOM     21  N   UNL A   1      40.116  31.510  30.227  1.00  0.00    -0.270 N 
ATOM     22  H   UNL A   1      40.689  31.756  29.466  1.00  0.00     0.191 HD
BRANCH  21  23
ATOM     23  C   UNL A   1      39.228  32.887  30.702  1.00  0.00     0.189 C 
ATOM     24  S   UNL A   1      40.114  33.710  31.950  1.00  0.00    -0.039 S 
BRANCH  23  25
ATOM     25  N   UNL A   1      37.667  33.327  30.523  1.00  0.00    -0.331 N 
ATOM     26  H   UNL A   1      37.491  33.419  31.487  1.00  0.00     0.169 HD
BRANCH  25  27
ATOM     27  C   UNL A   1      36.013  33.778  30.012  1.00  0.00     0.043 A 
ATOM     28  C   UNL A   1      34.142  34.509  31.982  1.00  0.00     0.046 C 
ATOM     29  C   UNL A   1      34.733  34.368  30.579  1.00  0.00    -0.028 A 
ATOM     30  C   UNL A   1      33.502  34.689  29.772  1.00  0.00     0.005 A 
ATOM     31  C   UNL A   1      33.323  34.362  28.472  1.00  0.00     0.000 A 
ATOM     32  C   UNL A   1      35.617  33.562  28.738  1.00  0.00     0.026 A 
ATOM     33  C   UNL A   1      34.395  33.738  27.967  1.00  0.00     0.002 A 
ENDBRANCH  25  27
ENDBRANCH  23  25
ENDBRANCH  21  23
ENDBRANCH  16  21
ENDBRANCH  10  15
ENDBRANCH   7   9
ENDBRANCH   6   7
ENDBRANCH   5   6
ENDBRANCH   4   5
ENDBRANCH   3   4
ENDBRANCH   2   3
ENDBRANCH   1   2
BRANCH   1  34
ATOM     34  O   UNL A   1      40.569  20.739  27.637  1.00  0.00    -0.377 OA
BRANCH  34  35
ATOM     35  C   UNL A   1      41.505  19.786  27.117  1.00  0.00     0.188 C 
BRANCH  35  36
ATOM     36  C   UNL A   1      42.434  20.387  26.064  1.00  0.00     0.188 C 
BRANCH  36  37
ATOM     37  O   UNL A   1      42.827  19.452  25.066  1.00  0.00    -0.376 OA
BRANCH  37  38
ATOM     38  C   UNL A   1      44.189  19.037  25.155  1.00  0.00     0.202 C 
BRANCH  38  39
ATOM     39  C   UNL A   1      45.097  19.746  24.131  1.00  0.00     0.261 C 
BRANCH  39  40
ATOM     40  O   UNL A   1      45.503  21.044  24.604  1.00  0.00    -0.460 OA
BRANCH  40  41
ATOM     41  C   UNL A   1      44.917  22.084  23.950  1.00  0.00     0.338 C 
ATOM     42  O   UNL A   1      44.334  21.984  22.879  1.00  0.00    -0.246 OA
BRANCH  41  43
ATOM     43  C   UNL A   1      45.165  23.348  24.684  1.00  0.00     0.060 A 
ATOM     44  C   UNL A   1      46.328  23.481  25.443  1.00  0.00     0.016 A 
ATOM     45  C   UNL A   1      44.130  24.282  24.804  1.00  0.00     0.016 A 
ATOM     46  C   UNL A   1      46.389  24.485  26.403  1.00  0.00     0.010 A 
ATOM     47  C   UNL A   1      44.129  25.168  25.864  1.00  0.00     0.010 A 
ATOM     48  C   UNL A   1      45.247  25.266  26.684  1.00  0.00    -0.014 A 
BRANCH  48  49
ATOM     49  C   UNL A   1      45.201  26.156  27.874  1.00  0.00     0.031 A 
ATOM     50  C   UNL A   1      44.912  25.326  29.278  1.00  0.00     0.074 A 
ATOM     51  C   UNL A   1      45.454  27.490  27.531  1.00  0.00     0.049 A 
ATOM     52  N   UNL A   1      45.043  25.729  30.511  1.00  0.00    -0.248 NA
ATOM     53  C   UNL A   1      44.415  23.939  29.363  1.00  0.00     0.031 C 
ATOM     54  C   UNL A   1      46.391  27.889  26.456  1.00  0.00     0.029 A 
ATOM     55  N   UNL A   1      45.222  28.754  28.053  1.00  0.00    -0.354 N 
ATOM     56  C   UNL A   1      44.741  24.835  31.516  1.00  0.00     0.074 A 
ATOM     57  C   UNL A   1      44.308  23.711  30.693  1.00  0.00     0.031 C 
ATOM     58  C   UNL A   1      46.795  29.172  26.600  1.00  0.00     0.029 A 
ATOM     59  C   UNL A   1      46.048  29.830  27.681  1.00  0.00     0.049 A 
ATOM     60  H   UNL A   1      44.481  28.898  28.685  1.00  0.00     0.167 HD
ATOM     61  C   UNL A   1      44.973  25.117  32.871  1.00  0.00     0.037 A 
ATOM     62  C   UNL A   1      46.212  31.163  28.115  1.00  0.00     0.037 A 
ATOM     63  C   UNL A   1      45.362  26.585  33.338  1.00  0.00     0.049 A 
ATOM     64  C   UNL A   1      46.151  31.766  29.760  1.00  0.00     0.074 A 
ATOM     65  C   UNL A   1      46.449  27.024  34.096  1.00  0.00     0.029 A 
ATOM     66  N   UNL A   1      44.688  27.848  33.117  1.00  0.00    -0.354 N 
ATOM     67  N   UNL A   1      46.575  31.132  30.874  1.00  0.00    -0.248 NA
ATOM     68  C   UNL A   1      45.468  32.985  30.238  1.00  0.00     0.031 C 
ATOM     69  C   UNL A   1      46.574  28.443  34.032  1.00  0.00     0.029 A 
ATOM     70  C   UNL A   1      45.582  29.014  33.243  1.00  0.00     0.049 A 
ATOM     71  H   UNL A   1      43.729  27.920  32.904  1.00  0.00     0.167 HD
ATOM     72  C   UNL A   1      45.715  31.407  32.005  1.00  0.00     0.074 A 
ATOM     73  C   UNL A   1      45.267  32.749  31.569  1.00  0.00     0.031 C 
ATOM     74  C   UNL A   1      45.202  30.530  33.047  1.00  0.00     0.037 A 
BRANCH  61  75
ATOM     75  C   UNL A   1      45.369  23.911  33.833  1.00  0.00     0.058 A 
ATOM     76  C   UNL A   1      44.377  23.190  34.549  1.00  0.00     0.135 A 
ATOM     77  C   UNL A   1      46.680  23.595  34.273  1.00  0.00     0.135 A 
ATOM     78  F   UNL A   1      43.094  23.216  34.159  1.00  0.00    -0.206 F 
ATOM     79  C   UNL A   1      44.641  22.413  35.699  1.00  0.00     0.059 A 
ATOM     80  C   UNL A   1      46.972  22.767  35.367  1.00  0.00     0.059 A 
ATOM     81  F   UNL A   1      47.779  24.077  33.694  1.00  0.00    -0.206 F 
ATOM     82  C   UNL A   1      45.948  22.236  36.124  1.00  0.00     0.060 A 
BRANCH  82  83
ATOM     83  S   UNL A   1      46.340  21.275  37.604  1.00  0.00     0.124 S 
ATOM     84  O   UNL A   1      45.763  19.972  37.286  1.00  0.00    -0.237 OA
ATOM     85  O   UNL A   1      47.797  21.328  37.656  1.00  0.00    -0.237 OA
ATOM     86  O   UNL A   1      45.660  22.013  38.668  1.00  0.00    -0.744 OA
ENDBRANCH  82  83
ENDBRANCH  61  75
BRANCH  62  87
ATOM     87  C   UNL A   1      45.891  31.970  26.808  1.00  0.00     0.058 A 
ATOM     88  C   UNL A   1      44.536  32.297  26.564  1.00  0.00     0.135 A 
ATOM     89  C   UNL A   1      46.802  33.050  26.594  1.00  0.00     0.135 A 
ATOM     90  F   UNL A   1      43.599  31.340  26.623  1.00  0.00    -0.206 F 
ATOM     91  C   UNL A   1      44.090  33.639  26.532  1.00  0.00     0.059 A 
ATOM     92  C   UNL A   1      46.380  34.394  26.626  1.00  0.00     0.059 A 
ATOM     93  F   UNL A   1      48.120  32.825  26.725  1.00  0.00    -0.206 F 
ATOM     94  C   UNL A   1      45.016  34.674  26.698  1.00  0.00     0.060 A 
BRANCH  94  95
ATOM     95  S   UNL A   1      44.448  36.262  27.426  1.00  0.00     0.124 S 
ATOM     96  O   UNL A   1      43.182  36.474  26.737  1.00  0.00    -0.237 OA
ATOM     97  O   UNL A   1      44.347  35.947  28.852  1.00  0.00    -0.237 OA
ATOM     98  O   UNL A   1      45.519  37.196  27.087  1.00  0.00    -0.744 OA
ENDBRANCH  94  95
ENDBRANCH  62  87
BRANCH  74  99
ATOM     99  C   UNL A   1      44.203  30.963  34.188  1.00  0.00     0.058 A 
ATOM    100  C   UNL A   1      44.459  31.000  35.569  1.00  0.00     0.135 A 
ATOM    101  C   UNL A   1      42.920  31.501  33.844  1.00  0.00     0.135 A 
ATOM    102  F   UNL A   1      45.648  30.634  36.066  1.00  0.00    -0.206 F 
ATOM    103  C   UNL A   1      43.506  31.457  36.512  1.00  0.00     0.059 A 
ATOM    104  C   UNL A   1      42.001  32.029  34.747  1.00  0.00     0.059 A 
ATOM    105  F   UNL A   1      42.456  31.529  32.591  1.00  0.00    -0.206 F 
ATOM    106  C   UNL A   1      42.277  31.966  36.092  1.00  0.00     0.060 A 
BRANCH 106 107
ATOM    107  S   UNL A   1      41.036  32.553  37.262  1.00  0.00     0.124 S 
ATOM    108  O   UNL A   1      40.967  33.972  36.931  1.00  0.00    -0.237 OA
ATOM    109  O   UNL A   1      39.861  31.764  36.907  1.00  0.00    -0.237 OA
ATOM    110  O   UNL A   1      41.614  32.242  38.566  1.00  0.00    -0.744 OA
ENDBRANCH 106 107
ENDBRANCH  74  99
ENDBRANCH  48  49
ENDBRANCH  41  43
ENDBRANCH  40  41
ENDBRANCH  39  40
ENDBRANCH  38  39
ENDBRANCH  37  38
ENDBRANCH  36  37
ENDBRANCH  35  36
ENDBRANCH  34  35
ENDBRANCH   1  34
TORSDOF 28
ENDMDL
MODEL 2
REMARK VINA RESULT:     -10.0      1.527      2.775
REMARK SMILES Cc1ccccc1NC(=S)NN1C(=O)CS[C@H]1c1ccccc1C(=O)OCCOCCOCCOCCOC(=O)c1ccc(-c2c3nc(c(-c4c(F)cc(S(=O)(=O)[O-])cc4F)c4ccc([nH]4)c(-c4c(F)cc(S(=O)(=O)[O-])cc4F)c4nc(c(-c5c(F)cc(S(=O)(=O)[O-])cc5F)c5ccc2[nH]5)C=C4)C=C3)cc1
REMARK SMILES IDX 31 1 30 2 29 3 28 4 27 5 26 6 24 7 25 8 23 9 18 10 19 11
REMARK SMILES IDX 20 12 22 13 21 14 17 15 12 16 13 17 14 18 15 19 16 20 11 21
REMARK SMILES IDX 9 23 10 24 8 25 7 27 1 28 2 29 3 30 4 31 6 32 5 33 32 34
REMARK SMILES IDX 33 35 34 36 35 37 36 38 37 39 38 40 39 41 40 42 41 43 42 44
REMARK SMILES IDX 106 45 43 46 105 47 44 48 45 49 46 50 99 51 47 52 104 53
REMARK SMILES IDX 98 54 100 55 48 56 103 57 97 58 96 59 49 61 83 62 62 63
REMARK SMILES IDX 82 64 63 65 66 66 81 67 101 68 64 69 65 70 80 72 102 73
REMARK SMILES IDX 67 74 50 75 51 76 60 77 52 78 53 79 59 80 61 81 54 82 55 83
REMARK SMILES IDX 56 84 57 85 58 86 84 87 85 88 94 89 86 90 87 91 93 92 95 93
REMARK SMILES IDX 88 94 89 95 90 96 91 97 92 98 68 99 69 100 78 101 70 102
REMARK SMILES IDX 71 103 77 104 79 105 72 106 73 107 74 108 75 109 76 110
REMARK H PARENT 11 22 8 26 100 60 66 71
REMARK Flexibility Score: inf
ROOT
ATOM      1  C   UNL A   1      40.619  21.263  27.077  1.00  0.00     0.188 C 
ENDROOT
BRANCH   1   2
ATOM      2  C   UNL A   1      39.375  21.399  26.207  1.00  0.00     0.188 C 
BRANCH   2   3
ATOM      3  O   UNL A   1      39.018  22.772  26.276  1.00  0.00    -0.376 OA
BRANCH   3   4
ATOM      4  C   UNL A   1      40.037  23.648  26.850  1.00  0.00     0.202 C 
BRANCH   4   5
ATOM      5  C   UNL A   1      40.115  25.416  26.495  1.00  0.00     0.261 C 
BRANCH   5   6
ATOM      6  O   UNL A   1      40.072  26.893  27.614  1.00  0.00    -0.460 OA
BRANCH   6   7
ATOM      7  C   UNL A   1      39.769  28.443  27.619  1.00  0.00     0.338 C 
ATOM      8  O   UNL A   1      40.682  29.216  27.307  1.00  0.00    -0.246 OA
BRANCH   7   9
ATOM      9  C   UNL A   1      38.462  29.269  28.329  1.00  0.00     0.066 A 
ATOM     10  C   UNL A   1      38.441  29.368  29.739  1.00  0.00     0.001 A 
ATOM     11  C   UNL A   1      37.377  29.818  30.550  1.00  0.00     0.008 A 
ATOM     12  C   UNL A   1      36.158  30.017  29.963  1.00  0.00     0.000 A 
ATOM     13  C   UNL A   1      37.228  29.603  27.755  1.00  0.00     0.016 A 
ATOM     14  C   UNL A   1      36.082  29.899  28.573  1.00  0.00     0.001 A 
BRANCH  10  15
ATOM     15  C   UNL A   1      39.430  28.559  30.423  1.00  0.00     0.197 C 
ATOM     16  N   UNL A   1      40.554  29.400  30.771  1.00  0.00    -0.236 N 
ATOM     17  C   UNL A   1      41.085  28.660  31.933  1.00  0.00     0.252 C 
ATOM     18  O   UNL A   1      42.192  28.104  31.933  1.00  0.00    -0.272 OA
ATOM     19  C   UNL A   1      40.005  28.183  32.904  1.00  0.00     0.174 C 
ATOM     20  S   UNL A   1      38.712  27.629  31.804  1.00  0.00    -0.120 SA
BRANCH  16  21
ATOM     21  N   UNL A   1      40.429  31.211  30.371  1.00  0.00    -0.270 N 
ATOM     22  H   UNL A   1      39.678  31.343  29.749  1.00  0.00     0.191 HD
BRANCH  21  23
ATOM     23  C   UNL A   1      41.142  32.727  30.689  1.00  0.00     0.189 C 
ATOM     24  S   UNL A   1      42.544  32.900  29.679  1.00  0.00    -0.039 S 
BRANCH  23  25
ATOM     25  N   UNL A   1      41.017  33.783  31.927  1.00  0.00    -0.331 N 
ATOM     26  H   UNL A   1      40.609  34.500  31.390  1.00  0.00     0.169 HD
BRANCH  25  27
ATOM     27  C   UNL A   1      41.014  34.707  33.459  1.00  0.00     0.043 A 
ATOM     28  C   UNL A   1      43.468  35.601  34.503  1.00  0.00     0.046 C 
ATOM     29  C   UNL A   1      41.951  35.516  34.341  1.00  0.00    -0.028 A 
ATOM     30  C   UNL A   1      41.539  36.249  35.589  1.00  0.00     0.005 A 
ATOM     31  C   UNL A   1      40.319  36.167  36.168  1.00  0.00     0.000 A 
ATOM     32  C   UNL A   1      39.886  34.782  34.201  1.00  0.00     0.026 A 
ATOM     33  C   UNL A   1      39.496  35.370  35.474  1.00  0.00     0.002 A 
ENDBRANCH  25  27
ENDBRANCH  23  25
ENDBRANCH  21  23
ENDBRANCH  16  21
ENDBRANCH  10  15
ENDBRANCH   7   9
ENDBRANCH   6   7
ENDBRANCH   5   6
ENDBRANCH   4   5
ENDBRANCH   3   4
ENDBRANCH   2   3
ENDBRANCH   1   2
BRANCH   1  34
ATOM     34  O   UNL A   1      40.814  19.957  27.607  1.00  0.00    -0.377 OA
BRANCH  34  35
ATOM     35  C   UNL A   1      41.912  19.287  26.975  1.00  0.00     0.188 C 
BRANCH  35  36
ATOM     36  C   UNL A   1      42.828  20.244  26.216  1.00  0.00     0.188 C 
BRANCH  36  37
ATOM     37  O   UNL A   1      43.577  19.605  25.189  1.00  0.00    -0.376 OA
BRANCH  37  38
ATOM     38  C   UNL A   1      44.967  19.928  25.189  1.00  0.00     0.202 C 
BRANCH  38  39
ATOM     39  C   UNL A   1      45.445  20.510  23.846  1.00  0.00     0.261 C 
BRANCH  39  40
ATOM     40  O   UNL A   1      45.815  21.896  23.978  1.00  0.00    -0.460 OA
BRANCH  40  41
ATOM     41  C   UNL A   1      44.759  22.745  24.099  1.00  0.00     0.338 C 
ATOM     42  O   UNL A   1      43.673  22.576  23.562  1.00  0.00    -0.246 OA
BRANCH  41  43
ATOM     43  C   UNL A   1      45.152  23.929  24.900  1.00  0.00     0.060 A 
ATOM     44  C   UNL A   1      46.217  23.827  25.795  1.00  0.00     0.016 A 
ATOM     45  C   UNL A   1      44.307  25.045  24.929  1.00  0.00     0.016 A 
ATOM     46  C   UNL A   1      46.350  24.790  26.790  1.00  0.00     0.010 A 
ATOM     47  C   UNL A   1      44.345  25.903  26.010  1.00  0.00     0.010 A 
ATOM     48  C   UNL A   1      45.353  25.775  26.960  1.00  0.00    -0.014 A 
BRANCH  48  49
ATOM     49  C   UNL A   1      45.332  26.645  28.165  1.00  0.00     0.031 A 
ATOM     50  C   UNL A   1      44.937  25.813  29.542  1.00  0.00     0.074 A 
ATOM     51  C   UNL A   1      45.692  27.962  27.857  1.00  0.00     0.049 A 
ATOM     52  N   UNL A   1      45.056  26.183  30.786  1.00  0.00    -0.248 NA
ATOM     53  C   UNL A   1      44.338  24.464  29.583  1.00  0.00     0.031 C 
ATOM     54  C   UNL A   1      46.690  28.311  26.821  1.00  0.00     0.029 A 
ATOM     55  N   UNL A   1      45.535  29.230  28.397  1.00  0.00    -0.354 N 
ATOM     56  C   UNL A   1      44.657  25.296  31.763  1.00  0.00     0.074 A 
ATOM     57  C   UNL A   1      44.171  24.221  30.904  1.00  0.00     0.031 C 
ATOM     58  C   UNL A   1      47.181  29.558  27.004  1.00  0.00     0.029 A 
ATOM     59  C   UNL A   1      46.449  30.250  28.073  1.00  0.00     0.049 A 
ATOM     60  H   UNL A   1      44.785  29.416  29.008  1.00  0.00     0.167 HD
ATOM     61  C   UNL A   1      44.864  25.535  33.130  1.00  0.00     0.037 A 
ATOM     62  C   UNL A   1      46.694  31.559  28.540  1.00  0.00     0.037 A 
ATOM     63  C   UNL A   1      45.343  26.963  33.639  1.00  0.00     0.049 A 
ATOM     64  C   UNL A   1      46.623  32.135  30.193  1.00  0.00     0.074 A 
ATOM     65  C   UNL A   1      46.433  27.308  34.439  1.00  0.00     0.029 A 
ATOM     66  N   UNL A   1      44.769  28.275  33.423  1.00  0.00    -0.354 N 
ATOM     67  N   UNL A   1      46.962  31.453  31.307  1.00  0.00    -0.248 NA
ATOM     68  C   UNL A   1      46.014  33.392  30.674  1.00  0.00     0.031 C 
ATOM     69  C   UNL A   1      46.662  28.715  34.409  1.00  0.00     0.029 A 
ATOM     70  C   UNL A   1      45.741  29.370  33.600  1.00  0.00     0.049 A 
ATOM     71  H   UNL A   1      43.825  28.421  33.181  1.00  0.00     0.167 HD
ATOM     72  C   UNL A   1      46.088  31.769  32.415  1.00  0.00     0.074 A 
ATOM     73  C   UNL A   1      45.753  33.148  31.993  1.00  0.00     0.031 C 
ATOM     74  C   UNL A   1      45.478  30.913  33.423  1.00  0.00     0.037 A 
BRANCH  61  75
ATOM     75  C   UNL A   1      45.139  24.287  34.080  1.00  0.00     0.058 A 
ATOM     76  C   UNL A   1      46.423  23.685  34.145  1.00  0.00     0.135 A 
ATOM     77  C   UNL A   1      44.150  23.508  34.734  1.00  0.00     0.135 A 
ATOM     78  F   UNL A   1      47.515  24.353  33.744  1.00  0.00    -0.206 F 
ATOM     79  C   UNL A   1      46.657  22.373  34.614  1.00  0.00     0.059 A 
ATOM     80  C   UNL A   1      44.374  22.232  35.275  1.00  0.00     0.059 A 
ATOM     81  F   UNL A   1      42.887  23.907  34.883  1.00  0.00    -0.206 F 
ATOM     82  C   UNL A   1      45.611  21.636  35.148  1.00  0.00     0.060 A 
BRANCH  82  83
ATOM     83  S   UNL A   1      45.850  19.945  35.738  1.00  0.00     0.124 S 
ATOM     84  O   UNL A   1      47.223  19.666  35.327  1.00  0.00    -0.237 OA
ATOM     85  O   UNL A   1      45.629  20.062  37.175  1.00  0.00    -0.237 OA
ATOM     86  O   UNL A   1      44.821  19.194  35.019  1.00  0.00    -0.744 OA
ENDBRANCH  82  83
ENDBRANCH  61  75
BRANCH  62  87
ATOM     87  C   UNL A   1      46.476  32.410  27.239  1.00  0.00     0.058 A 
ATOM     88  C   UNL A   1      45.150  32.797  26.932  1.00  0.00     0.135 A 
ATOM     89  C   UNL A   1      47.437  33.459  27.104  1.00  0.00     0.135 A 
ATOM     90  F   UNL A   1      44.175  31.876  26.914  1.00  0.00    -0.206 F 
ATOM     91  C   UNL A   1      44.758  34.155  26.913  1.00  0.00     0.059 A 
ATOM     92  C   UNL A   1      47.066  34.817  27.149  1.00  0.00     0.059 A 
ATOM     93  F   UNL A   1      48.737  33.179  27.299  1.00  0.00    -0.206 F 
ATOM     94  C   UNL A   1      45.711  35.148  27.156  1.00  0.00     0.060 A 
BRANCH  94  95
ATOM     95  S   UNL A   1      45.165  36.739  27.896  1.00  0.00     0.124 S 
ATOM     96  O   UNL A   1      46.124  37.679  27.332  1.00  0.00    -0.237 OA
ATOM     97  O   UNL A   1      43.791  36.868  27.408  1.00  0.00    -0.237 OA
ATOM     98  O   UNL A   1      45.278  36.503  29.334  1.00  0.00    -0.744 OA
ENDBRANCH  94  95
ENDBRANCH  62  87
BRANCH  74  99
ATOM     99  C   UNL A   1      44.476  31.398  34.540  1.00  0.00     0.058 A 
ATOM    100  C   UNL A   1      43.091  31.594  34.407  1.00  0.00     0.135 A 
ATOM    101  C   UNL A   1      44.936  31.562  35.887  1.00  0.00     0.135 A 
ATOM    102  F   UNL A   1      42.467  31.382  33.240  1.00  0.00    -0.206 F 
ATOM    103  C   UNL A   1      42.265  31.983  35.490  1.00  0.00     0.059 A 
ATOM    104  C   UNL A   1      44.129  31.867  36.981  1.00  0.00     0.059 A 
ATOM    105  F   UNL A   1      46.222  31.460  36.233  1.00  0.00    -0.206 F 
ATOM    106  C   UNL A   1      42.795  32.122  36.774  1.00  0.00     0.060 A 
BRANCH 106 107
ATOM    107  S   UNL A   1      41.778  32.621  38.178  1.00  0.00     0.124 S 
ATOM    108  O   UNL A   1      42.121  34.035  38.301  1.00  0.00    -0.237 OA
ATOM    109  O   UNL A   1      40.425  32.338  37.712  1.00  0.00    -0.237 OA
ATOM    110  O   UNL A   1      42.246  31.767  39.266  1.00  0.00    -0.744 OA
ENDBRANCH 106 107
ENDBRANCH  74  99
ENDBRANCH  48  49
ENDBRANCH  41  43
ENDBRANCH  40  41
ENDBRANCH  39  40
ENDBRANCH  38  39
ENDBRANCH  37  38
ENDBRANCH  36  37
ENDBRANCH  35  36
ENDBRANCH  34  35
ENDBRANCH   1  34
TORSDOF 28
ENDMDL
MODEL 3
REMARK VINA RESULT:      -8.7      4.619     11.458
REMARK SMILES Cc1ccccc1NC(=S)NN1C(=O)CS[C@H]1c1ccccc1C(=O)OCCOCCOCCOCCOC(=O)c1ccc(-c2c3nc(c(-c4c(F)cc(S(=O)(=O)[O-])cc4F)c4ccc([nH]4)c(-c4c(F)cc(S(=O)(=O)[O-])cc4F)c4nc(c(-c5c(F)cc(S(=O)(=O)[O-])cc5F)c5ccc2[nH]5)C=C4)C=C3)cc1
REMARK SMILES IDX 31 1 30 2 29 3 28 4 27 5 26 6 24 7 25 8 23 9 18 10 19 11
REMARK SMILES IDX 20 12 22 13 21 14 17 15 12 16 13 17 14 18 15 19 16 20 11 21
REMARK SMILES IDX 9 23 10 24 8 25 7 27 1 28 2 29 3 30 4 31 6 32 5 33 32 34
REMARK SMILES IDX 33 35 34 36 35 37 36 38 37 39 38 40 39 41 40 42 41 43 42 44
REMARK SMILES IDX 106 45 43 46 105 47 44 48 45 49 46 50 99 51 47 52 104 53
REMARK SMILES IDX 98 54 100 55 48 56 103 57 97 58 96 59 49 61 83 62 62 63
REMARK SMILES IDX 82 64 63 65 66 66 81 67 101 68 64 69 65 70 80 72 102 73
REMARK SMILES IDX 67 74 50 75 51 76 60 77 52 78 53 79 59 80 61 81 54 82 55 83
REMARK SMILES IDX 56 84 57 85 58 86 84 87 85 88 94 89 86 90 87 91 93 92 95 93
REMARK SMILES IDX 88 94 89 95 90 96 91 97 92 98 68 99 69 100 78 101 70 102
REMARK SMILES IDX 71 103 77 104 79 105 72 106 73 107 74 108 75 109 76 110
REMARK H PARENT 11 22 8 26 100 60 66 71
REMARK Flexibility Score: inf
ROOT
ATOM      1  C   UNL A   1      41.230  35.026  29.438  1.00  0.00     0.188 C 
ENDROOT
BRANCH   1   2
ATOM      2  C   UNL A   1      41.303  35.678  28.063  1.00  0.00     0.188 C 
BRANCH   2   3
ATOM      3  O   UNL A   1      42.045  36.873  28.254  1.00  0.00    -0.376 OA
BRANCH   3   4
ATOM      4  C   UNL A   1      42.427  37.568  27.027  1.00  0.00     0.202 C 
BRANCH   4   5
ATOM      5  C   UNL A   1      43.766  38.776  26.967  1.00  0.00     0.261 C 
BRANCH   5   6
ATOM      6  O   UNL A   1      43.744  40.628  26.898  1.00  0.00    -0.460 OA
BRANCH   6   7
ATOM      7  C   UNL A   1      44.524  41.902  27.410  1.00  0.00     0.338 C 
ATOM      8  O   UNL A   1      44.506  42.918  26.708  1.00  0.00    -0.246 OA
BRANCH   7   9
ATOM      9  C   UNL A   1      45.700  42.007  28.636  1.00  0.00     0.066 A 
ATOM     10  C   UNL A   1      45.246  42.060  29.973  1.00  0.00     0.001 A 
ATOM     11  C   UNL A   1      46.009  42.350  31.125  1.00  0.00     0.008 A 
ATOM     12  C   UNL A   1      47.285  42.812  30.954  1.00  0.00     0.000 A 
ATOM     13  C   UNL A   1      47.050  42.367  28.518  1.00  0.00     0.016 A 
ATOM     14  C   UNL A   1      47.798  42.831  29.656  1.00  0.00     0.001 A 
BRANCH  10  15
ATOM     15  C   UNL A   1      43.816  42.239  30.127  1.00  0.00     0.197 C 
ATOM     16  N   UNL A   1      43.211  40.946  30.352  1.00  0.00    -0.236 N 
ATOM     17  C   UNL A   1      41.999  41.349  31.093  1.00  0.00     0.252 C 
ATOM     18  O   UNL A   1      40.853  41.207  30.645  1.00  0.00    -0.272 OA
ATOM     19  C   UNL A   1      42.259  42.403  32.170  1.00  0.00     0.174 C 
ATOM     20  S   UNL A   1      43.417  43.500  31.368  1.00  0.00    -0.120 SA
BRANCH  16  21
ATOM     21  N   UNL A   1      44.343  39.477  30.478  1.00  0.00    -0.270 N 
ATOM     22  H   UNL A   1      45.236  39.742  30.162  1.00  0.00     0.191 HD
BRANCH  21  23
ATOM     23  C   UNL A   1      44.397  37.836  30.941  1.00  0.00     0.189 C 
ATOM     24  S   UNL A   1      44.942  37.746  32.588  1.00  0.00    -0.039 S 
BRANCH  23  25
ATOM     25  N   UNL A   1      44.423  36.438  30.101  1.00  0.00    -0.331 N 
ATOM     26  H   UNL A   1      43.446  36.323  30.091  1.00  0.00     0.169 HD
BRANCH  25  27
ATOM     27  C   UNL A   1      44.771  34.942  29.184  1.00  0.00     0.043 A 
ATOM     28  C   UNL A   1      45.059  35.106  26.390  1.00  0.00     0.046 C 
ATOM     29  C   UNL A   1      45.156  34.489  27.785  1.00  0.00    -0.028 A 
ATOM     30  C   UNL A   1      45.454  33.066  27.393  1.00  0.00     0.005 A 
ATOM     31  C   UNL A   1      45.279  31.990  28.194  1.00  0.00     0.000 A 
ATOM     32  C   UNL A   1      44.680  33.738  29.793  1.00  0.00     0.026 A 
ATOM     33  C   UNL A   1      44.832  32.344  29.406  1.00  0.00     0.002 A 
ENDBRANCH  25  27
ENDBRANCH  23  25
ENDBRANCH  21  23
ENDBRANCH  16  21
ENDBRANCH  10  15
ENDBRANCH   7   9
ENDBRANCH   6   7
ENDBRANCH   5   6
ENDBRANCH   4   5
ENDBRANCH   3   4
ENDBRANCH   2   3
ENDBRANCH   1   2
BRANCH   1  34
ATOM     34  O   UNL A   1      39.928  35.030  30.013  1.00  0.00    -0.377 OA
BRANCH  34  35
ATOM     35  C   UNL A   1      38.953  34.473  29.122  1.00  0.00     0.188 C 
BRANCH  35  36
ATOM     36  C   UNL A   1      37.559  34.407  29.742  1.00  0.00     0.188 C 
BRANCH  36  37
ATOM     37  O   UNL A   1      36.638  33.649  28.967  1.00  0.00    -0.376 OA
BRANCH  37  38
ATOM     38  C   UNL A   1      35.392  34.303  28.730  1.00  0.00     0.202 C 
BRANCH  38  39
ATOM     39  C   UNL A   1      34.219  33.317  28.578  1.00  0.00     0.261 C 
BRANCH  39  40
ATOM     40  O   UNL A   1      34.529  32.040  29.167  1.00  0.00    -0.460 OA
BRANCH  40  41
ATOM     41  C   UNL A   1      34.450  30.993  28.301  1.00  0.00     0.338 C 
ATOM     42  O   UNL A   1      33.501  30.782  27.560  1.00  0.00    -0.246 OA
BRANCH  41  43
ATOM     43  C   UNL A   1      35.637  30.118  28.457  1.00  0.00     0.060 A 
ATOM     44  C   UNL A   1      35.900  29.536  29.697  1.00  0.00     0.016 A 
ATOM     45  C   UNL A   1      36.598  30.084  27.441  1.00  0.00     0.016 A 
ATOM     46  C   UNL A   1      37.173  29.032  29.944  1.00  0.00     0.010 A 
ATOM     47  C   UNL A   1      37.900  29.734  27.742  1.00  0.00     0.010 A 
ATOM     48  C   UNL A   1      38.205  29.223  28.999  1.00  0.00    -0.014 A 
BRANCH  48  49
ATOM     49  C   UNL A   1      39.622  28.935  29.343  1.00  0.00     0.031 A 
ATOM     50  C   UNL A   1      40.284  30.090  30.330  1.00  0.00     0.074 A 
ATOM     51  C   UNL A   1      40.054  27.728  28.781  1.00  0.00     0.049 A 
ATOM     52  N   UNL A   1      41.392  30.046  31.014  1.00  0.00    -0.248 NA
ATOM     53  C   UNL A   1      39.709  31.424  30.587  1.00  0.00     0.031 C 
ATOM     54  C   UNL A   1      39.175  26.550  28.610  1.00  0.00     0.029 A 
ATOM     55  N   UNL A   1      41.252  27.115  28.443  1.00  0.00    -0.354 N 
ATOM     56  C   UNL A   1      41.724  31.148  31.773  1.00  0.00     0.074 A 
ATOM     57  C   UNL A   1      40.603  32.011  31.417  1.00  0.00     0.031 C 
ATOM     58  C   UNL A   1      39.891  25.411  28.469  1.00  0.00     0.029 A 
ATOM     59  C   UNL A   1      41.324  25.713  28.358  1.00  0.00     0.049 A 
ATOM     60  H   UNL A   1      42.052  27.661  28.263  1.00  0.00     0.167 HD
ATOM     61  C   UNL A   1      42.820  31.158  32.650  1.00  0.00     0.037 A 
ATOM     62  C   UNL A   1      42.365  24.772  28.210  1.00  0.00     0.037 A 
ATOM     63  C   UNL A   1      43.890  29.982  32.623  1.00  0.00     0.049 A 
ATOM     64  C   UNL A   1      43.960  24.819  28.935  1.00  0.00     0.074 A 
ATOM     65  C   UNL A   1      44.349  29.167  33.659  1.00  0.00     0.029 A 
ATOM     66  N   UNL A   1      44.679  29.459  31.527  1.00  0.00    -0.354 N 
ATOM     67  N   UNL A   1      44.283  25.294  30.156  1.00  0.00    -0.248 NA
ATOM     68  C   UNL A   1      45.248  24.519  28.277  1.00  0.00     0.031 C 
ATOM     69  C   UNL A   1      45.081  28.056  33.146  1.00  0.00     0.029 A 
ATOM     70  C   UNL A   1      45.151  28.081  31.758  1.00  0.00     0.049 A 
ATOM     71  H   UNL A   1      44.880  29.971  30.711  1.00  0.00     0.167 HD
ATOM     72  C   UNL A   1      45.570  25.956  30.149  1.00  0.00     0.074 A 
ATOM     73  C   UNL A   1      46.170  25.172  29.046  1.00  0.00     0.031 C 
ATOM     74  C   UNL A   1      46.009  27.193  30.780  1.00  0.00     0.037 A 
BRANCH  61  75
ATOM     75  C   UNL A   1      42.709  32.019  33.985  1.00  0.00     0.058 A 
ATOM     76  C   UNL A   1      41.555  31.946  34.809  1.00  0.00     0.135 A 
ATOM     77  C   UNL A   1      43.565  33.087  34.357  1.00  0.00     0.135 A 
ATOM     78  F   UNL A   1      40.721  30.899  34.731  1.00  0.00    -0.206 F 
ATOM     79  C   UNL A   1      41.193  32.936  35.749  1.00  0.00     0.059 A 
ATOM     80  C   UNL A   1      43.260  34.043  35.339  1.00  0.00     0.059 A 
ATOM     81  F   UNL A   1      44.750  33.305  33.789  1.00  0.00    -0.206 F 
ATOM     82  C   UNL A   1      42.041  34.008  35.982  1.00  0.00     0.060 A 
BRANCH  82  83
ATOM     83  S   UNL A   1      41.613  35.316  37.153  1.00  0.00     0.124 S 
ATOM     84  O   UNL A   1      42.246  34.848  38.382  1.00  0.00    -0.237 OA
ATOM     85  O   UNL A   1      42.201  36.506  36.548  1.00  0.00    -0.237 OA
ATOM     86  O   UNL A   1      40.150  35.291  37.158  1.00  0.00    -0.744 OA
ENDBRANCH  82  83
ENDBRANCH  61  75
BRANCH  62  87
ATOM     87  C   UNL A   1      41.964  24.054  26.872  1.00  0.00     0.058 A 
ATOM     88  C   UNL A   1      42.433  24.624  25.665  1.00  0.00     0.135 A 
ATOM     89  C   UNL A   1      42.112  22.635  26.947  1.00  0.00     0.135 A 
ATOM     90  F   UNL A   1      42.248  25.931  25.430  1.00  0.00    -0.206 F 
ATOM     91  C   UNL A   1      43.331  23.935  24.818  1.00  0.00     0.059 A 
ATOM     92  C   UNL A   1      43.051  21.945  26.154  1.00  0.00     0.059 A 
ATOM     93  F   UNL A   1      41.630  21.986  28.020  1.00  0.00    -0.206 F 
ATOM     94  C   UNL A   1      43.731  22.637  25.153  1.00  0.00     0.060 A 
BRANCH  94  95
ATOM     95  S   UNL A   1      45.378  22.046  24.593  1.00  0.00     0.124 S 
ATOM     96  O   UNL A   1      45.914  23.229  23.933  1.00  0.00    -0.237 OA
ATOM     97  O   UNL A   1      46.031  21.671  25.848  1.00  0.00    -0.237 OA
ATOM     98  O   UNL A   1      45.058  20.922  23.716  1.00  0.00    -0.744 OA
ENDBRANCH  94  95
ENDBRANCH  62  87
BRANCH  74  99
ATOM     99  C   UNL A   1      47.441  27.835  30.619  1.00  0.00     0.058 A 
ATOM    100  C   UNL A   1      48.565  27.608  31.430  1.00  0.00     0.135 A 
ATOM    101  C   UNL A   1      47.730  28.654  29.480  1.00  0.00     0.135 A 
ATOM    102  F   UNL A   1      48.509  26.781  32.483  1.00  0.00    -0.206 F 
ATOM    103  C   UNL A   1      49.828  28.196  31.170  1.00  0.00     0.059 A 
ATOM    104  C   UNL A   1      48.981  29.176  29.163  1.00  0.00     0.059 A 
ATOM    105  F   UNL A   1      46.798  29.027  28.598  1.00  0.00    -0.206 F 
ATOM    106  C   UNL A   1      50.025  28.983  30.036  1.00  0.00     0.060 A 
BRANCH 106 107
ATOM    107  S   UNL A   1      51.615  29.754  29.672  1.00  0.00     0.124 S 
ATOM    108  O   UNL A   1      52.290  28.697  28.926  1.00  0.00    -0.237 OA
ATOM    109  O   UNL A   1      51.233  30.929  28.897  1.00  0.00    -0.237 OA
ATOM    110  O   UNL A   1      52.171  30.040  30.991  1.00  0.00    -0.744 OA
ENDBRANCH 106 107
ENDBRANCH  74  99
ENDBRANCH  48  49
ENDBRANCH  41  43
ENDBRANCH  40  41
ENDBRANCH  39  40
ENDBRANCH  38  39
ENDBRANCH  37  38
ENDBRANCH  36  37
ENDBRANCH  35  36
ENDBRANCH  34  35
ENDBRANCH   1  34
TORSDOF 28
ENDMDL
