MODEL 1
REMARK VINA RESULT:      -8.6      0.000      0.000
REMARK SMILES Cc1nc(-c2ccc(C(F)(F)F)cc2)nc(SCC(=O)OCCOCCOCCOCCOC(=O)c2ccc(-c3c4nc(c(-c5c(F)cc(S(=O)(=O)[O-])cc5F)c5ccc([nH]5)c(-c5c(F)cc(S(=O)(=O)[O-])cc5F)c5nc(c(-c6c(F)cc(S(=O)(=O)[O-])cc6F)c6ccc3[nH]6)C=C5)C=C4)cc2)c1C
REMARK SMILES IDX 26 1 25 2 24 3 23 4 22 5 21 6 19 7 20 8 18 9 17 10 16 11
REMARK SMILES IDX 1 12 2 13 3 14 102 15 4 16 103 17 15 18 5 19 6 20 14 21 7 22
REMARK SMILES IDX 13 23 8 24 9 25 10 26 11 27 12 28 27 29 28 30 29 31 30 32
REMARK SMILES IDX 31 33 32 34 33 35 34 36 35 37 36 38 37 39 101 40 38 41
REMARK SMILES IDX 100 42 39 43 40 44 41 45 94 46 42 47 99 48 93 49 95 50 43 51
REMARK SMILES IDX 98 52 92 53 91 54 44 56 78 57 57 58 77 59 58 60 61 61 76 62
REMARK SMILES IDX 96 63 59 64 60 65 75 67 97 68 62 69 45 70 46 71 55 72 47 73
REMARK SMILES IDX 48 74 54 75 56 76 49 77 50 78 51 79 52 80 53 81 79 82 80 83
REMARK SMILES IDX 89 84 81 85 82 86 88 87 90 88 83 89 84 90 85 91 86 92 87 93
REMARK SMILES IDX 63 94 64 95 73 96 65 97 66 98 72 99 74 100 67 101 68 102
REMARK SMILES IDX 69 103 70 104 71 105
REMARK H PARENT 95 55 61 66
REMARK Flexibility Score: inf
ROOT
ATOM      1  C   UNL A   1      31.602  25.974  25.309  1.00  0.00     0.188 C 
ENDROOT
BRANCH   1   2
ATOM      2  C   UNL A   1      31.540  24.529  24.802  1.00  0.00     0.188 C 
BRANCH   2   3
ATOM      3  O   UNL A   1      32.146  24.208  23.567  1.00  0.00    -0.376 OA
BRANCH   3   4
ATOM      4  C   UNL A   1      33.534  24.411  23.370  1.00  0.00     0.202 C 
BRANCH   4   5
ATOM      5  C   UNL A   1      34.554  23.256  23.277  1.00  0.00     0.261 C 
BRANCH   5   6
ATOM      6  O   UNL A   1      34.166  21.946  23.767  1.00  0.00    -0.463 OA
BRANCH   6   7
ATOM      7  C   UNL A   1      34.166  21.765  25.115  1.00  0.00     0.316 C 
ATOM      8  O   UNL A   1      33.137  21.774  25.789  1.00  0.00    -0.251 OA
BRANCH   7   9
ATOM      9  C   UNL A   1      35.529  21.665  25.788  1.00  0.00     0.199 C 
BRANCH   9  10
ATOM     10  S   UNL A   1      37.071  21.934  24.853  1.00  0.00    -0.094 SA
BRANCH  10  11
ATOM     11  C   UNL A   1      38.543  22.133  25.893  1.00  0.00     0.104 A 
ATOM     12  C   UNL A   1      42.131  21.163  26.543  1.00  0.00     0.067 C 
ATOM     13  C   UNL A   1      40.800  21.865  26.537  1.00  0.00     0.045 A 
ATOM     14  N   UNL A   1      40.859  23.141  26.964  1.00  0.00    -0.233 NA
ATOM     15  C   UNL A   1      39.623  21.264  26.064  1.00  0.00     0.003 A 
ATOM     16  C   UNL A   1      39.735  23.863  26.906  1.00  0.00     0.160 A 
ATOM     17  C   UNL A   1      39.603  19.808  25.735  1.00  0.00     0.049 C 
ATOM     18  N   UNL A   1      38.584  23.410  26.380  1.00  0.00    -0.221 NA
BRANCH  16  19
ATOM     19  C   UNL A   1      39.828  25.246  27.419  1.00  0.00     0.019 A 
ATOM     20  C   UNL A   1      40.506  26.244  26.694  1.00  0.00     0.012 A 
ATOM     21  C   UNL A   1      39.335  25.613  28.679  1.00  0.00     0.012 A 
ATOM     22  C   UNL A   1      40.694  27.540  27.187  1.00  0.00     0.014 A 
ATOM     23  C   UNL A   1      39.529  26.912  29.190  1.00  0.00     0.014 A 
ATOM     24  C   UNL A   1      40.215  27.888  28.450  1.00  0.00     0.056 A 
BRANCH  24  25
ATOM     25  C   UNL A   1      40.447  29.284  28.973  1.00  0.00     0.416 C 
ATOM     26  F   UNL A   1      41.283  29.305  30.051  1.00  0.00    -0.166 F 
ATOM     27  F   UNL A   1      41.016  30.104  28.046  1.00  0.00    -0.166 F 
ATOM     28  F   UNL A   1      39.308  29.912  29.380  1.00  0.00    -0.166 F 
ENDBRANCH  24  25
ENDBRANCH  16  19
ENDBRANCH  10  11
ENDBRANCH   9  10
ENDBRANCH   7   9
ENDBRANCH   6   7
ENDBRANCH   5   6
ENDBRANCH   4   5
ENDBRANCH   3   4
ENDBRANCH   2   3
ENDBRANCH   1   2
BRANCH   1  29
ATOM     29  O   UNL A   1      31.168  27.031  24.499  1.00  0.00    -0.377 OA
BRANCH  29  30
ATOM     30  C   UNL A   1      31.338  28.310  25.054  1.00  0.00     0.188 C 
BRANCH  30  31
ATOM     31  C   UNL A   1      32.216  28.247  26.299  1.00  0.00     0.188 C 
BRANCH  31  32
ATOM     32  O   UNL A   1      32.606  29.474  26.886  1.00  0.00    -0.376 OA
BRANCH  32  33
ATOM     33  C   UNL A   1      31.921  30.689  26.619  1.00  0.00     0.202 C 
BRANCH  33  34
ATOM     34  C   UNL A   1      32.343  32.121  27.000  1.00  0.00     0.261 C 
BRANCH  34  35
ATOM     35  O   UNL A   1      33.488  32.340  27.816  1.00  0.00    -0.460 OA
BRANCH  35  36
ATOM     36  C   UNL A   1      33.593  33.518  28.456  1.00  0.00     0.338 C 
ATOM     37  O   UNL A   1      32.876  34.494  28.333  1.00  0.00    -0.246 OA
BRANCH  36  38
ATOM     38  C   UNL A   1      34.603  33.312  29.512  1.00  0.00     0.060 A 
ATOM     39  C   UNL A   1      35.061  34.447  30.191  1.00  0.00     0.016 A 
ATOM     40  C   UNL A   1      35.018  32.031  29.898  1.00  0.00     0.016 A 
ATOM     41  C   UNL A   1      35.926  34.309  31.267  1.00  0.00     0.010 A 
ATOM     42  C   UNL A   1      35.945  31.898  30.937  1.00  0.00     0.010 A 
ATOM     43  C   UNL A   1      36.416  33.041  31.604  1.00  0.00    -0.014 A 
BRANCH  43  44
ATOM     44  C   UNL A   1      37.640  33.000  32.432  1.00  0.00     0.031 A 
ATOM     45  C   UNL A   1      38.951  33.097  31.700  1.00  0.00     0.074 A 
ATOM     46  C   UNL A   1      37.584  33.018  33.775  1.00  0.00     0.049 A 
ATOM     47  N   UNL A   1      40.162  33.179  32.178  1.00  0.00    -0.248 NA
ATOM     48  C   UNL A   1      38.883  33.132  30.225  1.00  0.00     0.031 C 
ATOM     49  C   UNL A   1      36.359  33.000  34.574  1.00  0.00     0.029 A 
ATOM     50  N   UNL A   1      38.590  33.073  34.706  1.00  0.00    -0.354 N 
ATOM     51  C   UNL A   1      40.992  33.290  31.069  1.00  0.00     0.074 A 
ATOM     52  C   UNL A   1      40.159  33.240  29.892  1.00  0.00     0.031 C 
ATOM     53  C   UNL A   1      36.687  33.034  35.878  1.00  0.00     0.029 A 
ATOM     54  C   UNL A   1      38.144  33.056  36.006  1.00  0.00     0.049 A 
ATOM     55  H   UNL A   1      39.544  33.122  34.465  1.00  0.00     0.167 HD
ATOM     56  C   UNL A   1      42.335  33.433  31.040  1.00  0.00     0.037 A 
ATOM     57  C   UNL A   1      38.843  33.042  37.160  1.00  0.00     0.037 A 
ATOM     58  C   UNL A   1      43.153  33.473  32.219  1.00  0.00     0.049 A 
ATOM     59  C   UNL A   1      40.351  33.102  37.093  1.00  0.00     0.074 A 
ATOM     60  C   UNL A   1      44.526  33.600  32.305  1.00  0.00     0.029 A 
ATOM     61  N   UNL A   1      42.671  33.381  33.516  1.00  0.00    -0.354 N 
ATOM     62  N   UNL A   1      41.125  33.219  36.040  1.00  0.00    -0.248 NA
ATOM     63  C   UNL A   1      41.081  33.029  38.367  1.00  0.00     0.031 C 
ATOM     64  C   UNL A   1      44.882  33.530  33.654  1.00  0.00     0.029 A 
ATOM     65  C   UNL A   1      43.724  33.420  34.410  1.00  0.00     0.049 A 
ATOM     66  H   UNL A   1      41.721  33.300  33.763  1.00  0.00     0.167 HD
ATOM     67  C   UNL A   1      42.429  33.256  36.524  1.00  0.00     0.074 A 
ATOM     68  C   UNL A   1      42.337  33.170  37.968  1.00  0.00     0.031 C 
ATOM     69  C   UNL A   1      43.598  33.347  35.843  1.00  0.00     0.037 A 
BRANCH  56  70
ATOM     70  C   UNL A   1      43.009  33.537  29.705  1.00  0.00     0.058 A 
ATOM     71  C   UNL A   1      43.452  32.399  29.014  1.00  0.00     0.135 A 
ATOM     72  C   UNL A   1      43.129  34.783  29.068  1.00  0.00     0.135 A 
ATOM     73  F   UNL A   1      43.391  31.189  29.593  1.00  0.00    -0.206 F 
ATOM     74  C   UNL A   1      43.969  32.489  27.726  1.00  0.00     0.059 A 
ATOM     75  C   UNL A   1      43.623  34.894  27.773  1.00  0.00     0.059 A 
ATOM     76  F   UNL A   1      42.739  35.902  29.698  1.00  0.00    -0.206 F 
ATOM     77  C   UNL A   1      44.033  33.740  27.108  1.00  0.00     0.060 A 
BRANCH  77  78
ATOM     78  S   UNL A   1      44.622  33.825  25.404  1.00  0.00     0.124 S 
ATOM     79  O   UNL A   1      43.407  34.206  24.691  1.00  0.00    -0.237 OA
ATOM     80  O   UNL A   1      45.657  34.850  25.487  1.00  0.00    -0.237 OA
ATOM     81  O   UNL A   1      45.103  32.471  25.142  1.00  0.00    -0.744 OA
ENDBRANCH  77  78
ENDBRANCH  56  70
BRANCH  57  82
ATOM     82  C   UNL A   1      38.142  32.930  38.472  1.00  0.00     0.058 A 
ATOM     83  C   UNL A   1      37.399  31.791  38.815  1.00  0.00     0.135 A 
ATOM     84  C   UNL A   1      38.171  33.988  39.396  1.00  0.00     0.135 A 
ATOM     85  F   UNL A   1      37.327  30.756  37.965  1.00  0.00    -0.206 F 
ATOM     86  C   UNL A   1      36.688  31.715  40.010  1.00  0.00     0.059 A 
ATOM     87  C   UNL A   1      37.493  33.923  40.610  1.00  0.00     0.059 A 
ATOM     88  F   UNL A   1      38.871  35.101  39.125  1.00  0.00    -0.206 F 
ATOM     89  C   UNL A   1      36.740  32.788  40.902  1.00  0.00     0.060 A 
BRANCH  89  90
ATOM     90  S   UNL A   1      35.826  32.672  42.455  1.00  0.00     0.124 S 
ATOM     91  O   UNL A   1      34.897  31.584  42.170  1.00  0.00    -0.237 OA
ATOM     92  O   UNL A   1      36.887  32.374  43.411  1.00  0.00    -0.237 OA
ATOM     93  O   UNL A   1      35.225  33.996  42.590  1.00  0.00    -0.744 OA
ENDBRANCH  89  90
ENDBRANCH  57  82
BRANCH  69  94
ATOM     94  C   UNL A   1      44.872  33.383  36.640  1.00  0.00     0.058 A 
ATOM     95  C   UNL A   1      45.397  34.589  37.129  1.00  0.00     0.135 A 
ATOM     96  C   UNL A   1      45.519  32.189  37.000  1.00  0.00     0.135 A 
ATOM     97  F   UNL A   1      44.815  35.757  36.812  1.00  0.00    -0.206 F 
ATOM     98  C   UNL A   1      46.529  34.612  37.934  1.00  0.00     0.059 A 
ATOM     99  C   UNL A   1      46.633  32.186  37.831  1.00  0.00     0.059 A 
ATOM    100  F   UNL A   1      45.045  31.008  36.572  1.00  0.00    -0.206 F 
ATOM    101  C   UNL A   1      47.136  33.405  38.285  1.00  0.00     0.060 A 
BRANCH 101 102
ATOM    102  S   UNL A   1      48.579  33.451  39.368  1.00  0.00     0.124 S 
ATOM    103  O   UNL A   1      48.158  32.575  40.457  1.00  0.00    -0.237 OA
ATOM    104  O   UNL A   1      49.632  32.927  38.503  1.00  0.00    -0.237 OA
ATOM    105  O   UNL A   1      48.703  34.865  39.713  1.00  0.00    -0.744 OA
ENDBRANCH 101 102
ENDBRANCH  69  94
ENDBRANCH  43  44
ENDBRANCH  36  38
ENDBRANCH  35  36
ENDBRANCH  34  35
ENDBRANCH  33  34
ENDBRANCH  32  33
ENDBRANCH  31  32
ENDBRANCH  30  31
ENDBRANCH  29  30
ENDBRANCH   1  29
TORSDOF 27
ENDMDL
MODEL 2
REMARK VINA RESULT:      -8.3      6.167     11.118
REMARK SMILES Cc1nc(-c2ccc(C(F)(F)F)cc2)nc(SCC(=O)OCCOCCOCCOCCOC(=O)c2ccc(-c3c4nc(c(-c5c(F)cc(S(=O)(=O)[O-])cc5F)c5ccc([nH]5)c(-c5c(F)cc(S(=O)(=O)[O-])cc5F)c5nc(c(-c6c(F)cc(S(=O)(=O)[O-])cc6F)c6ccc3[nH]6)C=C5)C=C4)cc2)c1C
REMARK SMILES IDX 26 1 25 2 24 3 23 4 22 5 21 6 19 7 20 8 18 9 17 10 16 11
REMARK SMILES IDX 1 12 2 13 3 14 102 15 4 16 103 17 15 18 5 19 6 20 14 21 7 22
REMARK SMILES IDX 13 23 8 24 9 25 10 26 11 27 12 28 27 29 28 30 29 31 30 32
REMARK SMILES IDX 31 33 32 34 33 35 34 36 35 37 36 38 37 39 101 40 38 41
REMARK SMILES IDX 100 42 39 43 40 44 41 45 94 46 42 47 99 48 93 49 95 50 43 51
REMARK SMILES IDX 98 52 92 53 91 54 44 56 78 57 57 58 77 59 58 60 61 61 76 62
REMARK SMILES IDX 96 63 59 64 60 65 75 67 97 68 62 69 45 70 46 71 55 72 47 73
REMARK SMILES IDX 48 74 54 75 56 76 49 77 50 78 51 79 52 80 53 81 79 82 80 83
REMARK SMILES IDX 89 84 81 85 82 86 88 87 90 88 83 89 84 90 85 91 86 92 87 93
REMARK SMILES IDX 63 94 64 95 73 96 65 97 66 98 72 99 74 100 67 101 68 102
REMARK SMILES IDX 69 103 70 104 71 105
REMARK H PARENT 95 55 61 66
REMARK Flexibility Score: inf
ROOT
ATOM      1  C   UNL A   1      34.825  30.874  27.837  1.00  0.00     0.188 C 
ENDROOT
BRANCH   1   2
ATOM      2  C   UNL A   1      33.579  30.121  27.357  1.00  0.00     0.188 C 
BRANCH   2   3
ATOM      3  O   UNL A   1      33.113  30.334  26.041  1.00  0.00    -0.376 OA
BRANCH   3   4
ATOM      4  C   UNL A   1      33.300  29.348  25.041  1.00  0.00     0.202 C 
BRANCH   4   5
ATOM      5  C   UNL A   1      32.132  28.591  24.371  1.00  0.00     0.261 C 
BRANCH   5   6
ATOM      6  O   UNL A   1      32.400  27.825  23.168  1.00  0.00    -0.463 OA
BRANCH   6   7
ATOM      7  C   UNL A   1      32.175  26.484  23.227  1.00  0.00     0.316 C 
ATOM      8  O   UNL A   1      31.047  25.995  23.175  1.00  0.00    -0.251 OA
BRANCH   7   9
ATOM      9  C   UNL A   1      33.389  25.601  23.482  1.00  0.00     0.199 C 
BRANCH   9  10
ATOM     10  S   UNL A   1      33.544  23.956  22.713  1.00  0.00    -0.094 SA
BRANCH  10  11
ATOM     11  C   UNL A   1      34.074  22.651  23.856  1.00  0.00     0.104 A 
ATOM     12  C   UNL A   1      34.109  18.969  24.679  1.00  0.00     0.067 C 
ATOM     13  C   UNL A   1      34.406  20.443  24.627  1.00  0.00     0.045 A 
ATOM     14  N   UNL A   1      35.614  20.770  25.128  1.00  0.00    -0.233 NA
ATOM     15  C   UNL A   1      33.534  21.376  24.047  1.00  0.00     0.003 A 
ATOM     16  C   UNL A   1      35.991  22.050  25.038  1.00  0.00     0.160 A 
ATOM     17  C   UNL A   1      32.159  20.965  23.635  1.00  0.00     0.049 C 
ATOM     18  N   UNL A   1      35.272  22.998  24.414  1.00  0.00    -0.221 NA
BRANCH  16  19
ATOM     19  C   UNL A   1      37.304  22.378  25.633  1.00  0.00     0.019 A 
ATOM     20  C   UNL A   1      37.618  23.695  26.016  1.00  0.00     0.012 A 
ATOM     21  C   UNL A   1      38.328  21.428  25.759  1.00  0.00     0.012 A 
ATOM     22  C   UNL A   1      38.880  24.062  26.497  1.00  0.00     0.014 A 
ATOM     23  C   UNL A   1      39.606  21.789  26.231  1.00  0.00     0.014 A 
ATOM     24  C   UNL A   1      39.895  23.112  26.601  1.00  0.00     0.056 A 
BRANCH  24  25
ATOM     25  C   UNL A   1      41.256  23.532  27.101  1.00  0.00     0.416 C 
ATOM     26  F   UNL A   1      41.945  24.267  26.182  1.00  0.00    -0.166 F 
ATOM     27  F   UNL A   1      41.189  24.305  28.219  1.00  0.00    -0.166 F 
ATOM     28  F   UNL A   1      42.069  22.485  27.418  1.00  0.00    -0.166 F 
ENDBRANCH  24  25
ENDBRANCH  16  19
ENDBRANCH  10  11
ENDBRANCH   9  10
ENDBRANCH   7   9
ENDBRANCH   6   7
ENDBRANCH   5   6
ENDBRANCH   4   5
ENDBRANCH   3   4
ENDBRANCH   2   3
ENDBRANCH   1   2
BRANCH   1  29
ATOM     29  O   UNL A   1      34.948  32.254  27.625  1.00  0.00    -0.377 OA
BRANCH  29  30
ATOM     30  C   UNL A   1      34.375  33.059  28.623  1.00  0.00     0.188 C 
BRANCH  30  31
ATOM     31  C   UNL A   1      34.727  32.532  30.011  1.00  0.00     0.188 C 
BRANCH  31  32
ATOM     32  O   UNL A   1      35.804  33.150  30.690  1.00  0.00    -0.376 OA
BRANCH  32  33
ATOM     33  C   UNL A   1      37.158  32.876  30.361  1.00  0.00     0.202 C 
BRANCH  33  34
ATOM     34  C   UNL A   1      37.791  31.520  29.992  1.00  0.00     0.261 C 
BRANCH  34  35
ATOM     35  O   UNL A   1      38.287  30.658  31.010  1.00  0.00    -0.460 OA
BRANCH  35  36
ATOM     36  C   UNL A   1      39.301  31.099  31.773  1.00  0.00     0.338 C 
ATOM     37  O   UNL A   1      39.232  31.596  32.883  1.00  0.00    -0.246 OA
BRANCH  36  38
ATOM     38  C   UNL A   1      40.536  30.643  31.105  1.00  0.00     0.060 A 
ATOM     39  C   UNL A   1      41.418  29.858  31.854  1.00  0.00     0.016 A 
ATOM     40  C   UNL A   1      40.775  30.893  29.748  1.00  0.00     0.016 A 
ATOM     41  C   UNL A   1      42.539  29.307  31.250  1.00  0.00     0.010 A 
ATOM     42  C   UNL A   1      41.942  30.397  29.158  1.00  0.00     0.010 A 
ATOM     43  C   UNL A   1      42.836  29.624  29.918  1.00  0.00    -0.014 A 
BRANCH  43  44
ATOM     44  C   UNL A   1      44.227  29.392  29.474  1.00  0.00     0.031 A 
ATOM     45  C   UNL A   1      44.498  28.094  28.764  1.00  0.00     0.074 A 
ATOM     46  C   UNL A   1      45.167  30.347  29.573  1.00  0.00     0.049 A 
ATOM     47  N   UNL A   1      45.594  27.676  28.192  1.00  0.00    -0.248 NA
ATOM     48  C   UNL A   1      43.369  27.148  28.662  1.00  0.00     0.031 C 
ATOM     49  C   UNL A   1      44.979  31.665  30.180  1.00  0.00     0.029 A 
ATOM     50  N   UNL A   1      46.471  30.359  29.146  1.00  0.00    -0.354 N 
ATOM     51  C   UNL A   1      45.282  26.434  27.654  1.00  0.00     0.074 A 
ATOM     52  C   UNL A   1      43.907  26.147  27.984  1.00  0.00     0.031 C 
ATOM     53  C   UNL A   1      46.131  32.354  30.094  1.00  0.00     0.029 A 
ATOM     54  C   UNL A   1      47.142  31.521  29.444  1.00  0.00     0.049 A 
ATOM     55  H   UNL A   1      46.887  29.605  28.668  1.00  0.00     0.167 HD
ATOM     56  C   UNL A   1      46.075  25.610  26.935  1.00  0.00     0.037 A 
ATOM     57  C   UNL A   1      48.431  31.854  29.228  1.00  0.00     0.037 A 
ATOM     58  C   UNL A   1      47.444  25.905  26.620  1.00  0.00     0.049 A 
ATOM     59  C   UNL A   1      49.322  30.869  28.509  1.00  0.00     0.074 A 
ATOM     60  C   UNL A   1      48.344  25.134  25.911  1.00  0.00     0.029 A 
ATOM     61  N   UNL A   1      48.109  27.060  27.001  1.00  0.00    -0.354 N 
ATOM     62  N   UNL A   1      49.014  29.702  27.994  1.00  0.00    -0.248 NA
ATOM     63  C   UNL A   1      50.734  31.243  28.341  1.00  0.00     0.031 C 
ATOM     64  C   UNL A   1      49.573  25.799  25.908  1.00  0.00     0.029 A 
ATOM     65  C   UNL A   1      49.420  27.011  26.565  1.00  0.00     0.049 A 
ATOM     66  H   UNL A   1      47.708  27.804  27.506  1.00  0.00     0.167 HD
ATOM     67  C   UNL A   1      50.185  29.214  27.422  1.00  0.00     0.074 A 
ATOM     68  C   UNL A   1      51.203  30.222  27.637  1.00  0.00     0.031 C 
ATOM     69  C   UNL A   1      50.405  28.039  26.782  1.00  0.00     0.037 A 
BRANCH  56  70
ATOM     70  C   UNL A   1      45.500  24.311  26.457  1.00  0.00     0.058 A 
ATOM     71  C   UNL A   1      45.102  24.130  25.123  1.00  0.00     0.135 A 
ATOM     72  C   UNL A   1      45.433  23.206  27.320  1.00  0.00     0.135 A 
ATOM     73  F   UNL A   1      45.114  25.164  24.268  1.00  0.00    -0.206 F 
ATOM     74  C   UNL A   1      44.680  22.890  24.656  1.00  0.00     0.059 A 
ATOM     75  C   UNL A   1      45.035  21.952  26.869  1.00  0.00     0.059 A 
ATOM     76  F   UNL A   1      45.782  23.335  28.610  1.00  0.00    -0.206 F 
ATOM     77  C   UNL A   1      44.667  21.803  25.533  1.00  0.00     0.060 A 
BRANCH  77  78
ATOM     78  S   UNL A   1      44.204  20.184  24.885  1.00  0.00     0.124 S 
ATOM     79  O   UNL A   1      44.486  20.345  23.462  1.00  0.00    -0.237 OA
ATOM     80  O   UNL A   1      45.101  19.293  25.612  1.00  0.00    -0.237 OA
ATOM     81  O   UNL A   1      42.791  20.068  25.233  1.00  0.00    -0.744 OA
ENDBRANCH  77  78
ENDBRANCH  56  70
BRANCH  57  82
ATOM     82  C   UNL A   1      48.974  33.152  29.724  1.00  0.00     0.058 A 
ATOM     83  C   UNL A   1      49.423  33.307  31.044  1.00  0.00     0.135 A 
ATOM     84  C   UNL A   1      49.013  34.282  28.890  1.00  0.00     0.135 A 
ATOM     85  F   UNL A   1      49.397  32.264  31.888  1.00  0.00    -0.206 F 
ATOM     86  C   UNL A   1      49.865  34.536  31.527  1.00  0.00     0.059 A 
ATOM     87  C   UNL A   1      49.479  35.513  29.340  1.00  0.00     0.059 A 
ATOM     88  F   UNL A   1      48.603  34.193  27.615  1.00  0.00    -0.206 F 
ATOM     89  C   UNL A   1      49.888  35.635  30.667  1.00  0.00     0.060 A 
BRANCH  89  90
ATOM     90  S   UNL A   1      50.476  37.221  31.299  1.00  0.00     0.124 S 
ATOM     91  O   UNL A   1      51.139  36.818  32.534  1.00  0.00    -0.237 OA
ATOM     92  O   UNL A   1      51.350  37.673  30.222  1.00  0.00    -0.237 OA
ATOM     93  O   UNL A   1      49.248  37.994  31.465  1.00  0.00    -0.744 OA
ENDBRANCH  89  90
ENDBRANCH  57  82
BRANCH  69  94
ATOM     94  C   UNL A   1      51.785  27.781  26.246  1.00  0.00     0.058 A 
ATOM     95  C   UNL A   1      52.703  26.977  26.938  1.00  0.00     0.135 A 
ATOM     96  C   UNL A   1      52.156  28.263  24.979  1.00  0.00     0.135 A 
ATOM     97  F   UNL A   1      52.396  26.493  28.153  1.00  0.00    -0.206 F 
ATOM     98  C   UNL A   1      53.948  26.673  26.401  1.00  0.00     0.059 A 
ATOM     99  C   UNL A   1      53.383  27.945  24.409  1.00  0.00     0.059 A 
ATOM    100  F   UNL A   1      51.306  29.022  24.269  1.00  0.00    -0.206 F 
ATOM    101  C   UNL A   1      54.276  27.156  25.133  1.00  0.00     0.060 A 
BRANCH 101 102
ATOM    102  S   UNL A   1      55.880  26.714  24.433  1.00  0.00     0.124 S 
ATOM    103  O   UNL A   1      55.586  26.709  23.004  1.00  0.00    -0.237 OA
ATOM    104  O   UNL A   1      56.733  27.802  24.902  1.00  0.00    -0.237 OA
ATOM    105  O   UNL A   1      56.161  25.407  25.020  1.00  0.00    -0.744 OA
ENDBRANCH 101 102
ENDBRANCH  69  94
ENDBRANCH  43  44
ENDBRANCH  36  38
ENDBRANCH  35  36
ENDBRANCH  34  35
ENDBRANCH  33  34
ENDBRANCH  32  33
ENDBRANCH  31  32
ENDBRANCH  30  31
ENDBRANCH  29  30
ENDBRANCH   1  29
TORSDOF 27
ENDMDL
MODEL 3
REMARK VINA RESULT:      -8.2      5.954      9.451
REMARK SMILES Cc1nc(-c2ccc(C(F)(F)F)cc2)nc(SCC(=O)OCCOCCOCCOCCOC(=O)c2ccc(-c3c4nc(c(-c5c(F)cc(S(=O)(=O)[O-])cc5F)c5ccc([nH]5)c(-c5c(F)cc(S(=O)(=O)[O-])cc5F)c5nc(c(-c6c(F)cc(S(=O)(=O)[O-])cc6F)c6ccc3[nH]6)C=C5)C=C4)cc2)c1C
REMARK SMILES IDX 26 1 25 2 24 3 23 4 22 5 21 6 19 7 20 8 18 9 17 10 16 11
REMARK SMILES IDX 1 12 2 13 3 14 102 15 4 16 103 17 15 18 5 19 6 20 14 21 7 22
REMARK SMILES IDX 13 23 8 24 9 25 10 26 11 27 12 28 27 29 28 30 29 31 30 32
REMARK SMILES IDX 31 33 32 34 33 35 34 36 35 37 36 38 37 39 101 40 38 41
REMARK SMILES IDX 100 42 39 43 40 44 41 45 94 46 42 47 99 48 93 49 95 50 43 51
REMARK SMILES IDX 98 52 92 53 91 54 44 56 78 57 57 58 77 59 58 60 61 61 76 62
REMARK SMILES IDX 96 63 59 64 60 65 75 67 97 68 62 69 45 70 46 71 55 72 47 73
REMARK SMILES IDX 48 74 54 75 56 76 49 77 50 78 51 79 52 80 53 81 79 82 80 83
REMARK SMILES IDX 89 84 81 85 82 86 88 87 90 88 83 89 84 90 85 91 86 92 87 93
REMARK SMILES IDX 63 94 64 95 73 96 65 97 66 98 72 99 74 100 67 101 68 102
REMARK SMILES IDX 69 103 70 104 71 105
REMARK H PARENT 95 55 61 66
REMARK Flexibility Score: inf
ROOT
ATOM      1  C   UNL A   1      34.778  31.106  27.979  1.00  0.00     0.188 C 
ENDROOT
BRANCH   1   2
ATOM      2  C   UNL A   1      33.664  30.145  27.552  1.00  0.00     0.188 C 
BRANCH   2   3
ATOM      3  O   UNL A   1      33.037  30.334  26.301  1.00  0.00    -0.376 OA
BRANCH   3   4
ATOM      4  C   UNL A   1      33.162  29.363  25.277  1.00  0.00     0.202 C 
BRANCH   4   5
ATOM      5  C   UNL A   1      31.967  28.556  24.725  1.00  0.00     0.261 C 
BRANCH   5   6
ATOM      6  O   UNL A   1      32.181  27.691  23.580  1.00  0.00    -0.463 OA
BRANCH   6   7
ATOM      7  C   UNL A   1      31.971  26.360  23.763  1.00  0.00     0.316 C 
ATOM      8  O   UNL A   1      30.849  25.877  23.916  1.00  0.00    -0.251 OA
BRANCH   7   9
ATOM      9  C   UNL A   1      33.212  25.487  23.894  1.00  0.00     0.199 C 
BRANCH   9  10
ATOM     10  S   UNL A   1      33.321  23.864  23.070  1.00  0.00    -0.094 SA
BRANCH  10  11
ATOM     11  C   UNL A   1      34.048  22.559  24.098  1.00  0.00     0.104 A 
ATOM     12  C   UNL A   1      34.595  18.863  24.627  1.00  0.00     0.067 C 
ATOM     13  C   UNL A   1      34.691  20.364  24.688  1.00  0.00     0.045 A 
ATOM     14  N   UNL A   1      35.856  20.811  25.196  1.00  0.00    -0.233 NA
ATOM     15  C   UNL A   1      33.687  21.212  24.195  1.00  0.00     0.003 A 
ATOM     16  C   UNL A   1      36.057  22.133  25.202  1.00  0.00     0.160 A 
ATOM     17  C   UNL A   1      32.370  20.652  23.772  1.00  0.00     0.049 C 
ATOM     18  N   UNL A   1      35.203  23.020  24.665  1.00  0.00    -0.221 NA
BRANCH  16  19
ATOM     19  C   UNL A   1      37.329  22.589  25.802  1.00  0.00     0.019 A 
ATOM     20  C   UNL A   1      37.535  23.944  26.122  1.00  0.00     0.012 A 
ATOM     21  C   UNL A   1      38.417  21.727  25.996  1.00  0.00     0.012 A 
ATOM     22  C   UNL A   1      38.755  24.429  26.606  1.00  0.00     0.014 A 
ATOM     23  C   UNL A   1      39.654  22.207  26.470  1.00  0.00     0.014 A 
ATOM     24  C   UNL A   1      39.836  23.564  26.777  1.00  0.00     0.056 A 
BRANCH  24  25
ATOM     25  C   UNL A   1      41.151  24.111  27.279  1.00  0.00     0.416 C 
ATOM     26  F   UNL A   1      42.076  24.239  26.285  1.00  0.00    -0.166 F 
ATOM     27  F   UNL A   1      41.028  25.348  27.833  1.00  0.00    -0.166 F 
ATOM     28  F   UNL A   1      41.740  23.331  28.229  1.00  0.00    -0.166 F 
ENDBRANCH  24  25
ENDBRANCH  16  19
ENDBRANCH  10  11
ENDBRANCH   9  10
ENDBRANCH   7   9
ENDBRANCH   6   7
ENDBRANCH   5   6
ENDBRANCH   4   5
ENDBRANCH   3   4
ENDBRANCH   2   3
ENDBRANCH   1   2
BRANCH   1  29
ATOM     29  O   UNL A   1      34.776  32.438  27.543  1.00  0.00    -0.377 OA
BRANCH  29  30
ATOM     30  C   UNL A   1      34.189  33.352  28.433  1.00  0.00     0.188 C 
BRANCH  30  31
ATOM     31  C   UNL A   1      34.617  33.059  29.868  1.00  0.00     0.188 C 
BRANCH  31  32
ATOM     32  O   UNL A   1      35.667  33.839  30.408  1.00  0.00    -0.376 OA
BRANCH  32  33
ATOM     33  C   UNL A   1      36.994  33.767  29.906  1.00  0.00     0.202 C 
BRANCH  33  34
ATOM     34  C   UNL A   1      37.764  32.519  29.432  1.00  0.00     0.261 C 
BRANCH  34  35
ATOM     35  O   UNL A   1      37.993  31.434  30.325  1.00  0.00    -0.460 OA
BRANCH  35  36
ATOM     36  C   UNL A   1      38.675  31.679  31.456  1.00  0.00     0.338 C 
ATOM     37  O   UNL A   1      38.237  32.117  32.505  1.00  0.00    -0.246 OA
BRANCH  36  38
ATOM     38  C   UNL A   1      40.013  31.089  31.256  1.00  0.00     0.060 A 
ATOM     39  C   UNL A   1      40.340  29.966  32.024  1.00  0.00     0.016 A 
ATOM     40  C   UNL A   1      40.887  31.561  30.269  1.00  0.00     0.016 A 
ATOM     41  C   UNL A   1      41.537  29.301  31.802  1.00  0.00     0.010 A 
ATOM     42  C   UNL A   1      42.124  30.933  30.095  1.00  0.00     0.010 A 
ATOM     43  C   UNL A   1      42.457  29.817  30.880  1.00  0.00    -0.014 A 
BRANCH  43  44
ATOM     44  C   UNL A   1      43.855  29.351  31.005  1.00  0.00     0.031 A 
ATOM     45  C   UNL A   1      44.260  28.197  30.129  1.00  0.00     0.074 A 
ATOM     46  C   UNL A   1      44.754  30.010  31.756  1.00  0.00     0.049 A 
ATOM     47  N   UNL A   1      45.434  27.652  29.967  1.00  0.00    -0.248 NA
ATOM     48  C   UNL A   1      43.197  27.592  29.300  1.00  0.00     0.031 C 
ATOM     49  C   UNL A   1      44.472  31.183  32.584  1.00  0.00     0.029 A 
ATOM     50  N   UNL A   1      46.097  29.793  31.930  1.00  0.00    -0.354 N 
ATOM     51  C   UNL A   1      45.254  26.656  29.015  1.00  0.00     0.074 A 
ATOM     52  C   UNL A   1      43.859  26.649  28.648  1.00  0.00     0.031 C 
ATOM     53  C   UNL A   1      45.610  31.577  33.185  1.00  0.00     0.029 A 
ATOM     54  C   UNL A   1      46.694  30.673  32.801  1.00  0.00     0.049 A 
ATOM     55  H   UNL A   1      46.590  29.073  31.471  1.00  0.00     0.167 HD
ATOM     56  C   UNL A   1      46.180  25.828  28.484  1.00  0.00     0.037 A 
ATOM     57  C   UNL A   1      47.967  30.722  33.245  1.00  0.00     0.037 A 
ATOM     58  C   UNL A   1      47.564  25.842  28.864  1.00  0.00     0.049 A 
ATOM     59  C   UNL A   1      48.959  29.718  32.708  1.00  0.00     0.074 A 
ATOM     60  C   UNL A   1      48.587  25.036  28.401  1.00  0.00     0.029 A 
ATOM     61  N   UNL A   1      48.116  26.700  29.802  1.00  0.00    -0.354 N 
ATOM     62  N   UNL A   1      48.781  28.789  31.798  1.00  0.00    -0.248 NA
ATOM     63  C   UNL A   1      50.323  29.766  33.254  1.00  0.00     0.031 C 
ATOM     64  C   UNL A   1      49.749  25.371  29.100  1.00  0.00     0.029 A 
ATOM     65  C   UNL A   1      49.462  26.425  29.954  1.00  0.00     0.049 A 
ATOM     66  H   UNL A   1      47.623  27.401  30.288  1.00  0.00     0.167 HD
ATOM     67  C   UNL A   1      50.012  28.158  31.647  1.00  0.00     0.074 A 
ATOM     68  C   UNL A   1      50.932  28.826  32.545  1.00  0.00     0.031 C 
ATOM     69  C   UNL A   1      50.355  27.119  30.846  1.00  0.00     0.037 A 
BRANCH  56  70
ATOM     70  C   UNL A   1      45.735  24.831  27.457  1.00  0.00     0.058 A 
ATOM     71  C   UNL A   1      45.984  25.022  26.090  1.00  0.00     0.135 A 
ATOM     72  C   UNL A   1      45.133  23.626  27.856  1.00  0.00     0.135 A 
ATOM     73  F   UNL A   1      46.524  26.172  25.655  1.00  0.00    -0.206 F 
ATOM     74  C   UNL A   1      45.675  24.042  25.154  1.00  0.00     0.059 A 
ATOM     75  C   UNL A   1      44.836  22.624  26.939  1.00  0.00     0.059 A 
ATOM     76  F   UNL A   1      44.855  23.407  29.150  1.00  0.00    -0.206 F 
ATOM     77  C   UNL A   1      45.117  22.838  25.592  1.00  0.00     0.060 A 
BRANCH  77  78
ATOM     78  S   UNL A   1      44.808  21.544  24.372  1.00  0.00     0.124 S 
ATOM     79  O   UNL A   1      46.115  20.900  24.289  1.00  0.00    -0.237 OA
ATOM     80  O   UNL A   1      43.756  20.763  25.014  1.00  0.00    -0.237 OA
ATOM     81  O   UNL A   1      44.399  22.286  23.183  1.00  0.00    -0.744 OA
ENDBRANCH  77  78
ENDBRANCH  56  70
BRANCH  57  82
ATOM     82  C   UNL A   1      48.375  31.723  34.272  1.00  0.00     0.058 A 
ATOM     83  C   UNL A   1      48.313  31.437  35.644  1.00  0.00     0.135 A 
ATOM     84  C   UNL A   1      48.800  33.008  33.897  1.00  0.00     0.135 A 
ATOM     85  F   UNL A   1      47.903  30.229  36.060  1.00  0.00    -0.206 F 
ATOM     86  C   UNL A   1      48.628  32.395  36.606  1.00  0.00     0.059 A 
ATOM     87  C   UNL A   1      49.150  33.972  34.838  1.00  0.00     0.059 A 
ATOM     88  F   UNL A   1      48.887  33.337  32.598  1.00  0.00    -0.206 F 
ATOM     89  C   UNL A   1      49.045  33.661  36.192  1.00  0.00     0.060 A 
BRANCH  89  90
ATOM     90  S   UNL A   1      49.466  34.890  37.447  1.00  0.00     0.124 S 
ATOM     91  O   UNL A   1      48.557  34.529  38.529  1.00  0.00    -0.237 OA
ATOM     92  O   UNL A   1      50.879  34.614  37.680  1.00  0.00    -0.237 OA
ATOM     93  O   UNL A   1      49.184  36.159  36.782  1.00  0.00    -0.744 OA
ENDBRANCH  89  90
ENDBRANCH  57  82
BRANCH  69  94
ATOM     94  C   UNL A   1      51.782  26.650  30.879  1.00  0.00     0.058 A 
ATOM     95  C   UNL A   1      52.213  25.676  31.792  1.00  0.00     0.135 A 
ATOM     96  C   UNL A   1      52.703  27.108  29.922  1.00  0.00     0.135 A 
ATOM     97  F   UNL A   1      51.371  25.207  32.728  1.00  0.00    -0.206 F 
ATOM     98  C   UNL A   1      53.513  25.185  31.767  1.00  0.00     0.059 A 
ATOM     99  C   UNL A   1      53.998  26.607  29.857  1.00  0.00     0.059 A 
ATOM    100  F   UNL A   1      52.334  28.027  29.014  1.00  0.00    -0.206 F 
ATOM    101  C   UNL A   1      54.395  25.651  30.791  1.00  0.00     0.060 A 
BRANCH 101 102
ATOM    102  S   UNL A   1      56.065  24.968  30.746  1.00  0.00     0.124 S 
ATOM    103  O   UNL A   1      56.147  24.482  29.373  1.00  0.00    -0.237 OA
ATOM    104  O   UNL A   1      56.885  26.136  31.055  1.00  0.00    -0.237 OA
ATOM    105  O   UNL A   1      56.041  23.935  31.777  1.00  0.00    -0.744 OA
ENDBRANCH 101 102
ENDBRANCH  69  94
ENDBRANCH  43  44
ENDBRANCH  36  38
ENDBRANCH  35  36
ENDBRANCH  34  35
ENDBRANCH  33  34
ENDBRANCH  32  33
ENDBRANCH  31  32
ENDBRANCH  30  31
ENDBRANCH  29  30
ENDBRANCH   1  29
TORSDOF 27
ENDMDL
