MODEL 1
REMARK VINA RESULT:     -10.0      0.000      0.000
REMARK SMILES O=C(CSc1nc2ncccc2[nH]1)OCCOCCOCCOCCOC(=O)c1ccc(-c2c3nc(c(-c4c(F)cc(S(=O)(=O)[O-])cc4F)c4ccc([nH]4)c(-c4c(F)cc(S(=O)(=O)[O-])cc4F)c4nc(c(-c5c(F)cc(S(=O)(=O)[O-])cc5F)c5ccc2[nH]5)C=C4)C=C3)cc1
REMARK SMILES IDX 21 1 20 2 19 3 18 4 17 5 16 6 15 7 14 8 2 9 1 10 3 11 4 12
REMARK SMILES IDX 5 13 6 14 13 15 7 16 12 17 8 19 11 20 9 21 10 22 22 23 23 24
REMARK SMILES IDX 24 25 25 26 26 27 27 28 28 29 29 30 30 31 94 32 31 33 93 34
REMARK SMILES IDX 32 35 33 36 34 37 87 38 35 39 92 40 86 41 88 42 36 43 91 44
REMARK SMILES IDX 85 45 84 46 37 48 71 49 50 50 70 51 51 52 54 53 69 54 89 55
REMARK SMILES IDX 52 56 53 57 68 59 90 60 55 61 38 62 39 63 48 64 40 65 41 66
REMARK SMILES IDX 47 67 49 68 42 69 43 70 44 71 45 72 46 73 72 74 73 75 82 76
REMARK SMILES IDX 74 77 75 78 81 79 83 80 76 81 77 82 78 83 79 84 80 85 56 86
REMARK SMILES IDX 57 87 66 88 58 89 59 90 65 91 67 92 60 93 61 94 62 95 63 96
REMARK SMILES IDX 64 97
REMARK H PARENT 13 18 88 47 54 58
REMARK Flexibility Score: inf
ROOT
ATOM      1  C   UNL A   1      38.866  23.063  26.501  1.00  0.00     0.188 C 
ENDROOT
BRANCH   1   2
ATOM      2  O   UNL A   1      38.031  24.081  26.009  1.00  0.00    -0.377 OA
BRANCH   2   3
ATOM      3  C   UNL A   1      36.861  23.741  25.297  1.00  0.00     0.188 C 
BRANCH   3   4
ATOM      4  C   UNL A   1      35.538  23.357  25.979  1.00  0.00     0.188 C 
BRANCH   4   5
ATOM      5  O   UNL A   1      34.329  23.725  25.356  1.00  0.00    -0.376 OA
BRANCH   5   6
ATOM      6  C   UNL A   1      34.197  24.100  23.994  1.00  0.00     0.202 C 
BRANCH   6   7
ATOM      7  C   UNL A   1      32.930  23.800  23.196  1.00  0.00     0.261 C 
BRANCH   7   8
ATOM      8  O   UNL A   1      32.276  24.860  22.468  1.00  0.00    -0.463 OA
BRANCH   8   9
ATOM      9  C   UNL A   1      32.806  25.868  21.749  1.00  0.00     0.316 C 
ATOM     10  O   UNL A   1      33.249  25.644  20.621  1.00  0.00    -0.251 OA
BRANCH   9  11
ATOM     11  C   UNL A   1      32.956  27.243  22.350  1.00  0.00     0.200 C 
BRANCH  11  12
ATOM     12  S   UNL A   1      32.155  27.383  23.969  1.00  0.00    -0.076 SA
BRANCH  12  13
ATOM     13  C   UNL A   1      30.842  28.365  23.463  1.00  0.00     0.168 A 
ATOM     14  N   UNL A   1      30.265  28.345  22.291  1.00  0.00    -0.203 NA
ATOM     15  N   UNL A   1      30.476  29.433  24.225  1.00  0.00    -0.332 N 
ATOM     16  C   UNL A   1      29.504  29.482  22.281  1.00  0.00     0.178 A 
ATOM     17  C   UNL A   1      29.618  30.185  23.477  1.00  0.00     0.086 A 
ATOM     18  H   UNL A   1      30.775  29.627  25.143  1.00  0.00     0.169 HD
ATOM     19  N   UNL A   1      28.737  29.901  21.252  1.00  0.00    -0.235 NA
ATOM     20  C   UNL A   1      28.956  31.383  23.709  1.00  0.00     0.032 A 
ATOM     21  C   UNL A   1      28.095  31.066  21.483  1.00  0.00     0.114 A 
ATOM     22  C   UNL A   1      28.162  31.819  22.653  1.00  0.00     0.022 A 
ENDBRANCH  12  13
ENDBRANCH  11  12
ENDBRANCH   9  11
ENDBRANCH   8   9
ENDBRANCH   7   8
ENDBRANCH   6   7
ENDBRANCH   5   6
ENDBRANCH   4   5
ENDBRANCH   3   4
ENDBRANCH   2   3
ENDBRANCH   1   2
BRANCH   1  23
ATOM     23  C   UNL A   1      38.918  21.700  25.760  1.00  0.00     0.188 C 
BRANCH  23  24
ATOM     24  O   UNL A   1      39.303  20.449  26.311  1.00  0.00    -0.376 OA
BRANCH  24  25
ATOM     25  C   UNL A   1      40.170  19.472  25.761  1.00  0.00     0.202 C 
BRANCH  25  26
ATOM     26  C   UNL A   1      41.669  19.342  26.032  1.00  0.00     0.261 C 
BRANCH  26  27
ATOM     27  O   UNL A   1      42.391  20.501  25.720  1.00  0.00    -0.460 OA
BRANCH  27  28
ATOM     28  C   UNL A   1      42.572  21.274  26.800  1.00  0.00     0.338 C 
ATOM     29  O   UNL A   1      42.195  21.048  27.949  1.00  0.00    -0.246 OA
BRANCH  28  30
ATOM     30  C   UNL A   1      43.317  22.467  26.400  1.00  0.00     0.060 A 
ATOM     31  C   UNL A   1      44.304  22.841  27.313  1.00  0.00     0.016 A 
ATOM     32  C   UNL A   1      42.593  23.374  25.625  1.00  0.00     0.016 A 
ATOM     33  C   UNL A   1      44.236  24.118  27.786  1.00  0.00     0.010 A 
ATOM     34  C   UNL A   1      42.470  24.624  26.146  1.00  0.00     0.010 A 
ATOM     35  C   UNL A   1      43.218  24.931  27.283  1.00  0.00    -0.014 A 
BRANCH  35  36
ATOM     36  C   UNL A   1      42.988  26.184  27.940  1.00  0.00     0.031 A 
ATOM     37  C   UNL A   1      44.081  27.125  27.652  1.00  0.00     0.074 A 
ATOM     38  C   UNL A   1      41.852  26.419  28.618  1.00  0.00     0.049 A 
ATOM     39  N   UNL A   1      45.047  27.473  28.435  1.00  0.00    -0.248 NA
ATOM     40  C   UNL A   1      44.283  27.503  26.239  1.00  0.00     0.031 C 
ATOM     41  C   UNL A   1      40.635  25.604  28.674  1.00  0.00     0.029 A 
ATOM     42  N   UNL A   1      41.510  27.522  29.325  1.00  0.00    -0.354 N 
ATOM     43  C   UNL A   1      45.800  28.351  27.671  1.00  0.00     0.074 A 
ATOM     44  C   UNL A   1      45.476  28.091  26.296  1.00  0.00     0.031 C 
ATOM     45  C   UNL A   1      39.624  26.352  29.175  1.00  0.00     0.029 A 
ATOM     46  C   UNL A   1      40.149  27.645  29.579  1.00  0.00     0.049 A 
ATOM     47  H   UNL A   1      42.171  28.182  29.635  1.00  0.00     0.167 HD
ATOM     48  C   UNL A   1      46.318  29.478  28.226  1.00  0.00     0.037 A 
ATOM     49  C   UNL A   1      39.536  28.792  29.974  1.00  0.00     0.037 A 
ATOM     50  C   UNL A   1      46.402  29.375  29.659  1.00  0.00     0.049 A 
ATOM     51  C   UNL A   1      40.608  29.680  30.518  1.00  0.00     0.074 A 
ATOM     52  C   UNL A   1      46.998  28.475  30.522  1.00  0.00     0.029 A 
ATOM     53  N   UNL A   1      45.462  30.047  30.403  1.00  0.00    -0.354 N 
ATOM     54  N   UNL A   1      41.291  29.418  31.601  1.00  0.00    -0.248 NA
ATOM     55  C   UNL A   1      41.247  30.608  29.593  1.00  0.00     0.031 C 
ATOM     56  C   UNL A   1      46.081  28.328  31.602  1.00  0.00     0.029 A 
ATOM     57  C   UNL A   1      45.007  29.193  31.377  1.00  0.00     0.049 A 
ATOM     58  H   UNL A   1      45.167  30.975  30.262  1.00  0.00     0.167 HD
ATOM     59  C   UNL A   1      42.594  29.809  31.311  1.00  0.00     0.074 A 
ATOM     60  C   UNL A   1      42.489  30.597  30.085  1.00  0.00     0.031 C 
ATOM     61  C   UNL A   1      43.665  29.219  31.920  1.00  0.00     0.037 A 
BRANCH  48  62
ATOM     62  C   UNL A   1      46.341  30.781  27.477  1.00  0.00     0.058 A 
ATOM     63  C   UNL A   1      47.540  31.501  27.373  1.00  0.00     0.135 A 
ATOM     64  C   UNL A   1      45.175  31.462  27.047  1.00  0.00     0.135 A 
ATOM     65  F   UNL A   1      48.692  30.967  27.809  1.00  0.00    -0.206 F 
ATOM     66  C   UNL A   1      47.576  32.806  26.882  1.00  0.00     0.059 A 
ATOM     67  C   UNL A   1      45.197  32.727  26.484  1.00  0.00     0.059 A 
ATOM     68  F   UNL A   1      43.943  30.975  27.242  1.00  0.00    -0.206 F 
ATOM     69  C   UNL A   1      46.399  33.406  26.436  1.00  0.00     0.060 A 
BRANCH  69  70
ATOM     70  S   UNL A   1      46.430  35.107  25.854  1.00  0.00     0.124 S 
ATOM     71  O   UNL A   1      45.975  34.949  24.478  1.00  0.00    -0.237 OA
ATOM     72  O   UNL A   1      45.496  35.754  26.769  1.00  0.00    -0.237 OA
ATOM     73  O   UNL A   1      47.828  35.493  26.019  1.00  0.00    -0.744 OA
ENDBRANCH  69  70
ENDBRANCH  48  62
BRANCH  49  74
ATOM     74  C   UNL A   1      38.218  29.322  29.522  1.00  0.00     0.058 A 
ATOM     75  C   UNL A   1      37.230  29.683  30.458  1.00  0.00     0.135 A 
ATOM     76  C   UNL A   1      38.000  29.758  28.198  1.00  0.00     0.135 A 
ATOM     77  F   UNL A   1      37.361  29.327  31.744  1.00  0.00    -0.206 F 
ATOM     78  C   UNL A   1      36.128  30.476  30.116  1.00  0.00     0.059 A 
ATOM     79  C   UNL A   1      36.904  30.538  27.832  1.00  0.00     0.059 A 
ATOM     80  F   UNL A   1      38.895  29.521  27.230  1.00  0.00    -0.206 F 
ATOM     81  C   UNL A   1      35.987  30.919  28.802  1.00  0.00     0.060 A 
BRANCH  81  82
ATOM     82  S   UNL A   1      34.669  32.090  28.394  1.00  0.00     0.124 S 
ATOM     83  O   UNL A   1      35.379  33.072  27.580  1.00  0.00    -0.237 OA
ATOM     84  O   UNL A   1      33.716  31.243  27.686  1.00  0.00    -0.237 OA
ATOM     85  O   UNL A   1      34.225  32.570  29.700  1.00  0.00    -0.744 OA
ENDBRANCH  81  82
ENDBRANCH  49  74
BRANCH  61  86
ATOM     86  C   UNL A   1      43.412  28.348  33.126  1.00  0.00     0.058 A 
ATOM     87  C   UNL A   1      43.147  28.832  34.422  1.00  0.00     0.135 A 
ATOM     88  C   UNL A   1      43.263  26.969  32.917  1.00  0.00     0.135 A 
ATOM     89  F   UNL A   1      43.170  30.146  34.683  1.00  0.00    -0.206 F 
ATOM     90  C   UNL A   1      42.781  27.977  35.465  1.00  0.00     0.059 A 
ATOM     91  C   UNL A   1      42.870  26.104  33.934  1.00  0.00     0.059 A 
ATOM     92  F   UNL A   1      43.444  26.453  31.691  1.00  0.00    -0.206 F 
ATOM     93  C   UNL A   1      42.638  26.612  35.210  1.00  0.00     0.060 A 
BRANCH  93  94
ATOM     94  S   UNL A   1      42.084  25.516  36.534  1.00  0.00     0.124 S 
ATOM     95  O   UNL A   1      43.235  25.507  37.431  1.00  0.00    -0.237 OA
ATOM     96  O   UNL A   1      40.895  26.202  37.035  1.00  0.00    -0.237 OA
ATOM     97  O   UNL A   1      41.820  24.254  35.847  1.00  0.00    -0.744 OA
ENDBRANCH  93  94
ENDBRANCH  61  86
ENDBRANCH  35  36
ENDBRANCH  28  30
ENDBRANCH  27  28
ENDBRANCH  26  27
ENDBRANCH  25  26
ENDBRANCH  24  25
ENDBRANCH  23  24
ENDBRANCH   1  23
TORSDOF 25
ENDMDL
MODEL 2
REMARK VINA RESULT:     -10.0      1.583      2.876
REMARK SMILES O=C(CSc1nc2ncccc2[nH]1)OCCOCCOCCOCCOC(=O)c1ccc(-c2c3nc(c(-c4c(F)cc(S(=O)(=O)[O-])cc4F)c4ccc([nH]4)c(-c4c(F)cc(S(=O)(=O)[O-])cc4F)c4nc(c(-c5c(F)cc(S(=O)(=O)[O-])cc5F)c5ccc2[nH]5)C=C4)C=C3)cc1
REMARK SMILES IDX 21 1 20 2 19 3 18 4 17 5 16 6 15 7 14 8 2 9 1 10 3 11 4 12
REMARK SMILES IDX 5 13 6 14 13 15 7 16 12 17 8 19 11 20 9 21 10 22 22 23 23 24
REMARK SMILES IDX 24 25 25 26 26 27 27 28 28 29 29 30 30 31 94 32 31 33 93 34
REMARK SMILES IDX 32 35 33 36 34 37 87 38 35 39 92 40 86 41 88 42 36 43 91 44
REMARK SMILES IDX 85 45 84 46 37 48 71 49 50 50 70 51 51 52 54 53 69 54 89 55
REMARK SMILES IDX 52 56 53 57 68 59 90 60 55 61 38 62 39 63 48 64 40 65 41 66
REMARK SMILES IDX 47 67 49 68 42 69 43 70 44 71 45 72 46 73 72 74 73 75 82 76
REMARK SMILES IDX 74 77 75 78 81 79 83 80 76 81 77 82 78 83 79 84 80 85 56 86
REMARK SMILES IDX 57 87 66 88 58 89 59 90 65 91 67 92 60 93 61 94 62 95 63 96
REMARK SMILES IDX 64 97
REMARK H PARENT 13 18 88 47 54 58
REMARK Flexibility Score: inf
ROOT
ATOM      1  C   UNL A   1      41.959  19.417  26.814  1.00  0.00     0.188 C 
ENDROOT
BRANCH   1   2
ATOM      2  O   UNL A   1      40.771  20.011  26.357  1.00  0.00    -0.377 OA
BRANCH   2   3
ATOM      3  C   UNL A   1      40.719  21.407  26.162  1.00  0.00     0.188 C 
BRANCH   3   4
ATOM      4  C   UNL A   1      39.700  22.321  26.862  1.00  0.00     0.188 C 
BRANCH   4   5
ATOM      5  O   UNL A   1      38.622  22.827  26.109  1.00  0.00    -0.376 OA
BRANCH   5   6
ATOM      6  C   UNL A   1      37.702  22.037  25.372  1.00  0.00     0.202 C 
BRANCH   6   7
ATOM      7  C   UNL A   1      36.873  22.621  24.231  1.00  0.00     0.261 C 
BRANCH   7   8
ATOM      8  O   UNL A   1      35.570  22.072  23.941  1.00  0.00    -0.463 OA
BRANCH   8   9
ATOM      9  C   UNL A   1      34.511  21.888  24.753  1.00  0.00     0.316 C 
ATOM     10  O   UNL A   1      34.389  20.824  25.362  1.00  0.00    -0.251 OA
BRANCH   9  11
ATOM     11  C   UNL A   1      33.424  22.930  24.845  1.00  0.00     0.200 C 
BRANCH  11  12
ATOM     12  S   UNL A   1      33.742  24.151  26.145  1.00  0.00    -0.076 SA
BRANCH  12  13
ATOM     13  C   UNL A   1      32.685  25.365  25.547  1.00  0.00     0.168 A 
ATOM     14  N   UNL A   1      32.013  25.326  24.428  1.00  0.00    -0.203 NA
ATOM     15  N   UNL A   1      32.684  26.594  26.133  1.00  0.00    -0.332 N 
ATOM     16  C   UNL A   1      31.574  26.611  24.262  1.00  0.00     0.178 A 
ATOM     17  C   UNL A   1      31.982  27.429  25.313  1.00  0.00     0.086 A 
ATOM     18  H   UNL A   1      33.109  26.836  26.987  1.00  0.00     0.169 HD
ATOM     19  N   UNL A   1      30.847  27.062  23.218  1.00  0.00    -0.235 NA
ATOM     20  C   UNL A   1      31.678  28.782  25.371  1.00  0.00     0.032 A 
ATOM     21  C   UNL A   1      30.554  28.378  23.280  1.00  0.00     0.114 A 
ATOM     22  C   UNL A   1      30.925  29.252  24.299  1.00  0.00     0.022 A 
ENDBRANCH  12  13
ENDBRANCH  11  12
ENDBRANCH   9  11
ENDBRANCH   8   9
ENDBRANCH   7   8
ENDBRANCH   6   7
ENDBRANCH   5   6
ENDBRANCH   4   5
ENDBRANCH   3   4
ENDBRANCH   2   3
ENDBRANCH   1   2
BRANCH   1  23
ATOM     23  C   UNL A   1      42.818  18.580  25.830  1.00  0.00     0.188 C 
BRANCH  23  24
ATOM     24  O   UNL A   1      44.235  18.477  25.816  1.00  0.00    -0.376 OA
BRANCH  24  25
ATOM     25  C   UNL A   1      45.133  18.805  24.769  1.00  0.00     0.202 C 
BRANCH  25  26
ATOM     26  C   UNL A   1      45.274  20.170  24.096  1.00  0.00     0.261 C 
BRANCH  26  27
ATOM     27  O   UNL A   1      45.909  21.123  24.902  1.00  0.00    -0.460 OA
BRANCH  27  28
ATOM     28  C   UNL A   1      45.449  22.358  24.660  1.00  0.00     0.338 C 
ATOM     29  O   UNL A   1      45.943  23.203  23.915  1.00  0.00    -0.246 OA
BRANCH  28  30
ATOM     30  C   UNL A   1      44.226  22.561  25.435  1.00  0.00     0.060 A 
ATOM     31  C   UNL A   1      43.319  23.432  24.830  1.00  0.00     0.016 A 
ATOM     32  C   UNL A   1      44.385  22.444  26.817  1.00  0.00     0.016 A 
ATOM     33  C   UNL A   1      42.920  24.501  25.575  1.00  0.00     0.010 A 
ATOM     34  C   UNL A   1      44.052  23.545  27.541  1.00  0.00     0.010 A 
ATOM     35  C   UNL A   1      43.421  24.595  26.875  1.00  0.00    -0.014 A 
BRANCH  35  36
ATOM     36  C   UNL A   1      43.204  25.826  27.579  1.00  0.00     0.031 A 
ATOM     37  C   UNL A   1      44.317  26.759  27.342  1.00  0.00     0.074 A 
ATOM     38  C   UNL A   1      42.063  26.053  28.252  1.00  0.00     0.049 A 
ATOM     39  N   UNL A   1      45.277  27.058  28.150  1.00  0.00    -0.248 NA
ATOM     40  C   UNL A   1      44.542  27.188  25.948  1.00  0.00     0.031 C 
ATOM     41  C   UNL A   1      40.832  25.257  28.260  1.00  0.00     0.029 A 
ATOM     42  N   UNL A   1      41.731  27.132  28.998  1.00  0.00    -0.354 N 
ATOM     43  C   UNL A   1      46.055  27.953  27.431  1.00  0.00     0.074 A 
ATOM     44  C   UNL A   1      45.744  27.754  26.042  1.00  0.00     0.031 C 
ATOM     45  C   UNL A   1      39.827  26.002  28.779  1.00  0.00     0.029 A 
ATOM     46  C   UNL A   1      40.369  27.268  29.240  1.00  0.00     0.049 A 
ATOM     47  H   UNL A   1      42.398  27.769  29.342  1.00  0.00     0.167 HD
ATOM     48  C   UNL A   1      46.584  29.048  28.037  1.00  0.00     0.037 A 
ATOM     49  C   UNL A   1      39.770  28.410  29.673  1.00  0.00     0.037 A 
ATOM     50  C   UNL A   1      46.648  28.887  29.465  1.00  0.00     0.049 A 
ATOM     51  C   UNL A   1      40.849  29.257  30.265  1.00  0.00     0.074 A 
ATOM     52  C   UNL A   1      47.218  27.943  30.299  1.00  0.00     0.029 A 
ATOM     53  N   UNL A   1      45.710  29.545  30.224  1.00  0.00    -0.354 N 
ATOM     54  N   UNL A   1      41.514  28.941  31.345  1.00  0.00    -0.248 NA
ATOM     55  C   UNL A   1      41.515  30.209  29.386  1.00  0.00     0.031 C 
ATOM     56  C   UNL A   1      46.284  27.770  31.361  1.00  0.00     0.029 A 
ATOM     57  C   UNL A   1      45.228  28.660  31.158  1.00  0.00     0.049 A 
ATOM     58  H   UNL A   1      45.432  30.483  30.116  1.00  0.00     0.167 HD
ATOM     59  C   UNL A   1      42.827  29.320  31.086  1.00  0.00     0.074 A 
ATOM     60  C   UNL A   1      42.751  30.157  29.892  1.00  0.00     0.031 C 
ATOM     61  C   UNL A   1      43.880  28.688  31.685  1.00  0.00     0.037 A 
BRANCH  48  62
ATOM     62  C   UNL A   1      46.639  30.379  27.340  1.00  0.00     0.058 A 
ATOM     63  C   UNL A   1      47.854  31.073  27.264  1.00  0.00     0.135 A 
ATOM     64  C   UNL A   1      45.489  31.105  26.939  1.00  0.00     0.135 A 
ATOM     65  F   UNL A   1      48.993  30.495  27.677  1.00  0.00    -0.206 F 
ATOM     66  C   UNL A   1      47.922  32.396  26.826  1.00  0.00     0.059 A 
ATOM     67  C   UNL A   1      45.542  32.390  26.428  1.00  0.00     0.059 A 
ATOM     68  F   UNL A   1      44.246  30.640  27.116  1.00  0.00    -0.206 F 
ATOM     69  C   UNL A   1      46.760  33.042  26.405  1.00  0.00     0.060 A 
BRANCH  69  70
ATOM     70  S   UNL A   1      46.832  34.763  25.892  1.00  0.00     0.124 S 
ATOM     71  O   UNL A   1      47.101  35.431  27.159  1.00  0.00    -0.237 OA
ATOM     72  O   UNL A   1      47.928  34.743  24.929  1.00  0.00    -0.237 OA
ATOM     73  O   UNL A   1      45.509  34.998  25.320  1.00  0.00    -0.744 OA
ENDBRANCH  69  70
ENDBRANCH  48  62
BRANCH  49  74
ATOM     74  C   UNL A   1      38.467  28.979  29.226  1.00  0.00     0.058 A 
ATOM     75  C   UNL A   1      37.442  29.241  30.155  1.00  0.00     0.135 A 
ATOM     76  C   UNL A   1      38.297  29.547  27.946  1.00  0.00     0.135 A 
ATOM     77  F   UNL A   1      37.525  28.756  31.403  1.00  0.00    -0.206 F 
ATOM     78  C   UNL A   1      36.348  30.062  29.853  1.00  0.00     0.059 A 
ATOM     79  C   UNL A   1      37.210  30.358  27.619  1.00  0.00     0.059 A 
ATOM     80  F   UNL A   1      39.230  29.412  26.994  1.00  0.00    -0.206 F 
ATOM     81  C   UNL A   1      36.255  30.636  28.587  1.00  0.00     0.060 A 
BRANCH  81  82
ATOM     82  S   UNL A   1      34.946  31.839  28.249  1.00  0.00     0.124 S 
ATOM     83  O   UNL A   1      34.028  31.063  27.422  1.00  0.00    -0.237 OA
ATOM     84  O   UNL A   1      34.476  32.165  29.591  1.00  0.00    -0.237 OA
ATOM     85  O   UNL A   1      35.647  32.918  27.556  1.00  0.00    -0.744 OA
ENDBRANCH  81  82
ENDBRANCH  49  74
BRANCH  61  86
ATOM     86  C   UNL A   1      43.597  27.775  32.852  1.00  0.00     0.058 A 
ATOM     87  C   UNL A   1      43.609  26.368  32.791  1.00  0.00     0.135 A 
ATOM     88  C   UNL A   1      43.477  28.357  34.123  1.00  0.00     0.135 A 
ATOM     89  F   UNL A   1      43.817  25.733  31.629  1.00  0.00    -0.206 F 
ATOM     90  C   UNL A   1      43.478  25.581  33.938  1.00  0.00     0.059 A 
ATOM     91  C   UNL A   1      43.377  27.592  35.281  1.00  0.00     0.059 A 
ATOM     92  F   UNL A   1      43.517  29.693  34.256  1.00  0.00    -0.206 F 
ATOM     93  C   UNL A   1      43.369  26.203  35.182  1.00  0.00     0.060 A 
BRANCH  93  94
ATOM     94  S   UNL A   1      43.285  25.189  36.675  1.00  0.00     0.124 S 
ATOM     95  O   UNL A   1      41.984  24.542  36.537  1.00  0.00    -0.237 OA
ATOM     96  O   UNL A   1      44.447  24.315  36.530  1.00  0.00    -0.237 OA
ATOM     97  O   UNL A   1      43.383  26.165  37.759  1.00  0.00    -0.744 OA
ENDBRANCH  93  94
ENDBRANCH  61  86
ENDBRANCH  35  36
ENDBRANCH  28  30
ENDBRANCH  27  28
ENDBRANCH  26  27
ENDBRANCH  25  26
ENDBRANCH  24  25
ENDBRANCH  23  24
ENDBRANCH   1  23
TORSDOF 25
ENDMDL
MODEL 3
REMARK VINA RESULT:      -9.6      3.697      5.130
REMARK SMILES O=C(CSc1nc2ncccc2[nH]1)OCCOCCOCCOCCOC(=O)c1ccc(-c2c3nc(c(-c4c(F)cc(S(=O)(=O)[O-])cc4F)c4ccc([nH]4)c(-c4c(F)cc(S(=O)(=O)[O-])cc4F)c4nc(c(-c5c(F)cc(S(=O)(=O)[O-])cc5F)c5ccc2[nH]5)C=C4)C=C3)cc1
REMARK SMILES IDX 21 1 20 2 19 3 18 4 17 5 16 6 15 7 14 8 2 9 1 10 3 11 4 12
REMARK SMILES IDX 5 13 6 14 13 15 7 16 12 17 8 19 11 20 9 21 10 22 22 23 23 24
REMARK SMILES IDX 24 25 25 26 26 27 27 28 28 29 29 30 30 31 94 32 31 33 93 34
REMARK SMILES IDX 32 35 33 36 34 37 87 38 35 39 92 40 86 41 88 42 36 43 91 44
REMARK SMILES IDX 85 45 84 46 37 48 71 49 50 50 70 51 51 52 54 53 69 54 89 55
REMARK SMILES IDX 52 56 53 57 68 59 90 60 55 61 38 62 39 63 48 64 40 65 41 66
REMARK SMILES IDX 47 67 49 68 42 69 43 70 44 71 45 72 46 73 72 74 73 75 82 76
REMARK SMILES IDX 74 77 75 78 81 79 83 80 76 81 77 82 78 83 79 84 80 85 56 86
REMARK SMILES IDX 57 87 66 88 58 89 59 90 65 91 67 92 60 93 61 94 62 95 63 96
REMARK SMILES IDX 64 97
REMARK H PARENT 13 18 88 47 54 58
REMARK Flexibility Score: inf
ROOT
ATOM      1  C   UNL A   1      39.644  21.676  26.607  1.00  0.00     0.188 C 
ENDROOT
BRANCH   1   2
ATOM      2  O   UNL A   1      38.508  21.656  25.780  1.00  0.00    -0.377 OA
BRANCH   2   3
ATOM      3  C   UNL A   1      37.787  22.848  25.556  1.00  0.00     0.188 C 
BRANCH   3   4
ATOM      4  C   UNL A   1      36.550  22.930  24.647  1.00  0.00     0.188 C 
BRANCH   4   5
ATOM      5  O   UNL A   1      35.300  23.206  25.236  1.00  0.00    -0.376 OA
BRANCH   5   6
ATOM      6  C   UNL A   1      35.032  23.174  26.629  1.00  0.00     0.202 C 
BRANCH   6   7
ATOM      7  C   UNL A   1      34.072  22.157  27.241  1.00  0.00     0.261 C 
BRANCH   7   8
ATOM      8  O   UNL A   1      32.764  22.581  27.677  1.00  0.00    -0.463 OA
BRANCH   8   9
ATOM      9  C   UNL A   1      31.752  23.123  26.970  1.00  0.00     0.316 C 
ATOM     10  O   UNL A   1      31.356  24.257  27.245  1.00  0.00    -0.251 OA
BRANCH   9  11
ATOM     11  C   UNL A   1      31.035  22.316  25.916  1.00  0.00     0.200 C 
BRANCH  11  12
ATOM     12  S   UNL A   1      31.996  22.164  24.388  1.00  0.00    -0.076 SA
BRANCH  12  13
ATOM     13  C   UNL A   1      32.182  20.458  24.433  1.00  0.00     0.168 A 
ATOM     14  N   UNL A   1      32.232  19.711  25.505  1.00  0.00    -0.203 NA
ATOM     15  N   UNL A   1      32.544  19.796  23.300  1.00  0.00    -0.332 N 
ATOM     16  C   UNL A   1      32.679  18.504  25.043  1.00  0.00     0.178 A 
ATOM     17  C   UNL A   1      32.887  18.528  23.667  1.00  0.00     0.086 A 
ATOM     18  H   UNL A   1      32.557  20.164  22.387  1.00  0.00     0.169 HD
ATOM     19  N   UNL A   1      32.912  17.412  25.803  1.00  0.00    -0.235 NA
ATOM     20  C   UNL A   1      33.357  17.429  22.960  1.00  0.00     0.032 A 
ATOM     21  C   UNL A   1      33.368  16.347  25.112  1.00  0.00     0.114 A 
ATOM     22  C   UNL A   1      33.595  16.300  23.738  1.00  0.00     0.022 A 
ENDBRANCH  12  13
ENDBRANCH  11  12
ENDBRANCH   9  11
ENDBRANCH   8   9
ENDBRANCH   7   8
ENDBRANCH   6   7
ENDBRANCH   5   6
ENDBRANCH   4   5
ENDBRANCH   3   4
ENDBRANCH   2   3
ENDBRANCH   1   2
BRANCH   1  23
ATOM     23  C   UNL A   1      40.799  20.676  26.334  1.00  0.00     0.188 C 
BRANCH  23  24
ATOM     24  O   UNL A   1      42.176  20.871  26.622  1.00  0.00    -0.376 OA
BRANCH  24  25
ATOM     25  C   UNL A   1      43.193  21.371  25.770  1.00  0.00     0.202 C 
BRANCH  25  26
ATOM     26  C   UNL A   1      43.187  22.722  25.056  1.00  0.00     0.261 C 
BRANCH  26  27
ATOM     27  O   UNL A   1      43.354  23.809  25.923  1.00  0.00    -0.460 OA
BRANCH  27  28
ATOM     28  C   UNL A   1      42.561  24.834  25.586  1.00  0.00     0.338 C 
ATOM     29  O   UNL A   1      42.618  25.515  24.564  1.00  0.00    -0.246 OA
BRANCH  28  30
ATOM     30  C   UNL A   1      41.576  25.032  26.650  1.00  0.00     0.060 A 
ATOM     31  C   UNL A   1      40.629  26.015  26.359  1.00  0.00     0.016 A 
ATOM     32  C   UNL A   1      42.046  24.764  27.936  1.00  0.00     0.016 A 
ATOM     33  C   UNL A   1      40.509  27.024  27.267  1.00  0.00     0.010 A 
ATOM     34  C   UNL A   1      41.988  25.804  28.811  1.00  0.00     0.010 A 
ATOM     35  C   UNL A   1      41.309  26.954  28.409  1.00  0.00    -0.014 A 
BRANCH  35  36
ATOM     36  C   UNL A   1      41.368  28.116  29.246  1.00  0.00     0.031 A 
ATOM     37  C   UNL A   1      42.438  29.021  28.797  1.00  0.00     0.074 A 
ATOM     38  C   UNL A   1      40.464  28.323  30.219  1.00  0.00     0.049 A 
ATOM     39  N   UNL A   1      43.596  29.199  29.338  1.00  0.00    -0.248 NA
ATOM     40  C   UNL A   1      42.314  29.577  27.435  1.00  0.00     0.031 C 
ATOM     41  C   UNL A   1      39.229  27.582  30.492  1.00  0.00     0.029 A 
ATOM     42  N   UNL A   1      40.414  29.337  31.116  1.00  0.00    -0.354 N 
ATOM     43  C   UNL A   1      44.213  30.127  28.514  1.00  0.00     0.074 A 
ATOM     44  C   UNL A   1      43.533  30.079  27.248  1.00  0.00     0.031 C 
ATOM     45  C   UNL A   1      38.450  28.314  31.324  1.00  0.00     0.029 A 
ATOM     46  C   UNL A   1      39.178  29.504  31.727  1.00  0.00     0.049 A 
ATOM     47  H   UNL A   1      41.190  29.907  31.318  1.00  0.00     0.167 HD
ATOM     48  C   UNL A   1      44.956  31.134  29.043  1.00  0.00     0.037 A 
ATOM     49  C   UNL A   1      38.792  30.621  32.399  1.00  0.00     0.037 A 
ATOM     50  C   UNL A   1      45.385  30.830  30.383  1.00  0.00     0.049 A 
ATOM     51  C   UNL A   1      40.043  31.360  32.747  1.00  0.00     0.074 A 
ATOM     52  C   UNL A   1      46.091  29.785  30.949  1.00  0.00     0.029 A 
ATOM     53  N   UNL A   1      44.728  31.448  31.419  1.00  0.00    -0.354 N 
ATOM     54  N   UNL A   1      40.948  30.911  33.577  1.00  0.00    -0.248 NA
ATOM     55  C   UNL A   1      40.515  32.366  31.804  1.00  0.00     0.031 C 
ATOM     56  C   UNL A   1      45.463  29.547  32.206  1.00  0.00     0.029 A 
ATOM     57  C   UNL A   1      44.453  30.496  32.371  1.00  0.00     0.049 A 
ATOM     58  H   UNL A   1      44.494  32.403  31.470  1.00  0.00     0.167 HD
ATOM     59  C   UNL A   1      42.168  31.259  33.006  1.00  0.00     0.074 A 
ATOM     60  C   UNL A   1      41.834  32.213  31.952  1.00  0.00     0.031 C 
ATOM     61  C   UNL A   1      43.297  30.528  33.243  1.00  0.00     0.037 A 
BRANCH  48  62
ATOM     62  C   UNL A   1      44.912  32.524  28.473  1.00  0.00     0.058 A 
ATOM     63  C   UNL A   1      46.098  33.134  28.041  1.00  0.00     0.135 A 
ATOM     64  C   UNL A   1      43.776  33.368  28.543  1.00  0.00     0.135 A 
ATOM     65  F   UNL A   1      47.244  32.436  27.997  1.00  0.00    -0.206 F 
ATOM     66  C   UNL A   1      46.152  34.487  27.707  1.00  0.00     0.059 A 
ATOM     67  C   UNL A   1      43.787  34.693  28.142  1.00  0.00     0.059 A 
ATOM     68  F   UNL A   1      42.621  32.976  29.096  1.00  0.00    -0.206 F 
ATOM     69  C   UNL A   1      44.989  35.255  27.756  1.00  0.00     0.060 A 
BRANCH  69  70
ATOM     70  S   UNL A   1      45.062  37.012  27.381  1.00  0.00     0.124 S 
ATOM     71  O   UNL A   1      43.737  37.242  26.819  1.00  0.00    -0.237 OA
ATOM     72  O   UNL A   1      45.312  37.589  28.697  1.00  0.00    -0.237 OA
ATOM     73  O   UNL A   1      46.175  37.108  26.441  1.00  0.00    -0.744 OA
ENDBRANCH  69  70
ENDBRANCH  48  62
BRANCH  49  74
ATOM     74  C   UNL A   1      37.458  31.286  32.371  1.00  0.00     0.058 A 
ATOM     75  C   UNL A   1      36.910  31.845  33.540  1.00  0.00     0.135 A 
ATOM     76  C   UNL A   1      36.826  31.645  31.162  1.00  0.00     0.135 A 
ATOM     77  F   UNL A   1      37.455  31.574  34.736  1.00  0.00    -0.206 F 
ATOM     78  C   UNL A   1      35.842  32.751  33.509  1.00  0.00     0.059 A 
ATOM     79  C   UNL A   1      35.753  32.535  31.107  1.00  0.00     0.059 A 
ATOM     80  F   UNL A   1      37.289  31.218  29.979  1.00  0.00    -0.206 F 
ATOM     81  C   UNL A   1      35.285  33.107  32.282  1.00  0.00     0.060 A 
BRANCH  81  82
ATOM     82  S   UNL A   1      34.030  34.409  32.218  1.00  0.00     0.124 S 
ATOM     83  O   UNL A   1      32.984  33.862  33.077  1.00  0.00    -0.237 OA
ATOM     84  O   UNL A   1      34.754  35.559  32.748  1.00  0.00    -0.237 OA
ATOM     85  O   UNL A   1      33.693  34.486  30.799  1.00  0.00    -0.744 OA
ENDBRANCH  81  82
ENDBRANCH  49  74
BRANCH  61  86
ATOM     86  C   UNL A   1      43.273  29.516  34.362  1.00  0.00     0.058 A 
ATOM     87  C   UNL A   1      42.774  28.205  34.247  1.00  0.00     0.135 A 
ATOM     88  C   UNL A   1      43.943  29.841  35.551  1.00  0.00     0.135 A 
ATOM     89  F   UNL A   1      42.208  27.783  33.108  1.00  0.00    -0.206 F 
ATOM     90  C   UNL A   1      42.910  27.273  35.279  1.00  0.00     0.059 A 
ATOM     91  C   UNL A   1      44.117  28.919  36.579  1.00  0.00     0.059 A 
ATOM     92  F   UNL A   1      44.494  31.057  35.700  1.00  0.00    -0.206 F 
ATOM     93  C   UNL A   1      43.591  27.638  36.441  1.00  0.00     0.060 A 
BRANCH  93  94
ATOM     94  S   UNL A   1      43.842  26.411  37.743  1.00  0.00     0.124 S 
ATOM     95  O   UNL A   1      44.181  27.244  38.892  1.00  0.00    -0.237 OA
ATOM     96  O   UNL A   1      42.544  25.743  37.804  1.00  0.00    -0.237 OA
ATOM     97  O   UNL A   1      44.933  25.585  37.230  1.00  0.00    -0.744 OA
ENDBRANCH  93  94
ENDBRANCH  61  86
ENDBRANCH  35  36
ENDBRANCH  28  30
ENDBRANCH  27  28
ENDBRANCH  26  27
ENDBRANCH  25  26
ENDBRANCH  24  25
ENDBRANCH  23  24
ENDBRANCH   1  23
TORSDOF 25
ENDMDL
