MODEL 1
REMARK VINA RESULT:      -9.2      0.000      0.000
REMARK SMILES C[C@H](C(=O)Nc1ccc(C(F)(F)F)cc1)n1nc(C(=O)OCCOCCOCCOCCOC(=O)c2ccc(-c3c4nc(c(-c5c(F)cc(S(=O)(=O)[O-])cc5F)c5ccc([nH]5)c(-c5c(F)cc(S(=O)(=O)[O-])cc5F)c5nc(c(-c6c(F)cc(S(=O)(=O)[O-])cc6F)c6ccc3[nH]6)C=C5)C=C4)cc2)c2ccccc2c1=O
REMARK SMILES IDX 26 1 25 2 24 3 23 4 22 5 21 6 19 7 20 8 18 9 16 10 17 11
REMARK SMILES IDX 108 12 107 13 109 14 102 15 106 16 103 17 105 18 104 19 2 20
REMARK SMILES IDX 1 21 3 22 4 23 5 24 6 26 7 27 15 28 8 29 14 30 9 31 10 32
REMARK SMILES IDX 11 33 12 34 13 35 27 36 28 37 29 38 30 39 31 40 32 41 33 42
REMARK SMILES IDX 34 43 35 44 36 45 37 46 101 47 38 48 100 49 39 50 40 51
REMARK SMILES IDX 41 52 94 53 42 54 99 55 93 56 95 57 43 58 98 59 92 60 91 61
REMARK SMILES IDX 44 63 78 64 57 65 77 66 58 67 61 68 76 69 96 70 59 71 60 72
REMARK SMILES IDX 75 74 97 75 62 76 45 77 46 78 55 79 47 80 48 81 54 82 56 83
REMARK SMILES IDX 49 84 50 85 51 86 52 87 53 88 79 89 80 90 89 91 81 92 82 93
REMARK SMILES IDX 88 94 90 95 83 96 84 97 85 98 86 99 87 100 63 101 64 102
REMARK SMILES IDX 73 103 65 104 66 105 72 106 74 107 67 108 68 109 69 110
REMARK SMILES IDX 70 111 71 112
REMARK H PARENT 5 25 95 62 61 73
REMARK Flexibility Score: inf
ROOT
ATOM      1  C   UNL A   1      34.975  34.204  32.537  1.00  0.00     0.188 C 
ENDROOT
BRANCH   1   2
ATOM      2  C   UNL A   1      35.161  33.773  34.007  1.00  0.00     0.188 C 
BRANCH   2   3
ATOM      3  O   UNL A   1      35.971  32.656  34.362  1.00  0.00    -0.376 OA
BRANCH   3   4
ATOM      4  C   UNL A   1      37.304  32.530  33.873  1.00  0.00     0.202 C 
BRANCH   4   5
ATOM      5  C   UNL A   1      38.462  32.817  34.826  1.00  0.00     0.261 C 
BRANCH   5   6
ATOM      6  O   UNL A   1      38.038  33.418  36.057  1.00  0.00    -0.458 OA
BRANCH   6   7
ATOM      7  C   UNL A   1      38.689  33.021  37.160  1.00  0.00     0.359 C 
ATOM      8  O   UNL A   1      39.546  32.157  37.242  1.00  0.00    -0.244 OA
BRANCH   7   9
ATOM      9  C   UNL A   1      38.225  33.782  38.399  1.00  0.00     0.176 A 
ATOM     10  N   UNL A   1      37.003  33.709  40.356  1.00  0.00    -0.216 N 
ATOM     11  N   UNL A   1      37.202  33.319  39.047  1.00  0.00    -0.161 NA
ATOM     12  C   UNL A   1      37.904  34.516  41.054  1.00  0.00     0.275 A 
ATOM     13  C   UNL A   1      38.977  35.142  40.254  1.00  0.00     0.051 A 
ATOM     14  O   UNL A   1      37.841  34.772  42.251  1.00  0.00    -0.267 OA
ATOM     15  C   UNL A   1      39.041  34.893  38.892  1.00  0.00     0.022 A 
ATOM     16  C   UNL A   1      39.882  36.040  40.831  1.00  0.00     0.014 A 
ATOM     17  C   UNL A   1      39.873  35.658  38.069  1.00  0.00     0.011 A 
ATOM     18  C   UNL A   1      40.768  36.755  40.021  1.00  0.00     0.001 A 
ATOM     19  C   UNL A   1      40.729  36.600  38.636  1.00  0.00     0.001 A 
BRANCH  10  20
ATOM     20  C   UNL A   1      35.791  33.161  41.000  1.00  0.00     0.197 C 
ATOM     21  C   UNL A   1      36.164  32.132  42.082  1.00  0.00     0.044 C 
BRANCH  20  22
ATOM     22  C   UNL A   1      34.716  32.604  40.027  1.00  0.00     0.249 C 
ATOM     23  O   UNL A   1      34.969  31.684  39.238  1.00  0.00    -0.272 OA
ATOM     24  N   UNL A   1      33.405  33.023  40.076  1.00  0.00    -0.324 N 
ATOM     25  H   UNL A   1      32.782  32.445  39.577  1.00  0.00     0.170 HD
BRANCH  24  26
ATOM     26  C   UNL A   1      32.790  34.116  40.701  1.00  0.00     0.041 A 
ATOM     27  C   UNL A   1      32.476  34.029  42.058  1.00  0.00     0.027 A 
ATOM     28  C   UNL A   1      32.399  35.254  40.012  1.00  0.00     0.027 A 
ATOM     29  C   UNL A   1      31.916  35.126  42.733  1.00  0.00     0.015 A 
ATOM     30  C   UNL A   1      31.860  36.358  40.673  1.00  0.00     0.015 A 
ATOM     31  C   UNL A   1      31.643  36.321  42.053  1.00  0.00     0.056 A 
BRANCH  31  32
ATOM     32  C   UNL A   1      31.074  37.525  42.760  1.00  0.00     0.416 C 
ATOM     33  F   UNL A   1      31.003  38.616  41.945  1.00  0.00    -0.166 F 
ATOM     34  F   UNL A   1      29.822  37.334  43.252  1.00  0.00    -0.166 F 
ATOM     35  F   UNL A   1      31.835  37.918  43.825  1.00  0.00    -0.166 F 
ENDBRANCH  31  32
ENDBRANCH  24  26
ENDBRANCH  20  22
ENDBRANCH  10  20
ENDBRANCH   7   9
ENDBRANCH   6   7
ENDBRANCH   5   6
ENDBRANCH   4   5
ENDBRANCH   3   4
ENDBRANCH   2   3
ENDBRANCH   1   2
BRANCH   1  36
ATOM     36  O   UNL A   1      33.655  34.584  32.208  1.00  0.00    -0.377 OA
BRANCH  36  37
ATOM     37  C   UNL A   1      33.544  35.637  31.255  1.00  0.00     0.188 C 
BRANCH  37  38
ATOM     38  C   UNL A   1      33.020  35.239  29.863  1.00  0.00     0.188 C 
BRANCH  38  39
ATOM     39  O   UNL A   1      34.031  35.310  28.853  1.00  0.00    -0.376 OA
BRANCH  39  40
ATOM     40  C   UNL A   1      35.015  34.279  28.879  1.00  0.00     0.202 C 
BRANCH  40  41
ATOM     41  C   UNL A   1      34.440  32.856  28.957  1.00  0.00     0.261 C 
BRANCH  41  42
ATOM     42  O   UNL A   1      34.584  32.064  27.765  1.00  0.00    -0.460 OA
BRANCH  42  43
ATOM     43  C   UNL A   1      34.413  30.729  27.880  1.00  0.00     0.338 C 
ATOM     44  O   UNL A   1      33.404  30.097  27.642  1.00  0.00    -0.246 OA
BRANCH  43  45
ATOM     45  C   UNL A   1      35.735  30.124  28.143  1.00  0.00     0.060 A 
ATOM     46  C   UNL A   1      36.011  29.662  29.438  1.00  0.00     0.016 A 
ATOM     47  C   UNL A   1      36.698  30.036  27.136  1.00  0.00     0.016 A 
ATOM     48  C   UNL A   1      37.276  29.164  29.742  1.00  0.00     0.010 A 
ATOM     49  C   UNL A   1      37.974  29.565  27.448  1.00  0.00     0.010 A 
ATOM     50  C   UNL A   1      38.279  29.173  28.764  1.00  0.00    -0.014 A 
BRANCH  50  51
ATOM     51  C   UNL A   1      39.696  29.050  29.176  1.00  0.00     0.031 A 
ATOM     52  C   UNL A   1      40.404  27.763  28.847  1.00  0.00     0.074 A 
ATOM     53  C   UNL A   1      40.337  30.042  29.818  1.00  0.00     0.049 A 
ATOM     54  N   UNL A   1      41.616  27.381  29.146  1.00  0.00    -0.248 NA
ATOM     55  C   UNL A   1      39.634  26.770  28.074  1.00  0.00     0.031 C 
ATOM     56  C   UNL A   1      39.766  31.344  30.156  1.00  0.00     0.029 A 
ATOM     57  N   UNL A   1      41.617  30.096  30.311  1.00  0.00    -0.354 N 
ATOM     58  C   UNL A   1      41.754  26.109  28.603  1.00  0.00     0.074 A 
ATOM     59  C   UNL A   1      40.498  25.772  27.974  1.00  0.00     0.031 C 
ATOM     60  C   UNL A   1      40.687  32.063  30.824  1.00  0.00     0.029 A 
ATOM     61  C   UNL A   1      41.901  31.263  30.980  1.00  0.00     0.049 A 
ATOM     62  H   UNL A   1      42.270  29.369  30.196  1.00  0.00     0.167 HD
ATOM     63  C   UNL A   1      42.833  25.293  28.624  1.00  0.00     0.037 A 
ATOM     64  C   UNL A   1      43.008  31.625  31.659  1.00  0.00     0.037 A 
ATOM     65  C   UNL A   1      44.077  25.627  29.261  1.00  0.00     0.049 A 
ATOM     66  C   UNL A   1      44.178  30.674  31.721  1.00  0.00     0.074 A 
ATOM     67  C   UNL A   1      45.232  24.871  29.341  1.00  0.00     0.029 A 
ATOM     68  N   UNL A   1      44.322  26.813  29.934  1.00  0.00    -0.354 N 
ATOM     69  N   UNL A   1      44.303  29.482  31.185  1.00  0.00    -0.248 NA
ATOM     70  C   UNL A   1      45.358  31.116  32.479  1.00  0.00     0.031 C 
ATOM     71  C   UNL A   1      46.167  25.588  30.095  1.00  0.00     0.029 A 
ATOM     72  C   UNL A   1      45.607  26.807  30.447  1.00  0.00     0.049 A 
ATOM     73  H   UNL A   1      43.678  27.552  30.032  1.00  0.00     0.167 HD
ATOM     74  C   UNL A   1      45.583  29.048  31.514  1.00  0.00     0.074 A 
ATOM     75  C   UNL A   1      46.195  30.105  32.293  1.00  0.00     0.031 C 
ATOM     76  C   UNL A   1      46.200  27.882  31.200  1.00  0.00     0.037 A 
BRANCH  63  77
ATOM     77  C   UNL A   1      42.701  23.954  27.959  1.00  0.00     0.058 A 
ATOM     78  C   UNL A   1      42.779  23.817  26.565  1.00  0.00     0.135 A 
ATOM     79  C   UNL A   1      42.519  22.794  28.727  1.00  0.00     0.135 A 
ATOM     80  F   UNL A   1      42.924  24.899  25.785  1.00  0.00    -0.206 F 
ATOM     81  C   UNL A   1      42.665  22.572  25.953  1.00  0.00     0.059 A 
ATOM     82  C   UNL A   1      42.425  21.538  28.137  1.00  0.00     0.059 A 
ATOM     83  F   UNL A   1      42.427  22.876  30.063  1.00  0.00    -0.206 F 
ATOM     84  C   UNL A   1      42.490  21.439  26.748  1.00  0.00     0.060 A 
BRANCH  84  85
ATOM     85  S   UNL A   1      42.360  19.829  25.940  1.00  0.00     0.124 S 
ATOM     86  O   UNL A   1      43.394  19.936  24.915  1.00  0.00    -0.237 OA
ATOM     87  O   UNL A   1      42.646  18.907  27.034  1.00  0.00    -0.237 OA
ATOM     88  O   UNL A   1      40.987  19.807  25.447  1.00  0.00    -0.744 OA
ENDBRANCH  84  85
ENDBRANCH  63  77
BRANCH  64  89
ATOM     89  C   UNL A   1      43.064  32.938  32.356  1.00  0.00     0.058 A 
ATOM     90  C   UNL A   1      42.539  33.102  33.646  1.00  0.00     0.135 A 
ATOM     91  C   UNL A   1      43.624  34.064  31.731  1.00  0.00     0.135 A 
ATOM     92  F   UNL A   1      41.982  32.057  34.279  1.00  0.00    -0.206 F 
ATOM     93  C   UNL A   1      42.550  34.336  34.287  1.00  0.00     0.059 A 
ATOM     94  C   UNL A   1      43.666  35.303  32.360  1.00  0.00     0.059 A 
ATOM     95  F   UNL A   1      44.146  33.960  30.499  1.00  0.00    -0.206 F 
ATOM     96  C   UNL A   1      43.116  35.434  33.634  1.00  0.00     0.060 A 
BRANCH  96  97
ATOM     97  S   UNL A   1      43.165  37.027  34.484  1.00  0.00     0.124 S 
ATOM     98  O   UNL A   1      43.245  37.955  33.363  1.00  0.00    -0.237 OA
ATOM     99  O   UNL A   1      41.906  37.024  35.223  1.00  0.00    -0.237 OA
ATOM    100  O   UNL A   1      44.364  36.925  35.311  1.00  0.00    -0.744 OA
ENDBRANCH  96  97
ENDBRANCH  64  89
BRANCH  76 101
ATOM    101  C   UNL A   1      47.623  27.701  31.650  1.00  0.00     0.058 A 
ATOM    102  C   UNL A   1      48.703  28.153  30.880  1.00  0.00     0.135 A 
ATOM    103  C   UNL A   1      47.898  27.140  32.907  1.00  0.00     0.135 A 
ATOM    104  F   UNL A   1      48.491  28.694  29.669  1.00  0.00    -0.206 F 
ATOM    105  C   UNL A   1      50.013  28.042  31.334  1.00  0.00     0.059 A 
ATOM    106  C   UNL A   1      49.198  27.040  33.392  1.00  0.00     0.059 A 
ATOM    107  F   UNL A   1      46.896  26.705  33.688  1.00  0.00    -0.206 F 
ATOM    108  C   UNL A   1      50.250  27.486  32.594  1.00  0.00     0.060 A 
BRANCH 108 109
ATOM    109  S   UNL A   1      51.950  27.393  33.195  1.00  0.00     0.124 S 
ATOM    110  O   UNL A   1      51.744  27.200  34.626  1.00  0.00    -0.237 OA
ATOM    111  O   UNL A   1      52.478  26.243  32.469  1.00  0.00    -0.237 OA
ATOM    112  O   UNL A   1      52.516  28.682  32.810  1.00  0.00    -0.744 OA
ENDBRANCH 108 109
ENDBRANCH  76 101
ENDBRANCH  50  51
ENDBRANCH  43  45
ENDBRANCH  42  43
ENDBRANCH  41  42
ENDBRANCH  40  41
ENDBRANCH  39  40
ENDBRANCH  38  39
ENDBRANCH  37  38
ENDBRANCH  36  37
ENDBRANCH   1  36
TORSDOF 27
ENDMDL
MODEL 2
REMARK VINA RESULT:      -8.7      2.638      3.467
REMARK SMILES C[C@H](C(=O)Nc1ccc(C(F)(F)F)cc1)n1nc(C(=O)OCCOCCOCCOCCOC(=O)c2ccc(-c3c4nc(c(-c5c(F)cc(S(=O)(=O)[O-])cc5F)c5ccc([nH]5)c(-c5c(F)cc(S(=O)(=O)[O-])cc5F)c5nc(c(-c6c(F)cc(S(=O)(=O)[O-])cc6F)c6ccc3[nH]6)C=C5)C=C4)cc2)c2ccccc2c1=O
REMARK SMILES IDX 26 1 25 2 24 3 23 4 22 5 21 6 19 7 20 8 18 9 16 10 17 11
REMARK SMILES IDX 108 12 107 13 109 14 102 15 106 16 103 17 105 18 104 19 2 20
REMARK SMILES IDX 1 21 3 22 4 23 5 24 6 26 7 27 15 28 8 29 14 30 9 31 10 32
REMARK SMILES IDX 11 33 12 34 13 35 27 36 28 37 29 38 30 39 31 40 32 41 33 42
REMARK SMILES IDX 34 43 35 44 36 45 37 46 101 47 38 48 100 49 39 50 40 51
REMARK SMILES IDX 41 52 94 53 42 54 99 55 93 56 95 57 43 58 98 59 92 60 91 61
REMARK SMILES IDX 44 63 78 64 57 65 77 66 58 67 61 68 76 69 96 70 59 71 60 72
REMARK SMILES IDX 75 74 97 75 62 76 45 77 46 78 55 79 47 80 48 81 54 82 56 83
REMARK SMILES IDX 49 84 50 85 51 86 52 87 53 88 79 89 80 90 89 91 81 92 82 93
REMARK SMILES IDX 88 94 90 95 83 96 84 97 85 98 86 99 87 100 63 101 64 102
REMARK SMILES IDX 73 103 65 104 66 105 72 106 74 107 67 108 68 109 69 110
REMARK SMILES IDX 70 111 71 112
REMARK H PARENT 5 25 95 62 61 73
REMARK Flexibility Score: inf
ROOT
ATOM      1  C   UNL A   1      34.842  34.367  32.482  1.00  0.00     0.188 C 
ENDROOT
BRANCH   1   2
ATOM      2  C   UNL A   1      34.949  34.091  33.996  1.00  0.00     0.188 C 
BRANCH   2   3
ATOM      3  O   UNL A   1      35.897  33.167  34.523  1.00  0.00    -0.376 OA
BRANCH   3   4
ATOM      4  C   UNL A   1      37.234  33.126  34.034  1.00  0.00     0.202 C 
BRANCH   4   5
ATOM      5  C   UNL A   1      38.363  33.588  34.953  1.00  0.00     0.261 C 
BRANCH   5   6
ATOM      6  O   UNL A   1      37.928  33.821  36.299  1.00  0.00    -0.458 OA
BRANCH   6   7
ATOM      7  C   UNL A   1      38.543  33.101  37.248  1.00  0.00     0.359 C 
ATOM      8  O   UNL A   1      39.252  32.121  37.090  1.00  0.00    -0.244 OA
BRANCH   7   9
ATOM      9  C   UNL A   1      38.251  33.637  38.647  1.00  0.00     0.176 A 
ATOM     10  N   UNL A   1      37.482  33.155  40.770  1.00  0.00    -0.216 N 
ATOM     11  N   UNL A   1      37.455  32.949  39.405  1.00  0.00    -0.161 NA
ATOM     12  C   UNL A   1      38.394  34.010  41.392  1.00  0.00     0.275 A 
ATOM     13  C   UNL A   1      39.186  34.882  40.499  1.00  0.00     0.051 A 
ATOM     14  O   UNL A   1      38.548  34.118  42.603  1.00  0.00    -0.267 OA
ATOM     15  C   UNL A   1      38.998  34.801  39.129  1.00  0.00     0.022 A 
ATOM     16  C   UNL A   1      40.065  35.841  41.016  1.00  0.00     0.014 A 
ATOM     17  C   UNL A   1      39.532  35.774  38.279  1.00  0.00     0.011 A 
ATOM     18  C   UNL A   1      40.661  36.773  40.163  1.00  0.00     0.001 A 
ATOM     19  C   UNL A   1      40.356  36.769  38.802  1.00  0.00     0.001 A 
BRANCH  10  20
ATOM     20  C   UNL A   1      36.513  32.354  41.547  1.00  0.00     0.197 C 
ATOM     21  C   UNL A   1      35.496  31.670  40.616  1.00  0.00     0.044 C 
BRANCH  20  22
ATOM     22  C   UNL A   1      35.808  33.108  42.709  1.00  0.00     0.249 C 
ATOM     23  O   UNL A   1      34.945  33.969  42.493  1.00  0.00    -0.272 OA
ATOM     24  N   UNL A   1      36.022  32.774  44.027  1.00  0.00    -0.324 N 
ATOM     25  H   UNL A   1      35.361  33.157  44.648  1.00  0.00     0.170 HD
BRANCH  24  26
ATOM     26  C   UNL A   1      37.002  31.991  44.651  1.00  0.00     0.041 A 
ATOM     27  C   UNL A   1      37.228  30.694  44.188  1.00  0.00     0.027 A 
ATOM     28  C   UNL A   1      37.703  32.415  45.770  1.00  0.00     0.027 A 
ATOM     29  C   UNL A   1      38.244  29.902  44.747  1.00  0.00     0.015 A 
ATOM     30  C   UNL A   1      38.728  31.647  46.323  1.00  0.00     0.015 A 
ATOM     31  C   UNL A   1      39.036  30.391  45.796  1.00  0.00     0.056 A 
BRANCH  31  32
ATOM     32  C   UNL A   1      40.155  29.576  46.392  1.00  0.00     0.416 C 
ATOM     33  F   UNL A   1      39.694  28.577  47.198  1.00  0.00    -0.166 F 
ATOM     34  F   UNL A   1      40.956  28.982  45.469  1.00  0.00    -0.166 F 
ATOM     35  F   UNL A   1      40.987  30.321  47.180  1.00  0.00    -0.166 F 
ENDBRANCH  31  32
ENDBRANCH  24  26
ENDBRANCH  20  22
ENDBRANCH  10  20
ENDBRANCH   7   9
ENDBRANCH   6   7
ENDBRANCH   5   6
ENDBRANCH   4   5
ENDBRANCH   3   4
ENDBRANCH   2   3
ENDBRANCH   1   2
BRANCH   1  36
ATOM     36  O   UNL A   1      33.546  34.727  32.050  1.00  0.00    -0.377 OA
BRANCH  36  37
ATOM     37  C   UNL A   1      33.498  35.725  31.035  1.00  0.00     0.188 C 
BRANCH  37  38
ATOM     38  C   UNL A   1      33.046  35.254  29.640  1.00  0.00     0.188 C 
BRANCH  38  39
ATOM     39  O   UNL A   1      34.105  35.280  28.680  1.00  0.00    -0.376 OA
BRANCH  39  40
ATOM     40  C   UNL A   1      35.108  34.277  28.825  1.00  0.00     0.202 C 
BRANCH  40  41
ATOM     41  C   UNL A   1      34.559  32.850  28.980  1.00  0.00     0.261 C 
BRANCH  41  42
ATOM     42  O   UNL A   1      34.581  32.046  27.789  1.00  0.00    -0.460 OA
BRANCH  42  43
ATOM     43  C   UNL A   1      34.421  30.712  27.934  1.00  0.00     0.338 C 
ATOM     44  O   UNL A   1      33.406  30.072  27.746  1.00  0.00    -0.246 OA
BRANCH  43  45
ATOM     45  C   UNL A   1      35.754  30.116  28.158  1.00  0.00     0.060 A 
ATOM     46  C   UNL A   1      36.072  29.658  29.444  1.00  0.00     0.016 A 
ATOM     47  C   UNL A   1      36.686  30.033  27.122  1.00  0.00     0.016 A 
ATOM     48  C   UNL A   1      37.349  29.169  29.711  1.00  0.00     0.010 A 
ATOM     49  C   UNL A   1      37.974  29.571  27.397  1.00  0.00     0.010 A 
ATOM     50  C   UNL A   1      38.322  29.184  28.703  1.00  0.00    -0.014 A 
BRANCH  50  51
ATOM     51  C   UNL A   1      39.751  29.071  29.073  1.00  0.00     0.031 A 
ATOM     52  C   UNL A   1      40.445  27.771  28.766  1.00  0.00     0.074 A 
ATOM     53  C   UNL A   1      40.415  30.082  29.658  1.00  0.00     0.049 A 
ATOM     54  N   UNL A   1      41.666  27.396  29.038  1.00  0.00    -0.248 NA
ATOM     55  C   UNL A   1      39.649  26.753  28.055  1.00  0.00     0.031 C 
ATOM     56  C   UNL A   1      39.858  31.397  29.969  1.00  0.00     0.029 A 
ATOM     57  N   UNL A   1      41.711  30.150  30.107  1.00  0.00    -0.354 N 
ATOM     58  C   UNL A   1      41.784  26.105  28.536  1.00  0.00     0.074 A 
ATOM     59  C   UNL A   1      40.507  25.750  27.961  1.00  0.00     0.031 C 
ATOM     60  C   UNL A   1      40.801  32.137  30.580  1.00  0.00     0.029 A 
ATOM     61  C   UNL A   1      42.019  31.339  30.725  1.00  0.00     0.049 A 
ATOM     62  H   UNL A   1      42.358  29.417  29.996  1.00  0.00     0.167 HD
ATOM     63  C   UNL A   1      42.861  25.287  28.552  1.00  0.00     0.037 A 
ATOM     64  C   UNL A   1      43.148  31.721  31.354  1.00  0.00     0.037 A 
ATOM     65  C   UNL A   1      44.126  25.639  29.135  1.00  0.00     0.049 A 
ATOM     66  C   UNL A   1      44.318  30.769  31.410  1.00  0.00     0.074 A 
ATOM     67  C   UNL A   1      45.282  24.883  29.204  1.00  0.00     0.029 A 
ATOM     68  N   UNL A   1      44.395  26.848  29.757  1.00  0.00    -0.354 N 
ATOM     69  N   UNL A   1      44.423  29.559  30.913  1.00  0.00    -0.248 NA
ATOM     70  C   UNL A   1      45.523  31.234  32.114  1.00  0.00     0.031 C 
ATOM     71  C   UNL A   1      46.242  25.623  29.901  1.00  0.00     0.029 A 
ATOM     72  C   UNL A   1      45.696  26.855  30.228  1.00  0.00     0.049 A 
ATOM     73  H   UNL A   1      43.756  27.591  29.850  1.00  0.00     0.167 HD
ATOM     74  C   UNL A   1      45.712  29.133  31.216  1.00  0.00     0.074 A 
ATOM     75  C   UNL A   1      46.352  30.214  31.936  1.00  0.00     0.031 C 
ATOM     76  C   UNL A   1      46.316  27.954  30.922  1.00  0.00     0.037 A 
BRANCH  63  77
ATOM     77  C   UNL A   1      42.705  23.926  27.938  1.00  0.00     0.058 A 
ATOM     78  C   UNL A   1      42.457  22.791  28.724  1.00  0.00     0.135 A 
ATOM     79  C   UNL A   1      42.782  23.761  26.547  1.00  0.00     0.135 A 
ATOM     80  F   UNL A   1      42.404  22.891  30.061  1.00  0.00    -0.206 F 
ATOM     81  C   UNL A   1      42.305  21.532  28.150  1.00  0.00     0.059 A 
ATOM     82  C   UNL A   1      42.611  22.516  25.951  1.00  0.00     0.059 A 
ATOM     83  F   UNL A   1      43.029  24.815  25.754  1.00  0.00    -0.206 F 
ATOM     84  C   UNL A   1      42.382  21.405  26.763  1.00  0.00     0.060 A 
BRANCH  84  85
ATOM     85  S   UNL A   1      42.167  19.769  26.031  1.00  0.00     0.124 S 
ATOM     86  O   UNL A   1      42.553  18.903  27.141  1.00  0.00    -0.237 OA
ATOM     87  O   UNL A   1      40.749  19.764  25.688  1.00  0.00    -0.237 OA
ATOM     88  O   UNL A   1      43.085  19.781  24.897  1.00  0.00    -0.744 OA
ENDBRANCH  84  85
ENDBRANCH  63  77
BRANCH  64  89
ATOM     89  C   UNL A   1      43.230  33.058  32.001  1.00  0.00     0.058 A 
ATOM     90  C   UNL A   1      42.795  33.257  33.320  1.00  0.00     0.135 A 
ATOM     91  C   UNL A   1      43.723  34.170  31.302  1.00  0.00     0.135 A 
ATOM     92  F   UNL A   1      42.302  32.226  34.025  1.00  0.00    -0.206 F 
ATOM     93  C   UNL A   1      42.829  34.512  33.918  1.00  0.00     0.059 A 
ATOM     94  C   UNL A   1      43.788  35.431  31.885  1.00  0.00     0.059 A 
ATOM     95  F   UNL A   1      44.159  34.033  30.040  1.00  0.00    -0.206 F 
ATOM     96  C   UNL A   1      43.327  35.596  33.191  1.00  0.00     0.060 A 
BRANCH  96  97
ATOM     97  S   UNL A   1      43.407  37.217  33.983  1.00  0.00     0.124 S 
ATOM     98  O   UNL A   1      42.181  37.220  34.771  1.00  0.00    -0.237 OA
ATOM     99  O   UNL A   1      44.652  37.133  34.738  1.00  0.00    -0.237 OA
ATOM    100  O   UNL A   1      43.436  38.138  32.850  1.00  0.00    -0.744 OA
ENDBRANCH  96  97
ENDBRANCH  64  89
BRANCH  76 101
ATOM    101  C   UNL A   1      47.752  27.785  31.332  1.00  0.00     0.058 A 
ATOM    102  C   UNL A   1      48.808  28.175  30.497  1.00  0.00     0.135 A 
ATOM    103  C   UNL A   1      48.068  27.299  32.611  1.00  0.00     0.135 A 
ATOM    104  F   UNL A   1      48.558  28.642  29.263  1.00  0.00    -0.206 F 
ATOM    105  C   UNL A   1      50.132  28.077  30.910  1.00  0.00     0.059 A 
ATOM    106  C   UNL A   1      49.384  27.215  33.055  1.00  0.00     0.059 A 
ATOM    107  F   UNL A   1      47.091  26.925  33.453  1.00  0.00    -0.206 F 
ATOM    108  C   UNL A   1      50.410  27.598  32.192  1.00  0.00     0.060 A 
BRANCH 108 109
ATOM    109  S   UNL A   1      52.130  27.522  32.738  1.00  0.00     0.124 S 
ATOM    110  O   UNL A   1      52.145  26.269  33.483  1.00  0.00    -0.237 OA
ATOM    111  O   UNL A   1      52.861  27.518  31.474  1.00  0.00    -0.237 OA
ATOM    112  O   UNL A   1      52.284  28.733  33.539  1.00  0.00    -0.744 OA
ENDBRANCH 108 109
ENDBRANCH  76 101
ENDBRANCH  50  51
ENDBRANCH  43  45
ENDBRANCH  42  43
ENDBRANCH  41  42
ENDBRANCH  40  41
ENDBRANCH  39  40
ENDBRANCH  38  39
ENDBRANCH  37  38
ENDBRANCH  36  37
ENDBRANCH   1  36
TORSDOF 27
ENDMDL
MODEL 3
REMARK VINA RESULT:      -8.4      2.802      4.453
REMARK SMILES C[C@H](C(=O)Nc1ccc(C(F)(F)F)cc1)n1nc(C(=O)OCCOCCOCCOCCOC(=O)c2ccc(-c3c4nc(c(-c5c(F)cc(S(=O)(=O)[O-])cc5F)c5ccc([nH]5)c(-c5c(F)cc(S(=O)(=O)[O-])cc5F)c5nc(c(-c6c(F)cc(S(=O)(=O)[O-])cc6F)c6ccc3[nH]6)C=C5)C=C4)cc2)c2ccccc2c1=O
REMARK SMILES IDX 26 1 25 2 24 3 23 4 22 5 21 6 19 7 20 8 18 9 16 10 17 11
REMARK SMILES IDX 108 12 107 13 109 14 102 15 106 16 103 17 105 18 104 19 2 20
REMARK SMILES IDX 1 21 3 22 4 23 5 24 6 26 7 27 15 28 8 29 14 30 9 31 10 32
REMARK SMILES IDX 11 33 12 34 13 35 27 36 28 37 29 38 30 39 31 40 32 41 33 42
REMARK SMILES IDX 34 43 35 44 36 45 37 46 101 47 38 48 100 49 39 50 40 51
REMARK SMILES IDX 41 52 94 53 42 54 99 55 93 56 95 57 43 58 98 59 92 60 91 61
REMARK SMILES IDX 44 63 78 64 57 65 77 66 58 67 61 68 76 69 96 70 59 71 60 72
REMARK SMILES IDX 75 74 97 75 62 76 45 77 46 78 55 79 47 80 48 81 54 82 56 83
REMARK SMILES IDX 49 84 50 85 51 86 52 87 53 88 79 89 80 90 89 91 81 92 82 93
REMARK SMILES IDX 88 94 90 95 83 96 84 97 85 98 86 99 87 100 63 101 64 102
REMARK SMILES IDX 73 103 65 104 66 105 72 106 74 107 67 108 68 109 69 110
REMARK SMILES IDX 70 111 71 112
REMARK H PARENT 5 25 95 62 61 73
REMARK Flexibility Score: inf
ROOT
ATOM      1  C   UNL A   1      34.611  34.728  32.333  1.00  0.00     0.188 C 
ENDROOT
BRANCH   1   2
ATOM      2  C   UNL A   1      34.574  34.477  33.856  1.00  0.00     0.188 C 
BRANCH   2   3
ATOM      3  O   UNL A   1      35.344  33.445  34.464  1.00  0.00    -0.376 OA
BRANCH   3   4
ATOM      4  C   UNL A   1      36.753  33.363  34.262  1.00  0.00     0.202 C 
BRANCH   4   5
ATOM      5  C   UNL A   1      37.672  33.479  35.476  1.00  0.00     0.261 C 
BRANCH   5   6
ATOM      6  O   UNL A   1      37.066  33.003  36.684  1.00  0.00    -0.458 OA
BRANCH   6   7
ATOM      7  C   UNL A   1      37.648  31.938  37.255  1.00  0.00     0.359 C 
ATOM      8  O   UNL A   1      37.806  30.832  36.766  1.00  0.00    -0.244 OA
BRANCH   7   9
ATOM      9  C   UNL A   1      38.117  32.240  38.676  1.00  0.00     0.176 A 
ATOM     10  N   UNL A   1      39.834  33.012  40.012  1.00  0.00    -0.216 N 
ATOM     11  N   UNL A   1      39.392  32.355  38.881  1.00  0.00    -0.161 NA
ATOM     12  C   UNL A   1      38.971  33.644  40.909  1.00  0.00     0.275 A 
ATOM     13  C   UNL A   1      37.529  33.375  40.730  1.00  0.00     0.051 A 
ATOM     14  O   UNL A   1      39.322  34.354  41.845  1.00  0.00    -0.267 OA
ATOM     15  C   UNL A   1      37.117  32.544  39.701  1.00  0.00     0.022 A 
ATOM     16  C   UNL A   1      36.580  33.882  41.625  1.00  0.00     0.014 A 
ATOM     17  C   UNL A   1      35.803  32.066  39.656  1.00  0.00     0.011 A 
ATOM     18  C   UNL A   1      35.249  33.466  41.541  1.00  0.00     0.001 A 
ATOM     19  C   UNL A   1      34.872  32.521  40.588  1.00  0.00     0.001 A 
BRANCH  10  20
ATOM     20  C   UNL A   1      41.301  33.059  40.180  1.00  0.00     0.197 C 
ATOM     21  C   UNL A   1      42.013  32.474  38.947  1.00  0.00     0.044 C 
BRANCH  20  22
ATOM     22  C   UNL A   1      41.840  32.440  41.499  1.00  0.00     0.249 C 
ATOM     23  O   UNL A   1      41.633  31.255  41.790  1.00  0.00    -0.272 OA
ATOM     24  N   UNL A   1      42.667  33.142  42.346  1.00  0.00    -0.324 N 
ATOM     25  H   UNL A   1      43.119  32.581  43.018  1.00  0.00     0.170 HD
BRANCH  24  26
ATOM     26  C   UNL A   1      42.986  34.504  42.434  1.00  0.00     0.041 A 
ATOM     27  C   UNL A   1      42.242  35.318  43.290  1.00  0.00     0.027 A 
ATOM     28  C   UNL A   1      43.955  35.102  41.643  1.00  0.00     0.027 A 
ATOM     29  C   UNL A   1      42.572  36.674  43.451  1.00  0.00     0.015 A 
ATOM     30  C   UNL A   1      44.306  36.442  41.807  1.00  0.00     0.015 A 
ATOM     31  C   UNL A   1      43.640  37.239  42.741  1.00  0.00     0.056 A 
BRANCH  31  32
ATOM     32  C   UNL A   1      44.037  38.683  42.920  1.00  0.00     0.416 C 
ATOM     33  F   UNL A   1      44.861  39.119  41.925  1.00  0.00    -0.166 F 
ATOM     34  F   UNL A   1      42.986  39.543  42.950  1.00  0.00    -0.166 F 
ATOM     35  F   UNL A   1      44.726  38.899  44.081  1.00  0.00    -0.166 F 
ENDBRANCH  31  32
ENDBRANCH  24  26
ENDBRANCH  20  22
ENDBRANCH  10  20
ENDBRANCH   7   9
ENDBRANCH   6   7
ENDBRANCH   5   6
ENDBRANCH   4   5
ENDBRANCH   3   4
ENDBRANCH   2   3
ENDBRANCH   1   2
BRANCH   1  36
ATOM     36  O   UNL A   1      33.336  34.828  31.733  1.00  0.00    -0.377 OA
BRANCH  36  37
ATOM     37  C   UNL A   1      33.269  35.672  30.587  1.00  0.00     0.188 C 
BRANCH  37  38
ATOM     38  C   UNL A   1      32.998  34.971  29.243  1.00  0.00     0.188 C 
BRANCH  38  39
ATOM     39  O   UNL A   1      34.125  35.013  28.363  1.00  0.00    -0.376 OA
BRANCH  39  40
ATOM     40  C   UNL A   1      35.146  34.048  28.605  1.00  0.00     0.202 C 
BRANCH  40  41
ATOM     41  C   UNL A   1      34.632  32.608  28.757  1.00  0.00     0.261 C 
BRANCH  41  42
ATOM     42  O   UNL A   1      34.628  31.822  27.553  1.00  0.00    -0.460 OA
BRANCH  42  43
ATOM     43  C   UNL A   1      34.548  30.480  27.684  1.00  0.00     0.338 C 
ATOM     44  O   UNL A   1      33.610  29.770  27.381  1.00  0.00    -0.246 OA
BRANCH  43  45
ATOM     45  C   UNL A   1      35.884  29.980  28.066  1.00  0.00     0.060 A 
ATOM     46  C   UNL A   1      36.036  29.375  29.321  1.00  0.00     0.016 A 
ATOM     47  C   UNL A   1      36.978  30.129  27.211  1.00  0.00     0.016 A 
ATOM     48  C   UNL A   1      37.299  28.969  29.749  1.00  0.00     0.010 A 
ATOM     49  C   UNL A   1      38.247  29.750  27.651  1.00  0.00     0.010 A 
ATOM     50  C   UNL A   1      38.416  29.214  28.940  1.00  0.00    -0.014 A 
BRANCH  50  51
ATOM     51  C   UNL A   1      39.768  29.179  29.542  1.00  0.00     0.031 A 
ATOM     52  C   UNL A   1      40.695  28.078  29.098  1.00  0.00     0.074 A 
ATOM     53  C   UNL A   1      40.167  30.088  30.447  1.00  0.00     0.049 A 
ATOM     54  N   UNL A   1      41.900  27.789  29.509  1.00  0.00    -0.248 NA
ATOM     55  C   UNL A   1      40.189  27.178  28.044  1.00  0.00     0.031 C 
ATOM     56  C   UNL A   1      39.371  31.217  30.924  1.00  0.00     0.029 A 
ATOM     57  N   UNL A   1      41.348  30.192  31.138  1.00  0.00    -0.354 N 
ATOM     58  C   UNL A   1      42.294  26.680  28.771  1.00  0.00     0.074 A 
ATOM     59  C   UNL A   1      41.196  26.331  27.900  1.00  0.00     0.031 C 
ATOM     60  C   UNL A   1      40.080  31.890  31.849  1.00  0.00     0.029 A 
ATOM     61  C   UNL A   1      41.367  31.224  32.046  1.00  0.00     0.049 A 
ATOM     62  H   UNL A   1      42.110  29.585  30.997  1.00  0.00     0.167 HD
ATOM     63  C   UNL A   1      43.469  26.010  28.813  1.00  0.00     0.037 A 
ATOM     64  C   UNL A   1      42.309  31.569  32.947  1.00  0.00     0.037 A 
ATOM     65  C   UNL A   1      44.555  26.352  29.688  1.00  0.00     0.049 A 
ATOM     66  C   UNL A   1      43.588  30.770  33.017  1.00  0.00     0.074 A 
ATOM     67  C   UNL A   1      45.788  25.738  29.811  1.00  0.00     0.029 A 
ATOM     68  N   UNL A   1      44.532  27.398  30.598  1.00  0.00    -0.354 N 
ATOM     69  N   UNL A   1      43.956  29.736  32.298  1.00  0.00    -0.248 NA
ATOM     70  C   UNL A   1      44.580  31.186  34.020  1.00  0.00     0.031 C 
ATOM     71  C   UNL A   1      46.500  26.393  30.821  1.00  0.00     0.029 A 
ATOM     72  C   UNL A   1      45.725  27.440  31.298  1.00  0.00     0.049 A 
ATOM     73  H   UNL A   1      43.779  28.020  30.727  1.00  0.00     0.167 HD
ATOM     74  C   UNL A   1      45.231  29.398  32.741  1.00  0.00     0.074 A 
ATOM     75  C   UNL A   1      45.574  30.340  33.787  1.00  0.00     0.031 C 
ATOM     76  C   UNL A   1      46.049  28.402  32.319  1.00  0.00     0.037 A 
BRANCH  63  77
ATOM     77  C   UNL A   1      43.625  24.828  27.901  1.00  0.00     0.058 A 
ATOM     78  C   UNL A   1      44.233  24.947  26.642  1.00  0.00     0.135 A 
ATOM     79  C   UNL A   1      43.181  23.558  28.301  1.00  0.00     0.135 A 
ATOM     80  F   UNL A   1      44.648  26.145  26.202  1.00  0.00    -0.206 F 
ATOM     81  C   UNL A   1      44.383  23.847  25.804  1.00  0.00     0.059 A 
ATOM     82  C   UNL A   1      43.341  22.441  27.488  1.00  0.00     0.059 A 
ATOM     83  F   UNL A   1      42.582  23.396  29.492  1.00  0.00    -0.206 F 
ATOM     84  C   UNL A   1      43.935  22.599  26.236  1.00  0.00     0.060 A 
BRANCH  84  85
ATOM     85  S   UNL A   1      44.151  21.177  25.144  1.00  0.00     0.124 S 
ATOM     86  O   UNL A   1      44.147  21.818  23.832  1.00  0.00    -0.237 OA
ATOM     87  O   UNL A   1      45.434  20.639  25.581  1.00  0.00    -0.237 OA
ATOM     88  O   UNL A   1      42.990  20.344  25.438  1.00  0.00    -0.744 OA
ENDBRANCH  84  85
ENDBRANCH  63  77
BRANCH  64  89
ATOM     89  C   UNL A   1      42.079  32.710  33.872  1.00  0.00     0.058 A 
ATOM     90  C   UNL A   1      41.398  32.539  35.085  1.00  0.00     0.135 A 
ATOM     91  C   UNL A   1      42.517  34.004  33.546  1.00  0.00     0.135 A 
ATOM     92  F   UNL A   1      40.947  31.323  35.434  1.00  0.00    -0.206 F 
ATOM     93  C   UNL A   1      41.142  33.609  35.937  1.00  0.00     0.059 A 
ATOM     94  C   UNL A   1      42.294  35.086  34.391  1.00  0.00     0.059 A 
ATOM     95  F   UNL A   1      43.181  34.221  32.401  1.00  0.00    -0.206 F 
ATOM     96  C   UNL A   1      41.593  34.882  35.579  1.00  0.00     0.060 A 
BRANCH  96  97
ATOM     97  S   UNL A   1      41.295  36.263  36.704  1.00  0.00     0.124 S 
ATOM     98  O   UNL A   1      41.227  35.584  37.992  1.00  0.00    -0.237 OA
ATOM     99  O   UNL A   1      42.470  37.101  36.485  1.00  0.00    -0.237 OA
ATOM    100  O   UNL A   1      40.039  36.824  36.215  1.00  0.00    -0.744 OA
ENDBRANCH  96  97
ENDBRANCH  64  89
BRANCH  76 101
ATOM    101  C   UNL A   1      47.411  28.303  32.948  1.00  0.00     0.058 A 
ATOM    102  C   UNL A   1      48.510  29.012  32.443  1.00  0.00     0.135 A 
ATOM    103  C   UNL A   1      47.594  27.550  34.119  1.00  0.00     0.135 A 
ATOM    104  F   UNL A   1      48.386  29.743  31.323  1.00  0.00    -0.206 F 
ATOM    105  C   UNL A   1      49.750  28.968  33.069  1.00  0.00     0.059 A 
ATOM    106  C   UNL A   1      48.819  27.511  34.776  1.00  0.00     0.059 A 
ATOM    107  F   UNL A   1      46.568  26.865  34.650  1.00  0.00    -0.206 F 
ATOM    108  C   UNL A   1      49.894  28.216  34.238  1.00  0.00     0.060 A 
BRANCH 108 109
ATOM    109  S   UNL A   1      51.495  28.205  35.072  1.00  0.00     0.124 S 
ATOM    110  O   UNL A   1      51.589  26.817  35.509  1.00  0.00    -0.237 OA
ATOM    111  O   UNL A   1      52.409  28.598  34.004  1.00  0.00    -0.237 OA
ATOM    112  O   UNL A   1      51.328  29.190  36.137  1.00  0.00    -0.744 OA
ENDBRANCH 108 109
ENDBRANCH  76 101
ENDBRANCH  50  51
ENDBRANCH  43  45
ENDBRANCH  42  43
ENDBRANCH  41  42
ENDBRANCH  40  41
ENDBRANCH  39  40
ENDBRANCH  38  39
ENDBRANCH  37  38
ENDBRANCH  36  37
ENDBRANCH   1  36
TORSDOF 27
ENDMDL
