MODEL 1
REMARK VINA RESULT:      -9.8      0.000      0.000
REMARK SMILES Cc1ccc(Nc2c(F)cccc2Cl)c(CC(=O)OCCOCCOCCOCCOC(=O)c2ccc(-c3c4nc(c(-c5c(F)cc(S(=O)(=O)[O-])cc5F)c5ccc([nH]5)c(-c5c(F)cc(S(=O)(=O)[O-])cc5F)c5nc(c(-c6c(F)cc(S(=O)(=O)[O-])cc6F)c6ccc3[nH]6)C=C5)C=C4)cc2)c1
REMARK SMILES IDX 25 1 24 2 23 3 22 4 21 5 20 6 19 7 17 8 18 9 16 10 15 11
REMARK SMILES IDX 1 12 2 13 3 14 100 15 4 16 5 17 6 18 7 20 8 21 13 22 9 23
REMARK SMILES IDX 10 24 12 25 14 26 11 27 26 28 27 29 28 30 29 31 30 32 31 33
REMARK SMILES IDX 32 34 33 35 34 36 35 37 99 38 36 39 98 40 37 41 38 42 39 43
REMARK SMILES IDX 92 44 40 45 97 46 91 47 93 48 41 49 96 50 90 51 89 52 42 54
REMARK SMILES IDX 76 55 55 56 75 57 56 58 59 59 74 60 94 61 57 62 58 63 73 65
REMARK SMILES IDX 95 66 60 67 43 68 44 69 53 70 45 71 46 72 52 73 54 74 47 75
REMARK SMILES IDX 48 76 49 77 50 78 51 79 77 80 78 81 87 82 79 83 80 84 86 85
REMARK SMILES IDX 88 86 81 87 82 88 83 89 84 90 85 91 61 92 62 93 71 94 63 95
REMARK SMILES IDX 64 96 70 97 72 98 65 99 66 100 67 101 68 102 69 103
REMARK H PARENT 6 19 93 53 59 64
REMARK Flexibility Score: inf
ROOT
ATOM      1  O   UNL A   1      33.862  28.195  26.246  1.00  0.00    -0.377 OA
ENDROOT
BRANCH   1   2
ATOM      2  C   UNL A   1      33.310  29.307  25.558  1.00  0.00     0.188 C 
BRANCH   2   3
ATOM      3  C   UNL A   1      33.269  29.261  24.066  1.00  0.00     0.188 C 
BRANCH   3   4
ATOM      4  O   UNL A   1      32.060  28.962  23.409  1.00  0.00    -0.376 OA
BRANCH   4   5
ATOM      5  C   UNL A   1      32.283  28.108  22.317  1.00  0.00     0.202 C 
BRANCH   5   6
ATOM      6  C   UNL A   1      33.512  27.215  22.395  1.00  0.00     0.261 C 
BRANCH   6   7
ATOM      7  O   UNL A   1      33.654  26.354  21.255  1.00  0.00    -0.463 OA
BRANCH   7   8
ATOM      8  C   UNL A   1      32.600  25.523  21.060  1.00  0.00     0.310 C 
ATOM      9  O   UNL A   1      31.637  25.781  20.371  1.00  0.00    -0.252 OA
BRANCH   8  10
ATOM     10  C   UNL A   1      32.669  24.237  21.851  1.00  0.00     0.160 C 
BRANCH  10  11
ATOM     11  C   UNL A   1      31.963  24.054  23.192  1.00  0.00    -0.013 A 
ATOM     12  C   UNL A   1      29.290  26.214  24.954  1.00  0.00     0.044 C 
ATOM     13  C   UNL A   1      30.268  25.116  24.659  1.00  0.00    -0.051 A 
ATOM     14  C   UNL A   1      30.321  24.004  25.479  1.00  0.00     0.005 A 
ATOM     15  C   UNL A   1      31.116  25.151  23.550  1.00  0.00     0.009 A 
ATOM     16  C   UNL A   1      31.200  22.953  25.193  1.00  0.00     0.026 A 
ATOM     17  C   UNL A   1      32.026  22.905  24.048  1.00  0.00     0.042 A 
BRANCH  17  18
ATOM     18  N   UNL A   1      32.904  21.771  23.833  1.00  0.00    -0.352 N 
ATOM     19  H   UNL A   1      33.847  21.996  23.661  1.00  0.00     0.167 HD
BRANCH  18  20
ATOM     20  C   UNL A   1      32.595  20.349  23.833  1.00  0.00     0.094 A 
ATOM     21  C   UNL A   1      32.831  19.522  24.939  1.00  0.00     0.148 A 
ATOM     22  C   UNL A   1      32.274  19.649  22.638  1.00  0.00     0.067 A 
ATOM     23  F   UNL A   1      32.879  20.046  26.173  1.00  0.00    -0.205 F 
ATOM     24  C   UNL A   1      33.024  18.137  24.825  1.00  0.00     0.041 A 
ATOM     25  C   UNL A   1      32.542  18.270  22.491  1.00  0.00     0.023 A 
ATOM     26  Cl  UNL A   1      31.565  20.454  21.275  1.00  0.00    -0.082 Cl
ATOM     27  C   UNL A   1      32.955  17.518  23.585  1.00  0.00     0.005 A 
ENDBRANCH  18  20
ENDBRANCH  17  18
ENDBRANCH  10  11
ENDBRANCH   8  10
ENDBRANCH   7   8
ENDBRANCH   6   7
ENDBRANCH   5   6
ENDBRANCH   4   5
ENDBRANCH   3   4
ENDBRANCH   2   3
ENDBRANCH   1   2
BRANCH   1  28
ATOM     28  C   UNL A   1      32.995  27.055  26.119  1.00  0.00     0.188 C 
BRANCH  28  29
ATOM     29  C   UNL A   1      33.625  25.657  26.120  1.00  0.00     0.188 C 
BRANCH  29  30
ATOM     30  O   UNL A   1      34.371  25.491  24.927  1.00  0.00    -0.376 OA
BRANCH  30  31
ATOM     31  C   UNL A   1      35.339  24.466  24.888  1.00  0.00     0.202 C 
BRANCH  31  32
ATOM     32  C   UNL A   1      36.034  24.474  26.235  1.00  0.00     0.261 C 
BRANCH  32  33
ATOM     33  O   UNL A   1      36.651  23.174  26.423  1.00  0.00    -0.460 OA
BRANCH  33  34
ATOM     34  C   UNL A   1      37.900  23.047  25.874  1.00  0.00     0.338 C 
ATOM     35  O   UNL A   1      38.147  22.298  24.949  1.00  0.00    -0.246 OA
BRANCH  34  36
ATOM     36  C   UNL A   1      38.895  23.963  26.527  1.00  0.00     0.060 A 
ATOM     37  C   UNL A   1      38.870  24.186  27.913  1.00  0.00     0.016 A 
ATOM     38  C   UNL A   1      39.767  24.720  25.755  1.00  0.00     0.016 A 
ATOM     39  C   UNL A   1      39.583  25.260  28.501  1.00  0.00     0.010 A 
ATOM     40  C   UNL A   1      40.471  25.771  26.341  1.00  0.00     0.010 A 
ATOM     41  C   UNL A   1      40.345  26.109  27.705  1.00  0.00    -0.014 A 
BRANCH  41  42
ATOM     42  C   UNL A   1      40.938  27.423  28.097  1.00  0.00     0.031 A 
ATOM     43  C   UNL A   1      40.021  28.620  28.208  1.00  0.00     0.074 A 
ATOM     44  C   UNL A   1      42.139  27.439  28.744  1.00  0.00     0.049 A 
ATOM     45  N   UNL A   1      40.305  29.733  28.798  1.00  0.00    -0.248 NA
ATOM     46  C   UNL A   1      38.652  28.634  27.686  1.00  0.00     0.031 C 
ATOM     47  C   UNL A   1      42.542  28.312  29.858  1.00  0.00     0.029 A 
ATOM     48  N   UNL A   1      43.249  26.625  28.644  1.00  0.00    -0.354 N 
ATOM     49  C   UNL A   1      39.128  30.430  29.044  1.00  0.00     0.074 A 
ATOM     50  C   UNL A   1      38.144  29.746  28.242  1.00  0.00     0.031 C 
ATOM     51  C   UNL A   1      43.788  28.027  30.272  1.00  0.00     0.029 A 
ATOM     52  C   UNL A   1      44.369  27.238  29.222  1.00  0.00     0.049 A 
ATOM     53  H   UNL A   1      43.255  25.736  28.224  1.00  0.00     0.167 HD
ATOM     54  C   UNL A   1      39.113  31.399  30.021  1.00  0.00     0.037 A 
ATOM     55  C   UNL A   1      45.363  27.725  28.412  1.00  0.00     0.037 A 
ATOM     56  C   UNL A   1      40.485  31.759  30.456  1.00  0.00     0.049 A 
ATOM     57  C   UNL A   1      45.322  29.263  28.277  1.00  0.00     0.074 A 
ATOM     58  C   UNL A   1      41.139  32.018  31.652  1.00  0.00     0.029 A 
ATOM     59  N   UNL A   1      41.487  31.796  29.496  1.00  0.00    -0.354 N 
ATOM     60  N   UNL A   1      44.434  30.021  28.883  1.00  0.00    -0.248 NA
ATOM     61  C   UNL A   1      46.238  30.087  27.490  1.00  0.00     0.031 C 
ATOM     62  C   UNL A   1      42.547  32.098  31.390  1.00  0.00     0.029 A 
ATOM     63  C   UNL A   1      42.733  32.019  30.023  1.00  0.00     0.049 A 
ATOM     64  H   UNL A   1      41.320  31.675  28.533  1.00  0.00     0.167 HD
ATOM     65  C   UNL A   1      44.600  31.340  28.587  1.00  0.00     0.074 A 
ATOM     66  C   UNL A   1      45.738  31.327  27.680  1.00  0.00     0.031 C 
ATOM     67  C   UNL A   1      43.804  32.334  29.094  1.00  0.00     0.037 A 
BRANCH  54  68
ATOM     68  C   UNL A   1      37.866  31.962  30.733  1.00  0.00     0.058 A 
ATOM     69  C   UNL A   1      37.108  32.997  30.131  1.00  0.00     0.135 A 
ATOM     70  C   UNL A   1      37.439  31.639  32.043  1.00  0.00     0.135 A 
ATOM     71  F   UNL A   1      37.350  33.390  28.873  1.00  0.00    -0.206 F 
ATOM     72  C   UNL A   1      36.066  33.682  30.776  1.00  0.00     0.059 A 
ATOM     73  C   UNL A   1      36.359  32.274  32.690  1.00  0.00     0.059 A 
ATOM     74  F   UNL A   1      38.072  30.715  32.778  1.00  0.00    -0.206 F 
ATOM     75  C   UNL A   1      35.692  33.314  32.059  1.00  0.00     0.060 A 
BRANCH  75  76
ATOM     76  S   UNL A   1      34.312  34.180  32.847  1.00  0.00     0.124 S 
ATOM     77  O   UNL A   1      33.810  35.018  31.762  1.00  0.00    -0.237 OA
ATOM     78  O   UNL A   1      33.439  33.082  33.251  1.00  0.00    -0.237 OA
ATOM     79  O   UNL A   1      34.944  34.900  33.950  1.00  0.00    -0.744 OA
ENDBRANCH  75  76
ENDBRANCH  54  68
BRANCH  55  80
ATOM     80  C   UNL A   1      45.792  26.628  27.474  1.00  0.00     0.058 A 
ATOM     81  C   UNL A   1      46.086  25.403  28.129  1.00  0.00     0.135 A 
ATOM     82  C   UNL A   1      45.213  26.531  26.195  1.00  0.00     0.135 A 
ATOM     83  F   UNL A   1      46.652  25.419  29.347  1.00  0.00    -0.206 F 
ATOM     84  C   UNL A   1      45.588  24.182  27.673  1.00  0.00     0.059 A 
ATOM     85  C   UNL A   1      44.717  25.305  25.714  1.00  0.00     0.059 A 
ATOM     86  F   UNL A   1      44.900  27.645  25.517  1.00  0.00    -0.206 F 
ATOM     87  C   UNL A   1      44.856  24.149  26.490  1.00  0.00     0.060 A 
BRANCH  87  88
ATOM     88  S   UNL A   1      43.910  22.644  26.112  1.00  0.00     0.124 S 
ATOM     89  O   UNL A   1      44.969  21.673  25.872  1.00  0.00    -0.237 OA
ATOM     90  O   UNL A   1      43.137  22.446  27.334  1.00  0.00    -0.237 OA
ATOM     91  O   UNL A   1      43.133  23.041  24.945  1.00  0.00    -0.744 OA
ENDBRANCH  87  88
ENDBRANCH  55  80
BRANCH  67  92
ATOM     92  C   UNL A   1      43.897  33.774  28.675  1.00  0.00     0.058 A 
ATOM     93  C   UNL A   1      43.668  34.192  27.364  1.00  0.00     0.135 A 
ATOM     94  C   UNL A   1      44.287  34.783  29.597  1.00  0.00     0.135 A 
ATOM     95  F   UNL A   1      43.455  33.298  26.386  1.00  0.00    -0.206 F 
ATOM     96  C   UNL A   1      43.649  35.541  27.025  1.00  0.00     0.059 A 
ATOM     97  C   UNL A   1      44.341  36.125  29.263  1.00  0.00     0.059 A 
ATOM     98  F   UNL A   1      44.588  34.516  30.874  1.00  0.00    -0.206 F 
ATOM     99  C   UNL A   1      43.953  36.499  27.992  1.00  0.00     0.060 A 
BRANCH  99 100
ATOM    100  S   UNL A   1      43.794  38.243  27.595  1.00  0.00     0.124 S 
ATOM    101  O   UNL A   1      42.827  38.228  26.502  1.00  0.00    -0.237 OA
ATOM    102  O   UNL A   1      43.310  38.779  28.863  1.00  0.00    -0.237 OA
ATOM    103  O   UNL A   1      45.150  38.635  27.222  1.00  0.00    -0.744 OA
ENDBRANCH  99 100
ENDBRANCH  67  92
ENDBRANCH  41  42
ENDBRANCH  34  36
ENDBRANCH  33  34
ENDBRANCH  32  33
ENDBRANCH  31  32
ENDBRANCH  30  31
ENDBRANCH  29  30
ENDBRANCH  28  29
ENDBRANCH   1  28
TORSDOF 26
ENDMDL
MODEL 2
REMARK VINA RESULT:      -9.7      3.780      7.907
REMARK SMILES Cc1ccc(Nc2c(F)cccc2Cl)c(CC(=O)OCCOCCOCCOCCOC(=O)c2ccc(-c3c4nc(c(-c5c(F)cc(S(=O)(=O)[O-])cc5F)c5ccc([nH]5)c(-c5c(F)cc(S(=O)(=O)[O-])cc5F)c5nc(c(-c6c(F)cc(S(=O)(=O)[O-])cc6F)c6ccc3[nH]6)C=C5)C=C4)cc2)c1
REMARK SMILES IDX 25 1 24 2 23 3 22 4 21 5 20 6 19 7 17 8 18 9 16 10 15 11
REMARK SMILES IDX 1 12 2 13 3 14 100 15 4 16 5 17 6 18 7 20 8 21 13 22 9 23
REMARK SMILES IDX 10 24 12 25 14 26 11 27 26 28 27 29 28 30 29 31 30 32 31 33
REMARK SMILES IDX 32 34 33 35 34 36 35 37 99 38 36 39 98 40 37 41 38 42 39 43
REMARK SMILES IDX 92 44 40 45 97 46 91 47 93 48 41 49 96 50 90 51 89 52 42 54
REMARK SMILES IDX 76 55 55 56 75 57 56 58 59 59 74 60 94 61 57 62 58 63 73 65
REMARK SMILES IDX 95 66 60 67 43 68 44 69 53 70 45 71 46 72 52 73 54 74 47 75
REMARK SMILES IDX 48 76 49 77 50 78 51 79 77 80 78 81 87 82 79 83 80 84 86 85
REMARK SMILES IDX 88 86 81 87 82 88 83 89 84 90 85 91 61 92 62 93 71 94 63 95
REMARK SMILES IDX 64 96 70 97 72 98 65 99 66 100 67 101 68 102 69 103
REMARK H PARENT 6 19 93 53 59 64
REMARK Flexibility Score: inf
ROOT
ATOM      1  O   UNL A   1      32.201  27.711  25.301  1.00  0.00    -0.377 OA
ENDROOT
BRANCH   1   2
ATOM      2  C   UNL A   1      31.700  27.216  24.069  1.00  0.00     0.188 C 
BRANCH   2   3
ATOM      3  C   UNL A   1      30.559  26.252  24.110  1.00  0.00     0.188 C 
BRANCH   3   4
ATOM      4  O   UNL A   1      29.484  26.479  24.990  1.00  0.00    -0.376 OA
BRANCH   4   5
ATOM      5  C   UNL A   1      29.609  25.690  26.145  1.00  0.00     0.202 C 
BRANCH   5   6
ATOM      6  C   UNL A   1      30.062  24.252  25.937  1.00  0.00     0.261 C 
BRANCH   6   7
ATOM      7  O   UNL A   1      30.480  23.613  27.153  1.00  0.00    -0.463 OA
BRANCH   7   8
ATOM      8  C   UNL A   1      31.649  22.934  27.043  1.00  0.00     0.310 C 
ATOM      9  O   UNL A   1      32.488  22.861  27.914  1.00  0.00    -0.252 OA
BRANCH   8  10
ATOM     10  C   UNL A   1      31.881  22.316  25.683  1.00  0.00     0.160 C 
BRANCH  10  11
ATOM     11  C   UNL A   1      33.170  22.523  24.893  1.00  0.00    -0.013 A 
ATOM     12  C   UNL A   1      34.519  25.625  23.029  1.00  0.00     0.044 C 
ATOM     13  C   UNL A   1      34.401  24.242  23.595  1.00  0.00    -0.051 A 
ATOM     14  C   UNL A   1      35.477  23.376  23.520  1.00  0.00     0.005 A 
ATOM     15  C   UNL A   1      33.247  23.796  24.241  1.00  0.00     0.009 A 
ATOM     16  C   UNL A   1      35.396  22.096  24.081  1.00  0.00     0.026 A 
ATOM     17  C   UNL A   1      34.282  21.621  24.806  1.00  0.00     0.042 A 
BRANCH  17  18
ATOM     18  N   UNL A   1      34.289  20.279  25.355  1.00  0.00    -0.352 N 
ATOM     19  H   UNL A   1      34.352  20.226  26.336  1.00  0.00     0.167 HD
BRANCH  18  20
ATOM     20  C   UNL A   1      34.218  18.997  24.667  1.00  0.00     0.094 A 
ATOM     21  C   UNL A   1      33.022  18.477  24.156  1.00  0.00     0.148 A 
ATOM     22  C   UNL A   1      35.296  18.071  24.690  1.00  0.00     0.067 A 
ATOM     23  F   UNL A   1      32.014  19.300  23.830  1.00  0.00    -0.205 F 
ATOM     24  C   UNL A   1      32.814  17.104  23.957  1.00  0.00     0.041 A 
ATOM     25  C   UNL A   1      35.082  16.681  24.572  1.00  0.00     0.023 A 
ATOM     26  Cl  UNL A   1      36.938  18.591  24.900  1.00  0.00    -0.082 Cl
ATOM     27  C   UNL A   1      33.823  16.194  24.239  1.00  0.00     0.005 A 
ENDBRANCH  18  20
ENDBRANCH  17  18
ENDBRANCH  10  11
ENDBRANCH   8  10
ENDBRANCH   7   8
ENDBRANCH   6   7
ENDBRANCH   5   6
ENDBRANCH   4   5
ENDBRANCH   3   4
ENDBRANCH   2   3
ENDBRANCH   1   2
BRANCH   1  28
ATOM     28  C   UNL A   1      32.743  29.031  25.120  1.00  0.00     0.188 C 
BRANCH  28  29
ATOM     29  C   UNL A   1      32.510  30.071  26.222  1.00  0.00     0.188 C 
BRANCH  29  30
ATOM     30  O   UNL A   1      33.407  29.817  27.289  1.00  0.00    -0.376 OA
BRANCH  30  31
ATOM     31  C   UNL A   1      34.697  29.342  26.973  1.00  0.00     0.202 C 
BRANCH  31  32
ATOM     32  C   UNL A   1      35.679  30.338  27.557  1.00  0.00     0.261 C 
BRANCH  32  33
ATOM     33  O   UNL A   1      36.934  29.644  27.779  1.00  0.00    -0.460 OA
BRANCH  33  34
ATOM     34  C   UNL A   1      37.842  30.330  28.541  1.00  0.00     0.338 C 
ATOM     35  O   UNL A   1      37.565  31.340  29.159  1.00  0.00    -0.246 OA
BRANCH  34  36
ATOM     36  C   UNL A   1      39.188  29.663  28.546  1.00  0.00     0.060 A 
ATOM     37  C   UNL A   1      40.158  30.001  29.504  1.00  0.00     0.016 A 
ATOM     38  C   UNL A   1      39.552  28.804  27.517  1.00  0.00     0.016 A 
ATOM     39  C   UNL A   1      41.514  29.621  29.348  1.00  0.00     0.010 A 
ATOM     40  C   UNL A   1      40.887  28.428  27.372  1.00  0.00     0.010 A 
ATOM     41  C   UNL A   1      41.906  28.880  28.238  1.00  0.00    -0.014 A 
BRANCH  41  42
ATOM     42  C   UNL A   1      43.302  28.620  27.774  1.00  0.00     0.031 A 
ATOM     43  C   UNL A   1      44.090  29.770  27.188  1.00  0.00     0.074 A 
ATOM     44  C   UNL A   1      43.968  27.534  28.260  1.00  0.00     0.049 A 
ATOM     45  N   UNL A   1      45.369  29.794  27.009  1.00  0.00    -0.248 NA
ATOM     46  C   UNL A   1      43.479  31.042  26.790  1.00  0.00     0.031 C 
ATOM     47  C   UNL A   1      45.387  27.453  28.644  1.00  0.00     0.029 A 
ATOM     48  N   UNL A   1      43.534  26.276  28.626  1.00  0.00    -0.354 N 
ATOM     49  C   UNL A   1      45.780  31.109  26.831  1.00  0.00     0.074 A 
ATOM     50  C   UNL A   1      44.551  31.829  26.604  1.00  0.00     0.031 C 
ATOM     51  C   UNL A   1      45.694  26.234  29.115  1.00  0.00     0.029 A 
ATOM     52  C   UNL A   1      44.610  25.382  28.710  1.00  0.00     0.049 A 
ATOM     53  H   UNL A   1      42.596  26.039  28.805  1.00  0.00     0.167 HD
ATOM     54  C   UNL A   1      47.096  31.438  27.058  1.00  0.00     0.037 A 
ATOM     55  C   UNL A   1      44.763  24.421  27.744  1.00  0.00     0.037 A 
ATOM     56  C   UNL A   1      47.951  30.230  27.167  1.00  0.00     0.049 A 
ATOM     57  C   UNL A   1      45.884  24.761  26.737  1.00  0.00     0.074 A 
ATOM     58  C   UNL A   1      48.993  29.790  27.970  1.00  0.00     0.029 A 
ATOM     59  N   UNL A   1      47.667  29.151  26.342  1.00  0.00    -0.354 N 
ATOM     60  N   UNL A   1      46.617  25.851  26.808  1.00  0.00    -0.248 NA
ATOM     61  C   UNL A   1      46.296  23.947  25.595  1.00  0.00     0.031 C 
ATOM     62  C   UNL A   1      49.238  28.408  27.676  1.00  0.00     0.029 A 
ATOM     63  C   UNL A   1      48.438  28.049  26.608  1.00  0.00     0.049 A 
ATOM     64  H   UNL A   1      46.982  29.174  25.635  1.00  0.00     0.167 HD
ATOM     65  C   UNL A   1      47.522  25.925  25.794  1.00  0.00     0.074 A 
ATOM     66  C   UNL A   1      47.261  24.710  25.037  1.00  0.00     0.031 C 
ATOM     67  C   UNL A   1      48.406  26.963  25.644  1.00  0.00     0.037 A 
BRANCH  54  68
ATOM     68  C   UNL A   1      47.652  32.849  27.338  1.00  0.00     0.058 A 
ATOM     69  C   UNL A   1      46.952  33.734  28.196  1.00  0.00     0.135 A 
ATOM     70  C   UNL A   1      48.771  33.443  26.707  1.00  0.00     0.135 A 
ATOM     71  F   UNL A   1      45.897  33.316  28.909  1.00  0.00    -0.206 F 
ATOM     72  C   UNL A   1      47.290  35.084  28.374  1.00  0.00     0.059 A 
ATOM     73  C   UNL A   1      49.165  34.781  26.915  1.00  0.00     0.059 A 
ATOM     74  F   UNL A   1      49.520  32.765  25.828  1.00  0.00    -0.206 F 
ATOM     75  C   UNL A   1      48.403  35.605  27.732  1.00  0.00     0.060 A 
BRANCH  75  76
ATOM     76  S   UNL A   1      48.846  37.337  28.019  1.00  0.00     0.124 S 
ATOM     77  O   UNL A   1      49.448  37.719  26.745  1.00  0.00    -0.237 OA
ATOM     78  O   UNL A   1      47.554  37.948  28.315  1.00  0.00    -0.237 OA
ATOM     79  O   UNL A   1      49.768  37.271  29.150  1.00  0.00    -0.744 OA
ENDBRANCH  75  76
ENDBRANCH  54  68
BRANCH  55  80
ATOM     80  C   UNL A   1      43.466  23.668  27.613  1.00  0.00     0.058 A 
ATOM     81  C   UNL A   1      43.034  23.509  26.271  1.00  0.00     0.135 A 
ATOM     82  C   UNL A   1      43.177  22.608  28.493  1.00  0.00     0.135 A 
ATOM     83  F   UNL A   1      43.264  24.487  25.379  1.00  0.00    -0.206 F 
ATOM     84  C   UNL A   1      42.600  22.280  25.772  1.00  0.00     0.059 A 
ATOM     85  C   UNL A   1      42.727  21.365  28.011  1.00  0.00     0.059 A 
ATOM     86  F   UNL A   1      43.561  22.681  29.776  1.00  0.00    -0.206 F 
ATOM     87  C   UNL A   1      42.501  21.196  26.640  1.00  0.00     0.060 A 
BRANCH  87  88
ATOM     88  S   UNL A   1      42.302  19.540  25.918  1.00  0.00     0.124 S 
ATOM     89  O   UNL A   1      43.366  19.514  24.923  1.00  0.00    -0.237 OA
ATOM     90  O   UNL A   1      42.497  18.669  27.073  1.00  0.00    -0.237 OA
ATOM     91  O   UNL A   1      40.942  19.581  25.396  1.00  0.00    -0.744 OA
ENDBRANCH  87  88
ENDBRANCH  55  80
BRANCH  67  92
ATOM     92  C   UNL A   1      49.319  27.119  24.461  1.00  0.00     0.058 A 
ATOM     93  C   UNL A   1      50.700  26.945  24.548  1.00  0.00     0.135 A 
ATOM     94  C   UNL A   1      48.816  27.517  23.193  1.00  0.00     0.135 A 
ATOM     95  F   UNL A   1      51.291  26.729  25.735  1.00  0.00    -0.206 F 
ATOM     96  C   UNL A   1      51.511  26.984  23.419  1.00  0.00     0.059 A 
ATOM     97  C   UNL A   1      49.615  27.630  22.070  1.00  0.00     0.059 A 
ATOM     98  F   UNL A   1      47.518  27.770  22.979  1.00  0.00    -0.206 F 
ATOM     99  C   UNL A   1      50.950  27.293  22.179  1.00  0.00     0.060 A 
BRANCH  99 100
ATOM    100  S   UNL A   1      51.963  27.209  20.700  1.00  0.00     0.124 S 
ATOM    101  O   UNL A   1      52.861  28.348  20.871  1.00  0.00    -0.237 OA
ATOM    102  O   UNL A   1      52.573  25.893  20.849  1.00  0.00    -0.237 OA
ATOM    103  O   UNL A   1      50.997  27.336  19.614  1.00  0.00    -0.744 OA
ENDBRANCH  99 100
ENDBRANCH  67  92
ENDBRANCH  41  42
ENDBRANCH  34  36
ENDBRANCH  33  34
ENDBRANCH  32  33
ENDBRANCH  31  32
ENDBRANCH  30  31
ENDBRANCH  29  30
ENDBRANCH  28  29
ENDBRANCH   1  28
TORSDOF 26
ENDMDL
MODEL 3
REMARK VINA RESULT:      -9.4      4.231     10.195
REMARK SMILES Cc1ccc(Nc2c(F)cccc2Cl)c(CC(=O)OCCOCCOCCOCCOC(=O)c2ccc(-c3c4nc(c(-c5c(F)cc(S(=O)(=O)[O-])cc5F)c5ccc([nH]5)c(-c5c(F)cc(S(=O)(=O)[O-])cc5F)c5nc(c(-c6c(F)cc(S(=O)(=O)[O-])cc6F)c6ccc3[nH]6)C=C5)C=C4)cc2)c1
REMARK SMILES IDX 25 1 24 2 23 3 22 4 21 5 20 6 19 7 17 8 18 9 16 10 15 11
REMARK SMILES IDX 1 12 2 13 3 14 100 15 4 16 5 17 6 18 7 20 8 21 13 22 9 23
REMARK SMILES IDX 10 24 12 25 14 26 11 27 26 28 27 29 28 30 29 31 30 32 31 33
REMARK SMILES IDX 32 34 33 35 34 36 35 37 99 38 36 39 98 40 37 41 38 42 39 43
REMARK SMILES IDX 92 44 40 45 97 46 91 47 93 48 41 49 96 50 90 51 89 52 42 54
REMARK SMILES IDX 76 55 55 56 75 57 56 58 59 59 74 60 94 61 57 62 58 63 73 65
REMARK SMILES IDX 95 66 60 67 43 68 44 69 53 70 45 71 46 72 52 73 54 74 47 75
REMARK SMILES IDX 48 76 49 77 50 78 51 79 77 80 78 81 87 82 79 83 80 84 86 85
REMARK SMILES IDX 88 86 81 87 82 88 83 89 84 90 85 91 61 92 62 93 71 94 63 95
REMARK SMILES IDX 64 96 70 97 72 98 65 99 66 100 67 101 68 102 69 103
REMARK H PARENT 6 19 93 53 59 64
REMARK Flexibility Score: inf
ROOT
ATOM      1  O   UNL A   1      32.852  29.641  25.623  1.00  0.00    -0.377 OA
ENDROOT
BRANCH   1   2
ATOM      2  C   UNL A   1      31.772  29.066  26.343  1.00  0.00     0.188 C 
BRANCH   2   3
ATOM      3  C   UNL A   1      31.320  27.696  25.956  1.00  0.00     0.188 C 
BRANCH   3   4
ATOM      4  O   UNL A   1      32.261  26.751  25.504  1.00  0.00    -0.376 OA
BRANCH   4   5
ATOM      5  C   UNL A   1      31.738  25.450  25.578  1.00  0.00     0.202 C 
BRANCH   5   6
ATOM      6  C   UNL A   1      30.800  25.032  24.455  1.00  0.00     0.261 C 
BRANCH   6   7
ATOM      7  O   UNL A   1      31.488  24.723  23.234  1.00  0.00    -0.463 OA
BRANCH   7   8
ATOM      8  C   UNL A   1      31.694  23.397  23.041  1.00  0.00     0.310 C 
ATOM      9  O   UNL A   1      30.827  22.551  23.081  1.00  0.00    -0.252 OA
BRANCH   8  10
ATOM     10  C   UNL A   1      33.144  23.017  22.842  1.00  0.00     0.160 C 
BRANCH  10  11
ATOM     11  C   UNL A   1      34.010  22.453  23.965  1.00  0.00    -0.013 A 
ATOM     12  C   UNL A   1      37.112  23.917  25.740  1.00  0.00     0.044 C 
ATOM     13  C   UNL A   1      35.991  22.998  25.355  1.00  0.00    -0.051 A 
ATOM     14  C   UNL A   1      35.733  21.872  26.115  1.00  0.00     0.005 A 
ATOM     15  C   UNL A   1      35.156  23.255  24.266  1.00  0.00     0.009 A 
ATOM     16  C   UNL A   1      34.664  21.028  25.792  1.00  0.00     0.026 A 
ATOM     17  C   UNL A   1      33.749  21.279  24.747  1.00  0.00     0.042 A 
BRANCH  17  18
ATOM     18  N   UNL A   1      32.668  20.348  24.488  1.00  0.00    -0.352 N 
ATOM     19  H   UNL A   1      31.775  20.753  24.402  1.00  0.00     0.167 HD
BRANCH  18  20
ATOM     20  C   UNL A   1      32.710  18.901  24.336  1.00  0.00     0.094 A 
ATOM     21  C   UNL A   1      32.898  18.029  25.417  1.00  0.00     0.148 A 
ATOM     22  C   UNL A   1      32.822  18.282  23.061  1.00  0.00     0.067 A 
ATOM     23  F   UNL A   1      32.561  18.414  26.657  1.00  0.00    -0.205 F 
ATOM     24  C   UNL A   1      33.432  16.741  25.271  1.00  0.00     0.041 A 
ATOM     25  C   UNL A   1      33.431  17.019  22.900  1.00  0.00     0.023 A 
ATOM     26  Cl  UNL A   1      32.244  19.057  21.620  1.00  0.00    -0.082 Cl
ATOM     27  C   UNL A   1      33.772  16.260  24.014  1.00  0.00     0.005 A 
ENDBRANCH  18  20
ENDBRANCH  17  18
ENDBRANCH  10  11
ENDBRANCH   8  10
ENDBRANCH   7   8
ENDBRANCH   6   7
ENDBRANCH   5   6
ENDBRANCH   4   5
ENDBRANCH   3   4
ENDBRANCH   2   3
ENDBRANCH   1   2
BRANCH   1  28
ATOM     28  C   UNL A   1      34.097  29.342  26.277  1.00  0.00     0.188 C 
BRANCH  28  29
ATOM     29  C   UNL A   1      34.296  29.820  27.720  1.00  0.00     0.188 C 
BRANCH  29  30
ATOM     30  O   UNL A   1      34.101  31.222  27.769  1.00  0.00    -0.376 OA
BRANCH  30  31
ATOM     31  C   UNL A   1      34.759  31.948  28.784  1.00  0.00     0.202 C 
BRANCH  31  32
ATOM     32  C   UNL A   1      36.166  32.211  28.286  1.00  0.00     0.261 C 
BRANCH  32  33
ATOM     33  O   UNL A   1      37.082  31.922  29.375  1.00  0.00    -0.460 OA
BRANCH  33  34
ATOM     34  C   UNL A   1      38.170  32.752  29.444  1.00  0.00     0.338 C 
ATOM     35  O   UNL A   1      38.202  33.852  28.927  1.00  0.00    -0.246 OA
BRANCH  34  36
ATOM     36  C   UNL A   1      39.281  32.153  30.258  1.00  0.00     0.060 A 
ATOM     37  C   UNL A   1      40.625  32.377  29.920  1.00  0.00     0.016 A 
ATOM     38  C   UNL A   1      39.000  31.249  31.275  1.00  0.00     0.016 A 
ATOM     39  C   UNL A   1      41.666  31.591  30.472  1.00  0.00     0.010 A 
ATOM     40  C   UNL A   1      40.031  30.483  31.820  1.00  0.00     0.010 A 
ATOM     41  C   UNL A   1      41.370  30.585  31.386  1.00  0.00    -0.014 A 
BRANCH  41  42
ATOM     42  C   UNL A   1      42.282  29.502  31.864  1.00  0.00     0.031 A 
ATOM     43  C   UNL A   1      42.356  28.221  31.064  1.00  0.00     0.074 A 
ATOM     44  C   UNL A   1      43.305  29.824  32.705  1.00  0.00     0.049 A 
ATOM     45  N   UNL A   1      43.277  27.322  31.166  1.00  0.00    -0.248 NA
ATOM     46  C   UNL A   1      41.389  27.869  30.020  1.00  0.00     0.031 C 
ATOM     47  C   UNL A   1      44.676  29.288  32.691  1.00  0.00     0.029 A 
ATOM     48  N   UNL A   1      43.413  30.770  33.705  1.00  0.00    -0.354 N 
ATOM     49  C   UNL A   1      43.245  26.508  30.040  1.00  0.00     0.074 A 
ATOM     50  C   UNL A   1      41.987  26.833  29.412  1.00  0.00     0.031 C 
ATOM     51  C   UNL A   1      45.430  29.857  33.646  1.00  0.00     0.029 A 
ATOM     52  C   UNL A   1      44.502  30.489  34.541  1.00  0.00     0.049 A 
ATOM     53  H   UNL A   1      42.808  31.538  33.815  1.00  0.00     0.167 HD
ATOM     54  C   UNL A   1      44.364  25.781  29.705  1.00  0.00     0.037 A 
ATOM     55  C   UNL A   1      44.273  30.013  35.807  1.00  0.00     0.037 A 
ATOM     56  C   UNL A   1      45.352  25.756  30.811  1.00  0.00     0.049 A 
ATOM     57  C   UNL A   1      44.539  28.496  35.929  1.00  0.00     0.074 A 
ATOM     58  C   UNL A   1      46.728  25.870  30.951  1.00  0.00     0.029 A 
ATOM     59  N   UNL A   1      44.874  25.681  32.112  1.00  0.00    -0.354 N 
ATOM     60  N   UNL A   1      44.950  27.748  34.929  1.00  0.00    -0.248 NA
ATOM     61  C   UNL A   1      44.389  27.687  37.138  1.00  0.00     0.031 C 
ATOM     62  C   UNL A   1      47.034  25.970  32.348  1.00  0.00     0.029 A 
ATOM     63  C   UNL A   1      45.862  25.786  33.057  1.00  0.00     0.049 A 
ATOM     64  H   UNL A   1      43.922  25.564  32.335  1.00  0.00     0.167 HD
ATOM     65  C   UNL A   1      45.092  26.443  35.290  1.00  0.00     0.074 A 
ATOM     66  C   UNL A   1      44.699  26.451  36.691  1.00  0.00     0.031 C 
ATOM     67  C   UNL A   1      45.511  25.462  34.429  1.00  0.00     0.037 A 
BRANCH  54  68
ATOM     68  C   UNL A   1      44.687  25.184  28.319  1.00  0.00     0.058 A 
ATOM     69  C   UNL A   1      44.917  23.792  28.180  1.00  0.00     0.135 A 
ATOM     70  C   UNL A   1      44.917  25.916  27.130  1.00  0.00     0.135 A 
ATOM     71  F   UNL A   1      44.698  22.949  29.197  1.00  0.00    -0.206 F 
ATOM     72  C   UNL A   1      45.380  23.190  26.999  1.00  0.00     0.059 A 
ATOM     73  C   UNL A   1      45.327  25.326  25.917  1.00  0.00     0.059 A 
ATOM     74  F   UNL A   1      44.792  27.249  27.094  1.00  0.00    -0.206 F 
ATOM     75  C   UNL A   1      45.582  23.962  25.866  1.00  0.00     0.060 A 
BRANCH  75  76
ATOM     76  S   UNL A   1      46.130  23.151  24.343  1.00  0.00     0.124 S 
ATOM     77  O   UNL A   1      47.134  24.083  23.839  1.00  0.00    -0.237 OA
ATOM     78  O   UNL A   1      46.642  21.875  24.832  1.00  0.00    -0.237 OA
ATOM     79  O   UNL A   1      44.909  23.059  23.546  1.00  0.00    -0.744 OA
ENDBRANCH  75  76
ENDBRANCH  54  68
BRANCH  55  80
ATOM     80  C   UNL A   1      43.308  30.940  36.497  1.00  0.00     0.058 A 
ATOM     81  C   UNL A   1      43.774  32.277  36.593  1.00  0.00     0.135 A 
ATOM     82  C   UNL A   1      41.922  30.772  36.316  1.00  0.00     0.135 A 
ATOM     83  F   UNL A   1      45.084  32.512  36.779  1.00  0.00    -0.206 F 
ATOM     84  C   UNL A   1      42.972  33.368  36.256  1.00  0.00     0.059 A 
ATOM     85  C   UNL A   1      41.095  31.863  35.989  1.00  0.00     0.059 A 
ATOM     86  F   UNL A   1      41.406  29.539  36.208  1.00  0.00    -0.206 F 
ATOM     87  C   UNL A   1      41.645  33.147  35.901  1.00  0.00     0.060 A 
BRANCH  87  88
ATOM     88  S   UNL A   1      40.733  34.508  35.115  1.00  0.00     0.124 S 
ATOM     89  O   UNL A   1      40.439  33.955  33.800  1.00  0.00    -0.237 OA
ATOM     90  O   UNL A   1      39.585  34.670  36.003  1.00  0.00    -0.237 OA
ATOM     91  O   UNL A   1      41.698  35.599  35.147  1.00  0.00    -0.744 OA
ENDBRANCH  87  88
ENDBRANCH  55  80
BRANCH  67  92
ATOM     92  C   UNL A   1      45.548  24.001  34.781  1.00  0.00     0.058 A 
ATOM     93  C   UNL A   1      44.526  23.118  34.432  1.00  0.00     0.135 A 
ATOM     94  C   UNL A   1      46.613  23.457  35.548  1.00  0.00     0.135 A 
ATOM     95  F   UNL A   1      43.401  23.565  33.851  1.00  0.00    -0.206 F 
ATOM     96  C   UNL A   1      44.634  21.752  34.670  1.00  0.00     0.059 A 
ATOM     97  C   UNL A   1      46.707  22.112  35.854  1.00  0.00     0.059 A 
ATOM     98  F   UNL A   1      47.633  24.201  35.994  1.00  0.00    -0.206 F 
ATOM     99  C   UNL A   1      45.746  21.257  35.351  1.00  0.00     0.060 A 
BRANCH  99 100
ATOM    100  S   UNL A   1      45.957  19.484  35.536  1.00  0.00     0.124 S 
ATOM    101  O   UNL A   1      44.650  18.970  35.138  1.00  0.00    -0.237 OA
ATOM    102  O   UNL A   1      47.049  19.229  34.603  1.00  0.00    -0.237 OA
ATOM    103  O   UNL A   1      46.286  19.323  36.949  1.00  0.00    -0.744 OA
ENDBRANCH  99 100
ENDBRANCH  67  92
ENDBRANCH  41  42
ENDBRANCH  34  36
ENDBRANCH  33  34
ENDBRANCH  32  33
ENDBRANCH  31  32
ENDBRANCH  30  31
ENDBRANCH  29  30
ENDBRANCH  28  29
ENDBRANCH   1  28
TORSDOF 26
ENDMDL
