MODEL 1
REMARK VINA RESULT:      -8.1      0.000      0.000
REMARK SMILES O=C(OCCOCCOCCOCCOC(=O)c1cc(OCc2ccccc2C(F)(F)F)cs1)c1ccc(-c2c3nc(c(-c4c(F)cc(S(=O)(=O)[O-])cc4F)c4ccc([nH]4)c(-c4c(F)cc(S(=O)(=O)[O-])cc4F)c4nc(c(-c5c(F)cc(S(=O)(=O)[O-])cc5F)c5ccc2[nH]5)C=C4)C=C3)cc1
REMARK SMILES IDX 10 1 9 2 8 3 7 4 6 5 5 6 4 7 3 8 2 9 1 10 35 11 36 12 100 13
REMARK SMILES IDX 37 14 99 15 38 16 39 17 40 18 93 19 41 20 98 21 92 22 94 23
REMARK SMILES IDX 42 24 97 25 91 26 90 27 43 29 77 30 56 31 76 32 57 33 60 34
REMARK SMILES IDX 75 35 95 36 58 37 59 38 74 40 96 41 61 42 44 43 45 44 54 45
REMARK SMILES IDX 46 46 47 47 53 48 55 49 48 50 49 51 50 52 51 53 52 54 78 55
REMARK SMILES IDX 79 56 88 57 80 58 81 59 87 60 89 61 82 62 83 63 84 64 85 65
REMARK SMILES IDX 86 66 62 67 63 68 72 69 64 70 65 71 71 72 73 73 66 74 67 75
REMARK SMILES IDX 68 76 69 77 70 78 11 79 12 80 13 81 14 82 15 83 16 84 17 85
REMARK SMILES IDX 18 86 19 87 34 88 20 89 33 90 21 91 22 92 23 93 24 94 28 95
REMARK SMILES IDX 25 96 27 97 26 98 29 99 30 100 31 101 32 102
REMARK H PARENT 94 28 60 39
REMARK Flexibility Score: inf
ROOT
ATOM      1  C   UNL A   1      32.550  36.934  32.134  1.00  0.00     0.188 C 
ENDROOT
BRANCH   1   2
ATOM      2  O   UNL A   1      32.223  36.420  30.846  1.00  0.00    -0.377 OA
BRANCH   2   3
ATOM      3  C   UNL A   1      33.265  36.403  29.871  1.00  0.00     0.188 C 
BRANCH   3   4
ATOM      4  C   UNL A   1      33.572  35.036  29.260  1.00  0.00     0.188 C 
BRANCH   4   5
ATOM      5  O   UNL A   1      33.777  34.054  30.278  1.00  0.00    -0.376 OA
BRANCH   5   6
ATOM      6  C   UNL A   1      34.400  32.846  29.841  1.00  0.00     0.202 C 
BRANCH   6   7
ATOM      7  C   UNL A   1      35.390  33.032  28.689  1.00  0.00     0.261 C 
BRANCH   7   8
ATOM      8  O   UNL A   1      36.700  32.552  29.025  1.00  0.00    -0.460 OA
BRANCH   8   9
ATOM      9  C   UNL A   1      37.027  31.411  29.683  1.00  0.00     0.338 C 
ATOM     10  O   UNL A   1      36.207  30.952  30.479  1.00  0.00    -0.246 OA
BRANCH   9  11
ATOM     11  C   UNL A   1      38.309  30.657  29.491  1.00  0.00     0.060 A 
ATOM     12  C   UNL A   1      39.265  30.399  30.478  1.00  0.00     0.016 A 
ATOM     13  C   UNL A   1      38.550  30.140  28.205  1.00  0.00     0.016 A 
ATOM     14  C   UNL A   1      40.469  29.774  30.181  1.00  0.00     0.010 A 
ATOM     15  C   UNL A   1      39.744  29.479  27.900  1.00  0.00     0.010 A 
ATOM     16  C   UNL A   1      40.731  29.352  28.882  1.00  0.00    -0.014 A 
BRANCH  16  17
ATOM     17  C   UNL A   1      42.129  29.026  28.546  1.00  0.00     0.031 A 
ATOM     18  C   UNL A   1      42.415  27.623  28.090  1.00  0.00     0.074 A 
ATOM     19  C   UNL A   1      43.057  29.995  28.483  1.00  0.00     0.049 A 
ATOM     20  N   UNL A   1      43.543  27.080  27.727  1.00  0.00    -0.248 NA
ATOM     21  C   UNL A   1      41.258  26.711  28.012  1.00  0.00     0.031 C 
ATOM     22  C   UNL A   1      42.817  31.412  28.767  1.00  0.00     0.029 A 
ATOM     23  N   UNL A   1      44.375  29.947  28.120  1.00  0.00    -0.354 N 
ATOM     24  C   UNL A   1      43.240  25.759  27.417  1.00  0.00     0.074 A 
ATOM     25  C   UNL A   1      41.824  25.579  27.630  1.00  0.00     0.031 C 
ATOM     26  C   UNL A   1      43.947  32.102  28.539  1.00  0.00     0.029 A 
ATOM     27  C   UNL A   1      45.001  31.170  28.152  1.00  0.00     0.049 A 
ATOM     28  H   UNL A   1      44.832  29.114  27.858  1.00  0.00     0.167 HD
ATOM     29  C   UNL A   1      44.079  24.783  27.000  1.00  0.00     0.037 A 
ATOM     30  C   UNL A   1      46.289  31.482  27.915  1.00  0.00     0.037 A 
ATOM     31  C   UNL A   1      45.483  25.002  26.793  1.00  0.00     0.049 A 
ATOM     32  C   UNL A   1      47.224  30.364  27.533  1.00  0.00     0.074 A 
ATOM     33  C   UNL A   1      46.461  24.091  26.444  1.00  0.00     0.029 A 
ATOM     34  N   UNL A   1      46.106  26.238  26.917  1.00  0.00    -0.354 N 
ATOM     35  N   UNL A   1      46.949  29.095  27.329  1.00  0.00    -0.248 NA
ATOM     36  C   UNL A   1      48.639  30.709  27.364  1.00  0.00     0.031 C 
ATOM     37  C   UNL A   1      47.684  24.771  26.397  1.00  0.00     0.029 A 
ATOM     38  C   UNL A   1      47.459  26.114  26.665  1.00  0.00     0.049 A 
ATOM     39  H   UNL A   1      45.651  27.079  27.151  1.00  0.00     0.167 HD
ATOM     40  C   UNL A   1      48.153  28.493  26.982  1.00  0.00     0.074 A 
ATOM     41  C   UNL A   1      49.155  29.543  26.998  1.00  0.00     0.031 C 
ATOM     42  C   UNL A   1      48.414  27.196  26.679  1.00  0.00     0.037 A 
BRANCH  29  43
ATOM     43  C   UNL A   1      43.499  23.405  26.849  1.00  0.00     0.058 A 
ATOM     44  C   UNL A   1      43.251  22.568  27.949  1.00  0.00     0.135 A 
ATOM     45  C   UNL A   1      43.256  22.886  25.567  1.00  0.00     0.135 A 
ATOM     46  F   UNL A   1      43.499  22.998  29.197  1.00  0.00    -0.206 F 
ATOM     47  C   UNL A   1      42.827  21.251  27.781  1.00  0.00     0.059 A 
ATOM     48  C   UNL A   1      42.807  21.583  25.376  1.00  0.00     0.059 A 
ATOM     49  F   UNL A   1      43.488  23.638  24.480  1.00  0.00    -0.206 F 
ATOM     50  C   UNL A   1      42.619  20.765  26.488  1.00  0.00     0.060 A 
BRANCH  50  51
ATOM     51  S   UNL A   1      42.120  19.042  26.278  1.00  0.00     0.124 S 
ATOM     52  O   UNL A   1      40.730  19.192  25.853  1.00  0.00    -0.237 OA
ATOM     53  O   UNL A   1      43.046  18.569  25.255  1.00  0.00    -0.237 OA
ATOM     54  O   UNL A   1      42.311  18.470  27.607  1.00  0.00    -0.744 OA
ENDBRANCH  50  51
ENDBRANCH  29  43
BRANCH  30  55
ATOM     55  C   UNL A   1      46.765  32.886  28.059  1.00  0.00     0.058 A 
ATOM     56  C   UNL A   1      47.446  33.315  29.208  1.00  0.00     0.135 A 
ATOM     57  C   UNL A   1      46.557  33.831  27.039  1.00  0.00     0.135 A 
ATOM     58  F   UNL A   1      47.663  32.459  30.217  1.00  0.00    -0.206 F 
ATOM     59  C   UNL A   1      47.896  34.628  29.345  1.00  0.00     0.059 A 
ATOM     60  C   UNL A   1      47.020  35.139  27.141  1.00  0.00     0.059 A 
ATOM     61  F   UNL A   1      45.917  33.476  25.914  1.00  0.00    -0.206 F 
ATOM     62  C   UNL A   1      47.680  35.532  28.304  1.00  0.00     0.060 A 
BRANCH  62  63
ATOM     63  S   UNL A   1      48.307  37.218  28.469  1.00  0.00     0.124 S 
ATOM     64  O   UNL A   1      47.697  37.874  27.318  1.00  0.00    -0.237 OA
ATOM     65  O   UNL A   1      47.792  37.612  29.776  1.00  0.00    -0.237 OA
ATOM     66  O   UNL A   1      49.756  37.045  28.402  1.00  0.00    -0.744 OA
ENDBRANCH  62  63
ENDBRANCH  30  55
BRANCH  42  67
ATOM     67  C   UNL A   1      49.824  26.860  26.292  1.00  0.00     0.058 A 
ATOM     68  C   UNL A   1      50.808  26.588  27.252  1.00  0.00     0.135 A 
ATOM     69  C   UNL A   1      50.171  26.749  24.936  1.00  0.00     0.135 A 
ATOM     70  F   UNL A   1      50.522  26.685  28.561  1.00  0.00    -0.206 F 
ATOM     71  C   UNL A   1      52.101  26.240  26.881  1.00  0.00     0.059 A 
ATOM     72  C   UNL A   1      51.449  26.375  24.543  1.00  0.00     0.059 A 
ATOM     73  F   UNL A   1      49.257  26.985  23.982  1.00  0.00    -0.206 F 
ATOM     74  C   UNL A   1      52.411  26.135  25.523  1.00  0.00     0.060 A 
BRANCH  74  75
ATOM     75  S   UNL A   1      54.084  25.649  25.052  1.00  0.00     0.124 S 
ATOM     76  O   UNL A   1      53.947  24.200  24.945  1.00  0.00    -0.237 OA
ATOM     77  O   UNL A   1      54.275  26.363  23.793  1.00  0.00    -0.237 OA
ATOM     78  O   UNL A   1      54.900  26.124  26.165  1.00  0.00    -0.744 OA
ENDBRANCH  74  75
ENDBRANCH  42  67
ENDBRANCH  16  17
ENDBRANCH   9  11
ENDBRANCH   8   9
ENDBRANCH   7   8
ENDBRANCH   6   7
ENDBRANCH   5   6
ENDBRANCH   4   5
ENDBRANCH   3   4
ENDBRANCH   2   3
ENDBRANCH   1   2
BRANCH   1  79
ATOM     79  C   UNL A   1      34.035  37.177  32.478  1.00  0.00     0.188 C 
BRANCH  79  80
ATOM     80  O   UNL A   1      34.507  36.415  33.578  1.00  0.00    -0.376 OA
BRANCH  80  81
ATOM     81  C   UNL A   1      34.606  35.011  33.374  1.00  0.00     0.202 C 
BRANCH  81  82
ATOM     82  C   UNL A   1      36.007  34.512  33.000  1.00  0.00     0.261 C 
BRANCH  82  83
ATOM     83  O   UNL A   1      36.395  33.238  33.543  1.00  0.00    -0.459 OA
BRANCH  83  84
ATOM     84  C   UNL A   1      36.923  33.164  34.795  1.00  0.00     0.348 C 
ATOM     85  O   UNL A   1      36.376  33.556  35.815  1.00  0.00    -0.245 OA
BRANCH  84  86
ATOM     86  C   UNL A   1      38.169  32.431  34.693  1.00  0.00     0.116 A 
ATOM     87  C   UNL A   1      39.424  32.952  34.445  1.00  0.00     0.074 A 
ATOM     88  S   UNL A   1      38.203  30.724  34.707  1.00  0.00    -0.133 S 
ATOM     89  C   UNL A   1      40.382  31.963  34.097  1.00  0.00     0.131 A 
ATOM     90  C   UNL A   1      39.832  30.701  34.157  1.00  0.00     0.112 A 
BRANCH  89  91
ATOM     91  O   UNL A   1      41.671  32.118  33.691  1.00  0.00    -0.488 OA
BRANCH  91  92
ATOM     92  C   UNL A   1      42.068  31.358  32.542  1.00  0.00     0.266 C 
BRANCH  92  93
ATOM     93  C   UNL A   1      43.545  31.005  32.581  1.00  0.00     0.001 A 
ATOM     94  C   UNL A   1      44.480  32.058  32.652  1.00  0.00     0.008 A 
ATOM     95  C   UNL A   1      44.029  29.681  32.497  1.00  0.00     0.062 A 
ATOM     96  C   UNL A   1      45.849  31.832  32.529  1.00  0.00     0.000 A 
ATOM     97  C   UNL A   1      45.423  29.473  32.390  1.00  0.00     0.013 A 
ATOM     98  C   UNL A   1      46.321  30.537  32.380  1.00  0.00     0.001 A 
BRANCH  95  99
ATOM     99  C   UNL A   1      43.161  28.442  32.563  1.00  0.00     0.416 C 
ATOM    100  F   UNL A   1      42.976  27.862  31.345  1.00  0.00    -0.166 F 
ATOM    101  F   UNL A   1      43.741  27.476  33.338  1.00  0.00    -0.166 F 
ATOM    102  F   UNL A   1      41.920  28.611  33.088  1.00  0.00    -0.166 F 
ENDBRANCH  95  99
ENDBRANCH  92  93
ENDBRANCH  91  92
ENDBRANCH  89  91
ENDBRANCH  84  86
ENDBRANCH  83  84
ENDBRANCH  82  83
ENDBRANCH  81  82
ENDBRANCH  80  81
ENDBRANCH  79  80
ENDBRANCH   1  79
TORSDOF 27
ENDMDL
MODEL 2
REMARK VINA RESULT:      -7.9      5.031     11.271
REMARK SMILES O=C(OCCOCCOCCOCCOC(=O)c1cc(OCc2ccccc2C(F)(F)F)cs1)c1ccc(-c2c3nc(c(-c4c(F)cc(S(=O)(=O)[O-])cc4F)c4ccc([nH]4)c(-c4c(F)cc(S(=O)(=O)[O-])cc4F)c4nc(c(-c5c(F)cc(S(=O)(=O)[O-])cc5F)c5ccc2[nH]5)C=C4)C=C3)cc1
REMARK SMILES IDX 10 1 9 2 8 3 7 4 6 5 5 6 4 7 3 8 2 9 1 10 35 11 36 12 100 13
REMARK SMILES IDX 37 14 99 15 38 16 39 17 40 18 93 19 41 20 98 21 92 22 94 23
REMARK SMILES IDX 42 24 97 25 91 26 90 27 43 29 77 30 56 31 76 32 57 33 60 34
REMARK SMILES IDX 75 35 95 36 58 37 59 38 74 40 96 41 61 42 44 43 45 44 54 45
REMARK SMILES IDX 46 46 47 47 53 48 55 49 48 50 49 51 50 52 51 53 52 54 78 55
REMARK SMILES IDX 79 56 88 57 80 58 81 59 87 60 89 61 82 62 83 63 84 64 85 65
REMARK SMILES IDX 86 66 62 67 63 68 72 69 64 70 65 71 71 72 73 73 66 74 67 75
REMARK SMILES IDX 68 76 69 77 70 78 11 79 12 80 13 81 14 82 15 83 16 84 17 85
REMARK SMILES IDX 18 86 19 87 34 88 20 89 33 90 21 91 22 92 23 93 24 94 28 95
REMARK SMILES IDX 25 96 27 97 26 98 29 99 30 100 31 101 32 102
REMARK H PARENT 94 28 60 39
REMARK Flexibility Score: inf
ROOT
ATOM      1  C   UNL A   1      34.537  22.855  27.052  1.00  0.00     0.188 C 
ENDROOT
BRANCH   1   2
ATOM      2  O   UNL A   1      34.614  22.530  25.667  1.00  0.00    -0.377 OA
BRANCH   2   3
ATOM      3  C   UNL A   1      34.477  21.154  25.316  1.00  0.00     0.188 C 
BRANCH   3   4
ATOM      4  C   UNL A   1      35.779  20.429  24.981  1.00  0.00     0.188 C 
BRANCH   4   5
ATOM      5  O   UNL A   1      36.784  21.350  24.550  1.00  0.00    -0.376 OA
BRANCH   5   6
ATOM      6  C   UNL A   1      37.943  21.419  25.380  1.00  0.00     0.202 C 
BRANCH   6   7
ATOM      7  C   UNL A   1      38.572  20.059  25.694  1.00  0.00     0.261 C 
BRANCH   7   8
ATOM      8  O   UNL A   1      40.003  20.131  25.753  1.00  0.00    -0.460 OA
BRANCH   8   9
ATOM      9  C   UNL A   1      40.783  20.370  26.838  1.00  0.00     0.338 C 
ATOM     10  O   UNL A   1      40.684  19.602  27.796  1.00  0.00    -0.246 OA
BRANCH   9  11
ATOM     11  C   UNL A   1      41.773  21.492  26.943  1.00  0.00     0.060 A 
ATOM     12  C   UNL A   1      42.437  21.895  28.105  1.00  0.00     0.016 A 
ATOM     13  C   UNL A   1      42.077  22.176  25.752  1.00  0.00     0.016 A 
ATOM     14  C   UNL A   1      43.265  23.009  28.122  1.00  0.00     0.010 A 
ATOM     15  C   UNL A   1      42.937  23.280  25.749  1.00  0.00     0.010 A 
ATOM     16  C   UNL A   1      43.482  23.731  26.954  1.00  0.00    -0.014 A 
BRANCH  16  17
ATOM     17  C   UNL A   1      44.066  25.079  27.091  1.00  0.00     0.031 A 
ATOM     18  C   UNL A   1      43.190  26.148  27.680  1.00  0.00     0.074 A 
ATOM     19  C   UNL A   1      45.375  25.278  26.865  1.00  0.00     0.049 A 
ATOM     20  N   UNL A   1      43.455  27.403  27.917  1.00  0.00    -0.248 NA
ATOM     21  C   UNL A   1      41.829  25.738  28.073  1.00  0.00     0.031 C 
ATOM     22  C   UNL A   1      46.323  24.247  26.436  1.00  0.00     0.029 A 
ATOM     23  N   UNL A   1      46.144  26.402  27.006  1.00  0.00    -0.354 N 
ATOM     24  C   UNL A   1      42.287  27.937  28.451  1.00  0.00     0.074 A 
ATOM     25  C   UNL A   1      41.311  26.875  28.505  1.00  0.00     0.031 C 
ATOM     26  C   UNL A   1      47.554  24.783  26.375  1.00  0.00     0.029 A 
ATOM     27  C   UNL A   1      47.470  26.203  26.702  1.00  0.00     0.049 A 
ATOM     28  H   UNL A   1      45.781  27.270  27.297  1.00  0.00     0.167 HD
ATOM     29  C   UNL A   1      42.054  29.209  28.849  1.00  0.00     0.037 A 
ATOM     30  C   UNL A   1      48.486  27.086  26.675  1.00  0.00     0.037 A 
ATOM     31  C   UNL A   1      43.053  30.238  28.786  1.00  0.00     0.049 A 
ATOM     32  C   UNL A   1      48.184  28.515  27.043  1.00  0.00     0.074 A 
ATOM     33  C   UNL A   1      42.936  31.581  29.086  1.00  0.00     0.029 A 
ATOM     34  N   UNL A   1      44.369  30.024  28.392  1.00  0.00    -0.354 N 
ATOM     35  N   UNL A   1      47.052  29.037  27.461  1.00  0.00    -0.248 NA
ATOM     36  C   UNL A   1      49.283  29.479  26.923  1.00  0.00     0.031 C 
ATOM     37  C   UNL A   1      44.172  32.187  28.834  1.00  0.00     0.029 A 
ATOM     38  C   UNL A   1      45.074  31.212  28.428  1.00  0.00     0.049 A 
ATOM     39  H   UNL A   1      44.745  29.153  28.127  1.00  0.00     0.167 HD
ATOM     40  C   UNL A   1      47.308  30.385  27.679  1.00  0.00     0.074 A 
ATOM     41  C   UNL A   1      48.707  30.594  27.353  1.00  0.00     0.031 C 
ATOM     42  C   UNL A   1      46.472  31.364  28.107  1.00  0.00     0.037 A 
BRANCH  29  43
ATOM     43  C   UNL A   1      40.654  29.541  29.282  1.00  0.00     0.058 A 
ATOM     44  C   UNL A   1      39.602  29.704  28.365  1.00  0.00     0.135 A 
ATOM     45  C   UNL A   1      40.378  29.773  30.639  1.00  0.00     0.135 A 
ATOM     46  F   UNL A   1      39.816  29.531  27.051  1.00  0.00    -0.206 F 
ATOM     47  C   UNL A   1      38.340  30.130  28.774  1.00  0.00     0.059 A 
ATOM     48  C   UNL A   1      39.118  30.173  31.073  1.00  0.00     0.059 A 
ATOM     49  F   UNL A   1      41.349  29.644  31.556  1.00  0.00    -0.206 F 
ATOM     50  C   UNL A   1      38.112  30.373  30.131  1.00  0.00     0.060 A 
BRANCH  50  51
ATOM     51  S   UNL A   1      36.488  30.974  30.644  1.00  0.00     0.124 S 
ATOM     52  O   UNL A   1      36.124  29.993  31.663  1.00  0.00    -0.237 OA
ATOM     53  O   UNL A   1      36.790  32.314  31.136  1.00  0.00    -0.237 OA
ATOM     54  O   UNL A   1      35.703  30.923  29.415  1.00  0.00    -0.744 OA
ENDBRANCH  50  51
ENDBRANCH  29  43
BRANCH  30  55
ATOM     55  C   UNL A   1      49.851  26.654  26.264  1.00  0.00     0.058 A 
ATOM     56  C   UNL A   1      50.279  26.747  24.932  1.00  0.00     0.135 A 
ATOM     57  C   UNL A   1      50.765  26.147  27.204  1.00  0.00     0.135 A 
ATOM     58  F   UNL A   1      49.444  27.214  23.991  1.00  0.00    -0.206 F 
ATOM     59  C   UNL A   1      51.556  26.347  24.543  1.00  0.00     0.059 A 
ATOM     60  C   UNL A   1      52.055  25.766  26.845  1.00  0.00     0.059 A 
ATOM     61  F   UNL A   1      50.413  26.041  28.495  1.00  0.00    -0.206 F 
ATOM     62  C   UNL A   1      52.439  25.860  25.510  1.00  0.00     0.060 A 
BRANCH  62  63
ATOM     63  S   UNL A   1      54.109  25.388  25.007  1.00  0.00     0.124 S 
ATOM     64  O   UNL A   1      54.014  23.932  25.001  1.00  0.00    -0.237 OA
ATOM     65  O   UNL A   1      54.229  26.025  23.700  1.00  0.00    -0.237 OA
ATOM     66  O   UNL A   1      54.949  25.962  26.054  1.00  0.00    -0.744 OA
ENDBRANCH  62  63
ENDBRANCH  30  55
BRANCH  42  67
ATOM     67  C   UNL A   1      47.065  32.730  28.294  1.00  0.00     0.058 A 
ATOM     68  C   UNL A   1      47.705  33.099  29.485  1.00  0.00     0.135 A 
ATOM     69  C   UNL A   1      47.044  33.654  27.237  1.00  0.00     0.135 A 
ATOM     70  F   UNL A   1      47.747  32.249  30.523  1.00  0.00    -0.206 F 
ATOM     71  C   UNL A   1      48.286  34.353  29.633  1.00  0.00     0.059 A 
ATOM     72  C   UNL A   1      47.642  34.902  27.353  1.00  0.00     0.059 A 
ATOM     73  F   UNL A   1      46.456  33.337  26.073  1.00  0.00    -0.206 F 
ATOM     74  C   UNL A   1      48.250  35.247  28.559  1.00  0.00     0.060 A 
BRANCH  74  75
ATOM     75  S   UNL A   1      49.037  36.860  28.749  1.00  0.00     0.124 S 
ATOM     76  O   UNL A   1      49.559  36.772  30.108  1.00  0.00    -0.237 OA
ATOM     77  O   UNL A   1      50.034  36.849  27.682  1.00  0.00    -0.237 OA
ATOM     78  O   UNL A   1      47.934  37.797  28.558  1.00  0.00    -0.744 OA
ENDBRANCH  74  75
ENDBRANCH  42  67
ENDBRANCH  16  17
ENDBRANCH   9  11
ENDBRANCH   8   9
ENDBRANCH   7   8
ENDBRANCH   6   7
ENDBRANCH   5   6
ENDBRANCH   4   5
ENDBRANCH   3   4
ENDBRANCH   2   3
ENDBRANCH   1   2
BRANCH   1  79
ATOM     79  C   UNL A   1      33.224  22.561  27.809  1.00  0.00     0.188 C 
BRANCH  79  80
ATOM     80  O   UNL A   1      32.125  23.356  27.392  1.00  0.00    -0.376 OA
BRANCH  80  81
ATOM     81  C   UNL A   1      30.994  22.653  26.894  1.00  0.00     0.202 C 
BRANCH  81  82
ATOM     82  C   UNL A   1      30.956  22.489  25.370  1.00  0.00     0.261 C 
BRANCH  82  83
ATOM     83  O   UNL A   1      31.501  23.574  24.599  1.00  0.00    -0.459 OA
BRANCH  83  84
ATOM     84  C   UNL A   1      32.050  23.332  23.377  1.00  0.00     0.348 C 
ATOM     85  O   UNL A   1      31.838  22.341  22.693  1.00  0.00    -0.245 OA
BRANCH  84  86
ATOM     86  C   UNL A   1      32.810  24.509  23.007  1.00  0.00     0.116 A 
ATOM     87  C   UNL A   1      33.419  25.408  23.859  1.00  0.00     0.074 A 
ATOM     88  S   UNL A   1      32.903  25.036  21.385  1.00  0.00    -0.133 S 
ATOM     89  C   UNL A   1      33.814  26.611  23.214  1.00  0.00     0.131 A 
ATOM     90  C   UNL A   1      33.547  26.557  21.864  1.00  0.00     0.112 A 
BRANCH  89  91
ATOM     91  O   UNL A   1      34.340  27.744  23.753  1.00  0.00    -0.488 OA
BRANCH  91  92
ATOM     92  C   UNL A   1      33.506  28.909  23.714  1.00  0.00     0.266 C 
BRANCH  92  93
ATOM     93  C   UNL A   1      32.031  28.547  23.695  1.00  0.00     0.001 A 
ATOM     94  C   UNL A   1      31.359  28.555  22.456  1.00  0.00     0.008 A 
ATOM     95  C   UNL A   1      31.289  28.255  24.861  1.00  0.00     0.062 A 
ATOM     96  C   UNL A   1      29.978  28.394  22.370  1.00  0.00     0.000 A 
ATOM     97  C   UNL A   1      29.891  28.079  24.750  1.00  0.00     0.013 A 
ATOM     98  C   UNL A   1      29.239  28.173  23.522  1.00  0.00     0.001 A 
BRANCH  95  99
ATOM     99  C   UNL A   1      31.889  28.063  26.237  1.00  0.00     0.416 C 
ATOM    100  F   UNL A   1      30.948  27.833  27.196  1.00  0.00    -0.166 F 
ATOM    101  F   UNL A   1      32.711  26.971  26.269  1.00  0.00    -0.166 F 
ATOM    102  F   UNL A   1      32.652  29.087  26.702  1.00  0.00    -0.166 F 
ENDBRANCH  95  99
ENDBRANCH  92  93
ENDBRANCH  91  92
ENDBRANCH  89  91
ENDBRANCH  84  86
ENDBRANCH  83  84
ENDBRANCH  82  83
ENDBRANCH  81  82
ENDBRANCH  80  81
ENDBRANCH  79  80
ENDBRANCH   1  79
TORSDOF 27
ENDMDL
MODEL 3
REMARK VINA RESULT:      -7.9      1.081      2.108
REMARK SMILES O=C(OCCOCCOCCOCCOC(=O)c1cc(OCc2ccccc2C(F)(F)F)cs1)c1ccc(-c2c3nc(c(-c4c(F)cc(S(=O)(=O)[O-])cc4F)c4ccc([nH]4)c(-c4c(F)cc(S(=O)(=O)[O-])cc4F)c4nc(c(-c5c(F)cc(S(=O)(=O)[O-])cc5F)c5ccc2[nH]5)C=C4)C=C3)cc1
REMARK SMILES IDX 10 1 9 2 8 3 7 4 6 5 5 6 4 7 3 8 2 9 1 10 35 11 36 12 100 13
REMARK SMILES IDX 37 14 99 15 38 16 39 17 40 18 93 19 41 20 98 21 92 22 94 23
REMARK SMILES IDX 42 24 97 25 91 26 90 27 43 29 77 30 56 31 76 32 57 33 60 34
REMARK SMILES IDX 75 35 95 36 58 37 59 38 74 40 96 41 61 42 44 43 45 44 54 45
REMARK SMILES IDX 46 46 47 47 53 48 55 49 48 50 49 51 50 52 51 53 52 54 78 55
REMARK SMILES IDX 79 56 88 57 80 58 81 59 87 60 89 61 82 62 83 63 84 64 85 65
REMARK SMILES IDX 86 66 62 67 63 68 72 69 64 70 65 71 71 72 73 73 66 74 67 75
REMARK SMILES IDX 68 76 69 77 70 78 11 79 12 80 13 81 14 82 15 83 16 84 17 85
REMARK SMILES IDX 18 86 19 87 34 88 20 89 33 90 21 91 22 92 23 93 24 94 28 95
REMARK SMILES IDX 25 96 27 97 26 98 29 99 30 100 31 101 32 102
REMARK H PARENT 94 28 60 39
REMARK Flexibility Score: inf
ROOT
ATOM      1  C   UNL A   1      32.538  37.020  32.065  1.00  0.00     0.188 C 
ENDROOT
BRANCH   1   2
ATOM      2  O   UNL A   1      32.231  36.444  30.798  1.00  0.00    -0.377 OA
BRANCH   2   3
ATOM      3  C   UNL A   1      33.289  36.376  29.843  1.00  0.00     0.188 C 
BRANCH   3   4
ATOM      4  C   UNL A   1      33.563  34.989  29.264  1.00  0.00     0.188 C 
BRANCH   4   5
ATOM      5  O   UNL A   1      33.749  34.026  30.305  1.00  0.00    -0.376 OA
BRANCH   5   6
ATOM      6  C   UNL A   1      34.370  32.806  29.902  1.00  0.00     0.202 C 
BRANCH   6   7
ATOM      7  C   UNL A   1      35.334  32.953  28.722  1.00  0.00     0.261 C 
BRANCH   7   8
ATOM      8  O   UNL A   1      36.663  32.531  29.059  1.00  0.00    -0.460 OA
BRANCH   8   9
ATOM      9  C   UNL A   1      37.034  31.475  29.827  1.00  0.00     0.338 C 
ATOM     10  O   UNL A   1      36.256  31.104  30.707  1.00  0.00    -0.246 OA
BRANCH   9  11
ATOM     11  C   UNL A   1      38.316  30.713  29.663  1.00  0.00     0.060 A 
ATOM     12  C   UNL A   1      39.278  30.503  30.656  1.00  0.00     0.016 A 
ATOM     13  C   UNL A   1      38.549  30.138  28.401  1.00  0.00     0.016 A 
ATOM     14  C   UNL A   1      40.480  29.865  30.382  1.00  0.00     0.010 A 
ATOM     15  C   UNL A   1      39.742  29.463  28.121  1.00  0.00     0.010 A 
ATOM     16  C   UNL A   1      40.735  29.383  29.102  1.00  0.00    -0.014 A 
BRANCH  16  17
ATOM     17  C   UNL A   1      42.131  29.042  28.774  1.00  0.00     0.031 A 
ATOM     18  C   UNL A   1      42.400  27.645  28.291  1.00  0.00     0.074 A 
ATOM     19  C   UNL A   1      43.075  29.998  28.740  1.00  0.00     0.049 A 
ATOM     20  N   UNL A   1      43.524  27.092  27.930  1.00  0.00    -0.248 NA
ATOM     21  C   UNL A   1      41.231  26.752  28.184  1.00  0.00     0.031 C 
ATOM     22  C   UNL A   1      42.853  31.412  29.051  1.00  0.00     0.029 A 
ATOM     23  N   UNL A   1      44.396  29.936  28.389  1.00  0.00    -0.354 N 
ATOM     24  C   UNL A   1      43.204  25.781  27.589  1.00  0.00     0.074 A 
ATOM     25  C   UNL A   1      41.783  25.620  27.784  1.00  0.00     0.031 C 
ATOM     26  C   UNL A   1      43.996  32.089  28.848  1.00  0.00     0.029 A 
ATOM     27  C   UNL A   1      45.040  31.149  28.453  1.00  0.00     0.049 A 
ATOM     28  H   UNL A   1      44.842  29.102  28.115  1.00  0.00     0.167 HD
ATOM     29  C   UNL A   1      44.033  24.802  27.161  1.00  0.00     0.037 A 
ATOM     30  C   UNL A   1      46.335  31.446  28.235  1.00  0.00     0.037 A 
ATOM     31  C   UNL A   1      45.442  25.003  26.972  1.00  0.00     0.049 A 
ATOM     32  C   UNL A   1      47.256  30.321  27.840  1.00  0.00     0.074 A 
ATOM     33  C   UNL A   1      46.410  24.085  26.615  1.00  0.00     0.029 A 
ATOM     34  N   UNL A   1      46.083  26.227  27.129  1.00  0.00    -0.354 N 
ATOM     35  N   UNL A   1      46.964  29.061  27.607  1.00  0.00    -0.248 NA
ATOM     36  C   UNL A   1      48.678  30.648  27.693  1.00  0.00     0.031 C 
ATOM     37  C   UNL A   1      47.643  24.746  26.595  1.00  0.00     0.029 A 
ATOM     38  C   UNL A   1      47.436  26.087  26.888  1.00  0.00     0.049 A 
ATOM     39  H   UNL A   1      45.637  27.070  27.374  1.00  0.00     0.167 HD
ATOM     40  C   UNL A   1      48.162  28.447  27.260  1.00  0.00     0.074 A 
ATOM     41  C   UNL A   1      49.180  29.481  27.307  1.00  0.00     0.031 C 
ATOM     42  C   UNL A   1      48.406  27.153  26.934  1.00  0.00     0.037 A 
BRANCH  29  43
ATOM     43  C   UNL A   1      43.433  23.437  26.975  1.00  0.00     0.058 A 
ATOM     44  C   UNL A   1      42.973  22.979  25.729  1.00  0.00     0.135 A 
ATOM     45  C   UNL A   1      43.249  22.597  28.086  1.00  0.00     0.135 A 
ATOM     46  F   UNL A   1      43.090  23.754  24.638  1.00  0.00    -0.206 F 
ATOM     47  C   UNL A   1      42.312  21.760  25.599  1.00  0.00     0.059 A 
ATOM     48  C   UNL A   1      42.614  21.364  27.975  1.00  0.00     0.059 A 
ATOM     49  F   UNL A   1      43.657  22.989  29.303  1.00  0.00    -0.206 F 
ATOM     50  C   UNL A   1      42.127  20.964  26.733  1.00  0.00     0.060 A 
BRANCH  50  51
ATOM     51  S   UNL A   1      41.223  19.410  26.565  1.00  0.00     0.124 S 
ATOM     52  O   UNL A   1      42.273  18.513  26.091  1.00  0.00    -0.237 OA
ATOM     53  O   UNL A   1      40.753  19.171  27.925  1.00  0.00    -0.237 OA
ATOM     54  O   UNL A   1      40.182  19.727  25.592  1.00  0.00    -0.744 OA
ENDBRANCH  50  51
ENDBRANCH  29  43
BRANCH  30  55
ATOM     55  C   UNL A   1      46.830  32.839  28.413  1.00  0.00     0.058 A 
ATOM     56  C   UNL A   1      46.799  33.768  27.362  1.00  0.00     0.135 A 
ATOM     57  C   UNL A   1      47.338  33.277  29.649  1.00  0.00     0.135 A 
ATOM     58  F   UNL A   1      46.335  33.402  26.158  1.00  0.00    -0.206 F 
ATOM     59  C   UNL A   1      47.259  35.074  27.525  1.00  0.00     0.059 A 
ATOM     60  C   UNL A   1      47.777  34.583  29.843  1.00  0.00     0.059 A 
ATOM     61  F   UNL A   1      47.386  32.434  30.692  1.00  0.00    -0.206 F 
ATOM     62  C   UNL A   1      47.744  35.472  28.772  1.00  0.00     0.060 A 
BRANCH  62  63
ATOM     63  S   UNL A   1      48.294  37.180  28.989  1.00  0.00     0.124 S 
ATOM     64  O   UNL A   1      49.451  37.008  29.860  1.00  0.00    -0.237 OA
ATOM     65  O   UNL A   1      48.583  37.587  27.618  1.00  0.00    -0.237 OA
ATOM     66  O   UNL A   1      47.137  37.830  29.597  1.00  0.00    -0.744 OA
ENDBRANCH  62  63
ENDBRANCH  30  55
BRANCH  42  67
ATOM     67  C   UNL A   1      49.815  26.804  26.554  1.00  0.00     0.058 A 
ATOM     68  C   UNL A   1      50.261  26.875  25.227  1.00  0.00     0.135 A 
ATOM     69  C   UNL A   1      50.744  26.454  27.548  1.00  0.00     0.135 A 
ATOM     70  F   UNL A   1      49.408  27.202  24.243  1.00  0.00    -0.206 F 
ATOM     71  C   UNL A   1      51.579  26.586  24.892  1.00  0.00     0.059 A 
ATOM     72  C   UNL A   1      52.071  26.190  27.240  1.00  0.00     0.059 A 
ATOM     73  F   UNL A   1      50.365  26.389  28.834  1.00  0.00    -0.206 F 
ATOM     74  C   UNL A   1      52.476  26.246  25.907  1.00  0.00     0.060 A 
BRANCH  74  75
ATOM     75  S   UNL A   1      54.193  25.907  25.467  1.00  0.00     0.124 S 
ATOM     76  O   UNL A   1      54.877  27.055  26.053  1.00  0.00    -0.237 OA
ATOM     77  O   UNL A   1      54.436  24.623  26.119  1.00  0.00    -0.237 OA
ATOM     78  O   UNL A   1      54.166  25.867  24.008  1.00  0.00    -0.744 OA
ENDBRANCH  74  75
ENDBRANCH  42  67
ENDBRANCH  16  17
ENDBRANCH   9  11
ENDBRANCH   8   9
ENDBRANCH   7   8
ENDBRANCH   6   7
ENDBRANCH   5   6
ENDBRANCH   4   5
ENDBRANCH   3   4
ENDBRANCH   2   3
ENDBRANCH   1   2
BRANCH   1  79
ATOM     79  C   UNL A   1      34.017  37.307  32.406  1.00  0.00     0.188 C 
BRANCH  79  80
ATOM     80  O   UNL A   1      34.503  36.585  33.527  1.00  0.00    -0.376 OA
BRANCH  80  81
ATOM     81  C   UNL A   1      34.629  35.178  33.360  1.00  0.00     0.202 C 
BRANCH  81  82
ATOM     82  C   UNL A   1      36.041  34.693  33.011  1.00  0.00     0.261 C 
BRANCH  82  83
ATOM     83  O   UNL A   1      36.435  33.426  33.565  1.00  0.00    -0.459 OA
BRANCH  83  84
ATOM     84  C   UNL A   1      36.777  33.334  34.879  1.00  0.00     0.348 C 
ATOM     85  O   UNL A   1      36.028  33.554  35.820  1.00  0.00    -0.245 OA
BRANCH  84  86
ATOM     86  C   UNL A   1      38.128  32.814  34.935  1.00  0.00     0.116 A 
ATOM     87  C   UNL A   1      38.963  32.547  33.868  1.00  0.00     0.074 A 
ATOM     88  S   UNL A   1      38.822  32.289  36.405  1.00  0.00    -0.133 S 
ATOM     89  C   UNL A   1      40.092  31.762  34.223  1.00  0.00     0.131 A 
ATOM     90  C   UNL A   1      40.112  31.511  35.578  1.00  0.00     0.112 A 
BRANCH  89  91
ATOM     91  O   UNL A   1      41.055  31.228  33.424  1.00  0.00    -0.488 OA
BRANCH  91  92
ATOM     92  C   UNL A   1      42.098  30.503  34.089  1.00  0.00     0.266 C 
BRANCH  92  93
ATOM     93  C   UNL A   1      43.175  30.048  33.120  1.00  0.00     0.001 A 
ATOM     94  C   UNL A   1      43.124  28.723  32.641  1.00  0.00     0.008 A 
ATOM     95  C   UNL A   1      44.253  30.867  32.716  1.00  0.00     0.062 A 
ATOM     96  C   UNL A   1      44.157  28.178  31.882  1.00  0.00     0.000 A 
ATOM     97  C   UNL A   1      45.282  30.299  31.931  1.00  0.00     0.013 A 
ATOM     98  C   UNL A   1      45.247  28.963  31.540  1.00  0.00     0.001 A 
BRANCH  95  99
ATOM     99  C   UNL A   1      44.371  32.346  33.021  1.00  0.00     0.416 C 
ATOM    100  F   UNL A   1      45.394  32.628  33.875  1.00  0.00    -0.166 F 
ATOM    101  F   UNL A   1      44.638  33.063  31.888  1.00  0.00    -0.166 F 
ATOM    102  F   UNL A   1      43.268  32.934  33.554  1.00  0.00    -0.166 F 
ENDBRANCH  95  99
ENDBRANCH  92  93
ENDBRANCH  91  92
ENDBRANCH  89  91
ENDBRANCH  84  86
ENDBRANCH  83  84
ENDBRANCH  82  83
ENDBRANCH  81  82
ENDBRANCH  80  81
ENDBRANCH  79  80
ENDBRANCH   1  79
TORSDOF 27
ENDMDL
