MODEL 1
REMARK VINA RESULT:     -10.4      0.000      0.000
REMARK SMILES C[C@@]1(Oc2c[nH]c3ccc(Br)c(Cl)c23)O[C@@H](C(=O)OCCOCCOCCOCCOC(=O)c2ccc(-c3c4nc(c(-c5c(F)cc(S(=O)(=O)[O-])cc5F)c5ccc([nH]5)c(-c5c(F)cc(S(=O)(=O)[O-])cc5F)c5nc(c(-c6c(F)cc(S(=O)(=O)[O-])cc6F)c6ccc3[nH]6)C=C5)C=C4)cc2)[C@@](C)(O)[C@@](C)(O)[C@@]1(C)O
REMARK SMILES IDX 26 1 25 2 24 3 23 4 22 5 21 6 20 7 19 8 17 9 18 10 16 11
REMARK SMILES IDX 1 12 2 13 15 14 106 15 103 16 107 17 100 18 104 19 101 20
REMARK SMILES IDX 3 21 4 22 5 23 14 24 6 25 7 26 12 27 8 29 10 30 13 31 9 32
REMARK SMILES IDX 11 33 108 34 105 36 102 38 27 40 28 41 29 42 30 43 31 44
REMARK SMILES IDX 32 45 33 46 34 47 35 48 99 49 36 50 98 51 37 52 38 53 39 54
REMARK SMILES IDX 92 55 40 56 97 57 91 58 93 59 41 60 96 61 90 62 89 63 42 65
REMARK SMILES IDX 76 66 55 67 75 68 56 69 59 70 74 71 94 72 57 73 58 74 73 76
REMARK SMILES IDX 95 77 60 78 43 79 44 80 53 81 45 82 46 83 52 84 54 85 47 86
REMARK SMILES IDX 48 87 49 88 50 89 51 90 77 91 78 92 87 93 79 94 80 95 86 96
REMARK SMILES IDX 88 97 81 98 82 99 83 100 84 101 85 102 61 103 62 104 71 105
REMARK SMILES IDX 63 106 64 107 70 108 72 109 65 110 66 111 67 112 68 113
REMARK SMILES IDX 69 114
REMARK H PARENT 6 28 108 35 105 37 102 39 93 64 59 75
REMARK Flexibility Score: inf
ROOT
ATOM      1  C   UNL A   1      36.227  33.687  28.573  1.00  0.00     0.188 C 
ENDROOT
BRANCH   1   2
ATOM      2  O   UNL A   1      35.181  34.621  28.370  1.00  0.00    -0.377 OA
BRANCH   2   3
ATOM      3  C   UNL A   1      33.888  34.092  28.158  1.00  0.00     0.188 C 
BRANCH   3   4
ATOM      4  C   UNL A   1      33.628  32.608  28.384  1.00  0.00     0.188 C 
BRANCH   4   5
ATOM      5  O   UNL A   1      33.387  31.815  27.227  1.00  0.00    -0.376 OA
BRANCH   5   6
ATOM      6  C   UNL A   1      32.042  31.563  26.820  1.00  0.00     0.202 C 
BRANCH   6   7
ATOM      7  C   UNL A   1      31.619  30.101  26.642  1.00  0.00     0.261 C 
BRANCH   7   8
ATOM      8  O   UNL A   1      32.034  29.609  25.347  1.00  0.00    -0.461 OA
BRANCH   8   9
ATOM      9  C   UNL A   1      31.091  29.102  24.521  1.00  0.00     0.338 C 
ATOM     10  O   UNL A   1      30.237  29.799  23.975  1.00  0.00    -0.249 OA
BRANCH   9  11
ATOM     11  C   UNL A   1      31.092  27.550  24.413  1.00  0.00     0.266 C 
ATOM     12  C   UNL A   1      34.204  27.837  24.457  1.00  0.00     0.094 C 
ATOM     13  C   UNL A   1      33.345  26.552  24.498  1.00  0.00     0.240 C 
ATOM     14  O   UNL A   1      32.100  26.852  25.140  1.00  0.00    -0.320 OA
ATOM     15  C   UNL A   1      33.158  25.882  23.046  1.00  0.00     0.158 C 
ATOM     16  C   UNL A   1      32.067  26.640  22.210  1.00  0.00     0.128 C 
ATOM     17  C   UNL A   1      32.834  24.380  23.059  1.00  0.00     0.053 C 
ATOM     18  C   UNL A   1      30.760  26.871  23.054  1.00  0.00     0.130 C 
ATOM     19  C   UNL A   1      31.795  26.020  20.813  1.00  0.00     0.049 C 
ATOM     20  C   UNL A   1      29.985  25.561  23.365  1.00  0.00     0.049 C 
BRANCH  13  21
ATOM     21  O   UNL A   1      34.215  25.722  25.349  1.00  0.00    -0.457 OA
BRANCH  21  22
ATOM     22  C   UNL A   1      33.660  24.616  25.890  1.00  0.00     0.150 A 
ATOM     23  C   UNL A   1      32.402  24.526  26.432  1.00  0.00     0.130 A 
ATOM     24  C   UNL A   1      34.288  23.341  25.990  1.00  0.00     0.061 A 
ATOM     25  N   UNL A   1      32.160  23.198  26.663  1.00  0.00    -0.358 N 
ATOM     26  C   UNL A   1      33.254  22.447  26.285  1.00  0.00     0.051 A 
ATOM     27  C   UNL A   1      35.566  22.814  25.699  1.00  0.00     0.068 A 
ATOM     28  H   UNL A   1      31.329  22.833  27.044  1.00  0.00     0.166 HD
ATOM     29  C   UNL A   1      33.401  21.062  26.159  1.00  0.00     0.028 A 
ATOM     30  C   UNL A   1      35.719  21.438  25.508  1.00  0.00     0.037 A 
ATOM     31  Cl  UNL A   1      36.824  23.969  25.510  1.00  0.00    -0.082 Cl
ATOM     32  C   UNL A   1      34.637  20.580  25.712  1.00  0.00     0.019 A 
ATOM     33  Br  UNL A   1      37.343  20.686  24.876  1.00  0.00    -0.049 Br
ENDBRANCH  21  22
ENDBRANCH  13  21
BRANCH  15  34
ATOM     34  O   UNL A   1      34.409  25.991  22.311  1.00  0.00    -0.380 OA
ATOM     35  H   UNL A   1      34.641  26.927  22.203  1.00  0.00     0.211 HD
ENDBRANCH  15  34
BRANCH  16  36
ATOM     36  O   UNL A   1      32.646  27.909  21.849  1.00  0.00    -0.384 OA
ATOM     37  H   UNL A   1      32.233  28.232  21.033  1.00  0.00     0.211 HD
ENDBRANCH  16  36
BRANCH  18  38
ATOM     38  O   UNL A   1      29.787  27.649  22.353  1.00  0.00    -0.384 OA
ATOM     39  H   UNL A   1      28.902  27.446  22.698  1.00  0.00     0.211 HD
ENDBRANCH  18  38
ENDBRANCH   9  11
ENDBRANCH   8   9
ENDBRANCH   7   8
ENDBRANCH   6   7
ENDBRANCH   5   6
ENDBRANCH   4   5
ENDBRANCH   3   4
ENDBRANCH   2   3
ENDBRANCH   1   2
BRANCH   1  40
ATOM     40  C   UNL A   1      36.840  33.803  29.973  1.00  0.00     0.188 C 
BRANCH  40  41
ATOM     41  O   UNL A   1      35.987  34.080  31.085  1.00  0.00    -0.376 OA
BRANCH  41  42
ATOM     42  C   UNL A   1      35.057  33.088  31.512  1.00  0.00     0.202 C 
BRANCH  42  43
ATOM     43  C   UNL A   1      35.707  31.852  32.159  1.00  0.00     0.261 C 
BRANCH  43  44
ATOM     44  O   UNL A   1      36.305  30.968  31.216  1.00  0.00    -0.460 OA
BRANCH  44  45
ATOM     45  C   UNL A   1      37.241  30.168  31.780  1.00  0.00     0.338 C 
ATOM     46  O   UNL A   1      37.867  30.374  32.805  1.00  0.00    -0.246 OA
BRANCH  45  47
ATOM     47  C   UNL A   1      37.504  29.007  30.917  1.00  0.00     0.060 A 
ATOM     48  C   UNL A   1      38.088  27.919  31.566  1.00  0.00     0.016 A 
ATOM     49  C   UNL A   1      37.596  29.194  29.532  1.00  0.00     0.016 A 
ATOM     50  C   UNL A   1      39.078  27.245  30.896  1.00  0.00     0.010 A 
ATOM     51  C   UNL A   1      38.589  28.517  28.859  1.00  0.00     0.010 A 
ATOM     52  C   UNL A   1      39.411  27.677  29.606  1.00  0.00    -0.014 A 
BRANCH  52  53
ATOM     53  C   UNL A   1      40.793  27.456  29.227  1.00  0.00     0.031 A 
ATOM     54  C   UNL A   1      41.136  26.115  28.741  1.00  0.00     0.074 A 
ATOM     55  C   UNL A   1      41.728  28.414  29.386  1.00  0.00     0.049 A 
ATOM     56  N   UNL A   1      41.845  25.214  29.336  1.00  0.00    -0.248 NA
ATOM     57  C   UNL A   1      40.547  25.705  27.465  1.00  0.00     0.031 C 
ATOM     58  C   UNL A   1      41.535  29.851  29.603  1.00  0.00     0.029 A 
ATOM     59  N   UNL A   1      43.079  28.289  29.295  1.00  0.00    -0.354 N 
ATOM     60  C   UNL A   1      41.934  24.168  28.434  1.00  0.00     0.074 A 
ATOM     61  C   UNL A   1      41.030  24.469  27.349  1.00  0.00     0.031 C 
ATOM     62  C   UNL A   1      42.712  30.486  29.403  1.00  0.00     0.029 A 
ATOM     63  C   UNL A   1      43.750  29.494  29.176  1.00  0.00     0.049 A 
ATOM     64  H   UNL A   1      43.540  27.419  29.312  1.00  0.00     0.167 HD
ATOM     65  C   UNL A   1      42.873  23.192  28.532  1.00  0.00     0.037 A 
ATOM     66  C   UNL A   1      45.042  29.647  28.804  1.00  0.00     0.037 A 
ATOM     67  C   UNL A   1      43.548  23.168  29.797  1.00  0.00     0.049 A 
ATOM     68  C   UNL A   1      45.748  28.365  29.070  1.00  0.00     0.074 A 
ATOM     69  C   UNL A   1      43.155  22.948  31.102  1.00  0.00     0.029 A 
ATOM     70  N   UNL A   1      44.802  23.728  29.873  1.00  0.00    -0.354 N 
ATOM     71  N   UNL A   1      46.003  27.890  30.259  1.00  0.00    -0.248 NA
ATOM     72  C   UNL A   1      45.849  27.397  27.987  1.00  0.00     0.031 C 
ATOM     73  C   UNL A   1      43.999  23.772  31.902  1.00  0.00     0.029 A 
ATOM     74  C   UNL A   1      44.858  24.453  31.039  1.00  0.00     0.049 A 
ATOM     75  H   UNL A   1      45.525  23.627  29.215  1.00  0.00     0.167 HD
ATOM     76  C   UNL A   1      45.906  26.512  30.129  1.00  0.00     0.074 A 
ATOM     77  C   UNL A   1      45.926  26.267  28.693  1.00  0.00     0.031 C 
ATOM     78  C   UNL A   1      45.547  25.719  31.180  1.00  0.00     0.037 A 
BRANCH  65  79
ATOM     79  C   UNL A   1      43.344  22.440  27.333  1.00  0.00     0.058 A 
ATOM     80  C   UNL A   1      42.686  21.280  26.903  1.00  0.00     0.135 A 
ATOM     81  C   UNL A   1      44.567  22.752  26.699  1.00  0.00     0.135 A 
ATOM     82  F   UNL A   1      41.539  20.893  27.483  1.00  0.00    -0.206 F 
ATOM     83  C   UNL A   1      43.212  20.473  25.896  1.00  0.00     0.059 A 
ATOM     84  C   UNL A   1      45.085  21.992  25.662  1.00  0.00     0.059 A 
ATOM     85  F   UNL A   1      45.325  23.776  27.120  1.00  0.00    -0.206 F 
ATOM     86  C   UNL A   1      44.415  20.836  25.287  1.00  0.00     0.060 A 
BRANCH  86  87
ATOM     87  S   UNL A   1      45.130  19.765  24.028  1.00  0.00     0.124 S 
ATOM     88  O   UNL A   1      44.616  18.462  24.434  1.00  0.00    -0.237 OA
ATOM     89  O   UNL A   1      44.573  20.318  22.797  1.00  0.00    -0.237 OA
ATOM     90  O   UNL A   1      46.566  19.962  24.201  1.00  0.00    -0.744 OA
ENDBRANCH  86  87
ENDBRANCH  65  79
BRANCH  66  91
ATOM     91  C   UNL A   1      45.581  30.688  27.891  1.00  0.00     0.058 A 
ATOM     92  C   UNL A   1      44.853  31.105  26.765  1.00  0.00     0.135 A 
ATOM     93  C   UNL A   1      46.686  31.490  28.251  1.00  0.00     0.135 A 
ATOM     94  F   UNL A   1      43.770  30.419  26.368  1.00  0.00    -0.206 F 
ATOM     95  C   UNL A   1      45.170  32.275  26.068  1.00  0.00     0.059 A 
ATOM     96  C   UNL A   1      47.032  32.646  27.560  1.00  0.00     0.059 A 
ATOM     97  F   UNL A   1      47.409  31.231  29.351  1.00  0.00    -0.206 F 
ATOM     98  C   UNL A   1      46.251  33.049  26.487  1.00  0.00     0.060 A 
BRANCH  98  99
ATOM     99  S   UNL A   1      46.551  34.651  25.709  1.00  0.00     0.124 S 
ATOM    100  O   UNL A   1      47.942  34.528  25.290  1.00  0.00    -0.237 OA
ATOM    101  O   UNL A   1      45.559  34.661  24.639  1.00  0.00    -0.237 OA
ATOM    102  O   UNL A   1      46.307  35.605  26.789  1.00  0.00    -0.744 OA
ENDBRANCH  98  99
ENDBRANCH  66  91
BRANCH  78 103
ATOM    103  C   UNL A   1      45.607  26.318  32.562  1.00  0.00     0.058 A 
ATOM    104  C   UNL A   1      44.567  27.074  33.130  1.00  0.00     0.135 A 
ATOM    105  C   UNL A   1      46.699  26.007  33.387  1.00  0.00     0.135 A 
ATOM    106  F   UNL A   1      43.443  27.321  32.440  1.00  0.00    -0.206 F 
ATOM    107  C   UNL A   1      44.633  27.544  34.443  1.00  0.00     0.059 A 
ATOM    108  C   UNL A   1      46.773  26.442  34.709  1.00  0.00     0.059 A 
ATOM    109  F   UNL A   1      47.695  25.233  32.923  1.00  0.00    -0.206 F 
ATOM    110  C   UNL A   1      45.743  27.225  35.225  1.00  0.00     0.060 A 
BRANCH 110 111
ATOM    111  S   UNL A   1      45.793  27.773  36.947  1.00  0.00     0.124 S 
ATOM    112  O   UNL A   1      45.131  29.071  36.875  1.00  0.00    -0.237 OA
ATOM    113  O   UNL A   1      45.054  26.721  37.640  1.00  0.00    -0.237 OA
ATOM    114  O   UNL A   1      47.221  27.818  37.250  1.00  0.00    -0.744 OA
ENDBRANCH 110 111
ENDBRANCH  78 103
ENDBRANCH  52  53
ENDBRANCH  45  47
ENDBRANCH  44  45
ENDBRANCH  43  44
ENDBRANCH  42  43
ENDBRANCH  41  42
ENDBRANCH  40  41
ENDBRANCH   1  40
TORSDOF 28
ENDMDL
MODEL 2
REMARK VINA RESULT:     -10.0      3.618      9.065
REMARK SMILES C[C@@]1(Oc2c[nH]c3ccc(Br)c(Cl)c23)O[C@@H](C(=O)OCCOCCOCCOCCOC(=O)c2ccc(-c3c4nc(c(-c5c(F)cc(S(=O)(=O)[O-])cc5F)c5ccc([nH]5)c(-c5c(F)cc(S(=O)(=O)[O-])cc5F)c5nc(c(-c6c(F)cc(S(=O)(=O)[O-])cc6F)c6ccc3[nH]6)C=C5)C=C4)cc2)[C@@](C)(O)[C@@](C)(O)[C@@]1(C)O
REMARK SMILES IDX 26 1 25 2 24 3 23 4 22 5 21 6 20 7 19 8 17 9 18 10 16 11
REMARK SMILES IDX 1 12 2 13 15 14 106 15 103 16 107 17 100 18 104 19 101 20
REMARK SMILES IDX 3 21 4 22 5 23 14 24 6 25 7 26 12 27 8 29 10 30 13 31 9 32
REMARK SMILES IDX 11 33 108 34 105 36 102 38 27 40 28 41 29 42 30 43 31 44
REMARK SMILES IDX 32 45 33 46 34 47 35 48 99 49 36 50 98 51 37 52 38 53 39 54
REMARK SMILES IDX 92 55 40 56 97 57 91 58 93 59 41 60 96 61 90 62 89 63 42 65
REMARK SMILES IDX 76 66 55 67 75 68 56 69 59 70 74 71 94 72 57 73 58 74 73 76
REMARK SMILES IDX 95 77 60 78 43 79 44 80 53 81 45 82 46 83 52 84 54 85 47 86
REMARK SMILES IDX 48 87 49 88 50 89 51 90 77 91 78 92 87 93 79 94 80 95 86 96
REMARK SMILES IDX 88 97 81 98 82 99 83 100 84 101 85 102 61 103 62 104 71 105
REMARK SMILES IDX 63 106 64 107 70 108 72 109 65 110 66 111 67 112 68 113
REMARK SMILES IDX 69 114
REMARK H PARENT 6 28 108 35 105 37 102 39 93 64 59 75
REMARK Flexibility Score: inf
ROOT
ATOM      1  C   UNL A   1      44.324  22.924  28.515  1.00  0.00     0.188 C 
ENDROOT
BRANCH   1   2
ATOM      2  O   UNL A   1      42.965  22.626  28.784  1.00  0.00    -0.377 OA
BRANCH   2   3
ATOM      3  C   UNL A   1      42.324  21.731  27.900  1.00  0.00     0.188 C 
BRANCH   3   4
ATOM      4  C   UNL A   1      40.811  21.785  27.730  1.00  0.00     0.188 C 
BRANCH   4   5
ATOM      5  O   UNL A   1      40.317  21.843  26.396  1.00  0.00    -0.376 OA
BRANCH   5   6
ATOM      6  C   UNL A   1      38.994  22.328  26.162  1.00  0.00     0.202 C 
BRANCH   6   7
ATOM      7  C   UNL A   1      38.055  21.448  25.331  1.00  0.00     0.261 C 
BRANCH   7   8
ATOM      8  O   UNL A   1      36.710  21.983  25.354  1.00  0.00    -0.461 OA
BRANCH   8   9
ATOM      9  C   UNL A   1      36.160  22.383  24.185  1.00  0.00     0.338 C 
ATOM     10  O   UNL A   1      36.772  23.049  23.351  1.00  0.00    -0.249 OA
BRANCH   9  11
ATOM     11  C   UNL A   1      34.650  22.041  24.031  1.00  0.00     0.266 C 
ATOM     12  C   UNL A   1      34.209  24.390  26.045  1.00  0.00     0.094 C 
ATOM     13  C   UNL A   1      33.158  23.567  25.267  1.00  0.00     0.240 C 
ATOM     14  O   UNL A   1      33.737  23.136  24.029  1.00  0.00    -0.320 OA
ATOM     15  C   UNL A   1      32.551  22.354  26.134  1.00  0.00     0.158 C 
ATOM     16  C   UNL A   1      33.542  21.137  26.174  1.00  0.00     0.128 C 
ATOM     17  C   UNL A   1      31.166  21.864  25.687  1.00  0.00     0.053 C 
ATOM     18  C   UNL A   1      34.068  20.782  24.734  1.00  0.00     0.130 C 
ATOM     19  C   UNL A   1      33.004  19.907  26.952  1.00  0.00     0.049 C 
ATOM     20  C   UNL A   1      32.972  20.194  23.803  1.00  0.00     0.049 C 
BRANCH  13  21
ATOM     21  O   UNL A   1      32.148  24.620  25.063  1.00  0.00    -0.457 OA
BRANCH  21  22
ATOM     22  C   UNL A   1      32.593  25.806  24.595  1.00  0.00     0.150 A 
ATOM     23  C   UNL A   1      33.907  26.169  24.429  1.00  0.00     0.130 A 
ATOM     24  C   UNL A   1      31.769  26.894  24.186  1.00  0.00     0.061 A 
ATOM     25  N   UNL A   1      33.912  27.350  23.737  1.00  0.00    -0.358 N 
ATOM     26  C   UNL A   1      32.618  27.746  23.472  1.00  0.00     0.051 A 
ATOM     27  C   UNL A   1      30.384  27.174  24.185  1.00  0.00     0.068 A 
ATOM     28  H   UNL A   1      34.720  27.844  23.469  1.00  0.00     0.166 HD
ATOM     29  C   UNL A   1      32.135  28.767  22.646  1.00  0.00     0.028 A 
ATOM     30  C   UNL A   1      29.876  28.148  23.321  1.00  0.00     0.037 A 
ATOM     31  Cl  UNL A   1      29.423  26.189  25.214  1.00  0.00    -0.082 Cl
ATOM     32  C   UNL A   1      30.746  28.915  22.544  1.00  0.00     0.019 A 
ATOM     33  Br  UNL A   1      28.011  28.408  23.086  1.00  0.00    -0.049 Br
ENDBRANCH  21  22
ENDBRANCH  13  21
BRANCH  15  34
ATOM     34  O   UNL A   1      32.370  22.799  27.507  1.00  0.00    -0.380 OA
ATOM     35  H   UNL A   1      33.092  22.457  28.057  1.00  0.00     0.211 HD
ENDBRANCH  15  34
BRANCH  16  36
ATOM     36  O   UNL A   1      34.643  21.542  27.010  1.00  0.00    -0.384 OA
ATOM     37  H   UNL A   1      35.480  21.302  26.581  1.00  0.00     0.211 HD
ENDBRANCH  16  36
BRANCH  18  38
ATOM     38  O   UNL A   1      35.051  19.744  24.751  1.00  0.00    -0.384 OA
ATOM     39  H   UNL A   1      34.833  19.104  25.448  1.00  0.00     0.211 HD
ENDBRANCH  18  38
ENDBRANCH   9  11
ENDBRANCH   8   9
ENDBRANCH   7   8
ENDBRANCH   6   7
ENDBRANCH   5   6
ENDBRANCH   4   5
ENDBRANCH   3   4
ENDBRANCH   2   3
ENDBRANCH   1   2
BRANCH   1  40
ATOM     40  C   UNL A   1      44.641  24.410  28.725  1.00  0.00     0.188 C 
BRANCH  40  41
ATOM     41  O   UNL A   1      45.262  25.144  27.668  1.00  0.00    -0.376 OA
BRANCH  41  42
ATOM     42  C   UNL A   1      45.608  24.468  26.463  1.00  0.00     0.202 C 
BRANCH  42  43
ATOM     43  C   UNL A   1      45.219  25.229  25.181  1.00  0.00     0.261 C 
BRANCH  43  44
ATOM     44  O   UNL A   1      43.947  25.863  25.263  1.00  0.00    -0.460 OA
BRANCH  44  45
ATOM     45  C   UNL A   1      42.937  24.975  25.417  1.00  0.00     0.338 C 
ATOM     46  O   UNL A   1      42.919  23.809  25.061  1.00  0.00    -0.246 OA
BRANCH  45  47
ATOM     47  C   UNL A   1      41.763  25.636  26.004  1.00  0.00     0.060 A 
ATOM     48  C   UNL A   1      41.430  26.859  25.422  1.00  0.00     0.016 A 
ATOM     49  C   UNL A   1      41.362  25.287  27.301  1.00  0.00     0.016 A 
ATOM     50  C   UNL A   1      41.040  27.870  26.263  1.00  0.00     0.010 A 
ATOM     51  C   UNL A   1      40.970  26.302  28.145  1.00  0.00     0.010 A 
ATOM     52  C   UNL A   1      40.979  27.599  27.635  1.00  0.00    -0.014 A 
BRANCH  52  53
ATOM     53  C   UNL A   1      41.243  28.736  28.495  1.00  0.00     0.031 A 
ATOM     54  C   UNL A   1      42.542  29.398  28.331  1.00  0.00     0.074 A 
ATOM     55  C   UNL A   1      40.369  29.115  29.448  1.00  0.00     0.049 A 
ATOM     56  N   UNL A   1      43.545  29.387  29.144  1.00  0.00    -0.248 NA
ATOM     57  C   UNL A   1      42.773  30.092  27.062  1.00  0.00     0.031 C 
ATOM     58  C   UNL A   1      38.954  28.754  29.586  1.00  0.00     0.029 A 
ATOM     59  N   UNL A   1      40.567  29.999  30.463  1.00  0.00    -0.354 N 
ATOM     60  C   UNL A   1      44.490  30.217  28.567  1.00  0.00     0.074 A 
ATOM     61  C   UNL A   1      44.017  30.535  27.239  1.00  0.00     0.031 C 
ATOM     62  C   UNL A   1      38.376  29.583  30.484  1.00  0.00     0.029 A 
ATOM     63  C   UNL A   1      39.401  30.431  31.069  1.00  0.00     0.049 A 
ATOM     64  H   UNL A   1      41.461  30.303  30.742  1.00  0.00     0.167 HD
ATOM     65  C   UNL A   1      45.528  30.746  29.264  1.00  0.00     0.037 A 
ATOM     66  C   UNL A   1      39.289  31.491  31.905  1.00  0.00     0.037 A 
ATOM     67  C   UNL A   1      45.731  30.133  30.545  1.00  0.00     0.049 A 
ATOM     68  C   UNL A   1      40.635  31.762  32.479  1.00  0.00     0.074 A 
ATOM     69  C   UNL A   1      46.067  28.863  30.970  1.00  0.00     0.029 A 
ATOM     70  N   UNL A   1      45.263  30.789  31.659  1.00  0.00    -0.354 N 
ATOM     71  N   UNL A   1      41.251  30.984  33.326  1.00  0.00    -0.248 NA
ATOM     72  C   UNL A   1      41.483  32.740  31.813  1.00  0.00     0.031 C 
ATOM     73  C   UNL A   1      45.390  28.682  32.211  1.00  0.00     0.029 A 
ATOM     74  C   UNL A   1      44.674  29.850  32.471  1.00  0.00     0.049 A 
ATOM     75  H   UNL A   1      45.337  31.753  31.840  1.00  0.00     0.167 HD
ATOM     76  C   UNL A   1      42.597  31.100  33.014  1.00  0.00     0.074 A 
ATOM     77  C   UNL A   1      42.686  32.277  32.159  1.00  0.00     0.031 C 
ATOM     78  C   UNL A   1      43.477  30.083  33.252  1.00  0.00     0.037 A 
BRANCH  65  79
ATOM     79  C   UNL A   1      46.173  32.026  28.852  1.00  0.00     0.058 A 
ATOM     80  C   UNL A   1      47.471  32.045  28.326  1.00  0.00     0.135 A 
ATOM     81  C   UNL A   1      45.585  33.276  29.144  1.00  0.00     0.135 A 
ATOM     82  F   UNL A   1      48.114  30.897  28.057  1.00  0.00    -0.206 F 
ATOM     83  C   UNL A   1      48.150  33.240  28.099  1.00  0.00     0.059 A 
ATOM     84  C   UNL A   1      46.222  34.480  28.882  1.00  0.00     0.059 A 
ATOM     85  F   UNL A   1      44.394  33.357  29.757  1.00  0.00    -0.206 F 
ATOM     86  C   UNL A   1      47.517  34.451  28.387  1.00  0.00     0.060 A 
BRANCH  86  87
ATOM     87  S   UNL A   1      48.413  35.997  28.153  1.00  0.00     0.124 S 
ATOM     88  O   UNL A   1      47.323  36.965  28.171  1.00  0.00    -0.237 OA
ATOM     89  O   UNL A   1      49.306  36.016  29.308  1.00  0.00    -0.237 OA
ATOM     90  O   UNL A   1      49.072  35.807  26.865  1.00  0.00    -0.744 OA
ENDBRANCH  86  87
ENDBRANCH  65  79
BRANCH  66  91
ATOM     91  C   UNL A   1      38.191  32.491  31.921  1.00  0.00     0.058 A 
ATOM     92  C   UNL A   1      37.643  32.979  30.723  1.00  0.00     0.135 A 
ATOM     93  C   UNL A   1      37.470  32.782  33.099  1.00  0.00     0.135 A 
ATOM     94  F   UNL A   1      38.246  32.725  29.552  1.00  0.00    -0.206 F 
ATOM     95  C   UNL A   1      36.428  33.669  30.689  1.00  0.00     0.059 A 
ATOM     96  C   UNL A   1      36.270  33.484  33.092  1.00  0.00     0.059 A 
ATOM     97  F   UNL A   1      37.857  32.304  34.292  1.00  0.00    -0.206 F 
ATOM     98  C   UNL A   1      35.739  33.899  31.879  1.00  0.00     0.060 A 
BRANCH  98  99
ATOM     99  S   UNL A   1      34.085  34.623  31.823  1.00  0.00     0.124 S 
ATOM    100  O   UNL A   1      33.717  34.429  30.425  1.00  0.00    -0.237 OA
ATOM    101  O   UNL A   1      33.363  33.808  32.794  1.00  0.00    -0.237 OA
ATOM    102  O   UNL A   1      34.308  36.011  32.222  1.00  0.00    -0.744 OA
ENDBRANCH  98  99
ENDBRANCH  66  91
BRANCH  78 103
ATOM    103  C   UNL A   1      43.037  28.980  34.179  1.00  0.00     0.058 A 
ATOM    104  C   UNL A   1      42.243  27.892  33.776  1.00  0.00     0.135 A 
ATOM    105  C   UNL A   1      43.542  28.955  35.488  1.00  0.00     0.135 A 
ATOM    106  F   UNL A   1      41.811  27.790  32.510  1.00  0.00    -0.206 F 
ATOM    107  C   UNL A   1      41.924  26.851  34.651  1.00  0.00     0.059 A 
ATOM    108  C   UNL A   1      43.259  27.912  36.369  1.00  0.00     0.059 A 
ATOM    109  F   UNL A   1      44.360  29.932  35.913  1.00  0.00    -0.206 F 
ATOM    110  C   UNL A   1      42.435  26.871  35.948  1.00  0.00     0.060 A 
BRANCH 110 111
ATOM    111  S   UNL A   1      42.081  25.487  37.055  1.00  0.00     0.124 S 
ATOM    112  O   UNL A   1      40.919  25.973  37.792  1.00  0.00    -0.237 OA
ATOM    113  O   UNL A   1      41.830  24.389  36.126  1.00  0.00    -0.237 OA
ATOM    114  O   UNL A   1      43.306  25.356  37.841  1.00  0.00    -0.744 OA
ENDBRANCH 110 111
ENDBRANCH  78 103
ENDBRANCH  52  53
ENDBRANCH  45  47
ENDBRANCH  44  45
ENDBRANCH  43  44
ENDBRANCH  42  43
ENDBRANCH  41  42
ENDBRANCH  40  41
ENDBRANCH   1  40
TORSDOF 28
ENDMDL
MODEL 3
REMARK VINA RESULT:     -10.0      3.997     10.554
REMARK SMILES C[C@@]1(Oc2c[nH]c3ccc(Br)c(Cl)c23)O[C@@H](C(=O)OCCOCCOCCOCCOC(=O)c2ccc(-c3c4nc(c(-c5c(F)cc(S(=O)(=O)[O-])cc5F)c5ccc([nH]5)c(-c5c(F)cc(S(=O)(=O)[O-])cc5F)c5nc(c(-c6c(F)cc(S(=O)(=O)[O-])cc6F)c6ccc3[nH]6)C=C5)C=C4)cc2)[C@@](C)(O)[C@@](C)(O)[C@@]1(C)O
REMARK SMILES IDX 26 1 25 2 24 3 23 4 22 5 21 6 20 7 19 8 17 9 18 10 16 11
REMARK SMILES IDX 1 12 2 13 15 14 106 15 103 16 107 17 100 18 104 19 101 20
REMARK SMILES IDX 3 21 4 22 5 23 14 24 6 25 7 26 12 27 8 29 10 30 13 31 9 32
REMARK SMILES IDX 11 33 108 34 105 36 102 38 27 40 28 41 29 42 30 43 31 44
REMARK SMILES IDX 32 45 33 46 34 47 35 48 99 49 36 50 98 51 37 52 38 53 39 54
REMARK SMILES IDX 92 55 40 56 97 57 91 58 93 59 41 60 96 61 90 62 89 63 42 65
REMARK SMILES IDX 76 66 55 67 75 68 56 69 59 70 74 71 94 72 57 73 58 74 73 76
REMARK SMILES IDX 95 77 60 78 43 79 44 80 53 81 45 82 46 83 52 84 54 85 47 86
REMARK SMILES IDX 48 87 49 88 50 89 51 90 77 91 78 92 87 93 79 94 80 95 86 96
REMARK SMILES IDX 88 97 81 98 82 99 83 100 84 101 85 102 61 103 62 104 71 105
REMARK SMILES IDX 63 106 64 107 70 108 72 109 65 110 66 111 67 112 68 113
REMARK SMILES IDX 69 114
REMARK H PARENT 6 28 108 35 105 37 102 39 93 64 59 75
REMARK Flexibility Score: inf
ROOT
ATOM      1  C   UNL A   1      44.528  23.314  28.360  1.00  0.00     0.188 C 
ENDROOT
BRANCH   1   2
ATOM      2  O   UNL A   1      43.241  22.814  28.677  1.00  0.00    -0.377 OA
BRANCH   2   3
ATOM      3  C   UNL A   1      42.609  22.019  27.695  1.00  0.00     0.188 C 
BRANCH   3   4
ATOM      4  C   UNL A   1      41.090  21.910  27.669  1.00  0.00     0.188 C 
BRANCH   4   5
ATOM      5  O   UNL A   1      40.446  22.202  26.434  1.00  0.00    -0.376 OA
BRANCH   5   6
ATOM      6  C   UNL A   1      39.036  22.429  26.417  1.00  0.00     0.202 C 
BRANCH   6   7
ATOM      7  C   UNL A   1      38.194  21.579  25.460  1.00  0.00     0.261 C 
BRANCH   7   8
ATOM      8  O   UNL A   1      36.813  22.009  25.485  1.00  0.00    -0.461 OA
BRANCH   8   9
ATOM      9  C   UNL A   1      36.272  22.495  24.345  1.00  0.00     0.338 C 
ATOM     10  O   UNL A   1      36.877  23.255  23.590  1.00  0.00    -0.249 OA
BRANCH   9  11
ATOM     11  C   UNL A   1      34.779  22.118  24.125  1.00  0.00     0.266 C 
ATOM     12  C   UNL A   1      34.200  24.381  26.201  1.00  0.00     0.094 C 
ATOM     13  C   UNL A   1      33.201  23.557  25.358  1.00  0.00     0.240 C 
ATOM     14  O   UNL A   1      33.835  23.186  24.128  1.00  0.00    -0.320 OA
ATOM     15  C   UNL A   1      32.600  22.298  26.160  1.00  0.00     0.158 C 
ATOM     16  C   UNL A   1      33.623  21.108  26.194  1.00  0.00     0.128 C 
ATOM     17  C   UNL A   1      31.245  21.786  25.648  1.00  0.00     0.053 C 
ATOM     18  C   UNL A   1      34.209  20.819  24.763  1.00  0.00     0.130 C 
ATOM     19  C   UNL A   1      33.094  19.836  26.910  1.00  0.00     0.049 C 
ATOM     20  C   UNL A   1      33.164  20.234  23.773  1.00  0.00     0.049 C 
BRANCH  13  21
ATOM     21  O   UNL A   1      32.169  24.588  25.154  1.00  0.00    -0.457 OA
BRANCH  21  22
ATOM     22  C   UNL A   1      32.580  25.765  24.634  1.00  0.00     0.150 A 
ATOM     23  C   UNL A   1      33.882  26.142  24.417  1.00  0.00     0.130 A 
ATOM     24  C   UNL A   1      31.726  26.825  24.213  1.00  0.00     0.061 A 
ATOM     25  N   UNL A   1      33.847  27.299  23.685  1.00  0.00    -0.358 N 
ATOM     26  C   UNL A   1      32.539  27.665  23.446  1.00  0.00     0.051 A 
ATOM     27  C   UNL A   1      30.337  27.083  24.244  1.00  0.00     0.068 A 
ATOM     28  H   UNL A   1      34.638  27.796  23.377  1.00  0.00     0.166 HD
ATOM     29  C   UNL A   1      32.015  28.650  22.601  1.00  0.00     0.028 A 
ATOM     30  C   UNL A   1      29.788  28.019  23.363  1.00  0.00     0.037 A 
ATOM     31  Cl  UNL A   1      29.424  26.118  25.333  1.00  0.00    -0.082 Cl
ATOM     32  C   UNL A   1      30.622  28.772  22.535  1.00  0.00     0.019 A 
ATOM     33  Br  UNL A   1      27.913  28.240  23.175  1.00  0.00    -0.049 Br
ENDBRANCH  21  22
ENDBRANCH  13  21
BRANCH  15  34
ATOM     34  O   UNL A   1      32.357  22.689  27.541  1.00  0.00    -0.380 OA
ATOM     35  H   UNL A   1      33.070  22.348  28.104  1.00  0.00     0.211 HD
ENDBRANCH  15  34
BRANCH  16  36
ATOM     36  O   UNL A   1      34.682  21.514  27.083  1.00  0.00    -0.384 OA
ATOM     37  H   UNL A   1      35.540  21.312  26.676  1.00  0.00     0.211 HD
ENDBRANCH  16  36
BRANCH  18  38
ATOM     38  O   UNL A   1      35.220  19.808  24.780  1.00  0.00    -0.384 OA
ATOM     39  H   UNL A   1      34.866  18.990  24.395  1.00  0.00     0.211 HD
ENDBRANCH  18  38
ENDBRANCH   9  11
ENDBRANCH   8   9
ENDBRANCH   7   8
ENDBRANCH   6   7
ENDBRANCH   5   6
ENDBRANCH   4   5
ENDBRANCH   3   4
ENDBRANCH   2   3
ENDBRANCH   1   2
BRANCH   1  40
ATOM     40  C   UNL A   1      44.728  24.750  28.860  1.00  0.00     0.188 C 
BRANCH  40  41
ATOM     41  O   UNL A   1      45.261  25.729  27.967  1.00  0.00    -0.376 OA
BRANCH  41  42
ATOM     42  C   UNL A   1      45.599  25.347  26.637  1.00  0.00     0.202 C 
BRANCH  42  43
ATOM     43  C   UNL A   1      44.735  26.013  25.551  1.00  0.00     0.261 C 
BRANCH  43  44
ATOM     44  O   UNL A   1      43.581  26.666  26.068  1.00  0.00    -0.460 OA
BRANCH  44  45
ATOM     45  C   UNL A   1      42.450  25.948  25.872  1.00  0.00     0.338 C 
ATOM     46  O   UNL A   1      42.367  24.785  25.516  1.00  0.00    -0.246 OA
BRANCH  45  47
ATOM     47  C   UNL A   1      41.267  26.802  26.048  1.00  0.00     0.060 A 
ATOM     48  C   UNL A   1      41.484  28.159  25.804  1.00  0.00     0.016 A 
ATOM     49  C   UNL A   1      40.206  26.342  26.840  1.00  0.00     0.016 A 
ATOM     50  C   UNL A   1      40.889  29.054  26.655  1.00  0.00     0.010 A 
ATOM     51  C   UNL A   1      39.608  27.242  27.694  1.00  0.00     0.010 A 
ATOM     52  C   UNL A   1      40.088  28.549  27.687  1.00  0.00    -0.014 A 
BRANCH  52  53
ATOM     53  C   UNL A   1      40.054  29.363  28.887  1.00  0.00     0.031 A 
ATOM     54  C   UNL A   1      38.999  30.379  28.964  1.00  0.00     0.074 A 
ATOM     55  C   UNL A   1      40.993  29.240  29.846  1.00  0.00     0.049 A 
ATOM     56  N   UNL A   1      39.128  31.662  28.891  1.00  0.00    -0.248 NA
ATOM     57  C   UNL A   1      37.621  29.893  29.054  1.00  0.00     0.031 C 
ATOM     58  C   UNL A   1      41.940  28.142  30.063  1.00  0.00     0.029 A 
ATOM     59  N   UNL A   1      41.226  30.067  30.900  1.00  0.00    -0.354 N 
ATOM     60  C   UNL A   1      37.855  32.167  29.094  1.00  0.00     0.074 A 
ATOM     61  C   UNL A   1      36.948  31.043  29.076  1.00  0.00     0.031 C 
ATOM     62  C   UNL A   1      42.483  28.268  31.294  1.00  0.00     0.029 A 
ATOM     63  C   UNL A   1      42.022  29.513  31.887  1.00  0.00     0.049 A 
ATOM     64  H   UNL A   1      40.862  30.981  30.956  1.00  0.00     0.167 HD
ATOM     65  C   UNL A   1      37.624  33.459  29.441  1.00  0.00     0.037 A 
ATOM     66  C   UNL A   1      42.186  30.000  33.139  1.00  0.00     0.037 A 
ATOM     67  C   UNL A   1      38.766  34.311  29.278  1.00  0.00     0.049 A 
ATOM     68  C   UNL A   1      41.841  31.448  33.113  1.00  0.00     0.074 A 
ATOM     69  C   UNL A   1      39.527  34.717  28.199  1.00  0.00     0.029 A 
ATOM     70  N   UNL A   1      39.498  34.636  30.395  1.00  0.00    -0.354 N 
ATOM     71  N   UNL A   1      42.546  32.368  32.514  1.00  0.00    -0.248 NA
ATOM     72  C   UNL A   1      40.478  31.836  33.448  1.00  0.00     0.031 C 
ATOM     73  C   UNL A   1      40.852  34.871  28.700  1.00  0.00     0.029 A 
ATOM     74  C   UNL A   1      40.827  34.545  30.056  1.00  0.00     0.049 A 
ATOM     75  H   UNL A   1      39.137  34.887  31.275  1.00  0.00     0.167 HD
ATOM     76  C   UNL A   1      41.619  33.289  32.047  1.00  0.00     0.074 A 
ATOM     77  C   UNL A   1      40.383  32.970  32.750  1.00  0.00     0.031 C 
ATOM     78  C   UNL A   1      41.862  34.048  30.938  1.00  0.00     0.037 A 
BRANCH  65  79
ATOM     79  C   UNL A   1      36.401  33.856  30.197  1.00  0.00     0.058 A 
ATOM     80  C   UNL A   1      35.295  34.412  29.541  1.00  0.00     0.135 A 
ATOM     81  C   UNL A   1      36.377  33.866  31.609  1.00  0.00     0.135 A 
ATOM     82  F   UNL A   1      35.260  34.476  28.200  1.00  0.00    -0.206 F 
ATOM     83  C   UNL A   1      34.219  34.946  30.248  1.00  0.00     0.059 A 
ATOM     84  C   UNL A   1      35.297  34.347  32.333  1.00  0.00     0.059 A 
ATOM     85  F   UNL A   1      37.438  33.463  32.324  1.00  0.00    -0.206 F 
ATOM     86  C   UNL A   1      34.234  34.914  31.644  1.00  0.00     0.060 A 
BRANCH  86  87
ATOM     87  S   UNL A   1      32.876  35.658  32.562  1.00  0.00     0.124 S 
ATOM     88  O   UNL A   1      32.222  36.444  31.522  1.00  0.00    -0.237 OA
ATOM     89  O   UNL A   1      32.143  34.487  33.037  1.00  0.00    -0.237 OA
ATOM     90  O   UNL A   1      33.557  36.424  33.602  1.00  0.00    -0.744 OA
ENDBRANCH  86  87
ENDBRANCH  65  79
BRANCH  66  91
ATOM     91  C   UNL A   1      42.243  29.209  34.395  1.00  0.00     0.058 A 
ATOM     92  C   UNL A   1      41.486  28.034  34.541  1.00  0.00     0.135 A 
ATOM     93  C   UNL A   1      43.242  29.431  35.367  1.00  0.00     0.135 A 
ATOM     94  F   UNL A   1      40.534  27.729  33.646  1.00  0.00    -0.206 F 
ATOM     95  C   UNL A   1      41.739  27.111  35.560  1.00  0.00     0.059 A 
ATOM     96  C   UNL A   1      43.497  28.537  36.401  1.00  0.00     0.059 A 
ATOM     97  F   UNL A   1      44.075  30.480  35.288  1.00  0.00    -0.206 F 
ATOM     98  C   UNL A   1      42.761  27.362  36.473  1.00  0.00     0.060 A 
BRANCH  98  99
ATOM     99  S   UNL A   1      43.213  26.091  37.674  1.00  0.00     0.124 S 
ATOM    100  O   UNL A   1      41.936  25.817  38.320  1.00  0.00    -0.237 OA
ATOM    101  O   UNL A   1      43.736  25.034  36.815  1.00  0.00    -0.237 OA
ATOM    102  O   UNL A   1      44.207  26.756  38.514  1.00  0.00    -0.744 OA
ENDBRANCH  98  99
ENDBRANCH  66  91
BRANCH  78 103
ATOM    103  C   UNL A   1      43.283  34.131  30.445  1.00  0.00     0.058 A 
ATOM    104  C   UNL A   1      43.872  33.174  29.600  1.00  0.00     0.135 A 
ATOM    105  C   UNL A   1      44.033  35.282  30.731  1.00  0.00     0.135 A 
ATOM    106  F   UNL A   1      43.181  32.099  29.195  1.00  0.00    -0.206 F 
ATOM    107  C   UNL A   1      45.168  33.331  29.104  1.00  0.00     0.059 A 
ATOM    108  C   UNL A   1      45.317  35.473  30.224  1.00  0.00     0.059 A 
ATOM    109  F   UNL A   1      43.501  36.264  31.480  1.00  0.00    -0.206 F 
ATOM    110  C   UNL A   1      45.884  34.484  29.423  1.00  0.00     0.060 A 
BRANCH 110 111
ATOM    111  S   UNL A   1      47.533  34.719  28.720  1.00  0.00     0.124 S 
ATOM    112  O   UNL A   1      47.266  34.668  27.287  1.00  0.00    -0.237 OA
ATOM    113  O   UNL A   1      47.924  36.023  29.248  1.00  0.00    -0.237 OA
ATOM    114  O   UNL A   1      48.295  33.590  29.251  1.00  0.00    -0.744 OA
ENDBRANCH 110 111
ENDBRANCH  78 103
ENDBRANCH  52  53
ENDBRANCH  45  47
ENDBRANCH  44  45
ENDBRANCH  43  44
ENDBRANCH  42  43
ENDBRANCH  41  42
ENDBRANCH  40  41
ENDBRANCH   1  40
TORSDOF 28
ENDMDL
