MODEL 1
REMARK VINA RESULT:      -8.8      0.000      0.000
REMARK SMILES Cc1ccc(-c2noc(CCC(=O)OCCOCCOCCOCCOC(=O)c3ccc(-c4c5nc(c(-c6c(F)cc(S(=O)(=O)[O-])cc6F)c6ccc([nH]6)c(-c6c(F)cc(S(=O)(=O)[O-])cc6F)c6nc(c(-c7c(F)cc(S(=O)(=O)[O-])cc7F)c7ccc4[nH]7)C=C6)C=C5)cc3)n2)cc1C
REMARK SMILES IDX 20 1 19 2 18 3 17 4 16 5 15 6 14 7 12 8 13 9 11 10 10 11
REMARK SMILES IDX 9 12 6 13 7 14 95 15 8 16 5 17 1 18 2 19 3 20 97 21 4 22
REMARK SMILES IDX 96 23 98 24 21 25 22 26 23 27 24 28 25 29 26 30 27 31 28 32
REMARK SMILES IDX 29 33 30 34 94 35 31 36 93 37 32 38 33 39 34 40 87 41 35 42
REMARK SMILES IDX 92 43 86 44 88 45 36 46 91 47 85 48 84 49 37 51 71 52 50 53
REMARK SMILES IDX 70 54 51 55 54 56 69 57 89 58 52 59 53 60 68 62 90 63 55 64
REMARK SMILES IDX 38 65 39 66 48 67 40 68 41 69 47 70 49 71 42 72 43 73 44 74
REMARK SMILES IDX 45 75 46 76 72 77 73 78 82 79 74 80 75 81 81 82 83 83 76 84
REMARK SMILES IDX 77 85 78 86 79 87 80 88 56 89 57 90 66 91 58 92 59 93 65 94
REMARK SMILES IDX 67 95 60 96 61 97 62 98 63 99 64 100
REMARK H PARENT 88 50 54 61
REMARK Flexibility Score: inf
ROOT
ATOM      1  O   UNL A   1      35.209  32.147  27.446  1.00  0.00    -0.377 OA
ENDROOT
BRANCH   1   2
ATOM      2  C   UNL A   1      34.188  31.171  27.551  1.00  0.00     0.188 C 
BRANCH   2   3
ATOM      3  C   UNL A   1      34.488  29.692  27.264  1.00  0.00     0.188 C 
BRANCH   3   4
ATOM      4  O   UNL A   1      33.868  29.171  26.115  1.00  0.00    -0.376 OA
BRANCH   4   5
ATOM      5  C   UNL A   1      32.530  29.510  25.797  1.00  0.00     0.202 C 
BRANCH   5   6
ATOM      6  C   UNL A   1      31.731  28.891  24.634  1.00  0.00     0.261 C 
BRANCH   6   7
ATOM      7  O   UNL A   1      32.137  27.598  24.168  1.00  0.00    -0.463 OA
BRANCH   7   8
ATOM      8  C   UNL A   1      31.192  26.826  23.598  1.00  0.00     0.306 C 
ATOM      9  O   UNL A   1      31.275  26.363  22.465  1.00  0.00    -0.252 OA
BRANCH   8  10
ATOM     10  C   UNL A   1      30.000  26.510  24.478  1.00  0.00     0.132 C 
BRANCH  10  11
ATOM     11  C   UNL A   1      30.073  25.671  25.746  1.00  0.00     0.112 C 
BRANCH  11  12
ATOM     12  C   UNL A   1      30.913  24.457  25.730  1.00  0.00     0.227 A 
ATOM     13  C   UNL A   1      32.436  23.027  25.698  1.00  0.00     0.202 A 
ATOM     14  N   UNL A   1      31.350  22.313  26.023  1.00  0.00    -0.057 NA
ATOM     15  N   UNL A   1      32.206  24.372  25.525  1.00  0.00    -0.191 NA
ATOM     16  O   UNL A   1      30.348  23.271  26.079  1.00  0.00    -0.339 OA
BRANCH  13  17
ATOM     17  C   UNL A   1      33.712  22.441  25.375  1.00  0.00     0.023 A 
ATOM     18  C   UNL A   1      37.612  20.692  24.874  1.00  0.00     0.044 C 
ATOM     19  C   UNL A   1      36.262  21.334  25.018  1.00  0.00    -0.048 A 
ATOM     20  C   UNL A   1      35.113  20.524  24.972  1.00  0.00     0.004 A 
ATOM     21  C   UNL A   1      36.124  22.721  25.219  1.00  0.00    -0.047 A 
ATOM     22  C   UNL A   1      33.844  21.071  25.161  1.00  0.00     0.012 A 
ATOM     23  C   UNL A   1      34.842  23.261  25.377  1.00  0.00     0.015 A 
ATOM     24  C   UNL A   1      37.280  23.679  25.308  1.00  0.00     0.044 C 
ENDBRANCH  13  17
ENDBRANCH  11  12
ENDBRANCH  10  11
ENDBRANCH   8  10
ENDBRANCH   7   8
ENDBRANCH   6   7
ENDBRANCH   5   6
ENDBRANCH   4   5
ENDBRANCH   3   4
ENDBRANCH   2   3
ENDBRANCH   1   2
BRANCH   1  25
ATOM     25  C   UNL A   1      36.034  32.451  28.571  1.00  0.00     0.188 C 
BRANCH  25  26
ATOM     26  C   UNL A   1      35.716  33.665  29.469  1.00  0.00     0.188 C 
BRANCH  26  27
ATOM     27  O   UNL A   1      34.988  34.701  28.831  1.00  0.00    -0.376 OA
BRANCH  27  28
ATOM     28  C   UNL A   1      33.573  34.672  28.948  1.00  0.00     0.202 C 
BRANCH  28  29
ATOM     29  C   UNL A   1      32.891  35.830  29.694  1.00  0.00     0.261 C 
BRANCH  29  30
ATOM     30  O   UNL A   1      33.406  36.142  30.997  1.00  0.00    -0.460 OA
BRANCH  30  31
ATOM     31  C   UNL A   1      32.996  35.376  32.034  1.00  0.00     0.338 C 
ATOM     32  O   UNL A   1      31.856  35.074  32.319  1.00  0.00    -0.246 OA
BRANCH  31  33
ATOM     33  C   UNL A   1      34.204  34.812  32.672  1.00  0.00     0.060 A 
ATOM     34  C   UNL A   1      35.415  35.509  32.576  1.00  0.00     0.016 A 
ATOM     35  C   UNL A   1      34.136  33.594  33.352  1.00  0.00     0.016 A 
ATOM     36  C   UNL A   1      36.576  34.964  33.128  1.00  0.00     0.010 A 
ATOM     37  C   UNL A   1      35.302  33.043  33.887  1.00  0.00     0.010 A 
ATOM     38  C   UNL A   1      36.533  33.707  33.745  1.00  0.00    -0.014 A 
BRANCH  38  39
ATOM     39  C   UNL A   1      37.798  32.996  34.055  1.00  0.00     0.031 A 
ATOM     40  C   UNL A   1      38.463  33.270  35.378  1.00  0.00     0.074 A 
ATOM     41  C   UNL A   1      38.335  32.111  33.198  1.00  0.00     0.049 A 
ATOM     42  N   UNL A   1      39.585  32.802  35.859  1.00  0.00    -0.248 NA
ATOM     43  C   UNL A   1      37.763  34.203  36.276  1.00  0.00     0.031 C 
ATOM     44  C   UNL A   1      37.761  31.727  31.910  1.00  0.00     0.029 A 
ATOM     45  N   UNL A   1      39.490  31.376  33.287  1.00  0.00    -0.354 N 
ATOM     46  C   UNL A   1      39.728  33.386  37.114  1.00  0.00     0.074 A 
ATOM     47  C   UNL A   1      38.601  34.275  37.298  1.00  0.00     0.031 C 
ATOM     48  C   UNL A   1      38.569  30.821  31.328  1.00  0.00     0.029 A 
ATOM     49  C   UNL A   1      39.733  30.594  32.184  1.00  0.00     0.049 A 
ATOM     50  H   UNL A   1      40.090  31.407  34.068  1.00  0.00     0.167 HD
ATOM     51  C   UNL A   1      40.705  33.193  38.034  1.00  0.00     0.037 A 
ATOM     52  C   UNL A   1      40.783  29.800  31.895  1.00  0.00     0.037 A 
ATOM     53  C   UNL A   1      41.834  32.323  37.833  1.00  0.00     0.049 A 
ATOM     54  C   UNL A   1      41.911  29.673  32.889  1.00  0.00     0.074 A 
ATOM     55  C   UNL A   1      42.881  32.056  38.697  1.00  0.00     0.029 A 
ATOM     56  N   UNL A   1      42.072  31.588  36.679  1.00  0.00    -0.354 N 
ATOM     57  N   UNL A   1      42.032  30.219  34.076  1.00  0.00    -0.248 NA
ATOM     58  C   UNL A   1      43.044  28.821  32.502  1.00  0.00     0.031 C 
ATOM     59  C   UNL A   1      43.781  31.208  38.043  1.00  0.00     0.029 A 
ATOM     60  C   UNL A   1      43.264  30.891  36.797  1.00  0.00     0.049 A 
ATOM     61  H   UNL A   1      41.481  31.565  35.893  1.00  0.00     0.167 HD
ATOM     62  C   UNL A   1      43.237  29.750  34.593  1.00  0.00     0.074 A 
ATOM     63  C   UNL A   1      43.804  28.871  33.589  1.00  0.00     0.031 C 
ATOM     64  C   UNL A   1      43.818  30.016  35.791  1.00  0.00     0.037 A 
BRANCH  51  65
ATOM     65  C   UNL A   1      40.604  33.977  39.316  1.00  0.00     0.058 A 
ATOM     66  C   UNL A   1      39.925  33.478  40.441  1.00  0.00     0.135 A 
ATOM     67  C   UNL A   1      41.178  35.255  39.417  1.00  0.00     0.135 A 
ATOM     68  F   UNL A   1      39.344  32.268  40.398  1.00  0.00    -0.206 F 
ATOM     69  C   UNL A   1      39.772  34.237  41.596  1.00  0.00     0.059 A 
ATOM     70  C   UNL A   1      41.067  36.019  40.576  1.00  0.00     0.059 A 
ATOM     71  F   UNL A   1      41.841  35.783  38.376  1.00  0.00    -0.206 F 
ATOM     72  C   UNL A   1      40.340  35.511  41.651  1.00  0.00     0.060 A 
BRANCH  72  73
ATOM     73  S   UNL A   1      40.097  36.502  43.140  1.00  0.00     0.124 S 
ATOM     74  O   UNL A   1      38.722  36.163  43.493  1.00  0.00    -0.237 OA
ATOM     75  O   UNL A   1      41.126  35.980  44.033  1.00  0.00    -0.237 OA
ATOM     76  O   UNL A   1      40.307  37.870  42.678  1.00  0.00    -0.744 OA
ENDBRANCH  72  73
ENDBRANCH  51  65
BRANCH  52  77
ATOM     77  C   UNL A   1      40.811  29.048  30.610  1.00  0.00     0.058 A 
ATOM     78  C   UNL A   1      41.544  29.524  29.513  1.00  0.00     0.135 A 
ATOM     79  C   UNL A   1      40.127  27.831  30.459  1.00  0.00     0.135 A 
ATOM     80  F   UNL A   1      42.199  30.692  29.600  1.00  0.00    -0.206 F 
ATOM     81  C   UNL A   1      41.601  28.823  28.314  1.00  0.00     0.059 A 
ATOM     82  C   UNL A   1      40.192  27.098  29.279  1.00  0.00     0.059 A 
ATOM     83  F   UNL A   1      39.411  27.329  31.477  1.00  0.00    -0.206 F 
ATOM     84  C   UNL A   1      40.929  27.604  28.209  1.00  0.00     0.060 A 
BRANCH  84  85
ATOM     85  S   UNL A   1      41.077  26.663  26.674  1.00  0.00     0.124 S 
ATOM     86  O   UNL A   1      39.793  25.974  26.626  1.00  0.00    -0.237 OA
ATOM     87  O   UNL A   1      41.273  27.720  25.688  1.00  0.00    -0.237 OA
ATOM     88  O   UNL A   1      42.240  25.813  26.912  1.00  0.00    -0.744 OA
ENDBRANCH  84  85
ENDBRANCH  52  77
BRANCH  64  89
ATOM     89  C   UNL A   1      45.116  29.320  36.108  1.00  0.00     0.058 A 
ATOM     90  C   UNL A   1      46.361  29.896  35.814  1.00  0.00     0.135 A 
ATOM     91  C   UNL A   1      45.111  28.079  36.768  1.00  0.00     0.135 A 
ATOM     92  F   UNL A   1      46.427  31.078  35.179  1.00  0.00    -0.206 F 
ATOM     93  C   UNL A   1      47.555  29.256  36.138  1.00  0.00     0.059 A 
ATOM     94  C   UNL A   1      46.291  27.437  37.132  1.00  0.00     0.059 A 
ATOM     95  F   UNL A   1      43.950  27.486  37.085  1.00  0.00    -0.206 F 
ATOM     96  C   UNL A   1      47.509  28.028  36.801  1.00  0.00     0.060 A 
BRANCH  96  97
ATOM     97  S   UNL A   1      49.065  27.225  37.245  1.00  0.00     0.124 S 
ATOM     98  O   UNL A   1      49.788  28.317  37.887  1.00  0.00    -0.237 OA
ATOM     99  O   UNL A   1      48.619  26.152  38.129  1.00  0.00    -0.237 OA
ATOM    100  O   UNL A   1      49.601  26.788  35.959  1.00  0.00    -0.744 OA
ENDBRANCH  96  97
ENDBRANCH  64  89
ENDBRANCH  38  39
ENDBRANCH  31  33
ENDBRANCH  30  31
ENDBRANCH  29  30
ENDBRANCH  28  29
ENDBRANCH  27  28
ENDBRANCH  26  27
ENDBRANCH  25  26
ENDBRANCH   1  25
TORSDOF 26
ENDMDL
MODEL 2
REMARK VINA RESULT:      -7.8      4.536     12.817
REMARK SMILES Cc1ccc(-c2noc(CCC(=O)OCCOCCOCCOCCOC(=O)c3ccc(-c4c5nc(c(-c6c(F)cc(S(=O)(=O)[O-])cc6F)c6ccc([nH]6)c(-c6c(F)cc(S(=O)(=O)[O-])cc6F)c6nc(c(-c7c(F)cc(S(=O)(=O)[O-])cc7F)c7ccc4[nH]7)C=C6)C=C5)cc3)n2)cc1C
REMARK SMILES IDX 20 1 19 2 18 3 17 4 16 5 15 6 14 7 12 8 13 9 11 10 10 11
REMARK SMILES IDX 9 12 6 13 7 14 95 15 8 16 5 17 1 18 2 19 3 20 97 21 4 22
REMARK SMILES IDX 96 23 98 24 21 25 22 26 23 27 24 28 25 29 26 30 27 31 28 32
REMARK SMILES IDX 29 33 30 34 94 35 31 36 93 37 32 38 33 39 34 40 87 41 35 42
REMARK SMILES IDX 92 43 86 44 88 45 36 46 91 47 85 48 84 49 37 51 71 52 50 53
REMARK SMILES IDX 70 54 51 55 54 56 69 57 89 58 52 59 53 60 68 62 90 63 55 64
REMARK SMILES IDX 38 65 39 66 48 67 40 68 41 69 47 70 49 71 42 72 43 73 44 74
REMARK SMILES IDX 45 75 46 76 72 77 73 78 82 79 74 80 75 81 81 82 83 83 76 84
REMARK SMILES IDX 77 85 78 86 79 87 80 88 56 89 57 90 66 91 58 92 59 93 65 94
REMARK SMILES IDX 67 95 60 96 61 97 62 98 63 99 64 100
REMARK H PARENT 88 50 54 61
REMARK Flexibility Score: inf
ROOT
ATOM      1  O   UNL A   1      47.375  26.106  27.404  1.00  0.00    -0.377 OA
ENDROOT
BRANCH   1   2
ATOM      2  C   UNL A   1      48.781  26.090  27.580  1.00  0.00     0.188 C 
BRANCH   2   3
ATOM      3  C   UNL A   1      49.476  24.875  28.212  1.00  0.00     0.188 C 
BRANCH   3   4
ATOM      4  O   UNL A   1      50.390  25.177  29.236  1.00  0.00    -0.376 OA
BRANCH   4   5
ATOM      5  C   UNL A   1      50.453  26.480  29.788  1.00  0.00     0.202 C 
BRANCH   5   6
ATOM      6  C   UNL A   1      50.705  26.780  31.278  1.00  0.00     0.261 C 
BRANCH   6   7
ATOM      7  O   UNL A   1      50.718  25.669  32.183  1.00  0.00    -0.463 OA
BRANCH   7   8
ATOM      8  C   UNL A   1      51.887  25.378  32.783  1.00  0.00     0.306 C 
ATOM      9  O   UNL A   1      52.461  26.126  33.568  1.00  0.00    -0.252 OA
BRANCH   8  10
ATOM     10  C   UNL A   1      52.456  24.011  32.461  1.00  0.00     0.132 C 
BRANCH  10  11
ATOM     11  C   UNL A   1      52.600  22.885  33.476  1.00  0.00     0.112 C 
BRANCH  11  12
ATOM     12  C   UNL A   1      51.415  22.055  33.768  1.00  0.00     0.227 A 
ATOM     13  C   UNL A   1      49.695  21.147  34.529  1.00  0.00     0.202 A 
ATOM     14  N   UNL A   1      49.795  20.631  33.296  1.00  0.00    -0.057 NA
ATOM     15  N   UNL A   1      50.678  22.053  34.853  1.00  0.00    -0.191 NA
ATOM     16  O   UNL A   1      50.917  21.263  32.781  1.00  0.00    -0.339 OA
BRANCH  13  17
ATOM     17  C   UNL A   1      48.756  20.680  35.517  1.00  0.00     0.023 A 
ATOM     18  C   UNL A   1      46.076  18.847  38.342  1.00  0.00     0.044 C 
ATOM     19  C   UNL A   1      46.976  19.512  37.341  1.00  0.00    -0.048 A 
ATOM     20  C   UNL A   1      48.216  20.019  37.769  1.00  0.00     0.004 A 
ATOM     21  C   UNL A   1      46.617  19.618  35.983  1.00  0.00    -0.047 A 
ATOM     22  C   UNL A   1      49.109  20.590  36.862  1.00  0.00     0.012 A 
ATOM     23  C   UNL A   1      47.509  20.221  35.089  1.00  0.00     0.015 A 
ATOM     24  C   UNL A   1      45.330  19.093  35.409  1.00  0.00     0.044 C 
ENDBRANCH  13  17
ENDBRANCH  11  12
ENDBRANCH  10  11
ENDBRANCH   8  10
ENDBRANCH   7   8
ENDBRANCH   6   7
ENDBRANCH   5   6
ENDBRANCH   4   5
ENDBRANCH   3   4
ENDBRANCH   2   3
ENDBRANCH   1   2
BRANCH   1  25
ATOM     25  C   UNL A   1      46.638  24.882  27.380  1.00  0.00     0.188 C 
BRANCH  25  26
ATOM     26  C   UNL A   1      45.178  24.859  26.882  1.00  0.00     0.188 C 
BRANCH  26  27
ATOM     27  O   UNL A   1      45.022  24.518  25.514  1.00  0.00    -0.376 OA
BRANCH  27  28
ATOM     28  C   UNL A   1      43.697  24.398  25.018  1.00  0.00     0.202 C 
BRANCH  28  29
ATOM     29  C   UNL A   1      42.729  23.474  25.773  1.00  0.00     0.261 C 
BRANCH  29  30
ATOM     30  O   UNL A   1      41.597  24.104  26.394  1.00  0.00    -0.460 OA
BRANCH  30  31
ATOM     31  C   UNL A   1      41.344  25.394  26.074  1.00  0.00     0.338 C 
ATOM     32  O   UNL A   1      41.036  25.835  24.987  1.00  0.00    -0.246 OA
BRANCH  31  33
ATOM     33  C   UNL A   1      41.332  26.167  27.333  1.00  0.00     0.060 A 
ATOM     34  C   UNL A   1      40.349  25.895  28.293  1.00  0.00     0.016 A 
ATOM     35  C   UNL A   1      42.285  27.165  27.555  1.00  0.00     0.016 A 
ATOM     36  C   UNL A   1      40.291  26.652  29.464  1.00  0.00     0.010 A 
ATOM     37  C   UNL A   1      42.214  27.932  28.719  1.00  0.00     0.010 A 
ATOM     38  C   UNL A   1      41.195  27.705  29.660  1.00  0.00    -0.014 A 
BRANCH  38  39
ATOM     39  C   UNL A   1      40.950  28.693  30.740  1.00  0.00     0.031 A 
ATOM     40  C   UNL A   1      41.832  28.647  31.960  1.00  0.00     0.074 A 
ATOM     41  C   UNL A   1      39.988  29.625  30.634  1.00  0.00     0.049 A 
ATOM     42  N   UNL A   1      41.792  29.377  33.044  1.00  0.00    -0.248 NA
ATOM     43  C   UNL A   1      42.901  27.636  31.952  1.00  0.00     0.031 C 
ATOM     44  C   UNL A   1      39.103  29.800  29.484  1.00  0.00     0.029 A 
ATOM     45  N   UNL A   1      39.594  30.599  31.516  1.00  0.00    -0.354 N 
ATOM     46  C   UNL A   1      42.826  28.910  33.849  1.00  0.00     0.074 A 
ATOM     47  C   UNL A   1      43.445  27.807  33.146  1.00  0.00     0.031 C 
ATOM     48  C   UNL A   1      38.269  30.826  29.731  1.00  0.00     0.029 A 
ATOM     49  C   UNL A   1      38.535  31.352  31.070  1.00  0.00     0.049 A 
ATOM     50  H   UNL A   1      40.029  30.745  32.388  1.00  0.00     0.167 HD
ATOM     51  C   UNL A   1      43.231  29.366  35.060  1.00  0.00     0.037 A 
ATOM     52  C   UNL A   1      37.851  32.340  31.681  1.00  0.00     0.037 A 
ATOM     53  C   UNL A   1      42.595  30.450  35.762  1.00  0.00     0.049 A 
ATOM     54  C   UNL A   1      38.253  32.768  33.071  1.00  0.00     0.074 A 
ATOM     55  C   UNL A   1      42.922  30.989  36.993  1.00  0.00     0.029 A 
ATOM     56  N   UNL A   1      41.490  31.153  35.299  1.00  0.00    -0.354 N 
ATOM     57  N   UNL A   1      39.238  32.330  33.819  1.00  0.00    -0.248 NA
ATOM     58  C   UNL A   1      37.447  33.825  33.698  1.00  0.00     0.031 C 
ATOM     59  C   UNL A   1      41.980  31.976  37.302  1.00  0.00     0.029 A 
ATOM     60  C   UNL A   1      41.105  32.100  36.235  1.00  0.00     0.049 A 
ATOM     61  H   UNL A   1      41.046  31.001  34.435  1.00  0.00     0.167 HD
ATOM     62  C   UNL A   1      39.193  33.081  34.990  1.00  0.00     0.074 A 
ATOM     63  C   UNL A   1      38.086  34.005  34.848  1.00  0.00     0.031 C 
ATOM     64  C   UNL A   1      40.000  33.018  36.080  1.00  0.00     0.037 A 
BRANCH  51  65
ATOM     65  C   UNL A   1      44.388  28.653  35.710  1.00  0.00     0.058 A 
ATOM     66  C   UNL A   1      45.722  29.014  35.453  1.00  0.00     0.135 A 
ATOM     67  C   UNL A   1      44.162  27.579  36.586  1.00  0.00     0.135 A 
ATOM     68  F   UNL A   1      45.999  30.022  34.612  1.00  0.00    -0.206 F 
ATOM     69  C   UNL A   1      46.787  28.304  35.998  1.00  0.00     0.059 A 
ATOM     70  C   UNL A   1      45.212  26.876  37.170  1.00  0.00     0.059 A 
ATOM     71  F   UNL A   1      42.909  27.190  36.871  1.00  0.00    -0.206 F 
ATOM     72  C   UNL A   1      46.521  27.231  36.849  1.00  0.00     0.060 A 
BRANCH  72  73
ATOM     73  S   UNL A   1      47.912  26.291  37.514  1.00  0.00     0.124 S 
ATOM     74  O   UNL A   1      48.690  26.030  36.307  1.00  0.00    -0.237 OA
ATOM     75  O   UNL A   1      48.504  27.236  38.456  1.00  0.00    -0.237 OA
ATOM     76  O   UNL A   1      47.279  25.123  38.117  1.00  0.00    -0.744 OA
ENDBRANCH  72  73
ENDBRANCH  51  65
BRANCH  52  77
ATOM     77  C   UNL A   1      36.723  33.006  30.974  1.00  0.00     0.058 A 
ATOM     78  C   UNL A   1      35.394  32.643  31.239  1.00  0.00     0.135 A 
ATOM     79  C   UNL A   1      36.946  34.030  30.041  1.00  0.00     0.135 A 
ATOM     80  F   UNL A   1      35.128  31.656  32.109  1.00  0.00    -0.206 F 
ATOM     81  C   UNL A   1      34.326  33.271  30.606  1.00  0.00     0.059 A 
ATOM     82  C   UNL A   1      35.893  34.691  29.415  1.00  0.00     0.059 A 
ATOM     83  F   UNL A   1      38.198  34.417  29.750  1.00  0.00    -0.206 F 
ATOM     84  C   UNL A   1      34.586  34.302  29.703  1.00  0.00     0.060 A 
BRANCH  84  85
ATOM     85  S   UNL A   1      33.189  35.165  28.948  1.00  0.00     0.124 S 
ATOM     86  O   UNL A   1      32.649  34.137  28.067  1.00  0.00    -0.237 OA
ATOM     87  O   UNL A   1      32.376  35.501  30.112  1.00  0.00    -0.237 OA
ATOM     88  O   UNL A   1      33.817  36.301  28.281  1.00  0.00    -0.744 OA
ENDBRANCH  84  85
ENDBRANCH  52  77
BRANCH  64  89
ATOM     89  C   UNL A   1      39.747  33.999  37.195  1.00  0.00     0.058 A 
ATOM     90  C   UNL A   1      38.963  33.671  38.312  1.00  0.00     0.135 A 
ATOM     91  C   UNL A   1      40.345  35.271  37.169  1.00  0.00     0.135 A 
ATOM     92  F   UNL A   1      38.362  32.473  38.389  1.00  0.00    -0.206 F 
ATOM     93  C   UNL A   1      38.759  34.577  39.351  1.00  0.00     0.059 A 
ATOM     94  C   UNL A   1      40.183  36.179  38.211  1.00  0.00     0.059 A 
ATOM     95  F   UNL A   1      41.115  35.635  36.132  1.00  0.00    -0.206 F 
ATOM     96  C   UNL A   1      39.377  35.827  39.292  1.00  0.00     0.060 A 
BRANCH  96  97
ATOM     97  S   UNL A   1      39.131  36.979  40.661  1.00  0.00     0.124 S 
ATOM     98  O   UNL A   1      40.503  37.358  40.979  1.00  0.00    -0.237 OA
ATOM     99  O   UNL A   1      38.311  38.020  40.047  1.00  0.00    -0.237 OA
ATOM    100  O   UNL A   1      38.454  36.170  41.670  1.00  0.00    -0.744 OA
ENDBRANCH  96  97
ENDBRANCH  64  89
ENDBRANCH  38  39
ENDBRANCH  31  33
ENDBRANCH  30  31
ENDBRANCH  29  30
ENDBRANCH  28  29
ENDBRANCH  27  28
ENDBRANCH  26  27
ENDBRANCH  25  26
ENDBRANCH   1  25
TORSDOF 26
ENDMDL
MODEL 3
REMARK VINA RESULT:      -7.6      5.038     15.688
REMARK SMILES Cc1ccc(-c2noc(CCC(=O)OCCOCCOCCOCCOC(=O)c3ccc(-c4c5nc(c(-c6c(F)cc(S(=O)(=O)[O-])cc6F)c6ccc([nH]6)c(-c6c(F)cc(S(=O)(=O)[O-])cc6F)c6nc(c(-c7c(F)cc(S(=O)(=O)[O-])cc7F)c7ccc4[nH]7)C=C6)C=C5)cc3)n2)cc1C
REMARK SMILES IDX 20 1 19 2 18 3 17 4 16 5 15 6 14 7 12 8 13 9 11 10 10 11
REMARK SMILES IDX 9 12 6 13 7 14 95 15 8 16 5 17 1 18 2 19 3 20 97 21 4 22
REMARK SMILES IDX 96 23 98 24 21 25 22 26 23 27 24 28 25 29 26 30 27 31 28 32
REMARK SMILES IDX 29 33 30 34 94 35 31 36 93 37 32 38 33 39 34 40 87 41 35 42
REMARK SMILES IDX 92 43 86 44 88 45 36 46 91 47 85 48 84 49 37 51 71 52 50 53
REMARK SMILES IDX 70 54 51 55 54 56 69 57 89 58 52 59 53 60 68 62 90 63 55 64
REMARK SMILES IDX 38 65 39 66 48 67 40 68 41 69 47 70 49 71 42 72 43 73 44 74
REMARK SMILES IDX 45 75 46 76 72 77 73 78 82 79 74 80 75 81 81 82 83 83 76 84
REMARK SMILES IDX 77 85 78 86 79 87 80 88 56 89 57 90 66 91 58 92 59 93 65 94
REMARK SMILES IDX 67 95 60 96 61 97 62 98 63 99 64 100
REMARK H PARENT 88 50 54 61
REMARK Flexibility Score: inf
ROOT
ATOM      1  O   UNL A   1      51.620  18.821  35.285  1.00  0.00    -0.377 OA
ENDROOT
BRANCH   1   2
ATOM      2  C   UNL A   1      51.583  19.225  36.642  1.00  0.00     0.188 C 
BRANCH   2   3
ATOM      3  C   UNL A   1      50.322  19.875  37.230  1.00  0.00     0.188 C 
BRANCH   3   4
ATOM      4  O   UNL A   1      50.341  20.059  38.624  1.00  0.00    -0.376 OA
BRANCH   4   5
ATOM      5  C   UNL A   1      49.867  19.047  39.494  1.00  0.00     0.202 C 
BRANCH   5   6
ATOM      6  C   UNL A   1      48.509  19.093  40.220  1.00  0.00     0.261 C 
BRANCH   6   7
ATOM      7  O   UNL A   1      47.553  18.074  39.900  1.00  0.00    -0.463 OA
BRANCH   7   8
ATOM      8  C   UNL A   1      46.291  18.472  39.654  1.00  0.00     0.306 C 
ATOM      9  O   UNL A   1      45.450  18.668  40.527  1.00  0.00    -0.252 OA
BRANCH   8  10
ATOM     10  C   UNL A   1      45.964  18.718  38.195  1.00  0.00     0.132 C 
BRANCH  10  11
ATOM     11  C   UNL A   1      46.744  19.665  37.294  1.00  0.00     0.112 C 
BRANCH  11  12
ATOM     12  C   UNL A   1      45.989  20.479  36.320  1.00  0.00     0.227 A 
ATOM     13  C   UNL A   1      45.058  21.969  35.190  1.00  0.00     0.202 A 
ATOM     14  N   UNL A   1      44.985  20.890  34.398  1.00  0.00    -0.057 NA
ATOM     15  N   UNL A   1      45.694  21.755  36.391  1.00  0.00    -0.191 NA
ATOM     16  O   UNL A   1      45.636  19.913  35.136  1.00  0.00    -0.339 OA
BRANCH  13  17
ATOM     17  C   UNL A   1      44.382  23.211  34.915  1.00  0.00     0.023 A 
ATOM     18  C   UNL A   1      42.505  27.064  34.523  1.00  0.00     0.044 C 
ATOM     19  C   UNL A   1      43.120  25.700  34.648  1.00  0.00    -0.048 A 
ATOM     20  C   UNL A   1      44.357  25.449  34.027  1.00  0.00     0.004 A 
ATOM     21  C   UNL A   1      42.498  24.677  35.390  1.00  0.00    -0.047 A 
ATOM     22  C   UNL A   1      44.993  24.216  34.168  1.00  0.00     0.012 A 
ATOM     23  C   UNL A   1      43.133  23.434  35.498  1.00  0.00     0.015 A 
ATOM     24  C   UNL A   1      41.190  24.837  36.114  1.00  0.00     0.044 C 
ENDBRANCH  13  17
ENDBRANCH  11  12
ENDBRANCH  10  11
ENDBRANCH   8  10
ENDBRANCH   7   8
ENDBRANCH   6   7
ENDBRANCH   5   6
ENDBRANCH   4   5
ENDBRANCH   3   4
ENDBRANCH   2   3
ENDBRANCH   1   2
BRANCH   1  25
ATOM     25  C   UNL A   1      52.285  19.627  34.311  1.00  0.00     0.188 C 
BRANCH  25  26
ATOM     26  C   UNL A   1      53.018  20.918  34.734  1.00  0.00     0.188 C 
BRANCH  26  27
ATOM     27  O   UNL A   1      52.957  21.973  33.788  1.00  0.00    -0.376 OA
BRANCH  27  28
ATOM     28  C   UNL A   1      53.044  23.301  34.283  1.00  0.00     0.202 C 
BRANCH  28  29
ATOM     29  C   UNL A   1      52.604  24.443  33.354  1.00  0.00     0.261 C 
BRANCH  29  30
ATOM     30  O   UNL A   1      51.354  25.077  33.666  1.00  0.00    -0.460 OA
BRANCH  30  31
ATOM     31  C   UNL A   1      51.398  26.268  34.306  1.00  0.00     0.338 C 
ATOM     32  O   UNL A   1      52.364  26.791  34.821  1.00  0.00    -0.246 OA
BRANCH  31  33
ATOM     33  C   UNL A   1      50.086  26.921  34.116  1.00  0.00     0.060 A 
ATOM     34  C   UNL A   1      48.949  26.354  34.706  1.00  0.00     0.016 A 
ATOM     35  C   UNL A   1      49.983  28.083  33.347  1.00  0.00     0.016 A 
ATOM     36  C   UNL A   1      47.695  26.928  34.492  1.00  0.00     0.010 A 
ATOM     37  C   UNL A   1      48.725  28.645  33.121  1.00  0.00     0.010 A 
ATOM     38  C   UNL A   1      47.572  28.049  33.661  1.00  0.00    -0.014 A 
BRANCH  38  39
ATOM     39  C   UNL A   1      46.231  28.472  33.190  1.00  0.00     0.031 A 
ATOM     40  C   UNL A   1      45.671  27.819  31.954  1.00  0.00     0.074 A 
ATOM     41  C   UNL A   1      45.512  29.395  33.852  1.00  0.00     0.049 A 
ATOM     42  N   UNL A   1      44.544  28.043  31.331  1.00  0.00    -0.248 NA
ATOM     43  C   UNL A   1      46.503  26.771  31.339  1.00  0.00     0.031 C 
ATOM     44  C   UNL A   1      45.925  30.063  35.084  1.00  0.00     0.029 A 
ATOM     45  N   UNL A   1      44.280  29.930  33.573  1.00  0.00    -0.354 N 
ATOM     46  C   UNL A   1      44.532  27.169  30.249  1.00  0.00     0.074 A 
ATOM     47  C   UNL A   1      45.785  26.444  30.277  1.00  0.00     0.031 C 
ATOM     48  C   UNL A   1      44.958  30.921  35.458  1.00  0.00     0.029 A 
ATOM     49  C   UNL A   1      43.879  30.890  34.471  1.00  0.00     0.049 A 
ATOM     50  H   UNL A   1      43.735  29.654  32.801  1.00  0.00     0.167 HD
ATOM     51  C   UNL A   1      43.563  26.980  29.320  1.00  0.00     0.037 A 
ATOM     52  C   UNL A   1      42.775  31.663  34.482  1.00  0.00     0.037 A 
ATOM     53  C   UNL A   1      42.329  27.721  29.287  1.00  0.00     0.049 A 
ATOM     54  C   UNL A   1      41.752  31.508  33.385  1.00  0.00     0.074 A 
ATOM     55  C   UNL A   1      41.282  27.611  28.391  1.00  0.00     0.029 A 
ATOM     56  N   UNL A   1      41.983  28.723  30.185  1.00  0.00    -0.354 N 
ATOM     57  N   UNL A   1      41.743  30.672  32.373  1.00  0.00    -0.248 NA
ATOM     58  C   UNL A   1      40.587  32.404  33.432  1.00  0.00     0.031 C 
ATOM     59  C   UNL A   1      40.330  28.586  28.709  1.00  0.00     0.029 A 
ATOM     60  C   UNL A   1      40.751  29.260  29.845  1.00  0.00     0.049 A 
ATOM     61  H   UNL A   1      42.532  29.010  30.949  1.00  0.00     0.167 HD
ATOM     62  C   UNL A   1      40.559  30.917  31.684  1.00  0.00     0.074 A 
ATOM     63  C   UNL A   1      39.874  31.975  32.398  1.00  0.00     0.031 C 
ATOM     64  C   UNL A   1      40.078  30.314  30.566  1.00  0.00     0.037 A 
BRANCH  51  65
ATOM     65  C   UNL A   1      43.832  25.959  28.245  1.00  0.00     0.058 A 
ATOM     66  C   UNL A   1      44.522  26.285  27.065  1.00  0.00     0.135 A 
ATOM     67  C   UNL A   1      43.375  24.638  28.387  1.00  0.00     0.135 A 
ATOM     68  F   UNL A   1      44.969  27.536  26.868  1.00  0.00    -0.206 F 
ATOM     69  C   UNL A   1      44.701  25.357  26.045  1.00  0.00     0.059 A 
ATOM     70  C   UNL A   1      43.574  23.683  27.394  1.00  0.00     0.059 A 
ATOM     71  F   UNL A   1      42.711  24.267  29.494  1.00  0.00    -0.206 F 
ATOM     72  C   UNL A   1      44.216  24.060  26.216  1.00  0.00     0.060 A 
BRANCH  72  73
ATOM     73  S   UNL A   1      44.417  22.878  24.866  1.00  0.00     0.124 S 
ATOM     74  O   UNL A   1      43.028  22.580  24.531  1.00  0.00    -0.237 OA
ATOM     75  O   UNL A   1      45.154  23.658  23.876  1.00  0.00    -0.237 OA
ATOM     76  O   UNL A   1      45.163  21.784  25.478  1.00  0.00    -0.744 OA
ENDBRANCH  72  73
ENDBRANCH  51  65
BRANCH  52  77
ATOM     77  C   UNL A   1      42.572  32.646  35.582  1.00  0.00     0.058 A 
ATOM     78  C   UNL A   1      41.740  32.346  36.670  1.00  0.00     0.135 A 
ATOM     79  C   UNL A   1      43.220  33.891  35.580  1.00  0.00     0.135 A 
ATOM     80  F   UNL A   1      41.082  31.177  36.710  1.00  0.00    -0.206 F 
ATOM     81  C   UNL A   1      41.557  33.242  37.719  1.00  0.00     0.059 A 
ATOM     82  C   UNL A   1      43.075  34.792  36.630  1.00  0.00     0.059 A 
ATOM     83  F   UNL A   1      44.028  34.229  34.564  1.00  0.00    -0.206 F 
ATOM     84  C   UNL A   1      42.238  34.460  37.694  1.00  0.00     0.060 A 
BRANCH  84  85
ATOM     85  S   UNL A   1      42.057  35.581  39.100  1.00  0.00     0.124 S 
ATOM     86  O   UNL A   1      42.110  36.883  38.447  1.00  0.00    -0.237 OA
ATOM     87  O   UNL A   1      40.759  35.187  39.637  1.00  0.00    -0.237 OA
ATOM     88  O   UNL A   1      43.202  35.250  39.942  1.00  0.00    -0.744 OA
ENDBRANCH  84  85
ENDBRANCH  52  77
BRANCH  64  89
ATOM     89  C   UNL A   1      38.727  30.752  30.062  1.00  0.00     0.058 A 
ATOM     90  C   UNL A   1      38.518  32.019  29.496  1.00  0.00     0.135 A 
ATOM     91  C   UNL A   1      37.637  29.866  30.098  1.00  0.00     0.135 A 
ATOM     92  F   UNL A   1      39.522  32.909  29.440  1.00  0.00    -0.206 F 
ATOM     93  C   UNL A   1      37.272  32.402  29.007  1.00  0.00     0.059 A 
ATOM     94  C   UNL A   1      36.391  30.215  29.585  1.00  0.00     0.059 A 
ATOM     95  F   UNL A   1      37.780  28.637  30.618  1.00  0.00    -0.206 F 
ATOM     96  C   UNL A   1      36.215  31.491  29.053  1.00  0.00     0.060 A 
BRANCH  96  97
ATOM     97  S   UNL A   1      34.613  31.990  28.385  1.00  0.00     0.124 S 
ATOM     98  O   UNL A   1      33.945  32.506  29.575  1.00  0.00    -0.237 OA
ATOM     99  O   UNL A   1      34.989  32.985  27.386  1.00  0.00    -0.237 OA
ATOM    100  O   UNL A   1      34.066  30.747  27.848  1.00  0.00    -0.744 OA
ENDBRANCH  96  97
ENDBRANCH  64  89
ENDBRANCH  38  39
ENDBRANCH  31  33
ENDBRANCH  30  31
ENDBRANCH  29  30
ENDBRANCH  28  29
ENDBRANCH  27  28
ENDBRANCH  26  27
ENDBRANCH  25  26
ENDBRANCH   1  25
TORSDOF 26
ENDMDL
