MODEL 1
REMARK VINA RESULT:      -9.2      0.000      0.000
REMARK SMILES CC(C)N(CC(=O)OCCOCCOCCOCCOC(=O)c1ccc(-c2c3nc(c(-c4c(F)cc(S(=O)(=O)[O-])cc4F)c4ccc([nH]4)c(-c4c(F)cc(S(=O)(=O)[O-])cc4F)c4nc(c(-c5c(F)cc(S(=O)(=O)[O-])cc5F)c5ccc2[nH]5)C=C4)C=C3)cc1)C(=O)[C@H]1C=C[C@@H]([NH3+])C1
REMARK SMILES IDX 13 1 12 2 11 3 10 4 9 5 8 6 6 7 7 8 5 9 4 10 2 11 1 12 3 13
REMARK SMILES IDX 89 14 90 15 91 16 92 17 96 18 93 19 94 20 95 21 14 25 15 26
REMARK SMILES IDX 16 27 17 28 18 29 19 30 20 31 21 32 22 33 23 34 24 35 88 36
REMARK SMILES IDX 25 37 87 38 26 39 27 40 28 41 81 42 29 43 86 44 80 45 82 46
REMARK SMILES IDX 30 47 85 48 79 49 78 50 31 52 65 53 44 54 64 55 45 56 48 57
REMARK SMILES IDX 63 58 83 59 46 60 47 61 62 63 84 64 49 65 32 66 33 67 42 68
REMARK SMILES IDX 34 69 35 70 41 71 43 72 36 73 37 74 38 75 39 76 40 77 66 78
REMARK SMILES IDX 67 79 76 80 68 81 69 82 75 83 77 84 70 85 71 86 72 87 73 88
REMARK SMILES IDX 74 89 50 90 51 91 60 92 52 93 53 94 59 95 61 96 54 97 55 98
REMARK SMILES IDX 56 99 57 100 58 101
REMARK H PARENT 95 22 95 23 95 24 82 51 48 62
REMARK Flexibility Score: inf
ROOT
ATOM      1  C   UNL A   1      31.370  26.149  23.320  1.00  0.00     0.188 C 
ENDROOT
BRANCH   1   2
ATOM      2  C   UNL A   1      31.233  24.633  23.152  1.00  0.00     0.188 C 
BRANCH   2   3
ATOM      3  O   UNL A   1      32.351  23.906  22.681  1.00  0.00    -0.376 OA
BRANCH   3   4
ATOM      4  C   UNL A   1      33.641  24.472  22.900  1.00  0.00     0.202 C 
BRANCH   4   5
ATOM      5  C   UNL A   1      34.848  23.511  23.019  1.00  0.00     0.261 C 
BRANCH   5   6
ATOM      6  O   UNL A   1      35.681  23.637  24.215  1.00  0.00    -0.462 OA
BRANCH   6   7
ATOM      7  C   UNL A   1      35.973  22.486  24.873  1.00  0.00     0.325 C 
ATOM      8  O   UNL A   1      36.813  22.415  25.770  1.00  0.00    -0.250 OA
BRANCH   7   9
ATOM      9  C   UNL A   1      35.129  21.226  24.528  1.00  0.00     0.242 C 
BRANCH   9  10
ATOM     10  N   UNL A   1      33.683  20.956  24.727  1.00  0.00    -0.329 N 
BRANCH  10  11
ATOM     11  C   UNL A   1      33.054  21.759  25.814  1.00  0.00     0.079 C 
ATOM     12  C   UNL A   1      31.518  21.790  25.723  1.00  0.00     0.031 C 
ATOM     13  C   UNL A   1      33.524  21.355  27.211  1.00  0.00     0.031 C 
ENDBRANCH  10  11
BRANCH  10  14
ATOM     14  C   UNL A   1      32.826  20.222  23.890  1.00  0.00     0.230 C 
ATOM     15  O   UNL A   1      32.150  20.813  23.033  1.00  0.00    -0.274 OA
BRANCH  14  16
ATOM     16  C   UNL A   1      32.537  18.709  24.061  1.00  0.00     0.107 C 
ATOM     17  C   UNL A   1      33.492  17.810  23.296  1.00  0.00    -0.012 C 
ATOM     18  C   UNL A   1      32.527  18.002  25.409  1.00  0.00     0.087 C 
ATOM     19  C   UNL A   1      33.534  16.583  23.830  1.00  0.00     0.033 C 
ATOM     20  C   UNL A   1      32.692  16.514  25.057  1.00  0.00     0.205 C 
BRANCH  20  21
ATOM     21  N   UNL A   1      33.311  15.765  26.128  1.00  0.00    -0.352 N 
ATOM     22  H   UNL A   1      33.873  16.394  26.702  1.00  0.00     0.345 HD
ATOM     23  H   UNL A   1      33.909  15.039  25.733  1.00  0.00     0.345 HD
ATOM     24  H   UNL A   1      32.588  15.334  26.703  1.00  0.00     0.345 HD
ENDBRANCH  20  21
ENDBRANCH  14  16
ENDBRANCH  10  14
ENDBRANCH   9  10
ENDBRANCH   7   9
ENDBRANCH   6   7
ENDBRANCH   5   6
ENDBRANCH   4   5
ENDBRANCH   3   4
ENDBRANCH   2   3
ENDBRANCH   1   2
BRANCH   1  25
ATOM     25  O   UNL A   1      30.385  26.920  22.676  1.00  0.00    -0.377 OA
BRANCH  25  26
ATOM     26  C   UNL A   1      30.512  28.329  22.693  1.00  0.00     0.188 C 
BRANCH  26  27
ATOM     27  C   UNL A   1      31.500  28.833  23.749  1.00  0.00     0.188 C 
BRANCH  27  28
ATOM     28  O   UNL A   1      30.973  29.286  25.002  1.00  0.00    -0.376 OA
BRANCH  28  29
ATOM     29  C   UNL A   1      31.799  29.264  26.168  1.00  0.00     0.202 C 
BRANCH  29  30
ATOM     30  C   UNL A   1      32.604  30.533  26.425  1.00  0.00     0.261 C 
BRANCH  30  31
ATOM     31  O   UNL A   1      33.593  30.293  27.432  1.00  0.00    -0.460 OA
BRANCH  31  32
ATOM     32  C   UNL A   1      34.340  31.366  27.769  1.00  0.00     0.338 C 
ATOM     33  O   UNL A   1      33.956  32.508  27.962  1.00  0.00    -0.246 OA
BRANCH  32  34
ATOM     34  C   UNL A   1      35.700  30.896  28.084  1.00  0.00     0.060 A 
ATOM     35  C   UNL A   1      35.926  29.514  28.116  1.00  0.00     0.016 A 
ATOM     36  C   UNL A   1      36.730  31.799  28.361  1.00  0.00     0.016 A 
ATOM     37  C   UNL A   1      37.172  29.026  28.478  1.00  0.00     0.010 A 
ATOM     38  C   UNL A   1      37.973  31.311  28.750  1.00  0.00     0.010 A 
ATOM     39  C   UNL A   1      38.176  29.924  28.855  1.00  0.00    -0.014 A 
BRANCH  39  40
ATOM     40  C   UNL A   1      39.333  29.411  29.610  1.00  0.00     0.031 A 
ATOM     41  C   UNL A   1      39.653  30.067  30.923  1.00  0.00     0.074 A 
ATOM     42  C   UNL A   1      40.041  28.367  29.154  1.00  0.00     0.049 A 
ATOM     43  N   UNL A   1      40.626  29.824  31.756  1.00  0.00    -0.248 NA
ATOM     44  C   UNL A   1      38.749  31.152  31.352  1.00  0.00     0.031 C 
ATOM     45  C   UNL A   1      39.772  27.639  27.914  1.00  0.00     0.029 A 
ATOM     46  N   UNL A   1      41.139  27.743  29.682  1.00  0.00    -0.354 N 
ATOM     47  C   UNL A   1      40.459  30.727  32.800  1.00  0.00     0.074 A 
ATOM     48  C   UNL A   1      39.312  31.544  32.484  1.00  0.00     0.031 C 
ATOM     49  C   UNL A   1      40.695  26.674  27.769  1.00  0.00     0.029 A 
ATOM     50  C   UNL A   1      41.633  26.740  28.887  1.00  0.00     0.049 A 
ATOM     51  H   UNL A   1      41.535  27.990  30.549  1.00  0.00     0.167 HD
ATOM     52  C   UNL A   1      41.200  30.854  33.925  1.00  0.00     0.037 A 
ATOM     53  C   UNL A   1      42.737  25.983  29.042  1.00  0.00     0.037 A 
ATOM     54  C   UNL A   1      42.342  30.029  34.214  1.00  0.00     0.049 A 
ATOM     55  C   UNL A   1      43.581  26.182  30.274  1.00  0.00     0.074 A 
ATOM     56  C   UNL A   1      43.163  30.055  35.326  1.00  0.00     0.029 A 
ATOM     57  N   UNL A   1      42.829  29.035  33.376  1.00  0.00    -0.354 N 
ATOM     58  N   UNL A   1      43.407  27.024  31.267  1.00  0.00    -0.248 NA
ATOM     59  C   UNL A   1      44.766  25.325  30.413  1.00  0.00     0.031 C 
ATOM     60  C   UNL A   1      44.182  29.117  35.133  1.00  0.00     0.029 A 
ATOM     61  C   UNL A   1      43.958  28.459  33.933  1.00  0.00     0.049 A 
ATOM     62  H   UNL A   1      42.432  28.778  32.513  1.00  0.00     0.167 HD
ATOM     63  C   UNL A   1      44.443  26.778  32.162  1.00  0.00     0.074 A 
ATOM     64  C   UNL A   1      45.230  25.701  31.597  1.00  0.00     0.031 C 
ATOM     65  C   UNL A   1      44.719  27.382  33.346  1.00  0.00     0.037 A 
BRANCH  52  66
ATOM     66  C   UNL A   1      40.823  31.940  34.892  1.00  0.00     0.058 A 
ATOM     67  C   UNL A   1      39.989  31.700  35.997  1.00  0.00     0.135 A 
ATOM     68  C   UNL A   1      41.320  33.242  34.723  1.00  0.00     0.135 A 
ATOM     69  F   UNL A   1      39.461  30.480  36.194  1.00  0.00    -0.206 F 
ATOM     70  C   UNL A   1      39.648  32.713  36.887  1.00  0.00     0.059 A 
ATOM     71  C   UNL A   1      41.018  34.265  35.618  1.00  0.00     0.059 A 
ATOM     72  F   UNL A   1      42.111  33.533  33.678  1.00  0.00    -0.206 F 
ATOM     73  C   UNL A   1      40.172  33.992  36.692  1.00  0.00     0.060 A 
BRANCH  73  74
ATOM     74  S   UNL A   1      39.738  35.291  37.867  1.00  0.00     0.124 S 
ATOM     75  O   UNL A   1      39.657  36.459  36.995  1.00  0.00    -0.237 OA
ATOM     76  O   UNL A   1      38.468  34.812  38.403  1.00  0.00    -0.237 OA
ATOM     77  O   UNL A   1      40.854  35.288  38.806  1.00  0.00    -0.744 OA
ENDBRANCH  73  74
ENDBRANCH  52  66
BRANCH  53  78
ATOM     78  C   UNL A   1      43.104  24.985  28.003  1.00  0.00     0.058 A 
ATOM     79  C   UNL A   1      42.688  23.649  28.096  1.00  0.00     0.135 A 
ATOM     80  C   UNL A   1      43.868  25.354  26.884  1.00  0.00     0.135 A 
ATOM     81  F   UNL A   1      41.962  23.243  29.149  1.00  0.00    -0.206 F 
ATOM     82  C   UNL A   1      43.025  22.712  27.124  1.00  0.00     0.059 A 
ATOM     83  C   UNL A   1      44.194  24.442  25.885  1.00  0.00     0.059 A 
ATOM     84  F   UNL A   1      44.280  26.623  26.740  1.00  0.00    -0.206 F 
ATOM     85  C   UNL A   1      43.775  23.120  26.019  1.00  0.00     0.060 A 
BRANCH  85  86
ATOM     86  S   UNL A   1      44.159  21.907  24.738  1.00  0.00     0.124 S 
ATOM     87  O   UNL A   1      45.586  21.696  24.950  1.00  0.00    -0.237 OA
ATOM     88  O   UNL A   1      43.287  20.795  25.100  1.00  0.00    -0.237 OA
ATOM     89  O   UNL A   1      43.799  22.599  23.503  1.00  0.00    -0.744 OA
ENDBRANCH  85  86
ENDBRANCH  53  78
BRANCH  65  90
ATOM     90  C   UNL A   1      45.894  26.864  34.129  1.00  0.00     0.058 A 
ATOM     91  C   UNL A   1      47.172  27.433  34.013  1.00  0.00     0.135 A 
ATOM     92  C   UNL A   1      45.723  25.818  35.050  1.00  0.00     0.135 A 
ATOM     93  F   UNL A   1      47.390  28.433  33.145  1.00  0.00    -0.206 F 
ATOM     94  C   UNL A   1      48.246  26.960  34.758  1.00  0.00     0.059 A 
ATOM     95  C   UNL A   1      46.775  25.352  35.832  1.00  0.00     0.059 A 
ATOM     96  F   UNL A   1      44.517  25.249  35.213  1.00  0.00    -0.206 F 
ATOM     97  C   UNL A   1      48.036  25.921  35.667  1.00  0.00     0.060 A 
BRANCH  97  98
ATOM     98  S   UNL A   1      49.434  25.333  36.645  1.00  0.00     0.124 S 
ATOM     99  O   UNL A   1      49.366  26.210  37.810  1.00  0.00    -0.237 OA
ATOM    100  O   UNL A   1      49.084  23.936  36.882  1.00  0.00    -0.237 OA
ATOM    101  O   UNL A   1      50.580  25.545  35.766  1.00  0.00    -0.744 OA
ENDBRANCH  97  98
ENDBRANCH  65  90
ENDBRANCH  39  40
ENDBRANCH  32  34
ENDBRANCH  31  32
ENDBRANCH  30  31
ENDBRANCH  29  30
ENDBRANCH  28  29
ENDBRANCH  27  28
ENDBRANCH  26  27
ENDBRANCH  25  26
ENDBRANCH   1  25
TORSDOF 28
ENDMDL
MODEL 2
REMARK VINA RESULT:      -8.5      5.330      8.434
REMARK SMILES CC(C)N(CC(=O)OCCOCCOCCOCCOC(=O)c1ccc(-c2c3nc(c(-c4c(F)cc(S(=O)(=O)[O-])cc4F)c4ccc([nH]4)c(-c4c(F)cc(S(=O)(=O)[O-])cc4F)c4nc(c(-c5c(F)cc(S(=O)(=O)[O-])cc5F)c5ccc2[nH]5)C=C4)C=C3)cc1)C(=O)[C@H]1C=C[C@@H]([NH3+])C1
REMARK SMILES IDX 13 1 12 2 11 3 10 4 9 5 8 6 6 7 7 8 5 9 4 10 2 11 1 12 3 13
REMARK SMILES IDX 89 14 90 15 91 16 92 17 96 18 93 19 94 20 95 21 14 25 15 26
REMARK SMILES IDX 16 27 17 28 18 29 19 30 20 31 21 32 22 33 23 34 24 35 88 36
REMARK SMILES IDX 25 37 87 38 26 39 27 40 28 41 81 42 29 43 86 44 80 45 82 46
REMARK SMILES IDX 30 47 85 48 79 49 78 50 31 52 65 53 44 54 64 55 45 56 48 57
REMARK SMILES IDX 63 58 83 59 46 60 47 61 62 63 84 64 49 65 32 66 33 67 42 68
REMARK SMILES IDX 34 69 35 70 41 71 43 72 36 73 37 74 38 75 39 76 40 77 66 78
REMARK SMILES IDX 67 79 76 80 68 81 69 82 75 83 77 84 70 85 71 86 72 87 73 88
REMARK SMILES IDX 74 89 50 90 51 91 60 92 52 93 53 94 59 95 61 96 54 97 55 98
REMARK SMILES IDX 56 99 57 100 58 101
REMARK H PARENT 95 22 95 23 95 24 82 51 48 62
REMARK Flexibility Score: inf
ROOT
ATOM      1  C   UNL A   1      36.600  32.481  29.336  1.00  0.00     0.188 C 
ENDROOT
BRANCH   1   2
ATOM      2  C   UNL A   1      35.755  32.586  28.062  1.00  0.00     0.188 C 
BRANCH   2   3
ATOM      3  O   UNL A   1      34.556  31.838  27.988  1.00  0.00    -0.376 OA
BRANCH   3   4
ATOM      4  C   UNL A   1      34.652  30.489  27.536  1.00  0.00     0.202 C 
BRANCH   4   5
ATOM      5  C   UNL A   1      33.388  29.832  26.932  1.00  0.00     0.261 C 
BRANCH   5   6
ATOM      6  O   UNL A   1      33.537  29.173  25.635  1.00  0.00    -0.462 OA
BRANCH   6   7
ATOM      7  C   UNL A   1      33.188  27.863  25.578  1.00  0.00     0.325 C 
ATOM      8  O   UNL A   1      33.935  26.949  25.928  1.00  0.00    -0.250 OA
BRANCH   7   9
ATOM      9  C   UNL A   1      31.736  27.524  25.135  1.00  0.00     0.242 C 
BRANCH   9  10
ATOM     10  N   UNL A   1      30.889  28.131  24.077  1.00  0.00    -0.329 N 
BRANCH  10  11
ATOM     11  C   UNL A   1      30.314  27.148  23.115  1.00  0.00     0.079 C 
ATOM     12  C   UNL A   1      31.389  26.400  22.307  1.00  0.00     0.031 C 
ATOM     13  C   UNL A   1      29.324  26.179  23.763  1.00  0.00     0.031 C 
ENDBRANCH  10  11
BRANCH  10  14
ATOM     14  C   UNL A   1      30.405  29.448  24.020  1.00  0.00     0.230 C 
ATOM     15  O   UNL A   1      30.818  30.291  24.830  1.00  0.00    -0.274 OA
BRANCH  14  16
ATOM     16  C   UNL A   1      29.248  29.904  23.093  1.00  0.00     0.107 C 
ATOM     17  C   UNL A   1      28.436  31.061  23.645  1.00  0.00    -0.012 C 
ATOM     18  C   UNL A   1      29.456  30.382  21.662  1.00  0.00     0.087 C 
ATOM     19  C   UNL A   1      27.807  31.722  22.666  1.00  0.00     0.033 C 
ATOM     20  C   UNL A   1      28.171  31.161  21.335  1.00  0.00     0.205 C 
BRANCH  20  21
ATOM     21  N   UNL A   1      28.392  32.180  20.332  1.00  0.00    -0.352 N 
ATOM     22  H   UNL A   1      29.166  32.778  20.619  1.00  0.00     0.345 HD
ATOM     23  H   UNL A   1      27.547  32.742  20.228  1.00  0.00     0.345 HD
ATOM     24  H   UNL A   1      28.616  31.736  19.441  1.00  0.00     0.345 HD
ENDBRANCH  20  21
ENDBRANCH  14  16
ENDBRANCH  10  14
ENDBRANCH   9  10
ENDBRANCH   7   9
ENDBRANCH   6   7
ENDBRANCH   5   6
ENDBRANCH   4   5
ENDBRANCH   3   4
ENDBRANCH   2   3
ENDBRANCH   1   2
BRANCH   1  25
ATOM     25  O   UNL A   1      36.430  31.297  30.077  1.00  0.00    -0.377 OA
BRANCH  25  26
ATOM     26  C   UNL A   1      35.677  31.352  31.274  1.00  0.00     0.188 C 
BRANCH  26  27
ATOM     27  C   UNL A   1      35.130  32.749  31.579  1.00  0.00     0.188 C 
BRANCH  27  28
ATOM     28  O   UNL A   1      35.400  33.311  32.869  1.00  0.00    -0.376 OA
BRANCH  28  29
ATOM     29  C   UNL A   1      35.933  34.633  32.969  1.00  0.00     0.202 C 
BRANCH  29  30
ATOM     30  C   UNL A   1      37.417  34.768  32.649  1.00  0.00     0.261 C 
BRANCH  30  31
ATOM     31  O   UNL A   1      37.964  33.491  32.304  1.00  0.00    -0.460 OA
BRANCH  31  32
ATOM     32  C   UNL A   1      38.952  33.052  33.112  1.00  0.00     0.338 C 
ATOM     33  O   UNL A   1      39.045  33.202  34.320  1.00  0.00    -0.246 OA
BRANCH  32  34
ATOM     34  C   UNL A   1      39.821  32.156  32.330  1.00  0.00     0.060 A 
ATOM     35  C   UNL A   1      40.472  31.118  33.008  1.00  0.00     0.016 A 
ATOM     36  C   UNL A   1      40.005  32.346  30.958  1.00  0.00     0.016 A 
ATOM     37  C   UNL A   1      41.355  30.295  32.325  1.00  0.00     0.010 A 
ATOM     38  C   UNL A   1      40.910  31.538  30.277  1.00  0.00     0.010 A 
ATOM     39  C   UNL A   1      41.621  30.546  30.975  1.00  0.00    -0.014 A 
BRANCH  39  40
ATOM     40  C   UNL A   1      42.827  29.951  30.372  1.00  0.00     0.031 A 
ATOM     41  C   UNL A   1      44.080  30.779  30.364  1.00  0.00     0.074 A 
ATOM     42  C   UNL A   1      42.806  28.699  29.890  1.00  0.00     0.049 A 
ATOM     43  N   UNL A   1      45.255  30.500  29.872  1.00  0.00    -0.248 NA
ATOM     44  C   UNL A   1      43.992  32.109  30.997  1.00  0.00     0.031 C 
ATOM     45  C   UNL A   1      41.648  27.807  29.901  1.00  0.00     0.029 A 
ATOM     46  N   UNL A   1      43.795  27.965  29.292  1.00  0.00    -0.354 N 
ATOM     47  C   UNL A   1      46.042  31.618  30.126  1.00  0.00     0.074 A 
ATOM     48  C   UNL A   1      45.207  32.592  30.787  1.00  0.00     0.031 C 
ATOM     49  C   UNL A   1      41.989  26.646  29.317  1.00  0.00     0.029 A 
ATOM     50  C   UNL A   1      43.377  26.729  28.866  1.00  0.00     0.049 A 
ATOM     51  H   UNL A   1      44.717  28.292  29.177  1.00  0.00     0.167 HD
ATOM     52  C   UNL A   1      47.349  31.806  29.835  1.00  0.00     0.037 A 
ATOM     53  C   UNL A   1      44.041  25.788  28.168  1.00  0.00     0.037 A 
ATOM     54  C   UNL A   1      48.159  30.820  29.171  1.00  0.00     0.049 A 
ATOM     55  C   UNL A   1      45.481  26.043  27.802  1.00  0.00     0.074 A 
ATOM     56  C   UNL A   1      49.498  30.890  28.834  1.00  0.00     0.029 A 
ATOM     57  N   UNL A   1      47.698  29.586  28.733  1.00  0.00    -0.354 N 
ATOM     58  N   UNL A   1      46.225  27.094  28.062  1.00  0.00    -0.248 NA
ATOM     59  C   UNL A   1      46.174  24.986  27.056  1.00  0.00     0.031 C 
ATOM     60  C   UNL A   1      49.831  29.724  28.140  1.00  0.00     0.029 A 
ATOM     61  C   UNL A   1      48.720  28.896  28.104  1.00  0.00     0.049 A 
ATOM     62  H   UNL A   1      46.781  29.250  28.853  1.00  0.00     0.167 HD
ATOM     63  C   UNL A   1      47.482  26.811  27.537  1.00  0.00     0.074 A 
ATOM     64  C   UNL A   1      47.398  25.486  26.958  1.00  0.00     0.031 C 
ATOM     65  C   UNL A   1      48.606  27.573  27.538  1.00  0.00     0.037 A 
BRANCH  52  66
ATOM     66  C   UNL A   1      47.963  33.130  30.194  1.00  0.00     0.058 A 
ATOM     67  C   UNL A   1      47.988  34.209  29.295  1.00  0.00     0.135 A 
ATOM     68  C   UNL A   1      48.520  33.329  31.467  1.00  0.00     0.135 A 
ATOM     69  F   UNL A   1      47.496  34.068  28.053  1.00  0.00    -0.206 F 
ATOM     70  C   UNL A   1      48.558  35.431  29.639  1.00  0.00     0.059 A 
ATOM     71  C   UNL A   1      49.068  34.552  31.844  1.00  0.00     0.059 A 
ATOM     72  F   UNL A   1      48.536  32.329  32.362  1.00  0.00    -0.206 F 
ATOM     73  C   UNL A   1      49.092  35.594  30.919  1.00  0.00     0.060 A 
BRANCH  73  74
ATOM     74  S   UNL A   1      49.809  37.191  31.357  1.00  0.00     0.124 S 
ATOM     75  O   UNL A   1      50.612  36.840  32.525  1.00  0.00    -0.237 OA
ATOM     76  O   UNL A   1      50.558  37.536  30.153  1.00  0.00    -0.237 OA
ATOM     77  O   UNL A   1      48.643  38.025  31.628  1.00  0.00    -0.744 OA
ENDBRANCH  73  74
ENDBRANCH  52  66
BRANCH  53  78
ATOM     78  C   UNL A   1      43.350  24.535  27.766  1.00  0.00     0.058 A 
ATOM     79  C   UNL A   1      43.253  23.443  28.641  1.00  0.00     0.135 A 
ATOM     80  C   UNL A   1      42.755  24.411  26.500  1.00  0.00     0.135 A 
ATOM     81  F   UNL A   1      43.810  23.508  29.860  1.00  0.00    -0.206 F 
ATOM     82  C   UNL A   1      42.602  22.270  28.272  1.00  0.00     0.059 A 
ATOM     83  C   UNL A   1      42.075  23.259  26.118  1.00  0.00     0.059 A 
ATOM     84  F   UNL A   1      42.807  25.432  25.630  1.00  0.00    -0.206 F 
ATOM     85  C   UNL A   1      42.013  22.189  27.009  1.00  0.00     0.060 A 
BRANCH  85  86
ATOM     86  S   UNL A   1      41.124  20.682  26.562  1.00  0.00     0.124 S 
ATOM     87  O   UNL A   1      40.975  20.034  27.860  1.00  0.00    -0.237 OA
ATOM     88  O   UNL A   1      39.902  21.214  25.967  1.00  0.00    -0.237 OA
ATOM     89  O   UNL A   1      42.032  20.022  25.627  1.00  0.00    -0.744 OA
ENDBRANCH  85  86
ENDBRANCH  53  78
BRANCH  65  90
ATOM     90  C   UNL A   1      49.845  26.975  26.931  1.00  0.00     0.058 A 
ATOM     91  C   UNL A   1      50.776  26.257  27.697  1.00  0.00     0.135 A 
ATOM     92  C   UNL A   1      50.072  27.076  25.548  1.00  0.00     0.135 A 
ATOM     93  F   UNL A   1      50.606  26.132  29.023  1.00  0.00    -0.206 F 
ATOM     94  C   UNL A   1      51.906  25.689  27.120  1.00  0.00     0.059 A 
ATOM     95  C   UNL A   1      51.178  26.487  24.944  1.00  0.00     0.059 A 
ATOM     96  F   UNL A   1      49.205  27.738  24.765  1.00  0.00    -0.206 F 
ATOM     97  C   UNL A   1      52.097  25.808  25.742  1.00  0.00     0.060 A 
BRANCH  97  98
ATOM     98  S   UNL A   1      53.555  25.045  25.003  1.00  0.00     0.124 S 
ATOM     99  O   UNL A   1      53.270  23.626  25.187  1.00  0.00    -0.237 OA
ATOM    100  O   UNL A   1      53.498  25.531  23.628  1.00  0.00    -0.237 OA
ATOM    101  O   UNL A   1      54.658  25.572  25.801  1.00  0.00    -0.744 OA
ENDBRANCH  97  98
ENDBRANCH  65  90
ENDBRANCH  39  40
ENDBRANCH  32  34
ENDBRANCH  31  32
ENDBRANCH  30  31
ENDBRANCH  29  30
ENDBRANCH  28  29
ENDBRANCH  27  28
ENDBRANCH  26  27
ENDBRANCH  25  26
ENDBRANCH   1  25
TORSDOF 28
ENDMDL
MODEL 3
REMARK VINA RESULT:      -7.7      5.921     12.827
REMARK SMILES CC(C)N(CC(=O)OCCOCCOCCOCCOC(=O)c1ccc(-c2c3nc(c(-c4c(F)cc(S(=O)(=O)[O-])cc4F)c4ccc([nH]4)c(-c4c(F)cc(S(=O)(=O)[O-])cc4F)c4nc(c(-c5c(F)cc(S(=O)(=O)[O-])cc5F)c5ccc2[nH]5)C=C4)C=C3)cc1)C(=O)[C@H]1C=C[C@@H]([NH3+])C1
REMARK SMILES IDX 13 1 12 2 11 3 10 4 9 5 8 6 6 7 7 8 5 9 4 10 2 11 1 12 3 13
REMARK SMILES IDX 89 14 90 15 91 16 92 17 96 18 93 19 94 20 95 21 14 25 15 26
REMARK SMILES IDX 16 27 17 28 18 29 19 30 20 31 21 32 22 33 23 34 24 35 88 36
REMARK SMILES IDX 25 37 87 38 26 39 27 40 28 41 81 42 29 43 86 44 80 45 82 46
REMARK SMILES IDX 30 47 85 48 79 49 78 50 31 52 65 53 44 54 64 55 45 56 48 57
REMARK SMILES IDX 63 58 83 59 46 60 47 61 62 63 84 64 49 65 32 66 33 67 42 68
REMARK SMILES IDX 34 69 35 70 41 71 43 72 36 73 37 74 38 75 39 76 40 77 66 78
REMARK SMILES IDX 67 79 76 80 68 81 69 82 75 83 77 84 70 85 71 86 72 87 73 88
REMARK SMILES IDX 74 89 50 90 51 91 60 92 52 93 53 94 59 95 61 96 54 97 55 98
REMARK SMILES IDX 56 99 57 100 58 101
REMARK H PARENT 95 22 95 23 95 24 82 51 48 62
REMARK Flexibility Score: inf
ROOT
ATOM      1  C   UNL A   1      48.424  27.612  26.196  1.00  0.00     0.188 C 
ENDROOT
BRANCH   1   2
ATOM      2  C   UNL A   1      48.457  29.021  26.798  1.00  0.00     0.188 C 
BRANCH   2   3
ATOM      3  O   UNL A   1      49.717  29.608  27.063  1.00  0.00    -0.376 OA
BRANCH   3   4
ATOM      4  C   UNL A   1      49.729  30.971  27.482  1.00  0.00     0.202 C 
BRANCH   4   5
ATOM      5  C   UNL A   1      48.553  31.877  27.047  1.00  0.00     0.261 C 
BRANCH   5   6
ATOM      6  O   UNL A   1      48.094  32.878  28.011  1.00  0.00    -0.462 OA
BRANCH   6   7
ATOM      7  C   UNL A   1      46.766  33.158  28.007  1.00  0.00     0.325 C 
ATOM      8  O   UNL A   1      45.928  32.462  28.579  1.00  0.00    -0.250 OA
BRANCH   7   9
ATOM      9  C   UNL A   1      46.311  34.476  27.319  1.00  0.00     0.242 C 
BRANCH   9  10
ATOM     10  N   UNL A   1      45.001  35.173  27.354  1.00  0.00    -0.329 N 
BRANCH  10  11
ATOM     11  C   UNL A   1      44.150  34.938  26.153  1.00  0.00     0.079 C 
ATOM     12  C   UNL A   1      44.070  33.453  25.756  1.00  0.00     0.031 C 
ATOM     13  C   UNL A   1      42.759  35.562  26.268  1.00  0.00     0.031 C 
ENDBRANCH  10  11
BRANCH  10  14
ATOM     14  C   UNL A   1      44.404  35.820  28.449  1.00  0.00     0.230 C 
ATOM     15  O   UNL A   1      44.366  37.060  28.485  1.00  0.00    -0.274 OA
BRANCH  14  16
ATOM     16  C   UNL A   1      43.913  35.086  29.723  1.00  0.00     0.107 C 
ATOM     17  C   UNL A   1      44.094  35.884  31.002  1.00  0.00    -0.012 C 
ATOM     18  C   UNL A   1      42.484  34.597  29.913  1.00  0.00     0.087 C 
ATOM     19  C   UNL A   1      43.254  35.465  31.956  1.00  0.00     0.033 C 
ATOM     20  C   UNL A   1      42.351  34.403  31.433  1.00  0.00     0.205 C 
BRANCH  20  21
ATOM     21  N   UNL A   1      40.984  34.548  31.884  1.00  0.00    -0.352 N 
ATOM     22  H   UNL A   1      40.369  34.648  31.077  1.00  0.00     0.345 HD
ATOM     23  H   UNL A   1      40.908  35.376  32.475  1.00  0.00     0.345 HD
ATOM     24  H   UNL A   1      40.713  33.723  32.419  1.00  0.00     0.345 HD
ENDBRANCH  20  21
ENDBRANCH  14  16
ENDBRANCH  10  14
ENDBRANCH   9  10
ENDBRANCH   7   9
ENDBRANCH   6   7
ENDBRANCH   5   6
ENDBRANCH   4   5
ENDBRANCH   3   4
ENDBRANCH   2   3
ENDBRANCH   1   2
BRANCH   1  25
ATOM     25  O   UNL A   1      47.466  26.743  26.747  1.00  0.00    -0.377 OA
BRANCH  25  26
ATOM     26  C   UNL A   1      47.493  25.380  26.367  1.00  0.00     0.188 C 
BRANCH  26  27
ATOM     27  C   UNL A   1      47.161  25.160  24.889  1.00  0.00     0.188 C 
BRANCH  27  28
ATOM     28  O   UNL A   1      46.073  24.284  24.566  1.00  0.00    -0.376 OA
BRANCH  28  29
ATOM     29  C   UNL A   1      45.029  24.069  25.517  1.00  0.00     0.202 C 
BRANCH  29  30
ATOM     30  C   UNL A   1      43.614  24.291  24.998  1.00  0.00     0.261 C 
BRANCH  30  31
ATOM     31  O   UNL A   1      42.711  24.476  26.093  1.00  0.00    -0.460 OA
BRANCH  31  32
ATOM     32  C   UNL A   1      41.913  25.561  26.001  1.00  0.00     0.338 C 
ATOM     33  O   UNL A   1      41.161  25.856  25.086  1.00  0.00    -0.246 OA
BRANCH  32  34
ATOM     34  C   UNL A   1      41.926  26.251  27.302  1.00  0.00     0.060 A 
ATOM     35  C   UNL A   1      40.885  25.979  28.200  1.00  0.00     0.016 A 
ATOM     36  C   UNL A   1      42.934  27.163  27.627  1.00  0.00     0.016 A 
ATOM     37  C   UNL A   1      40.818  26.659  29.407  1.00  0.00     0.010 A 
ATOM     38  C   UNL A   1      42.854  27.864  28.826  1.00  0.00     0.010 A 
ATOM     39  C   UNL A   1      41.768  27.646  29.690  1.00  0.00    -0.014 A 
BRANCH  39  40
ATOM     40  C   UNL A   1      41.471  28.623  30.752  1.00  0.00     0.031 A 
ATOM     41  C   UNL A   1      42.329  28.590  31.986  1.00  0.00     0.074 A 
ATOM     42  C   UNL A   1      40.497  29.533  30.595  1.00  0.00     0.049 A 
ATOM     43  N   UNL A   1      42.255  29.318  33.066  1.00  0.00    -0.248 NA
ATOM     44  C   UNL A   1      43.417  27.596  32.002  1.00  0.00     0.031 C 
ATOM     45  C   UNL A   1      39.649  29.668  29.412  1.00  0.00     0.029 A 
ATOM     46  N   UNL A   1      40.057  30.513  31.443  1.00  0.00    -0.354 N 
ATOM     47  C   UNL A   1      43.278  28.864  33.892  1.00  0.00     0.074 A 
ATOM     48  C   UNL A   1      43.939  27.780  33.204  1.00  0.00     0.031 C 
ATOM     49  C   UNL A   1      38.775  30.667  29.618  1.00  0.00     0.029 A 
ATOM     50  C   UNL A   1      38.983  31.215  30.956  1.00  0.00     0.049 A 
ATOM     51  H   UNL A   1      40.470  30.696  32.319  1.00  0.00     0.167 HD
ATOM     52  C   UNL A   1      43.632  29.321  35.114  1.00  0.00     0.037 A 
ATOM     53  C   UNL A   1      38.243  32.175  31.544  1.00  0.00     0.037 A 
ATOM     54  C   UNL A   1      42.954  30.401  35.780  1.00  0.00     0.049 A 
ATOM     55  C   UNL A   1      38.619  32.628  32.932  1.00  0.00     0.074 A 
ATOM     56  C   UNL A   1      43.229  30.960  37.013  1.00  0.00     0.029 A 
ATOM     57  N   UNL A   1      41.855  31.077  35.267  1.00  0.00    -0.354 N 
ATOM     58  N   UNL A   1      39.599  32.209  33.699  1.00  0.00    -0.248 NA
ATOM     59  C   UNL A   1      37.797  33.687  33.530  1.00  0.00     0.031 C 
ATOM     60  C   UNL A   1      42.261  31.934  37.273  1.00  0.00     0.029 A 
ATOM     61  C   UNL A   1      41.423  32.031  36.172  1.00  0.00     0.049 A 
ATOM     62  H   UNL A   1      41.444  30.905  34.389  1.00  0.00     0.167 HD
ATOM     63  C   UNL A   1      39.529  32.974  34.859  1.00  0.00     0.074 A 
ATOM     64  C   UNL A   1      38.419  33.888  34.684  1.00  0.00     0.031 C 
ATOM     65  C   UNL A   1      40.313  32.931  35.967  1.00  0.00     0.037 A 
BRANCH  52  66
ATOM     66  C   UNL A   1      44.768  28.632  35.817  1.00  0.00     0.058 A 
ATOM     67  C   UNL A   1      44.562  27.541  36.677  1.00  0.00     0.135 A 
ATOM     68  C   UNL A   1      46.090  29.060  35.612  1.00  0.00     0.135 A 
ATOM     69  F   UNL A   1      43.317  27.106  36.933  1.00  0.00    -0.206 F 
ATOM     70  C   UNL A   1      45.622  26.910  37.321  1.00  0.00     0.059 A 
ATOM     71  C   UNL A   1      47.168  28.425  36.221  1.00  0.00     0.059 A 
ATOM     72  F   UNL A   1      46.345  30.106  34.811  1.00  0.00    -0.206 F 
ATOM     73  C   UNL A   1      46.923  27.357  37.083  1.00  0.00     0.060 A 
BRANCH  73  74
ATOM     74  S   UNL A   1      48.289  26.516  37.910  1.00  0.00     0.124 S 
ATOM     75  O   UNL A   1      48.137  25.152  37.411  1.00  0.00    -0.237 OA
ATOM     76  O   UNL A   1      49.449  27.247  37.413  1.00  0.00    -0.237 OA
ATOM     77  O   UNL A   1      47.994  26.700  39.327  1.00  0.00    -0.744 OA
ENDBRANCH  73  74
ENDBRANCH  52  66
BRANCH  53  78
ATOM     78  C   UNL A   1      37.076  32.755  30.829  1.00  0.00     0.058 A 
ATOM     79  C   UNL A   1      37.225  33.830  29.942  1.00  0.00     0.135 A 
ATOM     80  C   UNL A   1      35.785  32.232  31.008  1.00  0.00     0.135 A 
ATOM     81  F   UNL A   1      38.437  34.371  29.741  1.00  0.00    -0.206 F 
ATOM     82  C   UNL A   1      36.137  34.374  29.266  1.00  0.00     0.059 A 
ATOM     83  C   UNL A   1      34.686  32.740  30.323  1.00  0.00     0.059 A 
ATOM     84  F   UNL A   1      35.589  31.193  31.836  1.00  0.00    -0.206 F 
ATOM     85  C   UNL A   1      34.871  33.818  29.460  1.00  0.00     0.060 A 
BRANCH  85  86
ATOM     86  S   UNL A   1      33.477  34.497  28.536  1.00  0.00     0.124 S 
ATOM     87  O   UNL A   1      32.595  34.933  29.612  1.00  0.00    -0.237 OA
ATOM     88  O   UNL A   1      34.112  35.557  27.760  1.00  0.00    -0.237 OA
ATOM     89  O   UNL A   1      33.005  33.356  27.755  1.00  0.00    -0.744 OA
ENDBRANCH  85  86
ENDBRANCH  53  78
BRANCH  65  90
ATOM     90  C   UNL A   1      40.024  33.927  37.056  1.00  0.00     0.058 A 
ATOM     91  C   UNL A   1      40.510  35.242  37.007  1.00  0.00     0.135 A 
ATOM     92  C   UNL A   1      39.200  33.571  38.137  1.00  0.00     0.135 A 
ATOM     93  F   UNL A   1      41.304  35.633  35.998  1.00  0.00    -0.206 F 
ATOM     94  C   UNL A   1      40.217  36.161  38.009  1.00  0.00     0.059 A 
ATOM     95  C   UNL A   1      38.865  34.484  39.132  1.00  0.00     0.059 A 
ATOM     96  F   UNL A   1      38.694  32.330  38.224  1.00  0.00    -0.206 F 
ATOM     97  C   UNL A   1      39.392  35.772  39.066  1.00  0.00     0.060 A 
BRANCH  97  98
ATOM     98  S   UNL A   1      39.000  36.981  40.346  1.00  0.00     0.124 S 
ATOM     99  O   UNL A   1      40.321  37.258  40.903  1.00  0.00    -0.237 OA
ATOM    100  O   UNL A   1      38.396  38.065  39.578  1.00  0.00    -0.237 OA
ATOM    101  O   UNL A   1      38.086  36.262  41.228  1.00  0.00    -0.744 OA
ENDBRANCH  97  98
ENDBRANCH  65  90
ENDBRANCH  39  40
ENDBRANCH  32  34
ENDBRANCH  31  32
ENDBRANCH  30  31
ENDBRANCH  29  30
ENDBRANCH  28  29
ENDBRANCH  27  28
ENDBRANCH  26  27
ENDBRANCH  25  26
ENDBRANCH   1  25
TORSDOF 28
ENDMDL
