MODEL 1
REMARK VINA RESULT:      -8.1      0.000      0.000
REMARK SMILES CCC(=O)Nc1ccc(NC(=O)[C@@H]2CC=CC[C@@H]2C(=O)OCCOCCOCCOCCOC(=O)c2ccc(-c3c4nc(c(-c5c(F)cc(S(=O)(=O)[O-])cc5F)c5ccc([nH]5)c(-c5c(F)cc(S(=O)(=O)[O-])cc5F)c5nc(c(-c6c(F)cc(S(=O)(=O)[O-])cc6F)c6ccc3[nH]6)C=C5)C=C4)cc2)cc1
REMARK SMILES IDX 26 1 25 2 24 3 23 4 22 5 21 6 19 7 20 8 18 9 13 10 14 11
REMARK SMILES IDX 15 12 17 13 16 14 11 15 10 16 12 18 9 19 6 20 7 21 103 22
REMARK SMILES IDX 8 23 102 24 5 25 3 26 4 27 2 29 1 30 27 31 28 32 29 33 30 34
REMARK SMILES IDX 31 35 32 36 33 37 34 38 35 39 36 40 37 41 101 42 38 43
REMARK SMILES IDX 100 44 39 45 40 46 41 47 94 48 42 49 99 50 93 51 95 52 43 53
REMARK SMILES IDX 98 54 92 55 91 56 44 58 78 59 57 60 77 61 58 62 61 63 76 64
REMARK SMILES IDX 96 65 59 66 60 67 75 69 97 70 62 71 45 72 46 73 55 74 47 75
REMARK SMILES IDX 48 76 54 77 56 78 49 79 50 80 51 81 52 82 53 83 79 84 80 85
REMARK SMILES IDX 89 86 81 87 82 88 88 89 90 90 83 91 84 92 85 93 86 94 87 95
REMARK SMILES IDX 63 96 64 97 73 98 65 99 66 100 72 101 74 102 67 103 68 104
REMARK SMILES IDX 69 105 70 106 71 107
REMARK H PARENT 10 17 5 28 95 57 61 68
REMARK Flexibility Score: inf
ROOT
ATOM      1  C   UNL A   1      50.610  44.549  27.665  1.00  0.00     0.188 C 
ENDROOT
BRANCH   1   2
ATOM      2  C   UNL A   1      49.386  45.377  27.207  1.00  0.00     0.188 C 
BRANCH   2   3
ATOM      3  O   UNL A   1      48.762  45.139  25.953  1.00  0.00    -0.376 OA
BRANCH   3   4
ATOM      4  C   UNL A   1      47.625  44.297  25.885  1.00  0.00     0.202 C 
BRANCH   4   5
ATOM      5  C   UNL A   1      46.324  44.810  25.249  1.00  0.00     0.261 C 
BRANCH   5   6
ATOM      6  O   UNL A   1      46.034  44.419  23.893  1.00  0.00    -0.463 OA
BRANCH   6   7
ATOM      7  C   UNL A   1      44.765  44.612  23.455  1.00  0.00     0.310 C 
ATOM      8  O   UNL A   1      44.197  45.699  23.452  1.00  0.00    -0.252 OA
BRANCH   7   9
ATOM      9  C   UNL A   1      44.103  43.345  22.911  1.00  0.00     0.116 C 
ATOM     10  C   UNL A   1      44.401  43.004  21.431  1.00  0.00     0.097 C 
ATOM     11  C   UNL A   1      43.363  43.562  20.467  1.00  0.00     0.041 C 
ATOM     12  C   UNL A   1      41.947  43.333  20.904  1.00  0.00    -0.030 C 
ATOM     13  C   UNL A   1      42.616  43.201  23.309  1.00  0.00     0.043 C 
ATOM     14  C   UNL A   1      41.615  43.167  22.188  1.00  0.00    -0.030 C 
BRANCH  10  15
ATOM     15  C   UNL A   1      45.917  43.111  21.188  1.00  0.00     0.228 C 
ATOM     16  N   UNL A   1      46.623  44.183  20.755  1.00  0.00    -0.326 N 
ATOM     17  H   UNL A   1      47.548  44.172  21.090  1.00  0.00     0.169 HD
ATOM     18  O   UNL A   1      46.612  42.177  21.626  1.00  0.00    -0.274 OA
BRANCH  16  19
ATOM     19  C   UNL A   1      46.371  45.300  19.953  1.00  0.00     0.041 A 
ATOM     20  C   UNL A   1      45.774  47.406  18.218  1.00  0.00     0.041 A 
ATOM     21  C   UNL A   1      45.596  47.562  19.585  1.00  0.00     0.028 A 
ATOM     22  C   UNL A   1      46.283  46.222  17.701  1.00  0.00     0.028 A 
ATOM     23  C   UNL A   1      45.829  46.484  20.430  1.00  0.00     0.028 A 
ATOM     24  C   UNL A   1      46.563  45.164  18.570  1.00  0.00     0.028 A 
BRANCH  20  25
ATOM     25  N   UNL A   1      45.347  48.447  17.394  1.00  0.00    -0.326 N 
ATOM     26  C   UNL A   1      44.023  48.789  17.280  1.00  0.00     0.224 C 
ATOM     27  O   UNL A   1      43.751  49.991  17.242  1.00  0.00    -0.275 OA
ATOM     28  H   UNL A   1      46.016  48.951  16.876  1.00  0.00     0.169 HD
BRANCH  26  29
ATOM     29  C   UNL A   1      42.930  47.742  17.347  1.00  0.00     0.097 C 
ATOM     30  C   UNL A   1      41.893  47.809  16.243  1.00  0.00     0.014 C 
ENDBRANCH  26  29
ENDBRANCH  20  25
ENDBRANCH  16  19
ENDBRANCH  10  15
ENDBRANCH   7   9
ENDBRANCH   6   7
ENDBRANCH   5   6
ENDBRANCH   4   5
ENDBRANCH   3   4
ENDBRANCH   2   3
ENDBRANCH   1   2
BRANCH   1  31
ATOM     31  O   UNL A   1      50.359  43.178  27.914  1.00  0.00    -0.377 OA
BRANCH  31  32
ATOM     32  C   UNL A   1      51.072  42.610  29.005  1.00  0.00     0.188 C 
BRANCH  32  33
ATOM     33  C   UNL A   1      51.017  41.076  29.130  1.00  0.00     0.188 C 
BRANCH  33  34
ATOM     34  O   UNL A   1      49.712  40.582  29.405  1.00  0.00    -0.376 OA
BRANCH  34  35
ATOM     35  C   UNL A   1      49.558  39.345  30.081  1.00  0.00     0.202 C 
BRANCH  35  36
ATOM     36  C   UNL A   1      48.558  38.334  29.493  1.00  0.00     0.261 C 
BRANCH  36  37
ATOM     37  O   UNL A   1      49.124  37.208  28.808  1.00  0.00    -0.460 OA
BRANCH  37  38
ATOM     38  C   UNL A   1      49.576  36.197  29.578  1.00  0.00     0.338 C 
ATOM     39  O   UNL A   1      50.517  36.241  30.358  1.00  0.00    -0.246 OA
BRANCH  38  40
ATOM     40  C   UNL A   1      48.616  35.079  29.498  1.00  0.00     0.060 A 
ATOM     41  C   UNL A   1      48.582  34.164  30.557  1.00  0.00     0.016 A 
ATOM     42  C   UNL A   1      47.777  34.913  28.392  1.00  0.00     0.016 A 
ATOM     43  C   UNL A   1      47.770  33.036  30.480  1.00  0.00     0.010 A 
ATOM     44  C   UNL A   1      46.975  33.769  28.307  1.00  0.00     0.010 A 
ATOM     45  C   UNL A   1      47.020  32.796  29.324  1.00  0.00    -0.014 A 
BRANCH  45  46
ATOM     46  C   UNL A   1      46.523  31.418  29.081  1.00  0.00     0.031 A 
ATOM     47  C   UNL A   1      45.111  31.097  29.492  1.00  0.00     0.074 A 
ATOM     48  C   UNL A   1      47.253  30.504  28.419  1.00  0.00     0.049 A 
ATOM     49  N   UNL A   1      44.433  29.990  29.333  1.00  0.00    -0.248 NA
ATOM     50  C   UNL A   1      44.350  32.179  30.140  1.00  0.00     0.031 C 
ATOM     51  C   UNL A   1      48.580  30.730  27.859  1.00  0.00     0.029 A 
ATOM     52  N   UNL A   1      46.977  29.196  28.109  1.00  0.00    -0.354 N 
ATOM     53  C   UNL A   1      43.167  30.249  29.844  1.00  0.00     0.074 A 
ATOM     54  C   UNL A   1      43.187  31.595  30.372  1.00  0.00     0.031 C 
ATOM     55  C   UNL A   1      49.033  29.582  27.327  1.00  0.00     0.029 A 
ATOM     56  C   UNL A   1      48.027  28.542  27.511  1.00  0.00     0.049 A 
ATOM     57  H   UNL A   1      46.110  28.768  28.297  1.00  0.00     0.167 HD
ATOM     58  C   UNL A   1      42.077  29.447  29.846  1.00  0.00     0.037 A 
ATOM     59  C   UNL A   1      48.163  27.249  27.159  1.00  0.00     0.037 A 
ATOM     60  C   UNL A   1      42.069  28.105  29.326  1.00  0.00     0.049 A 
ATOM     61  C   UNL A   1      46.987  26.328  27.308  1.00  0.00     0.074 A 
ATOM     62  C   UNL A   1      41.012  27.215  29.257  1.00  0.00     0.029 A 
ATOM     63  N   UNL A   1      43.177  27.451  28.802  1.00  0.00    -0.354 N 
ATOM     64  N   UNL A   1      45.785  26.590  27.762  1.00  0.00    -0.248 NA
ATOM     65  C   UNL A   1      47.170  24.946  26.846  1.00  0.00     0.031 C 
ATOM     66  C   UNL A   1      41.497  26.001  28.759  1.00  0.00     0.029 A 
ATOM     67  C   UNL A   1      42.837  26.156  28.445  1.00  0.00     0.049 A 
ATOM     68  H   UNL A   1      44.071  27.849  28.702  1.00  0.00     0.167 HD
ATOM     69  C   UNL A   1      45.048  25.426  27.582  1.00  0.00     0.074 A 
ATOM     70  C   UNL A   1      45.947  24.454  26.990  1.00  0.00     0.031 C 
ATOM     71  C   UNL A   1      43.738  25.195  27.855  1.00  0.00     0.037 A 
BRANCH  58  72
ATOM     72  C   UNL A   1      40.822  29.993  30.471  1.00  0.00     0.058 A 
ATOM     73  C   UNL A   1      40.656  30.086  31.863  1.00  0.00     0.135 A 
ATOM     74  C   UNL A   1      39.759  30.420  29.658  1.00  0.00     0.135 A 
ATOM     75  F   UNL A   1      41.629  29.672  32.690  1.00  0.00    -0.206 F 
ATOM     76  C   UNL A   1      39.467  30.541  32.426  1.00  0.00     0.059 A 
ATOM     77  C   UNL A   1      38.576  30.910  30.199  1.00  0.00     0.059 A 
ATOM     78  F   UNL A   1      39.859  30.350  28.321  1.00  0.00    -0.206 F 
ATOM     79  C   UNL A   1      38.431  30.947  31.585  1.00  0.00     0.060 A 
BRANCH  79  80
ATOM     80  S   UNL A   1      36.886  31.511  32.327  1.00  0.00     0.124 S 
ATOM     81  O   UNL A   1      37.190  31.403  33.750  1.00  0.00    -0.237 OA
ATOM     82  O   UNL A   1      36.767  32.870  31.805  1.00  0.00    -0.237 OA
ATOM     83  O   UNL A   1      35.899  30.561  31.824  1.00  0.00    -0.744 OA
ENDBRANCH  79  80
ENDBRANCH  58  72
BRANCH  59  84
ATOM     84  C   UNL A   1      49.448  26.760  26.594  1.00  0.00     0.058 A 
ATOM     85  C   UNL A   1      49.695  26.791  25.215  1.00  0.00     0.135 A 
ATOM     86  C   UNL A   1      50.454  26.250  27.427  1.00  0.00     0.135 A 
ATOM     87  F   UNL A   1      48.751  27.243  24.376  1.00  0.00    -0.206 F 
ATOM     88  C   UNL A   1      50.899  26.342  24.681  1.00  0.00     0.059 A 
ATOM     89  C   UNL A   1      51.675  25.816  26.919  1.00  0.00     0.059 A 
ATOM     90  F   UNL A   1      50.257  26.170  28.751  1.00  0.00    -0.206 F 
ATOM     91  C   UNL A   1      51.889  25.868  25.543  1.00  0.00     0.060 A 
BRANCH  91  92
ATOM     92  S   UNL A   1      53.479  25.372  24.846  1.00  0.00     0.124 S 
ATOM     93  O   UNL A   1      53.478  23.936  25.095  1.00  0.00    -0.237 OA
ATOM     94  O   UNL A   1      53.340  25.781  23.452  1.00  0.00    -0.237 OA
ATOM     95  O   UNL A   1      54.443  26.149  25.623  1.00  0.00    -0.744 OA
ENDBRANCH  91  92
ENDBRANCH  59  84
BRANCH  71  96
ATOM     96  C   UNL A   1      43.177  23.860  27.447  1.00  0.00     0.058 A 
ATOM     97  C   UNL A   1      42.666  23.620  26.162  1.00  0.00     0.135 A 
ATOM     98  C   UNL A   1      43.162  22.796  28.366  1.00  0.00     0.135 A 
ATOM     99  F   UNL A   1      42.651  24.601  25.246  1.00  0.00    -0.206 F 
ATOM    100  C   UNL A   1      42.115  22.390  25.818  1.00  0.00     0.059 A 
ATOM    101  C   UNL A   1      42.652  21.546  28.030  1.00  0.00     0.059 A 
ATOM    102  F   UNL A   1      43.650  22.964  29.604  1.00  0.00    -0.206 F 
ATOM    103  C   UNL A   1      42.109  21.360  26.761  1.00  0.00     0.060 A 
BRANCH 103 104
ATOM    104  S   UNL A   1      41.388  19.770  26.304  1.00  0.00     0.124 S 
ATOM    105  O   UNL A   1      40.046  20.166  25.888  1.00  0.00    -0.237 OA
ATOM    106  O   UNL A   1      42.276  19.320  25.237  1.00  0.00    -0.237 OA
ATOM    107  O   UNL A   1      41.459  18.996  27.540  1.00  0.00    -0.744 OA
ENDBRANCH 103 104
ENDBRANCH  71  96
ENDBRANCH  45  46
ENDBRANCH  38  40
ENDBRANCH  37  38
ENDBRANCH  36  37
ENDBRANCH  35  36
ENDBRANCH  34  35
ENDBRANCH  33  34
ENDBRANCH  32  33
ENDBRANCH  31  32
ENDBRANCH   1  31
TORSDOF 27
ENDMDL
MODEL 2
REMARK VINA RESULT:      -7.8      8.609     14.931
REMARK SMILES CCC(=O)Nc1ccc(NC(=O)[C@@H]2CC=CC[C@@H]2C(=O)OCCOCCOCCOCCOC(=O)c2ccc(-c3c4nc(c(-c5c(F)cc(S(=O)(=O)[O-])cc5F)c5ccc([nH]5)c(-c5c(F)cc(S(=O)(=O)[O-])cc5F)c5nc(c(-c6c(F)cc(S(=O)(=O)[O-])cc6F)c6ccc3[nH]6)C=C5)C=C4)cc2)cc1
REMARK SMILES IDX 26 1 25 2 24 3 23 4 22 5 21 6 19 7 20 8 18 9 13 10 14 11
REMARK SMILES IDX 15 12 17 13 16 14 11 15 10 16 12 18 9 19 6 20 7 21 103 22
REMARK SMILES IDX 8 23 102 24 5 25 3 26 4 27 2 29 1 30 27 31 28 32 29 33 30 34
REMARK SMILES IDX 31 35 32 36 33 37 34 38 35 39 36 40 37 41 101 42 38 43
REMARK SMILES IDX 100 44 39 45 40 46 41 47 94 48 42 49 99 50 93 51 95 52 43 53
REMARK SMILES IDX 98 54 92 55 91 56 44 58 78 59 57 60 77 61 58 62 61 63 76 64
REMARK SMILES IDX 96 65 59 66 60 67 75 69 97 70 62 71 45 72 46 73 55 74 47 75
REMARK SMILES IDX 48 76 54 77 56 78 49 79 50 80 51 81 52 82 53 83 79 84 80 85
REMARK SMILES IDX 89 86 81 87 82 88 88 89 90 90 83 91 84 92 85 93 86 94 87 95
REMARK SMILES IDX 63 96 64 97 73 98 65 99 66 100 72 101 74 102 67 103 68 104
REMARK SMILES IDX 69 105 70 106 71 107
REMARK H PARENT 10 17 5 28 95 57 61 68
REMARK Flexibility Score: inf
ROOT
ATOM      1  C   UNL A   1      39.567  27.083  28.454  1.00  0.00     0.188 C 
ENDROOT
BRANCH   1   2
ATOM      2  C   UNL A   1      40.812  27.748  29.086  1.00  0.00     0.188 C 
BRANCH   2   3
ATOM      3  O   UNL A   1      40.954  29.162  29.125  1.00  0.00    -0.376 OA
BRANCH   3   4
ATOM      4  C   UNL A   1      39.939  29.951  29.718  1.00  0.00     0.202 C 
BRANCH   4   5
ATOM      5  C   UNL A   1      40.313  31.143  30.613  1.00  0.00     0.261 C 
BRANCH   5   6
ATOM      6  O   UNL A   1      39.615  31.296  31.864  1.00  0.00    -0.463 OA
BRANCH   6   7
ATOM      7  C   UNL A   1      40.254  30.869  32.981  1.00  0.00     0.310 C 
ATOM      8  O   UNL A   1      40.112  29.754  33.471  1.00  0.00    -0.252 OA
BRANCH   7   9
ATOM      9  C   UNL A   1      41.224  31.898  33.565  1.00  0.00     0.116 C 
ATOM     10  C   UNL A   1      40.613  32.932  34.540  1.00  0.00     0.097 C 
ATOM     11  C   UNL A   1      40.181  34.220  33.854  1.00  0.00     0.041 C 
ATOM     12  C   UNL A   1      41.198  34.766  32.897  1.00  0.00    -0.030 C 
ATOM     13  C   UNL A   1      42.190  32.503  32.521  1.00  0.00     0.043 C 
ATOM     14  C   UNL A   1      42.106  33.987  32.300  1.00  0.00    -0.030 C 
BRANCH  10  15
ATOM     15  C   UNL A   1      39.738  32.194  35.569  1.00  0.00     0.228 C 
ATOM     16  N   UNL A   1      38.417  31.907  35.494  1.00  0.00    -0.326 N 
ATOM     17  H   UNL A   1      38.188  31.094  36.000  1.00  0.00     0.169 HD
ATOM     18  O   UNL A   1      40.341  31.613  36.489  1.00  0.00    -0.274 OA
BRANCH  16  19
ATOM     19  C   UNL A   1      37.295  32.472  34.880  1.00  0.00     0.041 A 
ATOM     20  C   UNL A   1      34.988  33.411  33.615  1.00  0.00     0.041 A 
ATOM     21  C   UNL A   1      35.416  33.995  34.798  1.00  0.00     0.028 A 
ATOM     22  C   UNL A   1      35.715  32.384  33.029  1.00  0.00     0.028 A 
ATOM     23  C   UNL A   1      36.525  33.473  35.454  1.00  0.00     0.028 A 
ATOM     24  C   UNL A   1      36.859  31.904  33.674  1.00  0.00     0.028 A 
BRANCH  20  25
ATOM     25  N   UNL A   1      33.767  33.840  33.095  1.00  0.00    -0.326 N 
ATOM     26  C   UNL A   1      33.662  34.963  32.314  1.00  0.00     0.224 C 
ATOM     27  O   UNL A   1      32.912  34.904  31.337  1.00  0.00    -0.275 OA
ATOM     28  H   UNL A   1      32.954  33.322  33.296  1.00  0.00     0.169 HD
BRANCH  26  29
ATOM     29  C   UNL A   1      34.542  36.174  32.554  1.00  0.00     0.097 C 
ATOM     30  C   UNL A   1      33.950  37.241  33.454  1.00  0.00     0.014 C 
ENDBRANCH  26  29
ENDBRANCH  20  25
ENDBRANCH  16  19
ENDBRANCH  10  15
ENDBRANCH   7   9
ENDBRANCH   6   7
ENDBRANCH   5   6
ENDBRANCH   4   5
ENDBRANCH   3   4
ENDBRANCH   2   3
ENDBRANCH   1   2
BRANCH   1  31
ATOM     31  O   UNL A   1      39.634  25.675  28.315  1.00  0.00    -0.377 OA
BRANCH  31  32
ATOM     32  C   UNL A   1      39.289  25.166  27.033  1.00  0.00     0.188 C 
BRANCH  32  33
ATOM     33  C   UNL A   1      38.829  23.697  26.985  1.00  0.00     0.188 C 
BRANCH  33  34
ATOM     34  O   UNL A   1      39.615  22.891  26.115  1.00  0.00    -0.376 OA
BRANCH  34  35
ATOM     35  C   UNL A   1      39.822  21.523  26.422  1.00  0.00     0.202 C 
BRANCH  35  36
ATOM     36  C   UNL A   1      41.004  21.173  27.343  1.00  0.00     0.261 C 
BRANCH  36  37
ATOM     37  O   UNL A   1      42.288  21.067  26.714  1.00  0.00    -0.460 OA
BRANCH  37  38
ATOM     38  C   UNL A   1      42.857  22.220  26.306  1.00  0.00     0.338 C 
ATOM     39  O   UNL A   1      42.840  22.679  25.173  1.00  0.00    -0.246 OA
BRANCH  38  40
ATOM     40  C   UNL A   1      43.324  22.961  27.494  1.00  0.00     0.060 A 
ATOM     41  C   UNL A   1      42.367  23.618  28.278  1.00  0.00     0.016 A 
ATOM     42  C   UNL A   1      44.681  23.032  27.825  1.00  0.00     0.016 A 
ATOM     43  C   UNL A   1      42.767  24.415  29.346  1.00  0.00     0.010 A 
ATOM     44  C   UNL A   1      45.083  23.849  28.888  1.00  0.00     0.010 A 
ATOM     45  C   UNL A   1      44.130  24.593  29.610  1.00  0.00    -0.014 A 
BRANCH  45  46
ATOM     46  C   UNL A   1      44.540  25.754  30.439  1.00  0.00     0.031 A 
ATOM     47  C   UNL A   1      44.872  25.503  31.887  1.00  0.00     0.074 A 
ATOM     48  C   UNL A   1      44.723  26.977  29.913  1.00  0.00     0.049 A 
ATOM     49  N   UNL A   1      45.308  26.337  32.794  1.00  0.00    -0.248 NA
ATOM     50  C   UNL A   1      44.723  24.118  32.366  1.00  0.00     0.031 C 
ATOM     51  C   UNL A   1      44.560  27.321  28.506  1.00  0.00     0.029 A 
ATOM     52  N   UNL A   1      45.084  28.160  30.507  1.00  0.00    -0.354 N 
ATOM     53  C   UNL A   1      45.499  25.577  33.941  1.00  0.00     0.074 A 
ATOM     54  C   UNL A   1      45.077  24.229  33.635  1.00  0.00     0.031 C 
ATOM     55  C   UNL A   1      44.759  28.642  28.351  1.00  0.00     0.029 A 
ATOM     56  C   UNL A   1      45.062  29.234  29.650  1.00  0.00     0.049 A 
ATOM     57  H   UNL A   1      45.335  28.232  31.457  1.00  0.00     0.167 HD
ATOM     58  C   UNL A   1      46.010  25.962  35.134  1.00  0.00     0.037 A 
ATOM     59  C   UNL A   1      45.255  30.544  29.887  1.00  0.00     0.037 A 
ATOM     60  C   UNL A   1      46.421  27.309  35.432  1.00  0.00     0.049 A 
ATOM     61  C   UNL A   1      45.678  30.980  31.261  1.00  0.00     0.074 A 
ATOM     62  C   UNL A   1      46.973  27.802  36.601  1.00  0.00     0.029 A 
ATOM     63  N   UNL A   1      46.304  28.385  34.560  1.00  0.00    -0.354 N 
ATOM     64  N   UNL A   1      45.887  30.249  32.330  1.00  0.00    -0.248 NA
ATOM     65  C   UNL A   1      45.941  32.412  31.447  1.00  0.00     0.031 C 
ATOM     66  C   UNL A   1      47.125  29.186  36.461  1.00  0.00     0.029 A 
ATOM     67  C   UNL A   1      46.739  29.546  35.180  1.00  0.00     0.049 A 
ATOM     68  H   UNL A   1      45.962  28.330  33.640  1.00  0.00     0.167 HD
ATOM     69  C   UNL A   1      46.369  31.122  33.299  1.00  0.00     0.074 A 
ATOM     70  C   UNL A   1      46.404  32.437  32.689  1.00  0.00     0.031 C 
ATOM     71  C   UNL A   1      46.772  30.851  34.566  1.00  0.00     0.037 A 
BRANCH  58  72
ATOM     72  C   UNL A   1      46.108  24.916  36.211  1.00  0.00     0.058 A 
ATOM     73  C   UNL A   1      47.193  24.028  36.297  1.00  0.00     0.135 A 
ATOM     74  C   UNL A   1      45.086  24.793  37.167  1.00  0.00     0.135 A 
ATOM     75  F   UNL A   1      48.187  24.085  35.398  1.00  0.00    -0.206 F 
ATOM     76  C   UNL A   1      47.242  23.029  37.266  1.00  0.00     0.059 A 
ATOM     77  C   UNL A   1      45.131  23.825  38.164  1.00  0.00     0.059 A 
ATOM     78  F   UNL A   1      44.023  25.611  37.131  1.00  0.00    -0.206 F 
ATOM     79  C   UNL A   1      46.203  22.933  38.192  1.00  0.00     0.060 A 
BRANCH  79  80
ATOM     80  S   UNL A   1      46.265  21.618  39.427  1.00  0.00     0.124 S 
ATOM     81  O   UNL A   1      45.116  21.950  40.263  1.00  0.00    -0.237 OA
ATOM     82  O   UNL A   1      46.127  20.417  38.609  1.00  0.00    -0.237 OA
ATOM     83  O   UNL A   1      47.570  21.801  40.054  1.00  0.00    -0.744 OA
ENDBRANCH  79  80
ENDBRANCH  58  72
BRANCH  59  84
ATOM     84  C   UNL A   1      45.093  31.535  28.791  1.00  0.00     0.058 A 
ATOM     85  C   UNL A   1      43.912  32.276  28.649  1.00  0.00     0.135 A 
ATOM     86  C   UNL A   1      46.120  31.757  27.862  1.00  0.00     0.135 A 
ATOM     87  F   UNL A   1      42.891  32.076  29.496  1.00  0.00    -0.206 F 
ATOM     88  C   UNL A   1      43.757  33.210  27.630  1.00  0.00     0.059 A 
ATOM     89  C   UNL A   1      45.998  32.703  26.848  1.00  0.00     0.059 A 
ATOM     90  F   UNL A   1      47.259  31.054  27.934  1.00  0.00    -0.206 F 
ATOM     91  C   UNL A   1      44.811  33.426  26.741  1.00  0.00     0.060 A 
BRANCH  91  92
ATOM     92  S   UNL A   1      44.631  34.704  25.478  1.00  0.00     0.124 S 
ATOM     93  O   UNL A   1      43.194  34.690  25.242  1.00  0.00    -0.237 OA
ATOM     94  O   UNL A   1      45.157  35.883  26.162  1.00  0.00    -0.237 OA
ATOM     95  O   UNL A   1      45.459  34.210  24.380  1.00  0.00    -0.744 OA
ENDBRANCH  91  92
ENDBRANCH  59  84
BRANCH  71  96
ATOM     96  C   UNL A   1      47.359  31.988  35.358  1.00  0.00     0.058 A 
ATOM     97  C   UNL A   1      46.571  32.838  36.150  1.00  0.00     0.135 A 
ATOM     98  C   UNL A   1      48.744  32.222  35.326  1.00  0.00     0.135 A 
ATOM     99  F   UNL A   1      45.241  32.663  36.214  1.00  0.00    -0.206 F 
ATOM    100  C   UNL A   1      47.128  33.908  36.842  1.00  0.00     0.059 A 
ATOM    101  C   UNL A   1      49.328  33.262  36.042  1.00  0.00     0.059 A 
ATOM    102  F   UNL A   1      49.548  31.433  34.597  1.00  0.00    -0.206 F 
ATOM    103  C   UNL A   1      48.508  34.114  36.779  1.00  0.00     0.060 A 
BRANCH 103 104
ATOM    104  S   UNL A   1      49.219  35.508  37.678  1.00  0.00     0.124 S 
ATOM    105  O   UNL A   1      48.474  36.630  37.116  1.00  0.00    -0.237 OA
ATOM    106  O   UNL A   1      48.910  35.174  39.065  1.00  0.00    -0.237 OA
ATOM    107  O   UNL A   1      50.634  35.454  37.326  1.00  0.00    -0.744 OA
ENDBRANCH 103 104
ENDBRANCH  71  96
ENDBRANCH  45  46
ENDBRANCH  38  40
ENDBRANCH  37  38
ENDBRANCH  36  37
ENDBRANCH  35  36
ENDBRANCH  34  35
ENDBRANCH  33  34
ENDBRANCH  32  33
ENDBRANCH  31  32
ENDBRANCH   1  31
TORSDOF 27
ENDMDL
MODEL 3
REMARK VINA RESULT:      -7.8     11.547     17.455
REMARK SMILES CCC(=O)Nc1ccc(NC(=O)[C@@H]2CC=CC[C@@H]2C(=O)OCCOCCOCCOCCOC(=O)c2ccc(-c3c4nc(c(-c5c(F)cc(S(=O)(=O)[O-])cc5F)c5ccc([nH]5)c(-c5c(F)cc(S(=O)(=O)[O-])cc5F)c5nc(c(-c6c(F)cc(S(=O)(=O)[O-])cc6F)c6ccc3[nH]6)C=C5)C=C4)cc2)cc1
REMARK SMILES IDX 26 1 25 2 24 3 23 4 22 5 21 6 19 7 20 8 18 9 13 10 14 11
REMARK SMILES IDX 15 12 17 13 16 14 11 15 10 16 12 18 9 19 6 20 7 21 103 22
REMARK SMILES IDX 8 23 102 24 5 25 3 26 4 27 2 29 1 30 27 31 28 32 29 33 30 34
REMARK SMILES IDX 31 35 32 36 33 37 34 38 35 39 36 40 37 41 101 42 38 43
REMARK SMILES IDX 100 44 39 45 40 46 41 47 94 48 42 49 99 50 93 51 95 52 43 53
REMARK SMILES IDX 98 54 92 55 91 56 44 58 78 59 57 60 77 61 58 62 61 63 76 64
REMARK SMILES IDX 96 65 59 66 60 67 75 69 97 70 62 71 45 72 46 73 55 74 47 75
REMARK SMILES IDX 48 76 54 77 56 78 49 79 50 80 51 81 52 82 53 83 79 84 80 85
REMARK SMILES IDX 89 86 81 87 82 88 88 89 90 90 83 91 84 92 85 93 86 94 87 95
REMARK SMILES IDX 63 96 64 97 73 98 65 99 66 100 72 101 74 102 67 103 68 104
REMARK SMILES IDX 69 105 70 106 71 107
REMARK H PARENT 10 17 5 28 95 57 61 68
REMARK Flexibility Score: inf
ROOT
ATOM      1  C   UNL A   1      41.373  21.658  26.003  1.00  0.00     0.188 C 
ENDROOT
BRANCH   1   2
ATOM      2  C   UNL A   1      39.924  21.174  26.242  1.00  0.00     0.188 C 
BRANCH   2   3
ATOM      3  O   UNL A   1      38.866  21.551  25.370  1.00  0.00    -0.376 OA
BRANCH   3   4
ATOM      4  C   UNL A   1      37.745  22.243  25.889  1.00  0.00     0.202 C 
BRANCH   4   5
ATOM      5  C   UNL A   1      37.183  23.466  25.147  1.00  0.00     0.261 C 
BRANCH   5   6
ATOM      6  O   UNL A   1      36.177  23.243  24.140  1.00  0.00    -0.463 OA
BRANCH   6   7
ATOM      7  C   UNL A   1      34.934  23.722  24.397  1.00  0.00     0.310 C 
ATOM      8  O   UNL A   1      34.705  24.855  24.805  1.00  0.00    -0.252 OA
BRANCH   7   9
ATOM      9  C   UNL A   1      33.814  22.728  24.084  1.00  0.00     0.116 C 
ATOM     10  C   UNL A   1      32.587  23.299  23.333  1.00  0.00     0.097 C 
ATOM     11  C   UNL A   1      31.473  23.753  24.265  1.00  0.00     0.041 C 
ATOM     12  C   UNL A   1      31.157  22.770  25.353  1.00  0.00    -0.030 C 
ATOM     13  C   UNL A   1      33.459  21.800  25.267  1.00  0.00     0.043 C 
ATOM     14  C   UNL A   1      32.056  21.888  25.800  1.00  0.00    -0.030 C 
BRANCH  10  15
ATOM     15  C   UNL A   1      33.077  24.137  22.139  1.00  0.00     0.228 C 
ATOM     16  N   UNL A   1      33.162  25.485  22.039  1.00  0.00    -0.326 N 
ATOM     17  H   UNL A   1      33.876  25.763  21.421  1.00  0.00     0.169 HD
ATOM     18  O   UNL A   1      33.653  23.514  21.228  1.00  0.00    -0.274 OA
BRANCH  16  19
ATOM     19  C   UNL A   1      32.492  26.582  22.590  1.00  0.00     0.041 A 
ATOM     20  C   UNL A   1      31.265  28.893  23.566  1.00  0.00     0.041 A 
ATOM     21  C   UNL A   1      30.503  27.767  23.290  1.00  0.00     0.028 A 
ATOM     22  C   UNL A   1      32.642  28.875  23.396  1.00  0.00     0.028 A 
ATOM     23  C   UNL A   1      31.115  26.648  22.739  1.00  0.00     0.028 A 
ATOM     24  C   UNL A   1      33.251  27.723  22.890  1.00  0.00     0.028 A 
BRANCH  20  25
ATOM     25  N   UNL A   1      30.583  30.052  23.935  1.00  0.00    -0.326 N 
ATOM     26  C   UNL A   1      29.503  30.518  23.228  1.00  0.00     0.224 C 
ATOM     27  O   UNL A   1      28.550  30.958  23.875  1.00  0.00    -0.275 OA
ATOM     28  H   UNL A   1      30.886  30.553  24.726  1.00  0.00     0.169 HD
BRANCH  26  29
ATOM     29  C   UNL A   1      29.421  30.364  21.722  1.00  0.00     0.097 C 
ATOM     30  C   UNL A   1      28.022  30.398  21.139  1.00  0.00     0.014 C 
ENDBRANCH  26  29
ENDBRANCH  20  25
ENDBRANCH  16  19
ENDBRANCH  10  15
ENDBRANCH   7   9
ENDBRANCH   6   7
ENDBRANCH   5   6
ENDBRANCH   4   5
ENDBRANCH   3   4
ENDBRANCH   2   3
ENDBRANCH   1   2
BRANCH   1  31
ATOM     31  O   UNL A   1      41.820  22.688  26.866  1.00  0.00    -0.377 OA
BRANCH  31  32
ATOM     32  C   UNL A   1      40.822  23.598  27.309  1.00  0.00     0.188 C 
BRANCH  32  33
ATOM     33  C   UNL A   1      41.323  24.856  28.042  1.00  0.00     0.188 C 
BRANCH  33  34
ATOM     34  O   UNL A   1      41.643  25.928  27.163  1.00  0.00    -0.376 OA
BRANCH  34  35
ATOM     35  C   UNL A   1      42.367  25.668  25.973  1.00  0.00     0.202 C 
BRANCH  35  36
ATOM     36  C   UNL A   1      43.323  26.763  25.468  1.00  0.00     0.261 C 
BRANCH  36  37
ATOM     37  O   UNL A   1      44.603  26.319  24.999  1.00  0.00    -0.460 OA
BRANCH  37  38
ATOM     38  C   UNL A   1      45.641  27.159  25.189  1.00  0.00     0.338 C 
ATOM     39  O   UNL A   1      45.874  28.182  24.561  1.00  0.00    -0.246 OA
BRANCH  38  40
ATOM     40  C   UNL A   1      46.341  26.769  26.429  1.00  0.00     0.060 A 
ATOM     41  C   UNL A   1      46.740  27.784  27.307  1.00  0.00     0.016 A 
ATOM     42  C   UNL A   1      46.625  25.430  26.717  1.00  0.00     0.016 A 
ATOM     43  C   UNL A   1      47.494  27.475  28.435  1.00  0.00     0.010 A 
ATOM     44  C   UNL A   1      47.401  25.123  27.841  1.00  0.00     0.010 A 
ATOM     45  C   UNL A   1      47.890  26.153  28.667  1.00  0.00    -0.014 A 
BRANCH  45  46
ATOM     46  C   UNL A   1      49.025  25.912  29.593  1.00  0.00     0.031 A 
ATOM     47  C   UNL A   1      50.421  26.101  29.061  1.00  0.00     0.074 A 
ATOM     48  C   UNL A   1      48.836  25.642  30.896  1.00  0.00     0.049 A 
ATOM     49  N   UNL A   1      51.565  26.007  29.685  1.00  0.00    -0.248 NA
ATOM     50  C   UNL A   1      50.540  26.476  27.642  1.00  0.00     0.031 C 
ATOM     51  C   UNL A   1      47.540  25.560  31.560  1.00  0.00     0.029 A 
ATOM     52  N   UNL A   1      49.741  25.382  31.895  1.00  0.00    -0.354 N 
ATOM     53  C   UNL A   1      52.534  26.327  28.743  1.00  0.00     0.074 A 
ATOM     54  C   UNL A   1      51.851  26.559  27.490  1.00  0.00     0.031 C 
ATOM     55  C   UNL A   1      47.727  25.208  32.844  1.00  0.00     0.029 A 
ATOM     56  C   UNL A   1      49.155  25.040  33.090  1.00  0.00     0.049 A 
ATOM     57  H   UNL A   1      50.716  25.436  31.767  1.00  0.00     0.167 HD
ATOM     58  C   UNL A   1      53.872  26.447  28.913  1.00  0.00     0.037 A 
ATOM     59  C   UNL A   1      49.708  24.629  34.247  1.00  0.00     0.037 A 
ATOM     60  C   UNL A   1      54.545  26.207  30.162  1.00  0.00     0.049 A 
ATOM     61  C   UNL A   1      51.204  24.622  34.375  1.00  0.00     0.074 A 
ATOM     62  C   UNL A   1      55.893  26.323  30.449  1.00  0.00     0.029 A 
ATOM     63  N   UNL A   1      53.923  25.781  31.329  1.00  0.00    -0.354 N 
ATOM     64  N   UNL A   1      52.110  24.957  33.488  1.00  0.00    -0.248 NA
ATOM     65  C   UNL A   1      51.752  24.231  35.680  1.00  0.00     0.031 C 
ATOM     66  C   UNL A   1      56.095  25.900  31.768  1.00  0.00     0.029 A 
ATOM     67  C   UNL A   1      54.865  25.593  32.327  1.00  0.00     0.049 A 
ATOM     68  H   UNL A   1      52.955  25.634  31.430  1.00  0.00     0.167 HD
ATOM     69  C   UNL A   1      53.333  24.880  34.145  1.00  0.00     0.074 A 
ATOM     70  C   UNL A   1      53.047  24.451  35.500  1.00  0.00     0.031 C 
ATOM     71  C   UNL A   1      54.573  25.167  33.675  1.00  0.00     0.037 A 
BRANCH  58  72
ATOM     72  C   UNL A   1      54.689  26.813  27.704  1.00  0.00     0.058 A 
ATOM     73  C   UNL A   1      55.242  25.843  26.850  1.00  0.00     0.135 A 
ATOM     74  C   UNL A   1      54.935  28.163  27.402  1.00  0.00     0.135 A 
ATOM     75  F   UNL A   1      55.059  24.538  27.101  1.00  0.00    -0.206 F 
ATOM     76  C   UNL A   1      56.042  26.197  25.768  1.00  0.00     0.059 A 
ATOM     77  C   UNL A   1      55.703  28.539  26.306  1.00  0.00     0.059 A 
ATOM     78  F   UNL A   1      54.436  29.132  28.185  1.00  0.00    -0.206 F 
ATOM     79  C   UNL A   1      56.271  27.548  25.507  1.00  0.00     0.060 A 
BRANCH  79  80
ATOM     80  S   UNL A   1      57.331  27.993  24.116  1.00  0.00     0.124 S 
ATOM     81  O   UNL A   1      58.244  26.856  24.072  1.00  0.00    -0.237 OA
ATOM     82  O   UNL A   1      56.378  28.084  23.014  1.00  0.00    -0.237 OA
ATOM     83  O   UNL A   1      57.927  29.258  24.533  1.00  0.00    -0.744 OA
ENDBRANCH  79  80
ENDBRANCH  58  72
BRANCH  59  84
ATOM     84  C   UNL A   1      48.844  24.232  35.388  1.00  0.00     0.058 A 
ATOM     85  C   UNL A   1      48.228  22.973  35.431  1.00  0.00     0.135 A 
ATOM     86  C   UNL A   1      48.617  25.106  36.461  1.00  0.00     0.135 A 
ATOM     87  F   UNL A   1      48.391  22.114  34.414  1.00  0.00    -0.206 F 
ATOM     88  C   UNL A   1      47.424  22.591  36.500  1.00  0.00     0.059 A 
ATOM     89  C   UNL A   1      47.837  24.739  37.553  1.00  0.00     0.059 A 
ATOM     90  F   UNL A   1      49.159  26.333  36.456  1.00  0.00    -0.206 F 
ATOM     91  C   UNL A   1      47.245  23.477  37.564  1.00  0.00     0.060 A 
BRANCH  91  92
ATOM     92  S   UNL A   1      46.274  22.937  38.987  1.00  0.00     0.124 S 
ATOM     93  O   UNL A   1      45.285  24.002  39.095  1.00  0.00    -0.237 OA
ATOM     94  O   UNL A   1      45.773  21.641  38.538  1.00  0.00    -0.237 OA
ATOM     95  O   UNL A   1      47.260  22.876  40.063  1.00  0.00    -0.744 OA
ENDBRANCH  91  92
ENDBRANCH  59  84
BRANCH  71  96
ATOM     96  C   UNL A   1      55.712  25.100  34.656  1.00  0.00     0.058 A 
ATOM     97  C   UNL A   1      56.423  23.914  34.901  1.00  0.00     0.135 A 
ATOM     98  C   UNL A   1      56.102  26.254  35.356  1.00  0.00     0.135 A 
ATOM     99  F   UNL A   1      56.091  22.781  34.263  1.00  0.00    -0.206 F 
ATOM    100  C   UNL A   1      57.447  23.865  35.842  1.00  0.00     0.059 A 
ATOM    101  C   UNL A   1      57.149  26.235  36.273  1.00  0.00     0.059 A 
ATOM    102  F   UNL A   1      55.467  27.418  35.151  1.00  0.00    -0.206 F 
ATOM    103  C   UNL A   1      57.800  25.030  36.525  1.00  0.00     0.060 A 
BRANCH 103 104
ATOM    104  S   UNL A   1      59.127  24.951  37.746  1.00  0.00     0.124 S 
ATOM    105  O   UNL A   1      58.458  25.460  38.939  1.00  0.00    -0.237 OA
ATOM    106  O   UNL A   1      59.453  23.529  37.760  1.00  0.00    -0.237 OA
ATOM    107  O   UNL A   1      60.157  25.820  37.185  1.00  0.00    -0.744 OA
ENDBRANCH 103 104
ENDBRANCH  71  96
ENDBRANCH  45  46
ENDBRANCH  38  40
ENDBRANCH  37  38
ENDBRANCH  36  37
ENDBRANCH  35  36
ENDBRANCH  34  35
ENDBRANCH  33  34
ENDBRANCH  32  33
ENDBRANCH  31  32
ENDBRANCH   1  31
TORSDOF 27
ENDMDL
