MODEL 1
REMARK VINA RESULT:      -7.9      0.000      0.000
REMARK SMILES C[C@H]1CCC(F)(F)[C@@H]1C(=O)OCCOCCOCCOCCOC(=O)c1ccc(-c2c3nc(c(-c4c(F)cc(S(=O)(=O)[O-])cc4F)c4ccc([nH]4)c(-c4c(F)cc(S(=O)(=O)[O-])cc4F)c4nc(c(-c5c(F)cc(S(=O)(=O)[O-])cc5F)c5ccc2[nH]5)C=C4)C=C3)cc1
REMARK SMILES IDX 18 1 17 2 16 3 15 4 14 5 13 6 12 7 11 8 9 9 10 10 8 11 1 12
REMARK SMILES IDX 2 13 3 14 4 15 5 16 6 17 7 18 19 19 20 20 21 21 22 22 23 23
REMARK SMILES IDX 24 24 25 25 26 26 27 27 91 28 28 29 90 30 29 31 30 32 31 33
REMARK SMILES IDX 84 34 32 35 89 36 83 37 85 38 33 39 88 40 82 41 81 42 34 44
REMARK SMILES IDX 68 45 47 46 67 47 48 48 51 49 66 50 86 51 49 52 50 53 65 55
REMARK SMILES IDX 87 56 52 57 35 58 36 59 45 60 37 61 38 62 44 63 46 64 39 65
REMARK SMILES IDX 40 66 41 67 42 68 43 69 69 70 70 71 79 72 71 73 72 74 78 75
REMARK SMILES IDX 80 76 73 77 74 78 75 79 76 80 77 81 53 82 54 83 63 84 55 85
REMARK SMILES IDX 56 86 62 87 64 88 57 89 58 90 59 91 60 92 61 93
REMARK H PARENT 85 43 51 54
REMARK Flexibility Score: inf
ROOT
ATOM      1  C   UNL A   1      34.357  33.783  33.470  1.00  0.00     0.188 C 
ENDROOT
BRANCH   1   2
ATOM      2  O   UNL A   1      35.304  33.246  34.389  1.00  0.00    -0.377 OA
BRANCH   2   3
ATOM      3  C   UNL A   1      36.677  33.380  34.078  1.00  0.00     0.188 C 
BRANCH   3   4
ATOM      4  C   UNL A   1      37.488  34.060  35.194  1.00  0.00     0.188 C 
BRANCH   4   5
ATOM      5  O   UNL A   1      37.802  33.252  36.310  1.00  0.00    -0.376 OA
BRANCH   5   6
ATOM      6  C   UNL A   1      38.675  32.134  36.233  1.00  0.00     0.202 C 
BRANCH   6   7
ATOM      7  C   UNL A   1      39.855  31.938  35.258  1.00  0.00     0.261 C 
BRANCH   7   8
ATOM      8  O   UNL A   1      40.472  30.657  35.212  1.00  0.00    -0.463 OA
BRANCH   8   9
ATOM      9  C   UNL A   1      40.503  30.028  34.019  1.00  0.00     0.315 C 
ATOM     10  O   UNL A   1      39.582  30.006  33.214  1.00  0.00    -0.252 OA
BRANCH   9  11
ATOM     11  C   UNL A   1      41.889  29.481  33.768  1.00  0.00     0.172 C 
ATOM     12  C   UNL A   1      43.035  27.702  32.323  1.00  0.00     0.009 C 
ATOM     13  C   UNL A   1      41.816  28.063  33.173  1.00  0.00     0.006 C 
ATOM     14  C   UNL A   1      41.681  27.150  34.405  1.00  0.00     0.010 C 
ATOM     15  C   UNL A   1      42.042  27.994  35.635  1.00  0.00     0.078 C 
ATOM     16  C   UNL A   1      42.596  29.285  35.076  1.00  0.00     0.261 C 
ATOM     17  F   UNL A   1      42.457  30.322  35.917  1.00  0.00    -0.206 F 
ATOM     18  F   UNL A   1      43.927  29.138  34.848  1.00  0.00    -0.206 F 
ENDBRANCH   9  11
ENDBRANCH   8   9
ENDBRANCH   7   8
ENDBRANCH   6   7
ENDBRANCH   5   6
ENDBRANCH   4   5
ENDBRANCH   3   4
ENDBRANCH   2   3
ENDBRANCH   1   2
BRANCH   1  19
ATOM     19  C   UNL A   1      34.625  33.776  31.945  1.00  0.00     0.188 C 
BRANCH  19  20
ATOM     20  O   UNL A   1      33.799  34.654  31.191  1.00  0.00    -0.376 OA
BRANCH  20  21
ATOM     21  C   UNL A   1      33.709  34.461  29.789  1.00  0.00     0.202 C 
BRANCH  21  22
ATOM     22  C   UNL A   1      34.693  33.461  29.163  1.00  0.00     0.261 C 
BRANCH  22  23
ATOM     23  O   UNL A   1      34.461  32.077  29.461  1.00  0.00    -0.460 OA
BRANCH  23  24
ATOM     24  C   UNL A   1      34.581  31.194  28.447  1.00  0.00     0.338 C 
ATOM     25  O   UNL A   1      33.840  31.079  27.485  1.00  0.00    -0.246 OA
BRANCH  24  26
ATOM     26  C   UNL A   1      35.885  30.515  28.593  1.00  0.00     0.060 A 
ATOM     27  C   UNL A   1      36.355  30.211  29.878  1.00  0.00     0.016 A 
ATOM     28  C   UNL A   1      36.632  30.167  27.465  1.00  0.00     0.016 A 
ATOM     29  C   UNL A   1      37.595  29.594  30.040  1.00  0.00     0.010 A 
ATOM     30  C   UNL A   1      37.885  29.570  27.630  1.00  0.00     0.010 A 
ATOM     31  C   UNL A   1      38.387  29.314  28.919  1.00  0.00    -0.014 A 
BRANCH  31  32
ATOM     32  C   UNL A   1      39.816  28.958  29.092  1.00  0.00     0.031 A 
ATOM     33  C   UNL A   1      40.752  30.017  29.609  1.00  0.00     0.074 A 
ATOM     34  C   UNL A   1      40.274  27.725  28.812  1.00  0.00     0.049 A 
ATOM     35  N   UNL A   1      42.048  29.972  29.776  1.00  0.00    -0.248 NA
ATOM     36  C   UNL A   1      40.141  31.303  29.983  1.00  0.00     0.031 C 
ATOM     37  C   UNL A   1      39.459  26.603  28.348  1.00  0.00     0.029 A 
ATOM     38  N   UNL A   1      41.548  27.217  28.862  1.00  0.00    -0.354 N 
ATOM     39  C   UNL A   1      42.407  31.224  30.261  1.00  0.00     0.074 A 
ATOM     40  C   UNL A   1      41.199  32.016  30.334  1.00  0.00     0.031 C 
ATOM     41  C   UNL A   1      40.257  25.541  28.141  1.00  0.00     0.029 A 
ATOM     42  C   UNL A   1      41.643  25.918  28.421  1.00  0.00     0.049 A 
ATOM     43  H   UNL A   1      42.322  27.733  29.187  1.00  0.00     0.167 HD
ATOM     44  C   UNL A   1      43.634  31.671  30.620  1.00  0.00     0.037 A 
ATOM     45  C   UNL A   1      42.727  25.138  28.236  1.00  0.00     0.037 A 
ATOM     46  C   UNL A   1      44.833  30.878  30.541  1.00  0.00     0.049 A 
ATOM     47  C   UNL A   1      44.094  25.680  28.570  1.00  0.00     0.074 A 
ATOM     48  C   UNL A   1      46.122  31.231  30.896  1.00  0.00     0.029 A 
ATOM     49  N   UNL A   1      44.891  29.576  30.064  1.00  0.00    -0.354 N 
ATOM     50  N   UNL A   1      44.421  26.858  29.050  1.00  0.00    -0.248 NA
ATOM     51  C   UNL A   1      45.240  24.790  28.340  1.00  0.00     0.031 C 
ATOM     52  C   UNL A   1      46.969  30.166  30.576  1.00  0.00     0.029 A 
ATOM     53  C   UNL A   1      46.200  29.122  30.088  1.00  0.00     0.049 A 
ATOM     54  H   UNL A   1      44.117  29.052  29.755  1.00  0.00     0.167 HD
ATOM     55  C   UNL A   1      45.805  26.836  29.210  1.00  0.00     0.074 A 
ATOM     56  C   UNL A   1      46.250  25.525  28.784  1.00  0.00     0.031 C 
ATOM     57  C   UNL A   1      46.629  27.810  29.671  1.00  0.00     0.037 A 
BRANCH  44  58
ATOM     58  C   UNL A   1      43.746  33.093  31.098  1.00  0.00     0.058 A 
ATOM     59  C   UNL A   1      43.432  33.462  32.417  1.00  0.00     0.135 A 
ATOM     60  C   UNL A   1      44.201  34.100  30.230  1.00  0.00     0.135 A 
ATOM     61  F   UNL A   1      42.972  32.546  33.284  1.00  0.00    -0.206 F 
ATOM     62  C   UNL A   1      43.541  34.779  32.850  1.00  0.00     0.059 A 
ATOM     63  C   UNL A   1      44.347  35.418  30.649  1.00  0.00     0.059 A 
ATOM     64  F   UNL A   1      44.510  33.805  28.957  1.00  0.00    -0.206 F 
ATOM     65  C   UNL A   1      44.002  35.751  31.958  1.00  0.00     0.060 A 
BRANCH  65  66
ATOM     66  S   UNL A   1      44.142  37.454  32.538  1.00  0.00     0.124 S 
ATOM     67  O   UNL A   1      43.266  37.438  33.705  1.00  0.00    -0.237 OA
ATOM     68  O   UNL A   1      45.569  37.570  32.818  1.00  0.00    -0.237 OA
ATOM     69  O   UNL A   1      43.662  38.240  31.406  1.00  0.00    -0.744 OA
ENDBRANCH  65  66
ENDBRANCH  44  58
BRANCH  45  70
ATOM     70  C   UNL A   1      42.569  23.760  27.693  1.00  0.00     0.058 A 
ATOM     71  C   UNL A   1      42.607  22.638  28.533  1.00  0.00     0.135 A 
ATOM     72  C   UNL A   1      42.382  23.537  26.319  1.00  0.00     0.135 A 
ATOM     73  F   UNL A   1      42.799  22.795  29.853  1.00  0.00    -0.206 F 
ATOM     74  C   UNL A   1      42.479  21.345  28.034  1.00  0.00     0.059 A 
ATOM     75  C   UNL A   1      42.222  22.255  25.799  1.00  0.00     0.059 A 
ATOM     76  F   UNL A   1      42.333  24.574  25.470  1.00  0.00    -0.206 F 
ATOM     77  C   UNL A   1      42.281  21.165  26.664  1.00  0.00     0.060 A 
BRANCH  77  78
ATOM     78  S   UNL A   1      42.063  19.485  26.036  1.00  0.00     0.124 S 
ATOM     79  O   UNL A   1      40.642  19.476  25.708  1.00  0.00    -0.237 OA
ATOM     80  O   UNL A   1      42.980  19.465  24.901  1.00  0.00    -0.237 OA
ATOM     81  O   UNL A   1      42.455  18.650  27.166  1.00  0.00    -0.744 OA
ENDBRANCH  77  78
ENDBRANCH  45  70
BRANCH  57  82
ATOM     82  C   UNL A   1      48.097  27.489  29.789  1.00  0.00     0.058 A 
ATOM     83  C   UNL A   1      49.009  27.795  28.766  1.00  0.00     0.135 A 
ATOM     84  C   UNL A   1      48.606  26.928  30.973  1.00  0.00     0.135 A 
ATOM     85  F   UNL A   1      48.578  28.328  27.613  1.00  0.00    -0.206 F 
ATOM     86  C   UNL A   1      50.370  27.534  28.904  1.00  0.00     0.059 A 
ATOM     87  C   UNL A   1      49.965  26.690  31.144  1.00  0.00     0.059 A 
ATOM     88  F   UNL A   1      47.780  26.628  31.988  1.00  0.00    -0.206 F 
ATOM     89  C   UNL A   1      50.838  26.985  30.100  1.00  0.00     0.060 A 
BRANCH  89  90
ATOM     90  S   UNL A   1      52.611  26.689  30.279  1.00  0.00     0.124 S 
ATOM     91  O   UNL A   1      53.122  28.045  30.441  1.00  0.00    -0.237 OA
ATOM     92  O   UNL A   1      52.667  25.843  31.467  1.00  0.00    -0.237 OA
ATOM     93  O   UNL A   1      52.974  26.027  29.029  1.00  0.00    -0.744 OA
ENDBRANCH  89  90
ENDBRANCH  57  82
ENDBRANCH  31  32
ENDBRANCH  24  26
ENDBRANCH  23  24
ENDBRANCH  22  23
ENDBRANCH  21  22
ENDBRANCH  20  21
ENDBRANCH  19  20
ENDBRANCH   1  19
TORSDOF 23
ENDMDL
MODEL 2
REMARK VINA RESULT:      -7.9      4.819      8.764
REMARK SMILES C[C@H]1CCC(F)(F)[C@@H]1C(=O)OCCOCCOCCOCCOC(=O)c1ccc(-c2c3nc(c(-c4c(F)cc(S(=O)(=O)[O-])cc4F)c4ccc([nH]4)c(-c4c(F)cc(S(=O)(=O)[O-])cc4F)c4nc(c(-c5c(F)cc(S(=O)(=O)[O-])cc5F)c5ccc2[nH]5)C=C4)C=C3)cc1
REMARK SMILES IDX 18 1 17 2 16 3 15 4 14 5 13 6 12 7 11 8 9 9 10 10 8 11 1 12
REMARK SMILES IDX 2 13 3 14 4 15 5 16 6 17 7 18 19 19 20 20 21 21 22 22 23 23
REMARK SMILES IDX 24 24 25 25 26 26 27 27 91 28 28 29 90 30 29 31 30 32 31 33
REMARK SMILES IDX 84 34 32 35 89 36 83 37 85 38 33 39 88 40 82 41 81 42 34 44
REMARK SMILES IDX 68 45 47 46 67 47 48 48 51 49 66 50 86 51 49 52 50 53 65 55
REMARK SMILES IDX 87 56 52 57 35 58 36 59 45 60 37 61 38 62 44 63 46 64 39 65
REMARK SMILES IDX 40 66 41 67 42 68 43 69 69 70 70 71 79 72 71 73 72 74 78 75
REMARK SMILES IDX 80 76 73 77 74 78 75 79 76 80 77 81 53 82 54 83 63 84 55 85
REMARK SMILES IDX 56 86 62 87 64 88 57 89 58 90 59 91 60 92 61 93
REMARK H PARENT 85 43 51 54
REMARK Flexibility Score: inf
ROOT
ATOM      1  C   UNL A   1      35.587  33.539  27.996  1.00  0.00     0.188 C 
ENDROOT
BRANCH   1   2
ATOM      2  O   UNL A   1      35.477  32.768  29.189  1.00  0.00    -0.377 OA
BRANCH   2   3
ATOM      3  C   UNL A   1      34.753  31.555  29.128  1.00  0.00     0.188 C 
BRANCH   3   4
ATOM      4  C   UNL A   1      35.174  30.656  27.953  1.00  0.00     0.188 C 
BRANCH   4   5
ATOM      5  O   UNL A   1      34.692  29.327  27.988  1.00  0.00    -0.376 OA
BRANCH   5   6
ATOM      6  C   UNL A   1      34.495  28.546  26.818  1.00  0.00     0.202 C 
BRANCH   6   7
ATOM      7  C   UNL A   1      33.839  28.998  25.496  1.00  0.00     0.261 C 
BRANCH   7   8
ATOM      8  O   UNL A   1      33.620  28.013  24.493  1.00  0.00    -0.463 OA
BRANCH   8   9
ATOM      9  C   UNL A   1      32.581  27.171  24.670  1.00  0.00     0.315 C 
ATOM     10  O   UNL A   1      32.411  26.465  25.654  1.00  0.00    -0.252 OA
BRANCH   9  11
ATOM     11  C   UNL A   1      31.592  27.340  23.540  1.00  0.00     0.172 C 
ATOM     12  C   UNL A   1      29.097  27.816  23.207  1.00  0.00     0.009 C 
ATOM     13  C   UNL A   1      30.156  27.081  24.029  1.00  0.00     0.006 C 
ATOM     14  C   UNL A   1      30.001  25.552  23.934  1.00  0.00     0.010 C 
ATOM     15  C   UNL A   1      31.164  25.033  23.077  1.00  0.00     0.078 C 
ATOM     16  C   UNL A   1      31.819  26.272  22.511  1.00  0.00     0.261 C 
ATOM     17  F   UNL A   1      33.114  26.090  22.209  1.00  0.00    -0.206 F 
ATOM     18  F   UNL A   1      31.191  26.622  21.357  1.00  0.00    -0.206 F 
ENDBRANCH   9  11
ENDBRANCH   8   9
ENDBRANCH   7   8
ENDBRANCH   6   7
ENDBRANCH   5   6
ENDBRANCH   4   5
ENDBRANCH   3   4
ENDBRANCH   2   3
ENDBRANCH   1   2
BRANCH   1  19
ATOM     19  C   UNL A   1      34.758  34.832  27.797  1.00  0.00     0.188 C 
BRANCH  19  20
ATOM     20  O   UNL A   1      33.814  35.098  28.826  1.00  0.00    -0.376 OA
BRANCH  20  21
ATOM     21  C   UNL A   1      33.379  36.435  29.017  1.00  0.00     0.202 C 
BRANCH  21  22
ATOM     22  C   UNL A   1      32.519  36.712  30.259  1.00  0.00     0.261 C 
BRANCH  22  23
ATOM     23  O   UNL A   1      33.173  36.559  31.526  1.00  0.00    -0.460 OA
BRANCH  23  24
ATOM     24  C   UNL A   1      32.933  35.424  32.217  1.00  0.00     0.338 C 
ATOM     25  O   UNL A   1      31.845  34.996  32.568  1.00  0.00    -0.246 OA
BRANCH  24  26
ATOM     26  C   UNL A   1      34.202  34.674  32.306  1.00  0.00     0.060 A 
ATOM     27  C   UNL A   1      34.172  33.324  32.685  1.00  0.00     0.016 A 
ATOM     28  C   UNL A   1      35.415  35.296  32.001  1.00  0.00     0.016 A 
ATOM     29  C   UNL A   1      35.360  32.605  32.801  1.00  0.00     0.010 A 
ATOM     30  C   UNL A   1      36.607  34.579  32.140  1.00  0.00     0.010 A 
ATOM     31  C   UNL A   1      36.587  33.242  32.575  1.00  0.00    -0.014 A 
BRANCH  31  32
ATOM     32  C   UNL A   1      37.850  32.588  32.997  1.00  0.00     0.031 A 
ATOM     33  C   UNL A   1      38.351  32.850  34.392  1.00  0.00     0.074 A 
ATOM     34  C   UNL A   1      38.532  31.774  32.172  1.00  0.00     0.049 A 
ATOM     35  N   UNL A   1      39.457  32.456  34.965  1.00  0.00    -0.248 NA
ATOM     36  C   UNL A   1      37.486  33.673  35.254  1.00  0.00     0.031 C 
ATOM     37  C   UNL A   1      38.125  31.408  30.816  1.00  0.00     0.029 A 
ATOM     38  N   UNL A   1      39.724  31.118  32.355  1.00  0.00    -0.354 N 
ATOM     39  C   UNL A   1      39.427  32.992  36.248  1.00  0.00     0.074 A 
ATOM     40  C   UNL A   1      38.209  33.763  36.358  1.00  0.00     0.031 C 
ATOM     41  C   UNL A   1      39.063  30.605  30.282  1.00  0.00     0.029 A 
ATOM     42  C   UNL A   1      40.152  30.431  31.243  1.00  0.00     0.049 A 
ATOM     43  H   UNL A   1      40.225  31.137  33.203  1.00  0.00     0.167 HD
ATOM     44  C   UNL A   1      40.331  32.848  37.246  1.00  0.00     0.037 A 
ATOM     45  C   UNL A   1      41.303  29.765  31.021  1.00  0.00     0.037 A 
ATOM     46  C   UNL A   1      41.544  32.083  37.126  1.00  0.00     0.049 A 
ATOM     47  C   UNL A   1      42.332  29.680  32.121  1.00  0.00     0.074 A 
ATOM     48  C   UNL A   1      42.517  31.860  38.083  1.00  0.00     0.029 A 
ATOM     49  N   UNL A   1      41.954  31.422  35.976  1.00  0.00    -0.354 N 
ATOM     50  N   UNL A   1      42.284  30.172  33.337  1.00  0.00    -0.248 NA
ATOM     51  C   UNL A   1      43.572  28.951  31.820  1.00  0.00     0.031 C 
ATOM     52  C   UNL A   1      43.546  31.119  37.494  1.00  0.00     0.029 A 
ATOM     53  C   UNL A   1      43.182  30.817  36.191  1.00  0.00     0.049 A 
ATOM     54  H   UNL A   1      41.448  31.388  35.133  1.00  0.00     0.167 HD
ATOM     55  C   UNL A   1      43.470  29.782  33.956  1.00  0.00     0.074 A 
ATOM     56  C   UNL A   1      44.210  29.007  32.981  1.00  0.00     0.031 C 
ATOM     57  C   UNL A   1      43.904  30.038  35.215  1.00  0.00     0.037 A 
BRANCH  44  58
ATOM     58  C   UNL A   1      40.059  33.563  38.541  1.00  0.00     0.058 A 
ATOM     59  C   UNL A   1      40.718  34.756  38.886  1.00  0.00     0.135 A 
ATOM     60  C   UNL A   1      39.104  33.062  39.441  1.00  0.00     0.135 A 
ATOM     61  F   UNL A   1      41.656  35.268  38.073  1.00  0.00    -0.206 F 
ATOM     62  C   UNL A   1      40.459  35.410  40.085  1.00  0.00     0.059 A 
ATOM     63  C   UNL A   1      38.805  33.717  40.632  1.00  0.00     0.059 A 
ATOM     64  F   UNL A   1      38.448  31.924  39.166  1.00  0.00    -0.206 F 
ATOM     65  C   UNL A   1      39.498  34.884  40.951  1.00  0.00     0.060 A 
BRANCH  65  66
ATOM     66  S   UNL A   1      39.170  35.749  42.501  1.00  0.00     0.124 S 
ATOM     67  O   UNL A   1      39.429  37.135  42.121  1.00  0.00    -0.237 OA
ATOM     68  O   UNL A   1      37.773  35.413  42.754  1.00  0.00    -0.237 OA
ATOM     69  O   UNL A   1      40.132  35.164  43.429  1.00  0.00    -0.744 OA
ENDBRANCH  65  66
ENDBRANCH  44  58
BRANCH  45  70
ATOM     70  C   UNL A   1      41.555  29.134  29.696  1.00  0.00     0.058 A 
ATOM     71  C   UNL A   1      42.390  29.741  28.748  1.00  0.00     0.135 A 
ATOM     72  C   UNL A   1      40.959  27.911  29.348  1.00  0.00     0.135 A 
ATOM     73  F   UNL A   1      42.972  30.920  29.023  1.00  0.00    -0.206 F 
ATOM     74  C   UNL A   1      42.618  29.169  27.500  1.00  0.00     0.059 A 
ATOM     75  C   UNL A   1      41.194  27.303  28.118  1.00  0.00     0.059 A 
ATOM     76  F   UNL A   1      40.154  27.283  30.220  1.00  0.00    -0.206 F 
ATOM     77  C   UNL A   1      42.018  27.946  27.196  1.00  0.00     0.060 A 
BRANCH  77  78
ATOM     78  S   UNL A   1      42.364  27.187  25.594  1.00  0.00     0.124 S 
ATOM     79  O   UNL A   1      43.673  26.589  25.828  1.00  0.00    -0.237 OA
ATOM     80  O   UNL A   1      41.251  26.253  25.454  1.00  0.00    -0.237 OA
ATOM     81  O   UNL A   1      42.343  28.320  24.674  1.00  0.00    -0.744 OA
ENDBRANCH  77  78
ENDBRANCH  45  70
BRANCH  57  82
ATOM     82  C   UNL A   1      45.220  29.440  35.640  1.00  0.00     0.058 A 
ATOM     83  C   UNL A   1      46.427  30.148  35.534  1.00  0.00     0.135 A 
ATOM     84  C   UNL A   1      45.260  28.162  36.223  1.00  0.00     0.135 A 
ATOM     85  F   UNL A   1      46.448  31.370  34.981  1.00  0.00    -0.206 F 
ATOM     86  C   UNL A   1      47.631  29.601  35.971  1.00  0.00     0.059 A 
ATOM     87  C   UNL A   1      46.447  27.610  36.696  1.00  0.00     0.059 A 
ATOM     88  F   UNL A   1      44.133  27.446  36.361  1.00  0.00    -0.206 F 
ATOM     89  C   UNL A   1      47.629  28.333  36.555  1.00  0.00     0.060 A 
BRANCH  89  90
ATOM     90  S   UNL A   1      49.192  27.653  37.151  1.00  0.00     0.124 S 
ATOM     91  O   UNL A   1      49.919  28.863  37.519  1.00  0.00    -0.237 OA
ATOM     92  O   UNL A   1      48.761  26.809  38.261  1.00  0.00    -0.237 OA
ATOM     93  O   UNL A   1      49.715  26.935  35.993  1.00  0.00    -0.744 OA
ENDBRANCH  89  90
ENDBRANCH  57  82
ENDBRANCH  31  32
ENDBRANCH  24  26
ENDBRANCH  23  24
ENDBRANCH  22  23
ENDBRANCH  21  22
ENDBRANCH  20  21
ENDBRANCH  19  20
ENDBRANCH   1  19
TORSDOF 23
ENDMDL
MODEL 3
REMARK VINA RESULT:      -7.5      6.458     14.157
REMARK SMILES C[C@H]1CCC(F)(F)[C@@H]1C(=O)OCCOCCOCCOCCOC(=O)c1ccc(-c2c3nc(c(-c4c(F)cc(S(=O)(=O)[O-])cc4F)c4ccc([nH]4)c(-c4c(F)cc(S(=O)(=O)[O-])cc4F)c4nc(c(-c5c(F)cc(S(=O)(=O)[O-])cc5F)c5ccc2[nH]5)C=C4)C=C3)cc1
REMARK SMILES IDX 18 1 17 2 16 3 15 4 14 5 13 6 12 7 11 8 9 9 10 10 8 11 1 12
REMARK SMILES IDX 2 13 3 14 4 15 5 16 6 17 7 18 19 19 20 20 21 21 22 22 23 23
REMARK SMILES IDX 24 24 25 25 26 26 27 27 91 28 28 29 90 30 29 31 30 32 31 33
REMARK SMILES IDX 84 34 32 35 89 36 83 37 85 38 33 39 88 40 82 41 81 42 34 44
REMARK SMILES IDX 68 45 47 46 67 47 48 48 51 49 66 50 86 51 49 52 50 53 65 55
REMARK SMILES IDX 87 56 52 57 35 58 36 59 45 60 37 61 38 62 44 63 46 64 39 65
REMARK SMILES IDX 40 66 41 67 42 68 43 69 69 70 70 71 79 72 71 73 72 74 78 75
REMARK SMILES IDX 80 76 73 77 74 78 75 79 76 80 77 81 53 82 54 83 63 84 55 85
REMARK SMILES IDX 56 86 62 87 64 88 57 89 58 90 59 91 60 92 61 93
REMARK H PARENT 85 43 51 54
REMARK Flexibility Score: inf
ROOT
ATOM      1  C   UNL A   1      44.338  23.335  35.329  1.00  0.00     0.188 C 
ENDROOT
BRANCH   1   2
ATOM      2  O   UNL A   1      44.687  21.960  35.193  1.00  0.00    -0.377 OA
BRANCH   2   3
ATOM      3  C   UNL A   1      45.654  21.433  36.080  1.00  0.00     0.188 C 
BRANCH   3   4
ATOM      4  C   UNL A   1      45.863  19.917  35.918  1.00  0.00     0.188 C 
BRANCH   4   5
ATOM      5  O   UNL A   1      46.341  19.234  37.058  1.00  0.00    -0.376 OA
BRANCH   5   6
ATOM      6  C   UNL A   1      46.851  19.903  38.203  1.00  0.00     0.202 C 
BRANCH   6   7
ATOM      7  C   UNL A   1      47.336  19.260  39.519  1.00  0.00     0.261 C 
BRANCH   7   8
ATOM      8  O   UNL A   1      47.399  17.840  39.580  1.00  0.00    -0.463 OA
BRANCH   8   9
ATOM      9  C   UNL A   1      46.408  17.204  40.238  1.00  0.00     0.315 C 
ATOM     10  O   UNL A   1      45.777  16.251  39.804  1.00  0.00    -0.252 OA
BRANCH   9  11
ATOM     11  C   UNL A   1      46.295  17.755  41.641  1.00  0.00     0.172 C 
ATOM     12  C   UNL A   1      47.681  17.869  43.792  1.00  0.00     0.009 C 
ATOM     13  C   UNL A   1      47.254  17.021  42.594  1.00  0.00     0.006 C 
ATOM     14  C   UNL A   1      46.465  15.770  43.024  1.00  0.00     0.010 C 
ATOM     15  C   UNL A   1      45.001  16.000  42.624  1.00  0.00     0.078 C 
ATOM     16  C   UNL A   1      44.935  17.448  42.193  1.00  0.00     0.261 C 
ATOM     17  F   UNL A   1      43.940  17.691  41.325  1.00  0.00    -0.206 F 
ATOM     18  F   UNL A   1      44.707  18.228  43.282  1.00  0.00    -0.206 F 
ENDBRANCH   9  11
ENDBRANCH   8   9
ENDBRANCH   7   8
ENDBRANCH   6   7
ENDBRANCH   5   6
ENDBRANCH   4   5
ENDBRANCH   3   4
ENDBRANCH   2   3
ENDBRANCH   1   2
BRANCH   1  19
ATOM     19  C   UNL A   1      44.916  24.408  34.373  1.00  0.00     0.188 C 
BRANCH  19  20
ATOM     20  O   UNL A   1      46.144  24.053  33.752  1.00  0.00    -0.376 OA
BRANCH  20  21
ATOM     21  C   UNL A   1      47.266  24.901  33.938  1.00  0.00     0.202 C 
BRANCH  21  22
ATOM     22  C   UNL A   1      48.036  24.752  35.258  1.00  0.00     0.261 C 
BRANCH  22  23
ATOM     23  O   UNL A   1      47.443  25.374  36.407  1.00  0.00    -0.460 OA
BRANCH  23  24
ATOM     24  C   UNL A   1      47.773  26.659  36.658  1.00  0.00     0.338 C 
ATOM     25  O   UNL A   1      48.875  27.088  36.956  1.00  0.00    -0.246 OA
BRANCH  24  26
ATOM     26  C   UNL A   1      46.608  27.499  36.311  1.00  0.00     0.060 A 
ATOM     27  C   UNL A   1      45.339  27.132  36.782  1.00  0.00     0.016 A 
ATOM     28  C   UNL A   1      46.769  28.651  35.538  1.00  0.00     0.016 A 
ATOM     29  C   UNL A   1      44.222  27.895  36.446  1.00  0.00     0.010 A 
ATOM     30  C   UNL A   1      45.645  29.401  35.183  1.00  0.00     0.010 A 
ATOM     31  C   UNL A   1      44.363  29.006  35.605  1.00  0.00    -0.014 A 
BRANCH  31  32
ATOM     32  C   UNL A   1      43.164  29.627  34.991  1.00  0.00     0.031 A 
ATOM     33  C   UNL A   1      42.726  29.135  33.637  1.00  0.00     0.074 A 
ATOM     34  C   UNL A   1      42.472  30.595  35.618  1.00  0.00     0.049 A 
ATOM     35  N   UNL A   1      41.762  29.566  32.868  1.00  0.00    -0.248 NA
ATOM     36  C   UNL A   1      43.486  28.006  33.075  1.00  0.00     0.031 C 
ATOM     37  C   UNL A   1      42.770  31.123  36.948  1.00  0.00     0.029 A 
ATOM     38  N   UNL A   1      41.379  31.316  35.206  1.00  0.00    -0.354 N 
ATOM     39  C   UNL A   1      41.806  28.771  31.729  1.00  0.00     0.074 A 
ATOM     40  C   UNL A   1      42.911  27.852  31.894  1.00  0.00     0.031 C 
ATOM     41  C   UNL A   1      41.890  32.098  37.237  1.00  0.00     0.029 A 
ATOM     42  C   UNL A   1      40.991  32.288  36.098  1.00  0.00     0.049 A 
ATOM     43  H   UNL A   1      40.915  31.152  34.353  1.00  0.00     0.167 HD
ATOM     44  C   UNL A   1      40.994  28.799  30.646  1.00  0.00     0.037 A 
ATOM     45  C   UNL A   1      40.040  33.238  35.992  1.00  0.00     0.037 A 
ATOM     46  C   UNL A   1      39.899  29.720  30.487  1.00  0.00     0.049 A 
ATOM     47  C   UNL A   1      39.196  33.302  34.744  1.00  0.00     0.074 A 
ATOM     48  C   UNL A   1      39.006  29.820  29.436  1.00  0.00     0.029 A 
ATOM     49  N   UNL A   1      39.554  30.706  31.401  1.00  0.00    -0.354 N 
ATOM     50  N   UNL A   1      39.231  32.531  33.682  1.00  0.00    -0.248 NA
ATOM     51  C   UNL A   1      38.181  34.363  34.678  1.00  0.00     0.031 C 
ATOM     52  C   UNL A   1      38.161  30.906  29.684  1.00  0.00     0.029 A 
ATOM     53  C   UNL A   1      38.480  31.439  30.923  1.00  0.00     0.049 A 
ATOM     54  H   UNL A   1      40.006  30.862  32.262  1.00  0.00     0.167 HD
ATOM     55  C   UNL A   1      38.223  32.993  32.839  1.00  0.00     0.074 A 
ATOM     56  C   UNL A   1      37.591  34.105  33.519  1.00  0.00     0.031 C 
ATOM     57  C   UNL A   1      37.852  32.537  31.616  1.00  0.00     0.037 A 
BRANCH  44  58
ATOM     58  C   UNL A   1      41.283  27.830  29.532  1.00  0.00     0.058 A 
ATOM     59  C   UNL A   1      42.409  27.964  28.702  1.00  0.00     0.135 A 
ATOM     60  C   UNL A   1      40.433  26.734  29.307  1.00  0.00     0.135 A 
ATOM     61  F   UNL A   1      43.243  29.004  28.858  1.00  0.00    -0.206 F 
ATOM     62  C   UNL A   1      42.668  27.062  27.676  1.00  0.00     0.059 A 
ATOM     63  C   UNL A   1      40.690  25.801  28.307  1.00  0.00     0.059 A 
ATOM     64  F   UNL A   1      39.340  26.560  30.066  1.00  0.00    -0.206 F 
ATOM     65  C   UNL A   1      41.804  25.981  27.488  1.00  0.00     0.060 A 
BRANCH  65  66
ATOM     66  S   UNL A   1      42.158  24.816  26.155  1.00  0.00     0.124 S 
ATOM     67  O   UNL A   1      43.551  24.475  26.430  1.00  0.00    -0.237 OA
ATOM     68  O   UNL A   1      41.186  23.757  26.402  1.00  0.00    -0.237 OA
ATOM     69  O   UNL A   1      41.933  25.602  24.947  1.00  0.00    -0.744 OA
ENDBRANCH  65  66
ENDBRANCH  44  58
BRANCH  45  70
ATOM     70  C   UNL A   1      39.841  34.219  37.095  1.00  0.00     0.058 A 
ATOM     71  C   UNL A   1      40.613  35.387  37.177  1.00  0.00     0.135 A 
ATOM     72  C   UNL A   1      38.877  34.005  38.093  1.00  0.00     0.135 A 
ATOM     73  F   UNL A   1      41.559  35.632  36.256  1.00  0.00    -0.206 F 
ATOM     74  C   UNL A   1      40.447  36.302  38.212  1.00  0.00     0.059 A 
ATOM     75  C   UNL A   1      38.672  34.919  39.123  1.00  0.00     0.059 A 
ATOM     76  F   UNL A   1      38.107  32.906  38.061  1.00  0.00    -0.206 F 
ATOM     77  C   UNL A   1      39.469  36.061  39.179  1.00  0.00     0.060 A 
BRANCH  77  78
ATOM     78  S   UNL A   1      39.227  37.282  40.488  1.00  0.00     0.124 S 
ATOM     79  O   UNL A   1      38.157  38.101  39.932  1.00  0.00    -0.237 OA
ATOM     80  O   UNL A   1      38.863  36.441  41.624  1.00  0.00    -0.237 OA
ATOM     81  O   UNL A   1      40.531  37.930  40.588  1.00  0.00    -0.744 OA
ENDBRANCH  77  78
ENDBRANCH  45  70
BRANCH  57  82
ATOM     82  C   UNL A   1      36.679  33.202  30.944  1.00  0.00     0.058 A 
ATOM     83  C   UNL A   1      35.366  33.045  31.414  1.00  0.00     0.135 A 
ATOM     84  C   UNL A   1      36.884  34.064  29.853  1.00  0.00     0.135 A 
ATOM     85  F   UNL A   1      35.111  32.231  32.451  1.00  0.00    -0.206 F 
ATOM     86  C   UNL A   1      34.295  33.700  30.811  1.00  0.00     0.059 A 
ATOM     87  C   UNL A   1      35.833  34.753  29.257  1.00  0.00     0.059 A 
ATOM     88  F   UNL A   1      38.121  34.260  29.370  1.00  0.00    -0.206 F 
ATOM     89  C   UNL A   1      34.540  34.556  29.736  1.00  0.00     0.060 A 
BRANCH  89  90
ATOM     90  S   UNL A   1      33.146  35.428  28.990  1.00  0.00     0.124 S 
ATOM     91  O   UNL A   1      33.823  36.486  28.248  1.00  0.00    -0.237 OA
ATOM     92  O   UNL A   1      32.523  34.385  28.181  1.00  0.00    -0.237 OA
ATOM     93  O   UNL A   1      32.365  35.870  30.141  1.00  0.00    -0.744 OA
ENDBRANCH  89  90
ENDBRANCH  57  82
ENDBRANCH  31  32
ENDBRANCH  24  26
ENDBRANCH  23  24
ENDBRANCH  22  23
ENDBRANCH  21  22
ENDBRANCH  20  21
ENDBRANCH  19  20
ENDBRANCH   1  19
TORSDOF 23
ENDMDL
