MODEL 1
REMARK VINA RESULT:      -8.8      0.000      0.000
REMARK SMILES CCOc1cnc(C(=O)c2[nH]c3cc(Cl)ccc3c2CC(=O)OCCOCCOCCOCCOC(=O)c2ccc(-c3c4nc(c(-c5c(F)cc(S(=O)(=O)[O-])cc5F)c5ccc([nH]5)c(-c5c(F)cc(S(=O)(=O)[O-])cc5F)c5nc(c(-c6c(F)cc(S(=O)(=O)[O-])cc6F)c6ccc3[nH]6)C=C5)C=C4)cc2)cc1CC
REMARK SMILES IDX 28 1 27 2 26 3 25 4 24 5 23 6 21 7 22 8 20 9 19 10 10 11
REMARK SMILES IDX 11 12 12 13 18 15 13 16 17 17 14 18 16 19 15 20 8 21 9 22
REMARK SMILES IDX 7 23 4 24 5 25 105 26 6 27 104 28 3 29 2 30 1 31 106 32
REMARK SMILES IDX 107 33 29 34 30 35 31 36 32 37 33 38 34 39 35 40 36 41 37 42
REMARK SMILES IDX 38 43 39 44 103 45 40 46 102 47 41 48 42 49 43 50 96 51
REMARK SMILES IDX 44 52 101 53 95 54 97 55 45 56 100 57 94 58 93 59 46 61
REMARK SMILES IDX 80 62 59 63 79 64 60 65 63 66 78 67 98 68 61 69 62 70 77 72
REMARK SMILES IDX 99 73 64 74 47 75 48 76 57 77 49 78 50 79 56 80 58 81 51 82
REMARK SMILES IDX 52 83 53 84 54 85 55 86 81 87 82 88 91 89 83 90 84 91 90 92
REMARK SMILES IDX 92 93 85 94 86 95 87 96 88 97 89 98 65 99 66 100 75 101
REMARK SMILES IDX 67 102 68 103 74 104 76 105 69 106 70 107 71 108 72 109
REMARK SMILES IDX 73 110
REMARK H PARENT 11 14 97 60 63 71
REMARK Flexibility Score: inf
ROOT
ATOM      1  C   UNL A   1      35.212  30.037  27.422  1.00  0.00     0.188 C 
ENDROOT
BRANCH   1   2
ATOM      2  C   UNL A   1      34.152  28.947  27.277  1.00  0.00     0.188 C 
BRANCH   2   3
ATOM      3  O   UNL A   1      33.366  28.944  26.104  1.00  0.00    -0.376 OA
BRANCH   3   4
ATOM      4  C   UNL A   1      31.951  28.872  26.269  1.00  0.00     0.202 C 
BRANCH   4   5
ATOM      5  C   UNL A   1      31.315  27.668  26.998  1.00  0.00     0.261 C 
BRANCH   5   6
ATOM      6  O   UNL A   1      31.433  26.382  26.324  1.00  0.00    -0.463 OA
BRANCH   6   7
ATOM      7  C   UNL A   1      30.282  25.835  25.863  1.00  0.00     0.310 C 
ATOM      8  O   UNL A   1      29.382  25.446  26.610  1.00  0.00    -0.252 OA
BRANCH   7   9
ATOM      9  C   UNL A   1      30.106  25.693  24.358  1.00  0.00     0.161 C 
BRANCH   9  10
ATOM     10  C   UNL A   1      30.456  26.794  23.383  1.00  0.00     0.000 A 
ATOM     11  C   UNL A   1      31.732  27.192  22.942  1.00  0.00     0.093 A 
ATOM     12  N   UNL A   1      31.505  28.148  21.970  1.00  0.00    -0.351 N 
ATOM     13  C   UNL A   1      30.280  28.732  22.174  1.00  0.00     0.048 A 
ATOM     14  H   UNL A   1      32.128  28.375  21.242  1.00  0.00     0.167 HD
ATOM     15  C   UNL A   1      29.577  27.878  23.021  1.00  0.00     0.004 A 
ATOM     16  C   UNL A   1      29.760  29.939  21.692  1.00  0.00     0.047 A 
ATOM     17  C   UNL A   1      28.274  28.258  23.412  1.00  0.00     0.012 A 
ATOM     18  C   UNL A   1      28.494  30.314  22.145  1.00  0.00     0.043 A 
ATOM     19  C   UNL A   1      27.756  29.490  22.990  1.00  0.00     0.021 A 
ATOM     20  Cl  UNL A   1      27.852  31.843  21.678  1.00  0.00    -0.084 Cl
BRANCH  11  21
ATOM     21  C   UNL A   1      33.048  26.716  23.378  1.00  0.00     0.227 C 
ATOM     22  O   UNL A   1      33.952  27.487  23.708  1.00  0.00    -0.285 OA
BRANCH  21  23
ATOM     23  C   UNL A   1      33.394  25.257  23.368  1.00  0.00     0.113 A 
ATOM     24  C   UNL A   1      33.631  22.545  23.666  1.00  0.00     0.140 A 
ATOM     25  C   UNL A   1      32.700  23.124  22.812  1.00  0.00     0.158 A 
ATOM     26  C   UNL A   1      34.565  23.365  24.304  1.00  0.00    -0.002 A 
ATOM     27  N   UNL A   1      32.567  24.458  22.644  1.00  0.00    -0.249 NA
ATOM     28  C   UNL A   1      34.403  24.753  24.185  1.00  0.00     0.040 A 
BRANCH  24  29
ATOM     29  O   UNL A   1      33.632  21.193  23.869  1.00  0.00    -0.492 OA
BRANCH  29  30
ATOM     30  C   UNL A   1      32.337  20.728  24.294  1.00  0.00     0.226 C 
ATOM     31  C   UNL A   1      31.822  21.557  25.461  1.00  0.00     0.049 C 
ENDBRANCH  29  30
ENDBRANCH  24  29
BRANCH  26  32
ATOM     32  C   UNL A   1      35.657  22.805  25.183  1.00  0.00     0.036 C 
ATOM     33  C   UNL A   1      37.060  23.198  24.739  1.00  0.00     0.009 C 
ENDBRANCH  26  32
ENDBRANCH  21  23
ENDBRANCH  11  21
ENDBRANCH   9  10
ENDBRANCH   7   9
ENDBRANCH   6   7
ENDBRANCH   5   6
ENDBRANCH   4   5
ENDBRANCH   3   4
ENDBRANCH   2   3
ENDBRANCH   1   2
BRANCH   1  34
ATOM     34  O   UNL A   1      35.408  30.648  28.684  1.00  0.00    -0.377 OA
BRANCH  34  35
ATOM     35  C   UNL A   1      36.721  30.941  29.140  1.00  0.00     0.188 C 
BRANCH  35  36
ATOM     36  C   UNL A   1      37.039  32.383  29.533  1.00  0.00     0.188 C 
BRANCH  36  37
ATOM     37  O   UNL A   1      38.410  32.793  29.538  1.00  0.00    -0.376 OA
BRANCH  37  38
ATOM     38  C   UNL A   1      38.738  34.142  29.217  1.00  0.00     0.202 C 
BRANCH  38  39
ATOM     39  C   UNL A   1      39.926  34.709  29.986  1.00  0.00     0.261 C 
BRANCH  39  40
ATOM     40  O   UNL A   1      41.155  34.405  29.312  1.00  0.00    -0.460 OA
BRANCH  40  41
ATOM     41  C   UNL A   1      41.622  35.390  28.512  1.00  0.00     0.338 C 
ATOM     42  O   UNL A   1      41.079  36.452  28.251  1.00  0.00    -0.246 OA
BRANCH  41  43
ATOM     43  C   UNL A   1      43.005  35.071  28.121  1.00  0.00     0.060 A 
ATOM     44  C   UNL A   1      43.263  34.843  26.763  1.00  0.00     0.016 A 
ATOM     45  C   UNL A   1      44.020  34.951  29.074  1.00  0.00     0.016 A 
ATOM     46  C   UNL A   1      44.529  34.440  26.358  1.00  0.00     0.010 A 
ATOM     47  C   UNL A   1      45.286  34.532  28.669  1.00  0.00     0.010 A 
ATOM     48  C   UNL A   1      45.527  34.231  27.317  1.00  0.00    -0.014 A 
BRANCH  48  49
ATOM     49  C   UNL A   1      46.741  33.484  26.937  1.00  0.00     0.031 A 
ATOM     50  C   UNL A   1      46.675  31.983  26.949  1.00  0.00     0.074 A 
ATOM     51  C   UNL A   1      47.859  34.130  26.566  1.00  0.00     0.049 A 
ATOM     52  N   UNL A   1      47.616  31.108  26.714  1.00  0.00    -0.248 NA
ATOM     53  C   UNL A   1      45.367  31.386  27.276  1.00  0.00     0.031 C 
ATOM     54  C   UNL A   1      48.003  35.582  26.475  1.00  0.00     0.029 A 
ATOM     55  N   UNL A   1      49.086  33.644  26.205  1.00  0.00    -0.354 N 
ATOM     56  C   UNL A   1      47.021  29.862  26.875  1.00  0.00     0.074 A 
ATOM     57  C   UNL A   1      45.646  30.092  27.257  1.00  0.00     0.031 C 
ATOM     58  C   UNL A   1      49.261  35.871  26.101  1.00  0.00     0.029 A 
ATOM     59  C   UNL A   1      50.015  34.626  25.961  1.00  0.00     0.049 A 
ATOM     60  H   UNL A   1      49.285  32.683  26.128  1.00  0.00     0.167 HD
ATOM     61  C   UNL A   1      47.575  28.639  26.712  1.00  0.00     0.037 A 
ATOM     62  C   UNL A   1      51.330  34.524  25.687  1.00  0.00     0.037 A 
ATOM     63  C   UNL A   1      48.947  28.437  26.333  1.00  0.00     0.049 A 
ATOM     64  C   UNL A   1      51.942  33.150  25.576  1.00  0.00     0.074 A 
ATOM     65  C   UNL A   1      49.614  27.243  26.124  1.00  0.00     0.029 A 
ATOM     66  N   UNL A   1      49.865  29.454  26.114  1.00  0.00    -0.354 N 
ATOM     67  N   UNL A   1      51.369  31.977  25.713  1.00  0.00    -0.248 NA
ATOM     68  C   UNL A   1      53.377  33.085  25.271  1.00  0.00     0.031 C 
ATOM     69  C   UNL A   1      50.951  27.539  25.839  1.00  0.00     0.029 A 
ATOM     70  C   UNL A   1      51.101  28.917  25.801  1.00  0.00     0.049 A 
ATOM     71  H   UNL A   1      49.666  30.416  26.173  1.00  0.00     0.167 HD
ATOM     72  C   UNL A   1      52.365  31.035  25.478  1.00  0.00     0.074 A 
ATOM     73  C   UNL A   1      53.574  31.777  25.181  1.00  0.00     0.031 C 
ATOM     74  C   UNL A   1      52.289  29.679  25.500  1.00  0.00     0.037 A 
BRANCH  61  75
ATOM     75  C   UNL A   1      46.711  27.437  26.981  1.00  0.00     0.058 A 
ATOM     76  C   UNL A   1      46.629  26.848  28.253  1.00  0.00     0.135 A 
ATOM     77  C   UNL A   1      45.934  26.881  25.952  1.00  0.00     0.135 A 
ATOM     78  F   UNL A   1      47.370  27.322  29.268  1.00  0.00    -0.206 F 
ATOM     79  C   UNL A   1      45.824  25.739  28.490  1.00  0.00     0.059 A 
ATOM     80  C   UNL A   1      45.098  25.790  26.175  1.00  0.00     0.059 A 
ATOM     81  F   UNL A   1      45.982  27.397  24.714  1.00  0.00    -0.206 F 
ATOM     82  C   UNL A   1      45.059  25.218  27.444  1.00  0.00     0.060 A 
BRANCH  82  83
ATOM     83  S   UNL A   1      44.008  23.788  27.772  1.00  0.00     0.124 S 
ATOM     84  O   UNL A   1      44.824  23.039  28.723  1.00  0.00    -0.237 OA
ATOM     85  O   UNL A   1      42.804  24.406  28.320  1.00  0.00    -0.237 OA
ATOM     86  O   UNL A   1      43.852  23.171  26.459  1.00  0.00    -0.744 OA
ENDBRANCH  82  83
ENDBRANCH  61  75
BRANCH  62  87
ATOM     87  C   UNL A   1      52.152  35.751  25.515  1.00  0.00     0.058 A 
ATOM     88  C   UNL A   1      52.413  36.281  24.243  1.00  0.00     0.135 A 
ATOM     89  C   UNL A   1      52.689  36.424  26.624  1.00  0.00     0.135 A 
ATOM     90  F   UNL A   1      51.930  35.671  23.151  1.00  0.00    -0.206 F 
ATOM     91  C   UNL A   1      53.190  37.423  24.074  1.00  0.00     0.059 A 
ATOM     92  C   UNL A   1      53.444  37.584  26.483  1.00  0.00     0.059 A 
ATOM     93  F   UNL A   1      52.461  35.967  27.865  1.00  0.00    -0.206 F 
ATOM     94  C   UNL A   1      53.698  38.071  25.202  1.00  0.00     0.060 A 
BRANCH  94  95
ATOM     95  S   UNL A   1      54.666  39.577  24.971  1.00  0.00     0.124 S 
ATOM     96  O   UNL A   1      55.996  39.037  24.718  1.00  0.00    -0.237 OA
ATOM     97  O   UNL A   1      53.999  40.196  23.831  1.00  0.00    -0.237 OA
ATOM     98  O   UNL A   1      54.501  40.279  26.242  1.00  0.00    -0.744 OA
ENDBRANCH  94  95
ENDBRANCH  62  87
BRANCH  74  99
ATOM     99  C   UNL A   1      53.534  28.909  25.153  1.00  0.00     0.058 A 
ATOM    100  C   UNL A   1      54.476  28.543  26.126  1.00  0.00     0.135 A 
ATOM    101  C   UNL A   1      53.752  28.479  23.833  1.00  0.00     0.135 A 
ATOM    102  F   UNL A   1      54.318  28.931  27.401  1.00  0.00    -0.206 F 
ATOM    103  C   UNL A   1      55.604  27.798  25.798  1.00  0.00     0.059 A 
ATOM    104  C   UNL A   1      54.855  27.705  23.490  1.00  0.00     0.059 A 
ATOM    105  F   UNL A   1      52.874  28.791  22.866  1.00  0.00    -0.206 F 
ATOM    106  C   UNL A   1      55.782  27.380  24.478  1.00  0.00     0.060 A 
BRANCH 106 107
ATOM    107  S   UNL A   1      57.232  26.383  24.075  1.00  0.00     0.124 S 
ATOM    108  O   UNL A   1      56.861  25.086  24.630  1.00  0.00    -0.237 OA
ATOM    109  O   UNL A   1      57.268  26.462  22.618  1.00  0.00    -0.237 OA
ATOM    110  O   UNL A   1      58.321  27.072  24.762  1.00  0.00    -0.744 OA
ENDBRANCH 106 107
ENDBRANCH  74  99
ENDBRANCH  48  49
ENDBRANCH  41  43
ENDBRANCH  40  41
ENDBRANCH  39  40
ENDBRANCH  38  39
ENDBRANCH  37  38
ENDBRANCH  36  37
ENDBRANCH  35  36
ENDBRANCH  34  35
ENDBRANCH   1  34
TORSDOF 29
ENDMDL
MODEL 2
REMARK VINA RESULT:      -8.5      1.561      2.423
REMARK SMILES CCOc1cnc(C(=O)c2[nH]c3cc(Cl)ccc3c2CC(=O)OCCOCCOCCOCCOC(=O)c2ccc(-c3c4nc(c(-c5c(F)cc(S(=O)(=O)[O-])cc5F)c5ccc([nH]5)c(-c5c(F)cc(S(=O)(=O)[O-])cc5F)c5nc(c(-c6c(F)cc(S(=O)(=O)[O-])cc6F)c6ccc3[nH]6)C=C5)C=C4)cc2)cc1CC
REMARK SMILES IDX 28 1 27 2 26 3 25 4 24 5 23 6 21 7 22 8 20 9 19 10 10 11
REMARK SMILES IDX 11 12 12 13 18 15 13 16 17 17 14 18 16 19 15 20 8 21 9 22
REMARK SMILES IDX 7 23 4 24 5 25 105 26 6 27 104 28 3 29 2 30 1 31 106 32
REMARK SMILES IDX 107 33 29 34 30 35 31 36 32 37 33 38 34 39 35 40 36 41 37 42
REMARK SMILES IDX 38 43 39 44 103 45 40 46 102 47 41 48 42 49 43 50 96 51
REMARK SMILES IDX 44 52 101 53 95 54 97 55 45 56 100 57 94 58 93 59 46 61
REMARK SMILES IDX 80 62 59 63 79 64 60 65 63 66 78 67 98 68 61 69 62 70 77 72
REMARK SMILES IDX 99 73 64 74 47 75 48 76 57 77 49 78 50 79 56 80 58 81 51 82
REMARK SMILES IDX 52 83 53 84 54 85 55 86 81 87 82 88 91 89 83 90 84 91 90 92
REMARK SMILES IDX 92 93 85 94 86 95 87 96 88 97 89 98 65 99 66 100 75 101
REMARK SMILES IDX 67 102 68 103 74 104 76 105 69 106 70 107 71 108 72 109
REMARK SMILES IDX 73 110
REMARK H PARENT 11 14 97 60 63 71
REMARK Flexibility Score: inf
ROOT
ATOM      1  C   UNL A   1      35.045  29.699  27.208  1.00  0.00     0.188 C 
ENDROOT
BRANCH   1   2
ATOM      2  C   UNL A   1      33.983  28.747  26.659  1.00  0.00     0.188 C 
BRANCH   2   3
ATOM      3  O   UNL A   1      32.956  29.294  25.861  1.00  0.00    -0.376 OA
BRANCH   3   4
ATOM      4  C   UNL A   1      31.616  28.924  26.181  1.00  0.00     0.202 C 
BRANCH   4   5
ATOM      5  C   UNL A   1      31.347  27.760  27.161  1.00  0.00     0.261 C 
BRANCH   5   6
ATOM      6  O   UNL A   1      31.476  26.419  26.606  1.00  0.00    -0.463 OA
BRANCH   6   7
ATOM      7  C   UNL A   1      30.361  25.888  26.047  1.00  0.00     0.310 C 
ATOM      8  O   UNL A   1      29.354  25.610  26.702  1.00  0.00    -0.252 OA
BRANCH   7   9
ATOM      9  C   UNL A   1      30.366  25.619  24.550  1.00  0.00     0.161 C 
BRANCH   9  10
ATOM     10  C   UNL A   1      30.668  26.690  23.525  1.00  0.00     0.000 A 
ATOM     11  C   UNL A   1      31.924  27.121  23.062  1.00  0.00     0.093 A 
ATOM     12  N   UNL A   1      31.656  28.021  22.049  1.00  0.00    -0.351 N 
ATOM     13  C   UNL A   1      30.407  28.561  22.230  1.00  0.00     0.048 A 
ATOM     14  H   UNL A   1      32.268  28.242  21.309  1.00  0.00     0.167 HD
ATOM     15  C   UNL A   1      29.742  27.718  23.117  1.00  0.00     0.004 A 
ATOM     16  C   UNL A   1      29.836  29.722  21.695  1.00  0.00     0.047 A 
ATOM     17  C   UNL A   1      28.425  28.058  23.494  1.00  0.00     0.012 A 
ATOM     18  C   UNL A   1      28.555  30.062  22.135  1.00  0.00     0.043 A 
ATOM     19  C   UNL A   1      27.854  29.248  23.018  1.00  0.00     0.021 A 
ATOM     20  Cl  UNL A   1      27.848  31.540  21.601  1.00  0.00    -0.084 Cl
BRANCH  11  21
ATOM     21  C   UNL A   1      33.260  26.722  23.516  1.00  0.00     0.227 C 
ATOM     22  O   UNL A   1      34.261  27.411  23.307  1.00  0.00    -0.285 OA
BRANCH  21  23
ATOM     23  C   UNL A   1      33.494  25.403  24.191  1.00  0.00     0.113 A 
ATOM     24  C   UNL A   1      34.410  23.078  25.311  1.00  0.00     0.140 A 
ATOM     25  C   UNL A   1      34.492  24.304  25.961  1.00  0.00     0.158 A 
ATOM     26  C   UNL A   1      33.725  23.002  24.096  1.00  0.00    -0.002 A 
ATOM     27  N   UNL A   1      34.043  25.463  25.432  1.00  0.00    -0.249 NA
ATOM     28  C   UNL A   1      33.305  24.204  23.508  1.00  0.00     0.040 A 
BRANCH  24  29
ATOM     29  O   UNL A   1      34.986  21.967  25.861  1.00  0.00    -0.492 OA
BRANCH  29  30
ATOM     30  C   UNL A   1      36.373  21.859  25.488  1.00  0.00     0.226 C 
ATOM     31  C   UNL A   1      36.673  20.481  24.919  1.00  0.00     0.049 C 
ENDBRANCH  29  30
ENDBRANCH  24  29
BRANCH  26  32
ATOM     32  C   UNL A   1      33.522  21.695  23.369  1.00  0.00     0.036 C 
ATOM     33  C   UNL A   1      32.321  20.901  23.863  1.00  0.00     0.009 C 
ENDBRANCH  26  32
ENDBRANCH  21  23
ENDBRANCH  11  21
ENDBRANCH   9  10
ENDBRANCH   7   9
ENDBRANCH   6   7
ENDBRANCH   5   6
ENDBRANCH   4   5
ENDBRANCH   3   4
ENDBRANCH   2   3
ENDBRANCH   1   2
BRANCH   1  34
ATOM     34  O   UNL A   1      35.545  29.497  28.517  1.00  0.00    -0.377 OA
BRANCH  34  35
ATOM     35  C   UNL A   1      36.945  29.493  28.754  1.00  0.00     0.188 C 
BRANCH  35  36
ATOM     36  C   UNL A   1      37.528  30.600  29.631  1.00  0.00     0.188 C 
BRANCH  36  37
ATOM     37  O   UNL A   1      38.895  30.970  29.429  1.00  0.00    -0.376 OA
BRANCH  37  38
ATOM     38  C   UNL A   1      39.389  32.173  30.012  1.00  0.00     0.202 C 
BRANCH  38  39
ATOM     39  C   UNL A   1      40.273  31.972  31.237  1.00  0.00     0.261 C 
BRANCH  39  40
ATOM     40  O   UNL A   1      41.658  31.968  30.865  1.00  0.00    -0.460 OA
BRANCH  40  41
ATOM     41  C   UNL A   1      42.205  33.193  30.701  1.00  0.00     0.338 C 
ATOM     42  O   UNL A   1      41.803  34.251  31.159  1.00  0.00    -0.246 OA
BRANCH  41  43
ATOM     43  C   UNL A   1      43.498  33.049  30.011  1.00  0.00     0.060 A 
ATOM     44  C   UNL A   1      43.549  33.366  28.647  1.00  0.00     0.016 A 
ATOM     45  C   UNL A   1      44.628  32.569  30.678  1.00  0.00     0.016 A 
ATOM     46  C   UNL A   1      44.718  33.150  27.930  1.00  0.00     0.010 A 
ATOM     47  C   UNL A   1      45.796  32.338  29.955  1.00  0.00     0.010 A 
ATOM     48  C   UNL A   1      45.826  32.586  28.571  1.00  0.00    -0.014 A 
BRANCH  48  49
ATOM     49  C   UNL A   1      46.929  32.043  27.753  1.00  0.00     0.031 A 
ATOM     50  C   UNL A   1      46.825  30.616  27.292  1.00  0.00     0.074 A 
ATOM     51  C   UNL A   1      47.975  32.812  27.411  1.00  0.00     0.049 A 
ATOM     52  N   UNL A   1      47.682  29.898  26.617  1.00  0.00    -0.248 NA
ATOM     53  C   UNL A   1      45.585  29.902  27.644  1.00  0.00     0.031 C 
ATOM     54  C   UNL A   1      48.140  34.220  27.769  1.00  0.00     0.029 A 
ATOM     55  N   UNL A   1      49.101  32.511  26.693  1.00  0.00    -0.354 N 
ATOM     56  C   UNL A   1      47.092  28.646  26.475  1.00  0.00     0.074 A 
ATOM     57  C   UNL A   1      45.819  28.693  27.157  1.00  0.00     0.031 C 
ATOM     58  C   UNL A   1      49.314  34.657  27.283  1.00  0.00     0.029 A 
ATOM     59  C   UNL A   1      49.994  33.551  26.613  1.00  0.00     0.049 A 
ATOM     60  H   UNL A   1      49.256  31.634  26.274  1.00  0.00     0.167 HD
ATOM     61  C   UNL A   1      47.573  27.561  25.826  1.00  0.00     0.037 A 
ATOM     62  C   UNL A   1      51.232  33.588  26.082  1.00  0.00     0.037 A 
ATOM     63  C   UNL A   1      48.845  27.539  25.155  1.00  0.00     0.049 A 
ATOM     64  C   UNL A   1      51.775  32.345  25.424  1.00  0.00     0.074 A 
ATOM     65  C   UNL A   1      49.429  26.500  24.453  1.00  0.00     0.029 A 
ATOM     66  N   UNL A   1      49.734  28.604  25.112  1.00  0.00    -0.354 N 
ATOM     67  N   UNL A   1      51.205  31.171  25.277  1.00  0.00    -0.248 NA
ATOM     68  C   UNL A   1      53.127  32.431  24.855  1.00  0.00     0.031 C 
ATOM     69  C   UNL A   1      50.697  26.918  24.037  1.00  0.00     0.029 A 
ATOM     70  C   UNL A   1      50.875  28.239  24.420  1.00  0.00     0.049 A 
ATOM     71  H   UNL A   1      49.576  29.488  25.514  1.00  0.00     0.167 HD
ATOM     72  C   UNL A   1      52.115  30.391  24.571  1.00  0.00     0.074 A 
ATOM     73  C   UNL A   1      53.267  31.229  24.312  1.00  0.00     0.031 C 
ATOM     74  C   UNL A   1      52.007  29.098  24.168  1.00  0.00     0.037 A 
BRANCH  61  75
ATOM     75  C   UNL A   1      46.742  26.307  25.846  1.00  0.00     0.058 A 
ATOM     76  C   UNL A   1      45.523  26.209  25.156  1.00  0.00     0.135 A 
ATOM     77  C   UNL A   1      47.187  25.176  26.549  1.00  0.00     0.135 A 
ATOM     78  F   UNL A   1      45.036  27.268  24.488  1.00  0.00    -0.206 F 
ATOM     79  C   UNL A   1      44.766  25.043  25.179  1.00  0.00     0.059 A 
ATOM     80  C   UNL A   1      46.460  23.989  26.560  1.00  0.00     0.059 A 
ATOM     81  F   UNL A   1      48.340  25.216  27.235  1.00  0.00    -0.206 F 
ATOM     82  C   UNL A   1      45.245  23.935  25.882  1.00  0.00     0.060 A 
BRANCH  82  83
ATOM     83  S   UNL A   1      44.257  22.425  25.890  1.00  0.00     0.124 S 
ATOM     84  O   UNL A   1      43.377  22.658  27.031  1.00  0.00    -0.237 OA
ATOM     85  O   UNL A   1      43.617  22.465  24.578  1.00  0.00    -0.237 OA
ATOM     86  O   UNL A   1      45.249  21.370  26.069  1.00  0.00    -0.744 OA
ENDBRANCH  82  83
ENDBRANCH  61  75
BRANCH  62  87
ATOM     87  C   UNL A   1      52.042  34.833  26.168  1.00  0.00     0.058 A 
ATOM     88  C   UNL A   1      53.001  35.011  27.175  1.00  0.00     0.135 A 
ATOM     89  C   UNL A   1      51.876  35.870  25.235  1.00  0.00     0.135 A 
ATOM     90  F   UNL A   1      53.191  34.053  28.095  1.00  0.00    -0.206 F 
ATOM     91  C   UNL A   1      53.754  36.177  27.267  1.00  0.00     0.059 A 
ATOM     92  C   UNL A   1      52.637  37.033  25.289  1.00  0.00     0.059 A 
ATOM     93  F   UNL A   1      50.980  35.748  24.243  1.00  0.00    -0.206 F 
ATOM     94  C   UNL A   1      53.568  37.181  26.315  1.00  0.00     0.060 A 
BRANCH  94  95
ATOM     95  S   UNL A   1      54.584  38.670  26.420  1.00  0.00     0.124 S 
ATOM     96  O   UNL A   1      55.659  38.233  27.303  1.00  0.00    -0.237 OA
ATOM     97  O   UNL A   1      54.951  38.887  25.024  1.00  0.00    -0.237 OA
ATOM     98  O   UNL A   1      53.669  39.661  26.981  1.00  0.00    -0.744 OA
ENDBRANCH  94  95
ENDBRANCH  62  87
BRANCH  74  99
ATOM     99  C   UNL A   1      53.144  28.525  23.368  1.00  0.00     0.058 A 
ATOM    100  C   UNL A   1      53.194  28.626  21.970  1.00  0.00     0.135 A 
ATOM    101  C   UNL A   1      54.232  27.919  24.021  1.00  0.00     0.135 A 
ATOM    102  F   UNL A   1      52.180  29.191  21.295  1.00  0.00    -0.206 F 
ATOM    103  C   UNL A   1      54.270  28.125  21.244  1.00  0.00     0.059 A 
ATOM    104  C   UNL A   1      55.332  27.442  23.318  1.00  0.00     0.059 A 
ATOM    105  F   UNL A   1      54.241  27.808  25.360  1.00  0.00    -0.206 F 
ATOM    106  C   UNL A   1      55.336  27.538  21.928  1.00  0.00     0.060 A 
BRANCH 106 107
ATOM    107  S   UNL A   1      56.742  26.925  20.977  1.00  0.00     0.124 S 
ATOM    108  O   UNL A   1      57.534  26.268  22.011  1.00  0.00    -0.237 OA
ATOM    109  O   UNL A   1      56.101  26.039  20.011  1.00  0.00    -0.237 OA
ATOM    110  O   UNL A   1      57.328  28.138  20.413  1.00  0.00    -0.744 OA
ENDBRANCH 106 107
ENDBRANCH  74  99
ENDBRANCH  48  49
ENDBRANCH  41  43
ENDBRANCH  40  41
ENDBRANCH  39  40
ENDBRANCH  38  39
ENDBRANCH  37  38
ENDBRANCH  36  37
ENDBRANCH  35  36
ENDBRANCH  34  35
ENDBRANCH   1  34
TORSDOF 29
ENDMDL
MODEL 3
REMARK VINA RESULT:      -8.2      7.059     15.714
REMARK SMILES CCOc1cnc(C(=O)c2[nH]c3cc(Cl)ccc3c2CC(=O)OCCOCCOCCOCCOC(=O)c2ccc(-c3c4nc(c(-c5c(F)cc(S(=O)(=O)[O-])cc5F)c5ccc([nH]5)c(-c5c(F)cc(S(=O)(=O)[O-])cc5F)c5nc(c(-c6c(F)cc(S(=O)(=O)[O-])cc6F)c6ccc3[nH]6)C=C5)C=C4)cc2)cc1CC
REMARK SMILES IDX 28 1 27 2 26 3 25 4 24 5 23 6 21 7 22 8 20 9 19 10 10 11
REMARK SMILES IDX 11 12 12 13 18 15 13 16 17 17 14 18 16 19 15 20 8 21 9 22
REMARK SMILES IDX 7 23 4 24 5 25 105 26 6 27 104 28 3 29 2 30 1 31 106 32
REMARK SMILES IDX 107 33 29 34 30 35 31 36 32 37 33 38 34 39 35 40 36 41 37 42
REMARK SMILES IDX 38 43 39 44 103 45 40 46 102 47 41 48 42 49 43 50 96 51
REMARK SMILES IDX 44 52 101 53 95 54 97 55 45 56 100 57 94 58 93 59 46 61
REMARK SMILES IDX 80 62 59 63 79 64 60 65 63 66 78 67 98 68 61 69 62 70 77 72
REMARK SMILES IDX 99 73 64 74 47 75 48 76 57 77 49 78 50 79 56 80 58 81 51 82
REMARK SMILES IDX 52 83 53 84 54 85 55 86 81 87 82 88 91 89 83 90 84 91 90 92
REMARK SMILES IDX 92 93 85 94 86 95 87 96 88 97 89 98 65 99 66 100 75 101
REMARK SMILES IDX 67 102 68 103 74 104 76 105 69 106 70 107 71 108 72 109
REMARK SMILES IDX 73 110
REMARK H PARENT 11 14 97 60 63 71
REMARK Flexibility Score: inf
ROOT
ATOM      1  C   UNL A   1      47.808  25.648  28.202  1.00  0.00     0.188 C 
ENDROOT
BRANCH   1   2
ATOM      2  C   UNL A   1      47.505  27.132  28.000  1.00  0.00     0.188 C 
BRANCH   2   3
ATOM      3  O   UNL A   1      46.173  27.563  28.181  1.00  0.00    -0.376 OA
BRANCH   3   4
ATOM      4  C   UNL A   1      45.978  28.913  28.600  1.00  0.00     0.202 C 
BRANCH   4   5
ATOM      5  C   UNL A   1      46.583  30.074  27.780  1.00  0.00     0.261 C 
BRANCH   5   6
ATOM      6  O   UNL A   1      45.994  30.301  26.468  1.00  0.00    -0.463 OA
BRANCH   6   7
ATOM      7  C   UNL A   1      45.197  31.391  26.345  1.00  0.00     0.310 C 
ATOM      8  O   UNL A   1      45.279  32.174  25.395  1.00  0.00    -0.252 OA
BRANCH   7   9
ATOM      9  C   UNL A   1      44.167  31.655  27.433  1.00  0.00     0.161 C 
BRANCH   9  10
ATOM     10  C   UNL A   1      44.304  32.775  28.439  1.00  0.00     0.000 A 
ATOM     11  C   UNL A   1      44.757  34.089  28.221  1.00  0.00     0.093 A 
ATOM     12  N   UNL A   1      44.576  34.747  29.422  1.00  0.00    -0.351 N 
ATOM     13  C   UNL A   1      44.573  33.838  30.450  1.00  0.00     0.048 A 
ATOM     14  H   UNL A   1      44.464  35.720  29.525  1.00  0.00     0.167 HD
ATOM     15  C   UNL A   1      44.355  32.591  29.868  1.00  0.00     0.004 A 
ATOM     16  C   UNL A   1      44.761  34.024  31.826  1.00  0.00     0.047 A 
ATOM     17  C   UNL A   1      44.326  31.461  30.714  1.00  0.00     0.012 A 
ATOM     18  C   UNL A   1      44.787  32.880  32.625  1.00  0.00     0.043 A 
ATOM     19  C   UNL A   1      44.571  31.616  32.086  1.00  0.00     0.021 A 
ATOM     20  Cl  UNL A   1      45.131  33.038  34.306  1.00  0.00    -0.084 Cl
BRANCH  11  21
ATOM     21  C   UNL A   1      45.301  34.685  26.997  1.00  0.00     0.227 C 
ATOM     22  O   UNL A   1      44.585  35.017  26.050  1.00  0.00    -0.285 OA
BRANCH  21  23
ATOM     23  C   UNL A   1      46.778  34.848  26.797  1.00  0.00     0.113 A 
ATOM     24  C   UNL A   1      49.396  34.903  25.993  1.00  0.00     0.140 A 
ATOM     25  C   UNL A   1      48.449  35.801  25.517  1.00  0.00     0.158 A 
ATOM     26  C   UNL A   1      49.035  34.016  27.011  1.00  0.00    -0.002 A 
ATOM     27  N   UNL A   1      47.153  35.798  25.902  1.00  0.00    -0.249 NA
ATOM     28  C   UNL A   1      47.683  33.962  27.379  1.00  0.00     0.040 A 
BRANCH  24  29
ATOM     29  O   UNL A   1      50.660  34.895  25.474  1.00  0.00    -0.492 OA
BRANCH  29  30
ATOM     30  C   UNL A   1      50.776  35.807  24.366  1.00  0.00     0.226 C 
ATOM     31  C   UNL A   1      51.716  36.954  24.708  1.00  0.00     0.049 C 
ENDBRANCH  29  30
ENDBRANCH  24  29
BRANCH  26  32
ATOM     32  C   UNL A   1      50.027  33.066  27.637  1.00  0.00     0.036 C 
ATOM     33  C   UNL A   1      50.064  31.697  26.972  1.00  0.00     0.009 C 
ENDBRANCH  26  32
ENDBRANCH  21  23
ENDBRANCH  11  21
ENDBRANCH   9  10
ENDBRANCH   7   9
ENDBRANCH   6   7
ENDBRANCH   5   6
ENDBRANCH   4   5
ENDBRANCH   3   4
ENDBRANCH   2   3
ENDBRANCH   1   2
BRANCH   1  34
ATOM     34  O   UNL A   1      48.023  24.826  27.070  1.00  0.00    -0.377 OA
BRANCH  34  35
ATOM     35  C   UNL A   1      48.092  25.401  25.772  1.00  0.00     0.188 C 
BRANCH  35  36
ATOM     36  C   UNL A   1      46.802  25.499  24.961  1.00  0.00     0.188 C 
BRANCH  36  37
ATOM     37  O   UNL A   1      45.666  24.753  25.408  1.00  0.00    -0.376 OA
BRANCH  37  38
ATOM     38  C   UNL A   1      45.271  23.582  24.697  1.00  0.00     0.202 C 
BRANCH  38  39
ATOM     39  C   UNL A   1      43.774  23.299  24.719  1.00  0.00     0.261 C 
BRANCH  39  40
ATOM     40  O   UNL A   1      43.058  24.409  25.277  1.00  0.00    -0.460 OA
BRANCH  40  41
ATOM     41  C   UNL A   1      41.948  24.076  25.973  1.00  0.00     0.338 C 
ATOM     42  O   UNL A   1      41.405  22.984  26.024  1.00  0.00    -0.246 OA
BRANCH  41  43
ATOM     43  C   UNL A   1      41.565  25.210  26.830  1.00  0.00     0.060 A 
ATOM     44  C   UNL A   1      42.368  26.357  26.792  1.00  0.00     0.016 A 
ATOM     45  C   UNL A   1      40.465  25.133  27.689  1.00  0.00     0.016 A 
ATOM     46  C   UNL A   1      42.108  27.414  27.656  1.00  0.00     0.010 A 
ATOM     47  C   UNL A   1      40.213  26.186  28.566  1.00  0.00     0.010 A 
ATOM     48  C   UNL A   1      41.063  27.307  28.580  1.00  0.00    -0.014 A 
BRANCH  48  49
ATOM     49  C   UNL A   1      41.003  28.257  29.708  1.00  0.00     0.031 A 
ATOM     50  C   UNL A   1      42.003  28.094  30.818  1.00  0.00     0.074 A 
ATOM     51  C   UNL A   1      40.100  29.251  29.723  1.00  0.00     0.049 A 
ATOM     52  N   UNL A   1      42.119  28.760  31.936  1.00  0.00    -0.248 NA
ATOM     53  C   UNL A   1      43.009  27.030  30.644  1.00  0.00     0.031 C 
ATOM     54  C   UNL A   1      39.123  29.520  28.669  1.00  0.00     0.029 A 
ATOM     55  N   UNL A   1      39.856  30.214  30.665  1.00  0.00    -0.354 N 
ATOM     56  C   UNL A   1      43.198  28.190  32.602  1.00  0.00     0.074 A 
ATOM     57  C   UNL A   1      43.686  27.106  31.780  1.00  0.00     0.031 C 
ATOM     58  C   UNL A   1      38.369  30.570  29.034  1.00  0.00     0.029 A 
ATOM     59  C   UNL A   1      38.788  31.021  30.360  1.00  0.00     0.049 A 
ATOM     60  H   UNL A   1      40.393  30.317  31.484  1.00  0.00     0.167 HD
ATOM     61  C   UNL A   1      43.734  28.548  33.792  1.00  0.00     0.037 A 
ATOM     62  C   UNL A   1      38.203  31.993  31.087  1.00  0.00     0.037 A 
ATOM     63  C   UNL A   1      43.229  29.630  34.593  1.00  0.00     0.049 A 
ATOM     64  C   UNL A   1      38.776  32.329  32.440  1.00  0.00     0.074 A 
ATOM     65  C   UNL A   1      43.701  30.092  35.809  1.00  0.00     0.029 A 
ATOM     66  N   UNL A   1      42.133  30.414  34.263  1.00  0.00    -0.354 N 
ATOM     67  N   UNL A   1      39.807  31.799  33.056  1.00  0.00    -0.248 NA
ATOM     68  C   UNL A   1      38.110  33.398  33.197  1.00  0.00     0.031 C 
ATOM     69  C   UNL A   1      42.852  31.116  36.241  1.00  0.00     0.029 A 
ATOM     70  C   UNL A   1      41.893  31.339  35.264  1.00  0.00     0.049 A 
ATOM     71  H   UNL A   1      41.604  30.326  33.438  1.00  0.00     0.167 HD
ATOM     72  C   UNL A   1      39.932  32.490  34.256  1.00  0.00     0.074 A 
ATOM     73  C   UNL A   1      38.878  33.484  34.274  1.00  0.00     0.031 C 
ATOM     74  C   UNL A   1      40.840  32.324  35.253  1.00  0.00     0.037 A 
BRANCH  61  75
ATOM     75  C   UNL A   1      44.893  27.740  34.310  1.00  0.00     0.058 A 
ATOM     76  C   UNL A   1      46.225  28.144  34.124  1.00  0.00     0.135 A 
ATOM     77  C   UNL A   1      44.664  26.555  35.027  1.00  0.00     0.135 A 
ATOM     78  F   UNL A   1      46.504  29.256  33.424  1.00  0.00    -0.206 F 
ATOM     79  C   UNL A   1      47.288  27.391  34.611  1.00  0.00     0.059 A 
ATOM     80  C   UNL A   1      45.711  25.802  35.550  1.00  0.00     0.059 A 
ATOM     81  F   UNL A   1      43.411  26.117  35.225  1.00  0.00    -0.206 F 
ATOM     82  C   UNL A   1      47.020  26.221  35.327  1.00  0.00     0.060 A 
BRANCH  82  83
ATOM     83  S   UNL A   1      48.410  25.264  35.965  1.00  0.00     0.124 S 
ATOM     84  O   UNL A   1      49.199  25.052  34.755  1.00  0.00    -0.237 OA
ATOM     85  O   UNL A   1      48.990  26.174  36.948  1.00  0.00    -0.237 OA
ATOM     86  O   UNL A   1      47.778  24.070  36.516  1.00  0.00    -0.744 OA
ENDBRANCH  82  83
ENDBRANCH  61  75
BRANCH  62  87
ATOM     87  C   UNL A   1      37.006  32.700  30.558  1.00  0.00     0.058 A 
ATOM     88  C   UNL A   1      35.732  32.483  31.103  1.00  0.00     0.135 A 
ATOM     89  C   UNL A   1      37.114  33.614  29.498  1.00  0.00     0.135 A 
ATOM     90  F   UNL A   1      35.574  31.613  32.112  1.00  0.00    -0.206 F 
ATOM     91  C   UNL A   1      34.606  33.133  30.607  1.00  0.00     0.059 A 
ATOM     92  C   UNL A   1      36.008  34.298  29.003  1.00  0.00     0.059 A 
ATOM     93  F   UNL A   1      38.311  33.868  28.946  1.00  0.00    -0.206 F 
ATOM     94  C   UNL A   1      34.756  34.043  29.559  1.00  0.00     0.060 A 
BRANCH  94  95
ATOM     95  S   UNL A   1      33.294  34.913  28.954  1.00  0.00     0.124 S 
ATOM     96  O   UNL A   1      33.871  36.164  28.476  1.00  0.00    -0.237 OA
ATOM     97  O   UNL A   1      32.799  34.002  27.928  1.00  0.00    -0.237 OA
ATOM     98  O   UNL A   1      32.452  35.022  30.144  1.00  0.00    -0.744 OA
ENDBRANCH  94  95
ENDBRANCH  62  87
BRANCH  74  99
ATOM     99  C   UNL A   1      40.761  33.263  36.425  1.00  0.00     0.058 A 
ATOM    100  C   UNL A   1      39.900  33.030  37.508  1.00  0.00     0.135 A 
ATOM    101  C   UNL A   1      41.610  34.382  36.491  1.00  0.00     0.135 A 
ATOM    102  F   UNL A   1      39.066  31.979  37.494  1.00  0.00    -0.206 F 
ATOM    103  C   UNL A   1      39.864  33.886  38.604  1.00  0.00     0.059 A 
ATOM    104  C   UNL A   1      41.614  35.231  37.592  1.00  0.00     0.059 A 
ATOM    105  F   UNL A   1      42.463  34.644  35.488  1.00  0.00    -0.206 F 
ATOM    106  C   UNL A   1      40.729  34.982  38.638  1.00  0.00     0.060 A 
BRANCH 106 107
ATOM    107  S   UNL A   1      40.697  36.063  40.083  1.00  0.00     0.124 S 
ATOM    108  O   UNL A   1      41.184  37.319  39.522  1.00  0.00    -0.237 OA
ATOM    109  O   UNL A   1      39.287  36.040  40.457  1.00  0.00    -0.237 OA
ATOM    110  O   UNL A   1      41.599  35.404  41.023  1.00  0.00    -0.744 OA
ENDBRANCH 106 107
ENDBRANCH  74  99
ENDBRANCH  48  49
ENDBRANCH  41  43
ENDBRANCH  40  41
ENDBRANCH  39  40
ENDBRANCH  38  39
ENDBRANCH  37  38
ENDBRANCH  36  37
ENDBRANCH  35  36
ENDBRANCH  34  35
ENDBRANCH   1  34
TORSDOF 29
ENDMDL
