MODEL 1
REMARK VINA RESULT:     -10.6      0.000      0.000
REMARK SMILES O=C(OCCOCCOCCOCCOC(=O)[C@@H]1[C@@H](C(=O)Nc2cccc([N+](=O)[O-])c2)[C@@H]2C=C[C@H]1O2)c1ccc(-c2c3nc(c(-c4c(F)cc(S(=O)(=O)[O-])cc4F)c4ccc([nH]4)c(-c4c(F)cc(S(=O)(=O)[O-])cc4F)c4nc(c(-c5c(F)cc(S(=O)(=O)[O-])cc5F)c5ccc2[nH]5)C=C4)C=C3)cc1
REMARK SMILES IDX 9 1 8 2 7 3 6 4 5 5 4 6 3 7 2 8 1 9 37 10 38 11 102 12 39 13
REMARK SMILES IDX 101 14 40 15 41 16 42 17 95 18 43 19 100 20 94 21 96 22
REMARK SMILES IDX 44 23 99 24 93 25 92 26 45 28 79 29 58 30 78 31 59 32 62 33
REMARK SMILES IDX 77 34 97 35 60 36 61 37 76 39 98 40 63 41 46 42 47 43 56 44
REMARK SMILES IDX 48 45 49 46 55 47 57 48 50 49 51 50 52 51 53 52 54 53 80 54
REMARK SMILES IDX 81 55 90 56 82 57 83 58 89 59 91 60 84 61 85 62 86 63 87 64
REMARK SMILES IDX 88 65 64 66 65 67 74 68 66 69 67 70 73 71 75 72 68 73 69 74
REMARK SMILES IDX 70 75 71 76 72 77 10 78 11 79 12 80 13 81 14 82 15 83 16 84
REMARK SMILES IDX 17 85 18 86 19 87 35 88 32 89 34 90 36 91 33 92 20 93 21 94
REMARK SMILES IDX 22 95 23 97 24 98 31 99 25 100 27 101 26 102 28 103 29 104
REMARK SMILES IDX 30 105
REMARK H PARENT 96 27 62 38 22 96
REMARK Flexibility Score: inf
ROOT
ATOM      1  O   UNL A   1      42.987  20.518  25.713  1.00  0.00    -0.377 OA
ENDROOT
BRANCH   1   2
ATOM      2  C   UNL A   1      44.102  19.831  25.166  1.00  0.00     0.188 C 
BRANCH   2   3
ATOM      3  C   UNL A   1      45.025  20.705  24.319  1.00  0.00     0.188 C 
BRANCH   3   4
ATOM      4  O   UNL A   1      45.268  21.964  24.953  1.00  0.00    -0.376 OA
BRANCH   4   5
ATOM      5  C   UNL A   1      44.437  23.049  24.530  1.00  0.00     0.202 C 
BRANCH   5   6
ATOM      6  C   UNL A   1      43.908  23.904  25.678  1.00  0.00     0.261 C 
BRANCH   6   7
ATOM      7  O   UNL A   1      43.522  25.202  25.219  1.00  0.00    -0.460 OA
BRANCH   7   8
ATOM      8  C   UNL A   1      42.505  25.961  25.697  1.00  0.00     0.338 C 
ATOM      9  O   UNL A   1      41.564  26.197  24.938  1.00  0.00    -0.246 OA
BRANCH   8  10
ATOM     10  C   UNL A   1      42.438  26.521  27.090  1.00  0.00     0.060 A 
ATOM     11  C   UNL A   1      41.723  25.994  28.172  1.00  0.00     0.016 A 
ATOM     12  C   UNL A   1      43.217  27.667  27.322  1.00  0.00     0.016 A 
ATOM     13  C   UNL A   1      41.719  26.604  29.415  1.00  0.00     0.010 A 
ATOM     14  C   UNL A   1      43.221  28.295  28.567  1.00  0.00     0.010 A 
ATOM     15  C   UNL A   1      42.433  27.779  29.599  1.00  0.00    -0.014 A 
BRANCH  15  16
ATOM     16  C   UNL A   1      42.121  28.572  30.792  1.00  0.00     0.031 A 
ATOM     17  C   UNL A   1      40.892  29.426  30.732  1.00  0.00     0.074 A 
ATOM     18  C   UNL A   1      42.831  28.400  31.918  1.00  0.00     0.049 A 
ATOM     19  N   UNL A   1      40.433  30.280  31.601  1.00  0.00    -0.248 NA
ATOM     20  C   UNL A   1      40.059  29.289  29.523  1.00  0.00     0.031 C 
ATOM     21  C   UNL A   1      43.933  27.449  32.085  1.00  0.00     0.029 A 
ATOM     22  N   UNL A   1      42.717  29.003  33.138  1.00  0.00    -0.354 N 
ATOM     23  C   UNL A   1      39.285  30.812  31.027  1.00  0.00     0.074 A 
ATOM     24  C   UNL A   1      39.113  30.186  29.738  1.00  0.00     0.031 C 
ATOM     25  C   UNL A   1      44.398  27.538  33.342  1.00  0.00     0.029 A 
ATOM     26  C   UNL A   1      43.674  28.596  34.037  1.00  0.00     0.049 A 
ATOM     27  H   UNL A   1      42.019  29.662  33.353  1.00  0.00     0.167 HD
ATOM     28  C   UNL A   1      38.461  31.752  31.541  1.00  0.00     0.037 A 
ATOM     29  C   UNL A   1      43.947  29.075  35.263  1.00  0.00     0.037 A 
ATOM     30  C   UNL A   1      38.687  32.345  32.830  1.00  0.00     0.049 A 
ATOM     31  C   UNL A   1      43.090  30.205  35.772  1.00  0.00     0.074 A 
ATOM     32  C   UNL A   1      37.983  33.354  33.456  1.00  0.00     0.029 A 
ATOM     33  N   UNL A   1      39.714  31.970  33.691  1.00  0.00    -0.354 N 
ATOM     34  N   UNL A   1      42.053  30.773  35.197  1.00  0.00    -0.248 NA
ATOM     35  C   UNL A   1      43.442  30.770  37.077  1.00  0.00     0.031 C 
ATOM     36  C   UNL A   1      38.618  33.626  34.674  1.00  0.00     0.029 A 
ATOM     37  C   UNL A   1      39.679  32.743  34.835  1.00  0.00     0.049 A 
ATOM     38  H   UNL A   1      40.369  31.260  33.511  1.00  0.00     0.167 HD
ATOM     39  C   UNL A   1      41.613  31.750  36.079  1.00  0.00     0.074 A 
ATOM     40  C   UNL A   1      42.492  31.683  37.232  1.00  0.00     0.031 C 
ATOM     41  C   UNL A   1      40.581  32.625  35.958  1.00  0.00     0.037 A 
BRANCH  28  42
ATOM     42  C   UNL A   1      37.341  32.237  30.663  1.00  0.00     0.058 A 
ATOM     43  C   UNL A   1      37.491  33.321  29.781  1.00  0.00     0.135 A 
ATOM     44  C   UNL A   1      36.070  31.649  30.760  1.00  0.00     0.135 A 
ATOM     45  F   UNL A   1      38.674  33.948  29.675  1.00  0.00    -0.206 F 
ATOM     46  C   UNL A   1      36.413  33.828  29.061  1.00  0.00     0.059 A 
ATOM     47  C   UNL A   1      34.985  32.120  30.027  1.00  0.00     0.059 A 
ATOM     48  F   UNL A   1      35.862  30.621  31.599  1.00  0.00    -0.206 F 
ATOM     49  C   UNL A   1      35.161  33.224  29.195  1.00  0.00     0.060 A 
BRANCH  49  50
ATOM     50  S   UNL A   1      33.769  33.916  28.278  1.00  0.00     0.124 S 
ATOM     51  O   UNL A   1      32.987  34.524  29.350  1.00  0.00    -0.237 OA
ATOM     52  O   UNL A   1      34.422  34.839  27.365  1.00  0.00    -0.237 OA
ATOM     53  O   UNL A   1      33.160  32.739  27.652  1.00  0.00    -0.744 OA
ENDBRANCH  49  50
ENDBRANCH  28  42
BRANCH  29  54
ATOM     54  C   UNL A   1      45.090  28.530  36.044  1.00  0.00     0.058 A 
ATOM     55  C   UNL A   1      46.349  29.145  36.022  1.00  0.00     0.135 A 
ATOM     56  C   UNL A   1      44.939  27.393  36.857  1.00  0.00     0.135 A 
ATOM     57  F   UNL A   1      46.552  30.229  35.257  1.00  0.00    -0.206 F 
ATOM     58  C   UNL A   1      47.418  28.653  36.767  1.00  0.00     0.059 A 
ATOM     59  C   UNL A   1      45.983  26.899  37.634  1.00  0.00     0.059 A 
ATOM     60  F   UNL A   1      43.754  26.766  36.925  1.00  0.00    -0.206 F 
ATOM     61  C   UNL A   1      47.222  27.531  37.576  1.00  0.00     0.060 A 
BRANCH  61  62
ATOM     62  S   UNL A   1      48.604  26.930  38.573  1.00  0.00     0.124 S 
ATOM     63  O   UNL A   1      49.737  27.196  37.698  1.00  0.00    -0.237 OA
ATOM     64  O   UNL A   1      48.505  27.764  39.766  1.00  0.00    -0.237 OA
ATOM     65  O   UNL A   1      48.282  25.519  38.778  1.00  0.00    -0.744 OA
ENDBRANCH  61  62
ENDBRANCH  29  54
BRANCH  41  66
ATOM     66  C   UNL A   1      40.332  33.543  37.119  1.00  0.00     0.058 A 
ATOM     67  C   UNL A   1      39.395  33.234  38.115  1.00  0.00     0.135 A 
ATOM     68  C   UNL A   1      41.101  34.708  37.267  1.00  0.00     0.135 A 
ATOM     69  F   UNL A   1      38.634  32.134  38.013  1.00  0.00    -0.206 F 
ATOM     70  C   UNL A   1      39.214  34.064  39.214  1.00  0.00     0.059 A 
ATOM     71  C   UNL A   1      40.959  35.534  38.374  1.00  0.00     0.059 A 
ATOM     72  F   UNL A   1      42.020  35.036  36.344  1.00  0.00    -0.206 F 
ATOM     73  C   UNL A   1      40.005  35.209  39.337  1.00  0.00     0.060 A 
BRANCH  73  74
ATOM     74  S   UNL A   1      39.792  36.252  40.793  1.00  0.00     0.124 S 
ATOM     75  O   UNL A   1      40.329  35.398  41.847  1.00  0.00    -0.237 OA
ATOM     76  O   UNL A   1      40.592  37.425  40.455  1.00  0.00    -0.237 OA
ATOM     77  O   UNL A   1      38.349  36.476  40.840  1.00  0.00    -0.744 OA
ENDBRANCH  73  74
ENDBRANCH  41  66
ENDBRANCH  15  16
ENDBRANCH   8  10
ENDBRANCH   7   8
ENDBRANCH   6   7
ENDBRANCH   5   6
ENDBRANCH   4   5
ENDBRANCH   3   4
ENDBRANCH   2   3
ENDBRANCH   1   2
BRANCH   1  78
ATOM     78  C   UNL A   1      41.975  19.686  26.244  1.00  0.00     0.188 C 
BRANCH  78  79
ATOM     79  C   UNL A   1      40.503  20.142  26.250  1.00  0.00     0.188 C 
BRANCH  79  80
ATOM     80  O   UNL A   1      40.173  21.480  25.953  1.00  0.00    -0.376 OA
BRANCH  80  81
ATOM     81  C   UNL A   1      38.841  21.903  26.173  1.00  0.00     0.202 C 
BRANCH  81  82
ATOM     82  C   UNL A   1      38.495  23.406  26.328  1.00  0.00     0.261 C 
BRANCH  82  83
ATOM     83  O   UNL A   1      37.118  23.821  26.086  1.00  0.00    -0.463 OA
BRANCH  83  84
ATOM     84  C   UNL A   1      36.432  23.174  25.109  1.00  0.00     0.312 C 
ATOM     85  O   UNL A   1      36.966  22.759  24.083  1.00  0.00    -0.252 OA
BRANCH  84  86
ATOM     86  C   UNL A   1      34.930  22.964  25.314  1.00  0.00     0.147 C 
ATOM     87  C   UNL A   1      34.057  21.758  24.800  1.00  0.00     0.129 C 
ATOM     88  C   UNL A   1      34.180  24.168  24.678  1.00  0.00     0.157 C 
ATOM     89  C   UNL A   1      33.100  22.484  23.865  1.00  0.00     0.155 C 
ATOM     90  C   UNL A   1      34.305  24.263  23.189  1.00  0.00     0.004 C 
ATOM     91  O   UNL A   1      32.823  23.648  24.687  1.00  0.00    -0.365 OA
ATOM     92  C   UNL A   1      33.662  23.203  22.696  1.00  0.00     0.004 C 
BRANCH  87  93
ATOM     93  C   UNL A   1      33.353  21.092  26.021  1.00  0.00     0.231 C 
ATOM     94  O   UNL A   1      33.229  21.770  27.052  1.00  0.00    -0.274 OA
ATOM     95  N   UNL A   1      32.708  19.875  26.031  1.00  0.00    -0.325 N 
ATOM     96  H   UNL A   1      32.088  19.756  26.787  1.00  0.00     0.169 HD
BRANCH  95  97
ATOM     97  C   UNL A   1      32.769  18.772  25.162  1.00  0.00     0.048 A 
ATOM     98  C   UNL A   1      32.606  18.989  23.789  1.00  0.00     0.026 A 
ATOM     99  C   UNL A   1      33.089  17.494  25.627  1.00  0.00     0.111 A 
ATOM    100  C   UNL A   1      32.946  17.986  22.872  1.00  0.00     0.009 A 
ATOM    101  C   UNL A   1      33.481  16.510  24.701  1.00  0.00     0.271 A 
ATOM    102  C   UNL A   1      33.421  16.754  23.324  1.00  0.00     0.086 A 
BRANCH 101 103
ATOM    103  N   UNL A   1      34.133  15.287  25.187  1.00  0.00     0.062 N 
ATOM    104  O   UNL A   1      35.360  15.307  25.345  1.00  0.00    -0.258 OA
ATOM    105  O   UNL A   1      33.405  14.316  25.446  1.00  0.00    -0.258 OA
ENDBRANCH 101 103
ENDBRANCH  95  97
ENDBRANCH  87  93
ENDBRANCH  84  86
ENDBRANCH  83  84
ENDBRANCH  82  83
ENDBRANCH  81  82
ENDBRANCH  80  81
ENDBRANCH  79  80
ENDBRANCH  78  79
ENDBRANCH   1  78
TORSDOF 26
ENDMDL
MODEL 2
REMARK VINA RESULT:     -10.4      3.176      9.301
REMARK SMILES O=C(OCCOCCOCCOCCOC(=O)[C@@H]1[C@@H](C(=O)Nc2cccc([N+](=O)[O-])c2)[C@@H]2C=C[C@H]1O2)c1ccc(-c2c3nc(c(-c4c(F)cc(S(=O)(=O)[O-])cc4F)c4ccc([nH]4)c(-c4c(F)cc(S(=O)(=O)[O-])cc4F)c4nc(c(-c5c(F)cc(S(=O)(=O)[O-])cc5F)c5ccc2[nH]5)C=C4)C=C3)cc1
REMARK SMILES IDX 9 1 8 2 7 3 6 4 5 5 4 6 3 7 2 8 1 9 37 10 38 11 102 12 39 13
REMARK SMILES IDX 101 14 40 15 41 16 42 17 95 18 43 19 100 20 94 21 96 22
REMARK SMILES IDX 44 23 99 24 93 25 92 26 45 28 79 29 58 30 78 31 59 32 62 33
REMARK SMILES IDX 77 34 97 35 60 36 61 37 76 39 98 40 63 41 46 42 47 43 56 44
REMARK SMILES IDX 48 45 49 46 55 47 57 48 50 49 51 50 52 51 53 52 54 53 80 54
REMARK SMILES IDX 81 55 90 56 82 57 83 58 89 59 91 60 84 61 85 62 86 63 87 64
REMARK SMILES IDX 88 65 64 66 65 67 74 68 66 69 67 70 73 71 75 72 68 73 69 74
REMARK SMILES IDX 70 75 71 76 72 77 10 78 11 79 12 80 13 81 14 82 15 83 16 84
REMARK SMILES IDX 17 85 18 86 19 87 35 88 32 89 34 90 36 91 33 92 20 93 21 94
REMARK SMILES IDX 22 95 23 97 24 98 31 99 25 100 27 101 26 102 28 103 29 104
REMARK SMILES IDX 30 105
REMARK H PARENT 96 27 62 38 22 96
REMARK Flexibility Score: inf
ROOT
ATOM      1  O   UNL A   1      34.516  32.771  29.353  1.00  0.00    -0.377 OA
ENDROOT
BRANCH   1   2
ATOM      2  C   UNL A   1      34.391  33.494  28.139  1.00  0.00     0.188 C 
BRANCH   2   3
ATOM      3  C   UNL A   1      33.006  34.098  27.909  1.00  0.00     0.188 C 
BRANCH   3   4
ATOM      4  O   UNL A   1      32.623  34.941  28.999  1.00  0.00    -0.376 OA
BRANCH   4   5
ATOM      5  C   UNL A   1      33.379  36.146  29.154  1.00  0.00     0.202 C 
BRANCH   5   6
ATOM      6  C   UNL A   1      32.847  37.071  30.246  1.00  0.00     0.261 C 
BRANCH   6   7
ATOM      7  O   UNL A   1      33.339  36.686  31.532  1.00  0.00    -0.460 OA
BRANCH   7   8
ATOM      8  C   UNL A   1      33.264  35.453  32.093  1.00  0.00     0.338 C 
ATOM      9  O   UNL A   1      32.146  35.024  32.380  1.00  0.00    -0.246 OA
BRANCH   8  10
ATOM     10  C   UNL A   1      34.446  34.569  32.371  1.00  0.00     0.060 A 
ATOM     11  C   UNL A   1      34.445  33.368  33.092  1.00  0.00     0.016 A 
ATOM     12  C   UNL A   1      35.662  34.984  31.802  1.00  0.00     0.016 A 
ATOM     13  C   UNL A   1      35.602  32.638  33.302  1.00  0.00     0.010 A 
ATOM     14  C   UNL A   1      36.837  34.261  32.008  1.00  0.00     0.010 A 
ATOM     15  C   UNL A   1      36.805  33.108  32.797  1.00  0.00    -0.014 A 
BRANCH  15  16
ATOM     16  C   UNL A   1      38.034  32.516  33.335  1.00  0.00     0.031 A 
ATOM     17  C   UNL A   1      38.713  31.484  32.488  1.00  0.00     0.074 A 
ATOM     18  C   UNL A   1      38.580  33.006  34.459  1.00  0.00     0.049 A 
ATOM     19  N   UNL A   1      39.754  30.748  32.752  1.00  0.00    -0.248 NA
ATOM     20  C   UNL A   1      38.140  31.259  31.147  1.00  0.00     0.031 C 
ATOM     21  C   UNL A   1      38.052  34.132  35.233  1.00  0.00     0.029 A 
ATOM     22  N   UNL A   1      39.709  32.634  35.131  1.00  0.00    -0.354 N 
ATOM     23  C   UNL A   1      39.934  29.945  31.633  1.00  0.00     0.074 A 
ATOM     24  C   UNL A   1      38.899  30.282  30.684  1.00  0.00     0.031 C 
ATOM     25  C   UNL A   1      38.859  34.355  36.283  1.00  0.00     0.029 A 
ATOM     26  C   UNL A   1      39.914  33.347  36.287  1.00  0.00     0.049 A 
ATOM     27  H   UNL A   1      40.317  31.925  34.817  1.00  0.00     0.167 HD
ATOM     28  C   UNL A   1      40.881  29.002  31.434  1.00  0.00     0.037 A 
ATOM     29  C   UNL A   1      40.830  33.157  37.253  1.00  0.00     0.037 A 
ATOM     30  C   UNL A   1      41.884  28.706  32.420  1.00  0.00     0.049 A 
ATOM     31  C   UNL A   1      41.805  32.024  37.068  1.00  0.00     0.074 A 
ATOM     32  C   UNL A   1      42.866  27.736  32.394  1.00  0.00     0.029 A 
ATOM     33  N   UNL A   1      42.022  29.392  33.623  1.00  0.00    -0.354 N 
ATOM     34  N   UNL A   1      41.927  31.202  36.049  1.00  0.00    -0.248 NA
ATOM     35  C   UNL A   1      42.751  31.777  38.160  1.00  0.00     0.031 C 
ATOM     36  C   UNL A   1      43.563  27.800  33.606  1.00  0.00     0.029 A 
ATOM     37  C   UNL A   1      43.057  28.853  34.360  1.00  0.00     0.049 A 
ATOM     38  H   UNL A   1      41.463  30.149  33.906  1.00  0.00     0.167 HD
ATOM     39  C   UNL A   1      42.979  30.352  36.365  1.00  0.00     0.074 A 
ATOM     40  C   UNL A   1      43.464  30.772  37.667  1.00  0.00     0.031 C 
ATOM     41  C   UNL A   1      43.501  29.320  35.653  1.00  0.00     0.037 A 
BRANCH  28  42
ATOM     42  C   UNL A   1      40.789  28.191  30.172  1.00  0.00     0.058 A 
ATOM     43  C   UNL A   1      39.797  27.215  29.975  1.00  0.00     0.135 A 
ATOM     44  C   UNL A   1      41.756  28.346  29.167  1.00  0.00     0.135 A 
ATOM     45  F   UNL A   1      38.868  26.995  30.919  1.00  0.00    -0.206 F 
ATOM     46  C   UNL A   1      39.795  26.395  28.849  1.00  0.00     0.059 A 
ATOM     47  C   UNL A   1      41.756  27.558  28.019  1.00  0.00     0.059 A 
ATOM     48  F   UNL A   1      42.739  29.251  29.308  1.00  0.00    -0.206 F 
ATOM     49  C   UNL A   1      40.784  26.571  27.879  1.00  0.00     0.060 A 
BRANCH  49  50
ATOM     50  S   UNL A   1      40.784  25.478  26.442  1.00  0.00     0.124 S 
ATOM     51  O   UNL A   1      41.045  26.420  25.359  1.00  0.00    -0.237 OA
ATOM     52  O   UNL A   1      41.859  24.551  26.754  1.00  0.00    -0.237 OA
ATOM     53  O   UNL A   1      39.436  24.902  26.457  1.00  0.00    -0.744 OA
ENDBRANCH  49  50
ENDBRANCH  28  42
BRANCH  29  54
ATOM     54  C   UNL A   1      40.824  34.011  38.471  1.00  0.00     0.058 A 
ATOM     55  C   UNL A   1      41.607  35.171  38.552  1.00  0.00     0.135 A 
ATOM     56  C   UNL A   1      40.009  33.701  39.574  1.00  0.00     0.135 A 
ATOM     57  F   UNL A   1      42.410  35.510  37.532  1.00  0.00    -0.206 F 
ATOM     58  C   UNL A   1      41.591  35.987  39.681  1.00  0.00     0.059 A 
ATOM     59  C   UNL A   1      39.953  34.516  40.700  1.00  0.00     0.059 A 
ATOM     60  F   UNL A   1      39.232  32.607  39.549  1.00  0.00    -0.206 F 
ATOM     61  C   UNL A   1      40.754  35.654  40.748  1.00  0.00     0.060 A 
BRANCH  61  62
ATOM     62  S   UNL A   1      40.708  36.746  42.187  1.00  0.00     0.124 S 
ATOM     63  O   UNL A   1      41.337  37.951  41.663  1.00  0.00    -0.237 OA
ATOM     64  O   UNL A   1      39.277  36.835  42.457  1.00  0.00    -0.237 OA
ATOM     65  O   UNL A   1      41.481  36.014  43.189  1.00  0.00    -0.744 OA
ENDBRANCH  61  62
ENDBRANCH  29  54
BRANCH  41  66
ATOM     66  C   UNL A   1      44.678  28.610  36.257  1.00  0.00     0.058 A 
ATOM     67  C   UNL A   1      45.987  29.087  36.100  1.00  0.00     0.135 A 
ATOM     68  C   UNL A   1      44.475  27.480  37.064  1.00  0.00     0.135 A 
ATOM     69  F   UNL A   1      46.230  30.161  35.332  1.00  0.00    -0.206 F 
ATOM     70  C   UNL A   1      47.062  28.454  36.709  1.00  0.00     0.059 A 
ATOM     71  C   UNL A   1      45.532  26.851  37.709  1.00  0.00     0.059 A 
ATOM     72  F   UNL A   1      43.237  26.996  37.254  1.00  0.00    -0.206 F 
ATOM     73  C   UNL A   1      46.823  27.339  37.517  1.00  0.00     0.060 A 
BRANCH  73  74
ATOM     74  S   UNL A   1      48.223  26.555  38.340  1.00  0.00     0.124 S 
ATOM     75  O   UNL A   1      48.072  27.046  39.706  1.00  0.00    -0.237 OA
ATOM     76  O   UNL A   1      47.946  25.136  38.140  1.00  0.00    -0.237 OA
ATOM     77  O   UNL A   1      49.377  27.072  37.611  1.00  0.00    -0.744 OA
ENDBRANCH  73  74
ENDBRANCH  41  66
ENDBRANCH  15  16
ENDBRANCH   8  10
ENDBRANCH   7   8
ENDBRANCH   6   7
ENDBRANCH   5   6
ENDBRANCH   4   5
ENDBRANCH   3   4
ENDBRANCH   2   3
ENDBRANCH   1   2
BRANCH   1  78
ATOM     78  C   UNL A   1      35.061  31.472  29.221  1.00  0.00     0.188 C 
BRANCH  78  79
ATOM     79  C   UNL A   1      35.894  31.090  27.982  1.00  0.00     0.188 C 
BRANCH  79  80
ATOM     80  O   UNL A   1      35.550  29.959  27.216  1.00  0.00    -0.376 OA
BRANCH  80  81
ATOM     81  C   UNL A   1      34.272  29.383  27.412  1.00  0.00     0.202 C 
BRANCH  81  82
ATOM     82  C   UNL A   1      33.761  28.241  26.497  1.00  0.00     0.261 C 
BRANCH  82  83
ATOM     83  O   UNL A   1      33.189  28.601  25.205  1.00  0.00    -0.463 OA
BRANCH  83  84
ATOM     84  C   UNL A   1      31.842  28.755  25.141  1.00  0.00     0.312 C 
ATOM     85  O   UNL A   1      31.293  29.854  25.191  1.00  0.00    -0.252 OA
BRANCH  84  86
ATOM     86  C   UNL A   1      30.986  27.493  25.000  1.00  0.00     0.147 C 
ATOM     87  C   UNL A   1      31.493  26.011  24.835  1.00  0.00     0.129 C 
ATOM     88  C   UNL A   1      30.096  27.648  23.736  1.00  0.00     0.157 C 
ATOM     89  C   UNL A   1      30.934  25.677  23.459  1.00  0.00     0.155 C 
ATOM     90  C   UNL A   1      30.851  27.686  22.443  1.00  0.00     0.004 C 
ATOM     91  O   UNL A   1      29.621  26.281  23.598  1.00  0.00    -0.365 OA
ATOM     92  C   UNL A   1      31.392  26.475  22.296  1.00  0.00     0.004 C 
BRANCH  87  93
ATOM     93  C   UNL A   1      30.893  25.143  25.982  1.00  0.00     0.231 C 
ATOM     94  O   UNL A   1      30.014  25.658  26.690  1.00  0.00    -0.274 OA
ATOM     95  N   UNL A   1      31.120  23.803  26.201  1.00  0.00    -0.325 N 
ATOM     96  H   UNL A   1      30.448  23.371  26.775  1.00  0.00     0.169 HD
BRANCH  95  97
ATOM     97  C   UNL A   1      32.135  22.937  25.755  1.00  0.00     0.048 A 
ATOM     98  C   UNL A   1      31.777  21.665  25.295  1.00  0.00     0.026 A 
ATOM     99  C   UNL A   1      33.464  23.357  25.665  1.00  0.00     0.111 A 
ATOM    100  C   UNL A   1      32.698  20.890  24.579  1.00  0.00     0.009 A 
ATOM    101  C   UNL A   1      34.368  22.599  24.899  1.00  0.00     0.271 A 
ATOM    102  C   UNL A   1      33.988  21.370  24.346  1.00  0.00     0.086 A 
BRANCH 101 103
ATOM    103  N   UNL A   1      35.659  23.188  24.521  1.00  0.00     0.062 N 
ATOM    104  O   UNL A   1      36.117  22.916  23.404  1.00  0.00    -0.258 OA
ATOM    105  O   UNL A   1      36.196  23.957  25.335  1.00  0.00    -0.258 OA
ENDBRANCH 101 103
ENDBRANCH  95  97
ENDBRANCH  87  93
ENDBRANCH  84  86
ENDBRANCH  83  84
ENDBRANCH  82  83
ENDBRANCH  81  82
ENDBRANCH  80  81
ENDBRANCH  79  80
ENDBRANCH  78  79
ENDBRANCH   1  78
TORSDOF 26
ENDMDL
MODEL 3
REMARK VINA RESULT:     -10.2      6.301     12.340
REMARK SMILES O=C(OCCOCCOCCOCCOC(=O)[C@@H]1[C@@H](C(=O)Nc2cccc([N+](=O)[O-])c2)[C@@H]2C=C[C@H]1O2)c1ccc(-c2c3nc(c(-c4c(F)cc(S(=O)(=O)[O-])cc4F)c4ccc([nH]4)c(-c4c(F)cc(S(=O)(=O)[O-])cc4F)c4nc(c(-c5c(F)cc(S(=O)(=O)[O-])cc5F)c5ccc2[nH]5)C=C4)C=C3)cc1
REMARK SMILES IDX 9 1 8 2 7 3 6 4 5 5 4 6 3 7 2 8 1 9 37 10 38 11 102 12 39 13
REMARK SMILES IDX 101 14 40 15 41 16 42 17 95 18 43 19 100 20 94 21 96 22
REMARK SMILES IDX 44 23 99 24 93 25 92 26 45 28 79 29 58 30 78 31 59 32 62 33
REMARK SMILES IDX 77 34 97 35 60 36 61 37 76 39 98 40 63 41 46 42 47 43 56 44
REMARK SMILES IDX 48 45 49 46 55 47 57 48 50 49 51 50 52 51 53 52 54 53 80 54
REMARK SMILES IDX 81 55 90 56 82 57 83 58 89 59 91 60 84 61 85 62 86 63 87 64
REMARK SMILES IDX 88 65 64 66 65 67 74 68 66 69 67 70 73 71 75 72 68 73 69 74
REMARK SMILES IDX 70 75 71 76 72 77 10 78 11 79 12 80 13 81 14 82 15 83 16 84
REMARK SMILES IDX 17 85 18 86 19 87 35 88 32 89 34 90 36 91 33 92 20 93 21 94
REMARK SMILES IDX 22 95 23 97 24 98 31 99 25 100 27 101 26 102 28 103 29 104
REMARK SMILES IDX 30 105
REMARK H PARENT 96 27 62 38 22 96
REMARK Flexibility Score: inf
ROOT
ATOM      1  O   UNL A   1      34.982  32.311  27.597  1.00  0.00    -0.377 OA
ENDROOT
BRANCH   1   2
ATOM      2  C   UNL A   1      34.088  33.202  28.245  1.00  0.00     0.188 C 
BRANCH   2   3
ATOM      3  C   UNL A   1      34.759  34.155  29.234  1.00  0.00     0.188 C 
BRANCH   3   4
ATOM      4  O   UNL A   1      35.570  33.440  30.170  1.00  0.00    -0.376 OA
BRANCH   4   5
ATOM      5  C   UNL A   1      34.869  32.611  31.102  1.00  0.00     0.202 C 
BRANCH   5   6
ATOM      6  C   UNL A   1      35.729  32.130  32.267  1.00  0.00     0.261 C 
BRANCH   6   7
ATOM      7  O   UNL A   1      36.850  31.373  31.802  1.00  0.00    -0.460 OA
BRANCH   7   8
ATOM      8  C   UNL A   1      38.153  31.580  32.114  1.00  0.00     0.338 C 
ATOM      9  O   UNL A   1      38.404  32.388  33.009  1.00  0.00    -0.246 OA
BRANCH   8  10
ATOM     10  C   UNL A   1      39.310  30.882  31.458  1.00  0.00     0.060 A 
ATOM     11  C   UNL A   1      40.354  30.204  32.098  1.00  0.00     0.016 A 
ATOM     12  C   UNL A   1      39.301  30.883  30.052  1.00  0.00     0.016 A 
ATOM     13  C   UNL A   1      41.384  29.606  31.390  1.00  0.00     0.010 A 
ATOM     14  C   UNL A   1      40.332  30.290  29.325  1.00  0.00     0.010 A 
ATOM     15  C   UNL A   1      41.395  29.688  30.005  1.00  0.00    -0.014 A 
BRANCH  15  16
ATOM     16  C   UNL A   1      42.655  29.369  29.326  1.00  0.00     0.031 A 
ATOM     17  C   UNL A   1      42.772  28.001  28.729  1.00  0.00     0.074 A 
ATOM     18  C   UNL A   1      43.575  30.327  29.132  1.00  0.00     0.049 A 
ATOM     19  N   UNL A   1      43.792  27.433  28.153  1.00  0.00    -0.248 NA
ATOM     20  C   UNL A   1      41.562  27.159  28.781  1.00  0.00     0.031 C 
ATOM     21  C   UNL A   1      43.435  31.727  29.542  1.00  0.00     0.029 A 
ATOM     22  N   UNL A   1      44.796  30.273  28.524  1.00  0.00    -0.354 N 
ATOM     23  C   UNL A   1      43.362  26.156  27.813  1.00  0.00     0.074 A 
ATOM     24  C   UNL A   1      41.990  26.030  28.245  1.00  0.00     0.031 C 
ATOM     25  C   UNL A   1      44.538  32.400  29.174  1.00  0.00     0.029 A 
ATOM     26  C   UNL A   1      45.480  31.464  28.570  1.00  0.00     0.049 A 
ATOM     27  H   UNL A   1      45.150  29.461  28.093  1.00  0.00     0.167 HD
ATOM     28  C   UNL A   1      44.068  25.179  27.205  1.00  0.00     0.037 A 
ATOM     29  C   UNL A   1      46.746  31.733  28.204  1.00  0.00     0.037 A 
ATOM     30  C   UNL A   1      45.436  25.360  26.802  1.00  0.00     0.049 A 
ATOM     31  C   UNL A   1      47.557  30.598  27.635  1.00  0.00     0.074 A 
ATOM     32  C   UNL A   1      46.303  24.446  26.238  1.00  0.00     0.029 A 
ATOM     33  N   UNL A   1      46.135  26.556  26.934  1.00  0.00    -0.354 N 
ATOM     34  N   UNL A   1      47.183  29.361  27.390  1.00  0.00    -0.248 NA
ATOM     35  C   UNL A   1      48.957  30.881  27.308  1.00  0.00     0.031 C 
ATOM     36  C   UNL A   1      47.543  25.076  26.079  1.00  0.00     0.029 A 
ATOM     37  C   UNL A   1      47.430  26.401  26.483  1.00  0.00     0.049 A 
ATOM     38  H   UNL A   1      45.760  27.391  27.295  1.00  0.00     0.167 HD
ATOM     39  C   UNL A   1      48.294  28.721  26.859  1.00  0.00     0.074 A 
ATOM     40  C   UNL A   1      49.350  29.716  26.808  1.00  0.00     0.031 C 
ATOM     41  C   UNL A   1      48.439  27.434  26.450  1.00  0.00     0.037 A 
BRANCH  28  42
ATOM     42  C   UNL A   1      43.399  23.841  27.050  1.00  0.00     0.058 A 
ATOM     43  C   UNL A   1      43.397  22.877  28.073  1.00  0.00     0.135 A 
ATOM     44  C   UNL A   1      42.808  23.491  25.826  1.00  0.00     0.135 A 
ATOM     45  F   UNL A   1      43.982  23.142  29.252  1.00  0.00    -0.206 F 
ATOM     46  C   UNL A   1      42.872  21.603  27.873  1.00  0.00     0.059 A 
ATOM     47  C   UNL A   1      42.250  22.233  25.613  1.00  0.00     0.059 A 
ATOM     48  F   UNL A   1      42.795  24.365  24.806  1.00  0.00    -0.206 F 
ATOM     49  C   UNL A   1      42.305  21.289  26.635  1.00  0.00     0.060 A 
BRANCH  49  50
ATOM     50  S   UNL A   1      41.659  19.623  26.383  1.00  0.00     0.124 S 
ATOM     51  O   UNL A   1      42.440  19.177  25.234  1.00  0.00    -0.237 OA
ATOM     52  O   UNL A   1      41.962  18.974  27.649  1.00  0.00    -0.237 OA
ATOM     53  O   UNL A   1      40.235  19.850  26.121  1.00  0.00    -0.744 OA
ENDBRANCH  49  50
ENDBRANCH  28  42
BRANCH  29  54
ATOM     54  C   UNL A   1      47.315  33.091  28.413  1.00  0.00     0.058 A 
ATOM     55  C   UNL A   1      47.954  33.438  29.611  1.00  0.00     0.135 A 
ATOM     56  C   UNL A   1      47.258  34.067  27.402  1.00  0.00     0.135 A 
ATOM     57  F   UNL A   1      48.030  32.548  30.612  1.00  0.00    -0.206 F 
ATOM     58  C   UNL A   1      48.508  34.701  29.805  1.00  0.00     0.059 A 
ATOM     59  C   UNL A   1      47.830  35.326  27.561  1.00  0.00     0.059 A 
ATOM     60  F   UNL A   1      46.666  33.789  26.231  1.00  0.00    -0.206 F 
ATOM     61  C   UNL A   1      48.446  35.637  28.770  1.00  0.00     0.060 A 
BRANCH  61  62
ATOM     62  S   UNL A   1      49.210  37.255  29.018  1.00  0.00     0.124 S 
ATOM     63  O   UNL A   1      50.389  37.159  28.169  1.00  0.00    -0.237 OA
ATOM     64  O   UNL A   1      48.162  38.161  28.560  1.00  0.00    -0.237 OA
ATOM     65  O   UNL A   1      49.469  37.287  30.457  1.00  0.00    -0.744 OA
ENDBRANCH  61  62
ENDBRANCH  29  54
BRANCH  41  66
ATOM     66  C   UNL A   1      49.773  27.053  25.878  1.00  0.00     0.058 A 
ATOM     67  C   UNL A   1      50.061  27.204  24.514  1.00  0.00     0.135 A 
ATOM     68  C   UNL A   1      50.796  26.603  26.728  1.00  0.00     0.135 A 
ATOM     69  F   UNL A   1      49.113  27.626  23.663  1.00  0.00    -0.206 F 
ATOM     70  C   UNL A   1      51.317  26.900  24.006  1.00  0.00     0.059 A 
ATOM     71  C   UNL A   1      52.069  26.325  26.245  1.00  0.00     0.059 A 
ATOM     72  F   UNL A   1      50.570  26.456  28.043  1.00  0.00    -0.206 F 
ATOM     73  C   UNL A   1      52.317  26.467  24.881  1.00  0.00     0.060 A 
BRANCH  73  74
ATOM     74  S   UNL A   1      53.956  26.122  24.215  1.00  0.00     0.124 S 
ATOM     75  O   UNL A   1      54.237  24.811  24.790  1.00  0.00    -0.237 OA
ATOM     76  O   UNL A   1      53.719  26.147  22.775  1.00  0.00    -0.237 OA
ATOM     77  O   UNL A   1      54.769  27.221  24.730  1.00  0.00    -0.744 OA
ENDBRANCH  73  74
ENDBRANCH  41  66
ENDBRANCH  15  16
ENDBRANCH   8  10
ENDBRANCH   7   8
ENDBRANCH   6   7
ENDBRANCH   5   6
ENDBRANCH   4   5
ENDBRANCH   3   4
ENDBRANCH   2   3
ENDBRANCH   1   2
BRANCH   1  78
ATOM     78  C   UNL A   1      34.612  30.948  27.656  1.00  0.00     0.188 C 
BRANCH  78  79
ATOM     79  C   UNL A   1      33.175  30.506  27.317  1.00  0.00     0.188 C 
BRANCH  79  80
ATOM     80  O   UNL A   1      32.796  30.286  25.978  1.00  0.00    -0.376 OA
BRANCH  80  81
ATOM     81  C   UNL A   1      32.748  28.952  25.507  1.00  0.00     0.202 C 
BRANCH  81  82
ATOM     82  C   UNL A   1      33.195  27.771  26.406  1.00  0.00     0.261 C 
BRANCH  82  83
ATOM     83  O   UNL A   1      32.161  26.919  26.983  1.00  0.00    -0.463 OA
BRANCH  83  84
ATOM     84  C   UNL A   1      31.543  26.039  26.154  1.00  0.00     0.312 C 
ATOM     85  O   UNL A   1      30.370  25.700  26.295  1.00  0.00    -0.252 OA
BRANCH  84  86
ATOM     86  C   UNL A   1      32.361  25.454  25.000  1.00  0.00     0.147 C 
ATOM     87  C   UNL A   1      31.812  24.812  23.671  1.00  0.00     0.129 C 
ATOM     88  C   UNL A   1      33.225  24.289  25.559  1.00  0.00     0.157 C 
ATOM     89  C   UNL A   1      32.330  23.388  23.813  1.00  0.00     0.155 C 
ATOM     90  C   UNL A   1      32.441  23.110  26.045  1.00  0.00     0.004 C 
ATOM     91  O   UNL A   1      33.660  23.682  24.312  1.00  0.00    -0.365 OA
ATOM     92  C   UNL A   1      31.866  22.578  24.965  1.00  0.00     0.004 C 
BRANCH  87  93
ATOM     93  C   UNL A   1      32.416  25.579  22.455  1.00  0.00     0.231 C 
ATOM     94  O   UNL A   1      33.361  25.046  21.853  1.00  0.00    -0.274 OA
ATOM     95  N   UNL A   1      31.912  26.721  21.874  1.00  0.00    -0.325 N 
ATOM     96  H   UNL A   1      32.248  26.890  20.965  1.00  0.00     0.169 HD
BRANCH  95  97
ATOM     97  C   UNL A   1      31.006  27.690  22.339  1.00  0.00     0.048 A 
ATOM     98  C   UNL A   1      31.220  29.030  21.995  1.00  0.00     0.026 A 
ATOM     99  C   UNL A   1      29.853  27.332  23.042  1.00  0.00     0.111 A 
ATOM    100  C   UNL A   1      30.204  29.975  22.181  1.00  0.00     0.009 A 
ATOM    101  C   UNL A   1      28.817  28.274  23.177  1.00  0.00     0.271 A 
ATOM    102  C   UNL A   1      28.983  29.594  22.740  1.00  0.00     0.086 A 
BRANCH 101 103
ATOM    103  N   UNL A   1      27.488  27.822  23.609  1.00  0.00     0.062 N 
ATOM    104  O   UNL A   1      26.530  28.585  23.432  1.00  0.00    -0.258 OA
ATOM    105  O   UNL A   1      27.401  26.683  24.092  1.00  0.00    -0.258 OA
ENDBRANCH 101 103
ENDBRANCH  95  97
ENDBRANCH  87  93
ENDBRANCH  84  86
ENDBRANCH  83  84
ENDBRANCH  82  83
ENDBRANCH  81  82
ENDBRANCH  80  81
ENDBRANCH  79  80
ENDBRANCH  78  79
ENDBRANCH   1  78
TORSDOF 26
ENDMDL
