MODEL 1
REMARK VINA RESULT:     -10.0      0.000      0.000
REMARK SMILES Cc1cccc(NC(=O)C[C@@H]2CCCCO2)c1C(=O)OCCOCCOCCOCCOC(=O)c1ccc(-c2c3nc(c(-c4c(F)cc(S(=O)(=O)[O-])cc4F)c4ccc([nH]4)c(-c4c(F)cc(S(=O)(=O)[O-])cc4F)c4nc(c(-c5c(F)cc(S(=O)(=O)[O-])cc5F)c5ccc2[nH]5)C=C4)C=C3)cc1
REMARK SMILES IDX 26 1 25 2 24 3 23 4 22 5 21 6 20 7 18 8 19 9 17 10 1 11 2 12
REMARK SMILES IDX 3 13 4 14 6 15 5 16 7 17 8 18 9 20 10 21 11 22 12 23 16 24
REMARK SMILES IDX 13 25 15 26 14 27 27 28 28 29 29 30 30 31 31 32 32 33 33 34
REMARK SMILES IDX 34 35 35 36 36 37 100 38 37 39 99 40 38 41 39 42 40 43 93 44
REMARK SMILES IDX 41 45 98 46 92 47 94 48 42 49 97 50 91 51 90 52 43 54 77 55
REMARK SMILES IDX 56 56 76 57 57 58 60 59 75 60 95 61 58 62 59 63 74 65 96 66
REMARK SMILES IDX 61 67 44 68 45 69 54 70 46 71 47 72 53 73 55 74 48 75 49 76
REMARK SMILES IDX 50 77 51 78 52 79 78 80 79 81 88 82 80 83 81 84 87 85 89 86
REMARK SMILES IDX 82 87 83 88 84 89 85 90 86 91 62 92 63 93 72 94 64 95 65 96
REMARK SMILES IDX 71 97 73 98 66 99 67 100 68 101 69 102 70 103
REMARK H PARENT 7 19 94 53 60 64
REMARK Flexibility Score: inf
ROOT
ATOM      1  O   UNL A   1      40.757  21.128  27.999  1.00  0.00    -0.377 OA
ENDROOT
BRANCH   1   2
ATOM      2  C   UNL A   1      40.680  22.512  27.704  1.00  0.00     0.188 C 
BRANCH   2   3
ATOM      3  C   UNL A   1      39.461  23.105  26.967  1.00  0.00     0.188 C 
BRANCH   3   4
ATOM      4  O   UNL A   1      38.726  22.282  26.084  1.00  0.00    -0.376 OA
BRANCH   4   5
ATOM      5  C   UNL A   1      37.990  22.995  25.114  1.00  0.00     0.202 C 
BRANCH   5   6
ATOM      6  C   UNL A   1      36.986  22.223  24.325  1.00  0.00     0.261 C 
BRANCH   6   7
ATOM      7  O   UNL A   1      36.524  21.190  25.166  1.00  0.00    -0.460 OA
BRANCH   7   8
ATOM      8  C   UNL A   1      35.286  21.445  25.561  1.00  0.00     0.340 C 
ATOM      9  O   UNL A   1      34.977  22.118  26.522  1.00  0.00    -0.246 OA
BRANCH   8  10
ATOM     10  C   UNL A   1      34.293  20.895  24.619  1.00  0.00     0.086 A 
ATOM     11  C   UNL A   1      34.805  18.324  24.699  1.00  0.00     0.045 C 
ATOM     12  C   UNL A   1      33.952  19.536  24.410  1.00  0.00    -0.034 A 
ATOM     13  C   UNL A   1      32.763  19.269  23.718  1.00  0.00     0.004 A 
ATOM     14  C   UNL A   1      31.989  20.306  23.195  1.00  0.00     0.002 A 
ATOM     15  C   UNL A   1      33.640  21.912  23.888  1.00  0.00     0.056 A 
ATOM     16  C   UNL A   1      32.450  21.621  23.239  1.00  0.00     0.027 A 
BRANCH  15  17
ATOM     17  N   UNL A   1      34.225  23.220  23.787  1.00  0.00    -0.325 N 
ATOM     18  C   UNL A   1      33.506  24.253  23.190  1.00  0.00     0.227 C 
ATOM     19  H   UNL A   1      35.130  23.385  24.138  1.00  0.00     0.169 HD
ATOM     20  O   UNL A   1      33.867  24.793  22.148  1.00  0.00    -0.275 OA
BRANCH  18  21
ATOM     21  C   UNL A   1      32.393  24.801  24.019  1.00  0.00     0.132 C 
BRANCH  21  22
ATOM     22  C   UNL A   1      32.522  24.784  25.544  1.00  0.00     0.127 C 
ATOM     23  C   UNL A   1      31.130  24.940  26.163  1.00  0.00     0.033 C 
ATOM     24  O   UNL A   1      33.415  25.689  26.182  1.00  0.00    -0.378 OA
ATOM     25  C   UNL A   1      30.621  26.367  25.979  1.00  0.00     0.005 C 
ATOM     26  C   UNL A   1      33.037  27.051  26.252  1.00  0.00     0.160 C 
ATOM     27  C   UNL A   1      31.592  27.345  26.601  1.00  0.00     0.029 C 
ENDBRANCH  21  22
ENDBRANCH  18  21
ENDBRANCH  15  17
ENDBRANCH   8  10
ENDBRANCH   7   8
ENDBRANCH   6   7
ENDBRANCH   5   6
ENDBRANCH   4   5
ENDBRANCH   3   4
ENDBRANCH   2   3
ENDBRANCH   1   2
BRANCH   1  28
ATOM     28  C   UNL A   1      41.671  20.321  27.251  1.00  0.00     0.188 C 
BRANCH  28  29
ATOM     29  C   UNL A   1      41.136  19.539  26.069  1.00  0.00     0.188 C 
BRANCH  29  30
ATOM     30  O   UNL A   1      42.275  19.109  25.319  1.00  0.00    -0.376 OA
BRANCH  30  31
ATOM     31  C   UNL A   1      43.201  18.290  26.003  1.00  0.00     0.202 C 
BRANCH  31  32
ATOM     32  C   UNL A   1      44.635  18.485  25.520  1.00  0.00     0.261 C 
BRANCH  32  33
ATOM     33  O   UNL A   1      45.082  19.859  25.677  1.00  0.00    -0.460 OA
BRANCH  33  34
ATOM     34  C   UNL A   1      44.975  20.736  24.631  1.00  0.00     0.338 C 
ATOM     35  O   UNL A   1      44.876  20.369  23.470  1.00  0.00    -0.246 OA
BRANCH  34  36
ATOM     36  C   UNL A   1      44.678  22.133  25.059  1.00  0.00     0.060 A 
ATOM     37  C   UNL A   1      44.332  23.158  24.163  1.00  0.00     0.016 A 
ATOM     38  C   UNL A   1      44.746  22.441  26.399  1.00  0.00     0.016 A 
ATOM     39  C   UNL A   1      44.291  24.512  24.574  1.00  0.00     0.010 A 
ATOM     40  C   UNL A   1      44.710  23.766  26.791  1.00  0.00     0.010 A 
ATOM     41  C   UNL A   1      44.565  24.844  25.896  1.00  0.00    -0.014 A 
BRANCH  41  42
ATOM     42  C   UNL A   1      44.833  26.221  26.427  1.00  0.00     0.031 A 
ATOM     43  C   UNL A   1      43.632  27.106  26.757  1.00  0.00     0.074 A 
ATOM     44  C   UNL A   1      46.058  26.467  26.984  1.00  0.00     0.049 A 
ATOM     45  N   UNL A   1      43.640  28.201  27.442  1.00  0.00    -0.248 NA
ATOM     46  C   UNL A   1      42.256  26.749  26.396  1.00  0.00     0.031 C 
ATOM     47  C   UNL A   1      46.363  27.393  28.078  1.00  0.00     0.029 A 
ATOM     48  N   UNL A   1      47.296  25.866  26.821  1.00  0.00    -0.354 N 
ATOM     49  C   UNL A   1      42.359  28.431  27.954  1.00  0.00     0.074 A 
ATOM     50  C   UNL A   1      41.524  27.550  27.182  1.00  0.00     0.031 C 
ATOM     51  C   UNL A   1      47.640  27.303  28.482  1.00  0.00     0.029 A 
ATOM     52  C   UNL A   1      48.313  26.622  27.416  1.00  0.00     0.049 A 
ATOM     53  H   UNL A   1      47.441  25.016  26.346  1.00  0.00     0.167 HD
ATOM     54  C   UNL A   1      42.190  29.238  29.058  1.00  0.00     0.037 A 
ATOM     55  C   UNL A   1      49.201  27.323  26.643  1.00  0.00     0.037 A 
ATOM     56  C   UNL A   1      43.481  29.860  29.440  1.00  0.00     0.049 A 
ATOM     57  C   UNL A   1      48.854  28.836  26.713  1.00  0.00     0.074 A 
ATOM     58  C   UNL A   1      44.204  29.975  30.613  1.00  0.00     0.029 A 
ATOM     59  N   UNL A   1      44.324  30.371  28.448  1.00  0.00    -0.354 N 
ATOM     60  N   UNL A   1      47.618  29.307  26.790  1.00  0.00    -0.248 NA
ATOM     61  C   UNL A   1      49.836  29.854  27.107  1.00  0.00     0.031 C 
ATOM     62  C   UNL A   1      45.548  30.331  30.276  1.00  0.00     0.029 A 
ATOM     63  C   UNL A   1      45.619  30.551  28.903  1.00  0.00     0.049 A 
ATOM     64  H   UNL A   1      44.030  30.579  27.531  1.00  0.00     0.167 HD
ATOM     65  C   UNL A   1      47.627  30.538  27.414  1.00  0.00     0.074 A 
ATOM     66  C   UNL A   1      49.046  30.859  27.533  1.00  0.00     0.031 C 
ATOM     67  C   UNL A   1      46.604  31.206  28.050  1.00  0.00     0.037 A 
BRANCH  54  68
ATOM     68  C   UNL A   1      40.917  29.391  29.950  1.00  0.00     0.058 A 
ATOM     69  C   UNL A   1      40.468  30.680  30.348  1.00  0.00     0.135 A 
ATOM     70  C   UNL A   1      40.131  28.348  30.500  1.00  0.00     0.135 A 
ATOM     71  F   UNL A   1      41.067  31.791  29.898  1.00  0.00    -0.206 F 
ATOM     72  C   UNL A   1      39.376  30.911  31.208  1.00  0.00     0.059 A 
ATOM     73  C   UNL A   1      39.000  28.558  31.326  1.00  0.00     0.059 A 
ATOM     74  F   UNL A   1      40.425  27.060  30.287  1.00  0.00    -0.206 F 
ATOM     75  C   UNL A   1      38.632  29.846  31.687  1.00  0.00     0.060 A 
BRANCH  75  76
ATOM     76  S   UNL A   1      37.174  30.177  32.713  1.00  0.00     0.124 S 
ATOM     77  O   UNL A   1      36.899  28.870  33.304  1.00  0.00    -0.237 OA
ATOM     78  O   UNL A   1      37.666  31.193  33.641  1.00  0.00    -0.237 OA
ATOM     79  O   UNL A   1      36.177  30.651  31.757  1.00  0.00    -0.744 OA
ENDBRANCH  75  76
ENDBRANCH  54  68
BRANCH  55  80
ATOM     80  C   UNL A   1      49.820  26.392  25.633  1.00  0.00     0.058 A 
ATOM     81  C   UNL A   1      49.709  26.870  24.299  1.00  0.00     0.135 A 
ATOM     82  C   UNL A   1      51.014  25.709  25.939  1.00  0.00     0.135 A 
ATOM     83  F   UNL A   1      48.582  27.490  23.910  1.00  0.00    -0.206 F 
ATOM     84  C   UNL A   1      50.808  26.944  23.438  1.00  0.00     0.059 A 
ATOM     85  C   UNL A   1      52.129  25.763  25.078  1.00  0.00     0.059 A 
ATOM     86  F   UNL A   1      51.200  25.205  27.168  1.00  0.00    -0.206 F 
ATOM     87  C   UNL A   1      52.036  26.452  23.865  1.00  0.00     0.060 A 
BRANCH  87  88
ATOM     88  S   UNL A   1      53.521  26.943  22.934  1.00  0.00     0.124 S 
ATOM     89  O   UNL A   1      53.472  28.395  23.020  1.00  0.00    -0.237 OA
ATOM     90  O   UNL A   1      54.593  26.294  23.687  1.00  0.00    -0.237 OA
ATOM     91  O   UNL A   1      53.281  26.378  21.615  1.00  0.00    -0.744 OA
ENDBRANCH  87  88
ENDBRANCH  55  80
BRANCH  67  92
ATOM     92  C   UNL A   1      46.401  32.690  27.812  1.00  0.00     0.058 A 
ATOM     93  C   UNL A   1      45.645  33.174  26.734  1.00  0.00     0.135 A 
ATOM     94  C   UNL A   1      46.772  33.660  28.786  1.00  0.00     0.135 A 
ATOM     95  F   UNL A   1      45.154  32.357  25.792  1.00  0.00    -0.206 F 
ATOM     96  C   UNL A   1      45.332  34.519  26.596  1.00  0.00     0.059 A 
ATOM     97  C   UNL A   1      46.415  34.998  28.696  1.00  0.00     0.059 A 
ATOM     98  F   UNL A   1      47.479  33.347  29.881  1.00  0.00    -0.206 F 
ATOM     99  C   UNL A   1      45.723  35.422  27.578  1.00  0.00     0.060 A 
BRANCH  99 100
ATOM    100  S   UNL A   1      45.315  37.155  27.365  1.00  0.00     0.124 S 
ATOM    101  O   UNL A   1      46.297  37.551  26.360  1.00  0.00    -0.237 OA
ATOM    102  O   UNL A   1      43.930  37.097  26.907  1.00  0.00    -0.237 OA
ATOM    103  O   UNL A   1      45.508  37.719  28.695  1.00  0.00    -0.744 OA
ENDBRANCH  99 100
ENDBRANCH  67  92
ENDBRANCH  41  42
ENDBRANCH  34  36
ENDBRANCH  33  34
ENDBRANCH  32  33
ENDBRANCH  31  32
ENDBRANCH  30  31
ENDBRANCH  29  30
ENDBRANCH  28  29
ENDBRANCH   1  28
TORSDOF 26
ENDMDL
MODEL 2
REMARK VINA RESULT:      -9.7      4.094     10.641
REMARK SMILES Cc1cccc(NC(=O)C[C@@H]2CCCCO2)c1C(=O)OCCOCCOCCOCCOC(=O)c1ccc(-c2c3nc(c(-c4c(F)cc(S(=O)(=O)[O-])cc4F)c4ccc([nH]4)c(-c4c(F)cc(S(=O)(=O)[O-])cc4F)c4nc(c(-c5c(F)cc(S(=O)(=O)[O-])cc5F)c5ccc2[nH]5)C=C4)C=C3)cc1
REMARK SMILES IDX 26 1 25 2 24 3 23 4 22 5 21 6 20 7 18 8 19 9 17 10 1 11 2 12
REMARK SMILES IDX 3 13 4 14 6 15 5 16 7 17 8 18 9 20 10 21 11 22 12 23 16 24
REMARK SMILES IDX 13 25 15 26 14 27 27 28 28 29 29 30 30 31 31 32 32 33 33 34
REMARK SMILES IDX 34 35 35 36 36 37 100 38 37 39 99 40 38 41 39 42 40 43 93 44
REMARK SMILES IDX 41 45 98 46 92 47 94 48 42 49 97 50 91 51 90 52 43 54 77 55
REMARK SMILES IDX 56 56 76 57 57 58 60 59 75 60 95 61 58 62 59 63 74 65 96 66
REMARK SMILES IDX 61 67 44 68 45 69 54 70 46 71 47 72 53 73 55 74 48 75 49 76
REMARK SMILES IDX 50 77 51 78 52 79 78 80 79 81 88 82 80 83 81 84 87 85 89 86
REMARK SMILES IDX 82 87 83 88 84 89 85 90 86 91 62 92 63 93 72 94 64 95 65 96
REMARK SMILES IDX 71 97 73 98 66 99 67 100 68 101 69 102 70 103
REMARK H PARENT 7 19 94 53 60 64
REMARK Flexibility Score: inf
ROOT
ATOM      1  O   UNL A   1      34.105  33.384  30.355  1.00  0.00    -0.377 OA
ENDROOT
BRANCH   1   2
ATOM      2  C   UNL A   1      34.816  32.317  29.752  1.00  0.00     0.188 C 
BRANCH   2   3
ATOM      3  C   UNL A   1      34.752  32.073  28.230  1.00  0.00     0.188 C 
BRANCH   3   4
ATOM      4  O   UNL A   1      33.646  31.376  27.693  1.00  0.00    -0.376 OA
BRANCH   4   5
ATOM      5  C   UNL A   1      33.972  30.117  27.146  1.00  0.00     0.202 C 
BRANCH   5   6
ATOM      6  C   UNL A   1      33.154  29.651  25.988  1.00  0.00     0.261 C 
BRANCH   6   7
ATOM      7  O   UNL A   1      32.834  28.302  26.240  1.00  0.00    -0.460 OA
BRANCH   7   8
ATOM      8  C   UNL A   1      32.692  27.648  25.097  1.00  0.00     0.340 C 
ATOM      9  O   UNL A   1      33.597  27.206  24.421  1.00  0.00    -0.246 OA
BRANCH   8  10
ATOM     10  C   UNL A   1      31.270  27.416  24.779  1.00  0.00     0.086 A 
ATOM     11  C   UNL A   1      30.627  29.588  23.459  1.00  0.00     0.045 C 
ATOM     12  C   UNL A   1      30.444  28.156  23.898  1.00  0.00    -0.034 A 
ATOM     13  C   UNL A   1      29.237  27.565  23.498  1.00  0.00     0.004 A 
ATOM     14  C   UNL A   1      28.838  26.330  24.011  1.00  0.00     0.002 A 
ATOM     15  C   UNL A   1      30.751  26.297  25.468  1.00  0.00     0.056 A 
ATOM     16  C   UNL A   1      29.570  25.720  25.029  1.00  0.00     0.027 A 
BRANCH  15  17
ATOM     17  N   UNL A   1      31.422  25.790  26.633  1.00  0.00    -0.325 N 
ATOM     18  C   UNL A   1      31.699  24.429  26.732  1.00  0.00     0.227 C 
ATOM     19  H   UNL A   1      31.684  26.402  27.358  1.00  0.00     0.169 HD
ATOM     20  O   UNL A   1      31.191  23.712  27.590  1.00  0.00    -0.275 OA
BRANCH  18  21
ATOM     21  C   UNL A   1      32.817  23.953  25.867  1.00  0.00     0.132 C 
BRANCH  21  22
ATOM     22  C   UNL A   1      32.548  22.845  24.845  1.00  0.00     0.127 C 
ATOM     23  C   UNL A   1      33.887  22.323  24.315  1.00  0.00     0.033 C 
ATOM     24  O   UNL A   1      31.684  23.102  23.746  1.00  0.00    -0.378 OA
ATOM     25  C   UNL A   1      34.533  23.352  23.392  1.00  0.00     0.005 C 
ATOM     26  C   UNL A   1      32.172  23.919  22.698  1.00  0.00     0.160 C 
ATOM     27  C   UNL A   1      33.599  23.679  22.249  1.00  0.00     0.029 C 
ENDBRANCH  21  22
ENDBRANCH  18  21
ENDBRANCH  15  17
ENDBRANCH   8  10
ENDBRANCH   7   8
ENDBRANCH   6   7
ENDBRANCH   5   6
ENDBRANCH   4   5
ENDBRANCH   3   4
ENDBRANCH   2   3
ENDBRANCH   1   2
BRANCH   1  28
ATOM     28  C   UNL A   1      33.919  34.589  29.608  1.00  0.00     0.188 C 
BRANCH  28  29
ATOM     29  C   UNL A   1      33.096  35.700  30.227  1.00  0.00     0.188 C 
BRANCH  29  30
ATOM     30  O   UNL A   1      32.894  35.340  31.595  1.00  0.00    -0.376 OA
BRANCH  30  31
ATOM     31  C   UNL A   1      33.464  36.203  32.559  1.00  0.00     0.202 C 
BRANCH  31  32
ATOM     32  C   UNL A   1      34.395  35.477  33.527  1.00  0.00     0.261 C 
BRANCH  32  33
ATOM     33  O   UNL A   1      35.764  35.440  33.045  1.00  0.00    -0.460 OA
BRANCH  33  34
ATOM     34  C   UNL A   1      36.398  34.237  32.877  1.00  0.00     0.338 C 
ATOM     35  O   UNL A   1      35.856  33.168  33.112  1.00  0.00    -0.246 OA
BRANCH  34  36
ATOM     36  C   UNL A   1      37.666  34.340  32.099  1.00  0.00     0.060 A 
ATOM     37  C   UNL A   1      37.728  34.206  30.703  1.00  0.00     0.016 A 
ATOM     38  C   UNL A   1      38.839  34.577  32.779  1.00  0.00     0.016 A 
ATOM     39  C   UNL A   1      38.967  34.072  30.031  1.00  0.00     0.010 A 
ATOM     40  C   UNL A   1      40.044  34.440  32.116  1.00  0.00     0.010 A 
ATOM     41  C   UNL A   1      40.154  34.105  30.753  1.00  0.00    -0.014 A 
BRANCH  41  42
ATOM     42  C   UNL A   1      41.510  33.709  30.248  1.00  0.00     0.031 A 
ATOM     43  C   UNL A   1      41.955  32.261  30.451  1.00  0.00     0.074 A 
ATOM     44  C   UNL A   1      42.090  34.490  29.286  1.00  0.00     0.049 A 
ATOM     45  N   UNL A   1      42.952  31.669  29.885  1.00  0.00    -0.248 NA
ATOM     46  C   UNL A   1      41.209  31.309  31.281  1.00  0.00     0.031 C 
ATOM     47  C   UNL A   1      42.995  34.055  28.219  1.00  0.00     0.029 A 
ATOM     48  N   UNL A   1      41.917  35.819  28.932  1.00  0.00    -0.354 N 
ATOM     49  C   UNL A   1      42.739  30.286  29.910  1.00  0.00     0.074 A 
ATOM     50  C   UNL A   1      41.692  30.124  30.883  1.00  0.00     0.031 C 
ATOM     51  C   UNL A   1      43.282  35.045  27.358  1.00  0.00     0.029 A 
ATOM     52  C   UNL A   1      42.913  36.246  28.047  1.00  0.00     0.049 A 
ATOM     53  H   UNL A   1      41.186  36.390  29.263  1.00  0.00     0.167 HD
ATOM     54  C   UNL A   1      43.382  29.471  29.004  1.00  0.00     0.037 A 
ATOM     55  C   UNL A   1      43.903  37.094  28.469  1.00  0.00     0.037 A 
ATOM     56  C   UNL A   1      44.350  30.259  28.203  1.00  0.00     0.049 A 
ATOM     57  C   UNL A   1      45.225  36.293  28.631  1.00  0.00     0.074 A 
ATOM     58  C   UNL A   1      44.612  30.411  26.854  1.00  0.00     0.029 A 
ATOM     59  N   UNL A   1      45.160  31.209  28.834  1.00  0.00    -0.354 N 
ATOM     60  N   UNL A   1      45.281  35.040  29.056  1.00  0.00    -0.248 NA
ATOM     61  C   UNL A   1      46.472  36.684  27.962  1.00  0.00     0.031 C 
ATOM     62  C   UNL A   1      45.389  31.600  26.680  1.00  0.00     0.029 A 
ATOM     63  C   UNL A   1      45.706  32.111  27.937  1.00  0.00     0.049 A 
ATOM     64  H   UNL A   1      45.323  31.234  29.805  1.00  0.00     0.167 HD
ATOM     65  C   UNL A   1      46.412  34.428  28.554  1.00  0.00     0.074 A 
ATOM     66  C   UNL A   1      47.152  35.520  27.929  1.00  0.00     0.031 C 
ATOM     67  C   UNL A   1      46.687  33.087  28.395  1.00  0.00     0.037 A 
BRANCH  54  68
ATOM     68  C   UNL A   1      43.075  27.976  28.670  1.00  0.00     0.058 A 
ATOM     69  C   UNL A   1      41.786  27.591  28.210  1.00  0.00     0.135 A 
ATOM     70  C   UNL A   1      43.948  26.872  28.828  1.00  0.00     0.135 A 
ATOM     71  F   UNL A   1      40.836  28.505  27.968  1.00  0.00    -0.206 F 
ATOM     72  C   UNL A   1      41.398  26.262  27.953  1.00  0.00     0.059 A 
ATOM     73  C   UNL A   1      43.596  25.533  28.530  1.00  0.00     0.059 A 
ATOM     74  F   UNL A   1      45.190  27.020  29.302  1.00  0.00    -0.206 F 
ATOM     75  C   UNL A   1      42.311  25.231  28.102  1.00  0.00     0.060 A 
BRANCH  75  76
ATOM     76  S   UNL A   1      41.813  23.541  27.673  1.00  0.00     0.124 S 
ATOM     77  O   UNL A   1      42.343  22.761  28.788  1.00  0.00    -0.237 OA
ATOM     78  O   UNL A   1      40.357  23.646  27.616  1.00  0.00    -0.237 OA
ATOM     79  O   UNL A   1      42.461  23.305  26.385  1.00  0.00    -0.744 OA
ENDBRANCH  75  76
ENDBRANCH  54  68
BRANCH  55  80
ATOM     80  C   UNL A   1      43.276  38.304  29.110  1.00  0.00     0.058 A 
ATOM     81  C   UNL A   1      43.773  38.558  30.418  1.00  0.00     0.135 A 
ATOM     82  C   UNL A   1      42.987  39.446  28.336  1.00  0.00     0.135 A 
ATOM     83  F   UNL A   1      44.028  37.526  31.241  1.00  0.00    -0.206 F 
ATOM     84  C   UNL A   1      44.241  39.816  30.809  1.00  0.00     0.059 A 
ATOM     85  C   UNL A   1      43.441  40.724  28.719  1.00  0.00     0.059 A 
ATOM     86  F   UNL A   1      42.496  39.304  27.096  1.00  0.00    -0.206 F 
ATOM     87  C   UNL A   1      44.137  40.881  29.921  1.00  0.00     0.060 A 
BRANCH  87  88
ATOM     88  S   UNL A   1      45.125  42.372  30.260  1.00  0.00     0.124 S 
ATOM     89  O   UNL A   1      46.283  42.175  29.400  1.00  0.00    -0.237 OA
ATOM     90  O   UNL A   1      44.216  43.448  29.870  1.00  0.00    -0.237 OA
ATOM     91  O   UNL A   1      45.376  42.281  31.690  1.00  0.00    -0.744 OA
ENDBRANCH  87  88
ENDBRANCH  55  80
BRANCH  67  92
ATOM     92  C   UNL A   1      48.046  32.538  28.785  1.00  0.00     0.058 A 
ATOM     93  C   UNL A   1      49.023  32.225  27.829  1.00  0.00     0.135 A 
ATOM     94  C   UNL A   1      48.484  32.524  30.139  1.00  0.00     0.135 A 
ATOM     95  F   UNL A   1      48.772  32.287  26.513  1.00  0.00    -0.206 F 
ATOM     96  C   UNL A   1      50.316  31.865  28.184  1.00  0.00     0.059 A 
ATOM     97  C   UNL A   1      49.789  32.227  30.509  1.00  0.00     0.059 A 
ATOM     98  F   UNL A   1      47.671  32.819  31.163  1.00  0.00    -0.206 F 
ATOM     99  C   UNL A   1      50.688  31.867  29.524  1.00  0.00     0.060 A 
BRANCH  99 100
ATOM    100  S   UNL A   1      52.360  31.384  29.952  1.00  0.00     0.124 S 
ATOM    101  O   UNL A   1      52.719  30.563  28.800  1.00  0.00    -0.237 OA
ATOM    102  O   UNL A   1      53.043  32.672  30.049  1.00  0.00    -0.237 OA
ATOM    103  O   UNL A   1      52.199  30.669  31.213  1.00  0.00    -0.744 OA
ENDBRANCH  99 100
ENDBRANCH  67  92
ENDBRANCH  41  42
ENDBRANCH  34  36
ENDBRANCH  33  34
ENDBRANCH  32  33
ENDBRANCH  31  32
ENDBRANCH  30  31
ENDBRANCH  29  30
ENDBRANCH  28  29
ENDBRANCH   1  28
TORSDOF 26
ENDMDL
MODEL 3
REMARK VINA RESULT:      -9.6      1.617      2.154
REMARK SMILES Cc1cccc(NC(=O)C[C@@H]2CCCCO2)c1C(=O)OCCOCCOCCOCCOC(=O)c1ccc(-c2c3nc(c(-c4c(F)cc(S(=O)(=O)[O-])cc4F)c4ccc([nH]4)c(-c4c(F)cc(S(=O)(=O)[O-])cc4F)c4nc(c(-c5c(F)cc(S(=O)(=O)[O-])cc5F)c5ccc2[nH]5)C=C4)C=C3)cc1
REMARK SMILES IDX 26 1 25 2 24 3 23 4 22 5 21 6 20 7 18 8 19 9 17 10 1 11 2 12
REMARK SMILES IDX 3 13 4 14 6 15 5 16 7 17 8 18 9 20 10 21 11 22 12 23 16 24
REMARK SMILES IDX 13 25 15 26 14 27 27 28 28 29 29 30 30 31 31 32 32 33 33 34
REMARK SMILES IDX 34 35 35 36 36 37 100 38 37 39 99 40 38 41 39 42 40 43 93 44
REMARK SMILES IDX 41 45 98 46 92 47 94 48 42 49 97 50 91 51 90 52 43 54 77 55
REMARK SMILES IDX 56 56 76 57 57 58 60 59 75 60 95 61 58 62 59 63 74 65 96 66
REMARK SMILES IDX 61 67 44 68 45 69 54 70 46 71 47 72 53 73 55 74 48 75 49 76
REMARK SMILES IDX 50 77 51 78 52 79 78 80 79 81 88 82 80 83 81 84 87 85 89 86
REMARK SMILES IDX 82 87 83 88 84 89 85 90 86 91 62 92 63 93 72 94 64 95 65 96
REMARK SMILES IDX 71 97 73 98 66 99 67 100 68 101 69 102 70 103
REMARK H PARENT 7 19 94 53 60 64
REMARK Flexibility Score: inf
ROOT
ATOM      1  O   UNL A   1      40.721  20.911  27.790  1.00  0.00    -0.377 OA
ENDROOT
BRANCH   1   2
ATOM      2  C   UNL A   1      40.325  22.147  27.221  1.00  0.00     0.188 C 
BRANCH   2   3
ATOM      3  C   UNL A   1      39.150  22.227  26.224  1.00  0.00     0.188 C 
BRANCH   3   4
ATOM      4  O   UNL A   1      38.842  21.096  25.434  1.00  0.00    -0.376 OA
BRANCH   4   5
ATOM      5  C   UNL A   1      37.496  21.040  25.014  1.00  0.00     0.202 C 
BRANCH   5   6
ATOM      6  C   UNL A   1      37.025  22.130  24.110  1.00  0.00     0.261 C 
BRANCH   6   7
ATOM      7  O   UNL A   1      35.641  22.272  24.341  1.00  0.00    -0.460 OA
BRANCH   7   8
ATOM      8  C   UNL A   1      35.425  23.238  25.221  1.00  0.00     0.340 C 
ATOM      9  O   UNL A   1      36.234  24.075  25.562  1.00  0.00    -0.246 OA
BRANCH   8  10
ATOM     10  C   UNL A   1      34.022  23.251  25.677  1.00  0.00     0.086 A 
ATOM     11  C   UNL A   1      33.582  20.724  26.220  1.00  0.00     0.045 C 
ATOM     12  C   UNL A   1      33.300  22.205  26.301  1.00  0.00    -0.034 A 
ATOM     13  C   UNL A   1      32.101  22.543  26.943  1.00  0.00     0.004 A 
ATOM     14  C   UNL A   1      31.607  23.848  26.900  1.00  0.00     0.002 A 
ATOM     15  C   UNL A   1      33.401  24.497  25.436  1.00  0.00     0.056 A 
ATOM     16  C   UNL A   1      32.231  24.812  26.109  1.00  0.00     0.027 A 
BRANCH  15  17
ATOM     17  N   UNL A   1      33.958  25.409  24.475  1.00  0.00    -0.325 N 
ATOM     18  C   UNL A   1      33.242  25.715  23.320  1.00  0.00     0.227 C 
ATOM     19  H   UNL A   1      34.840  25.816  24.633  1.00  0.00     0.169 HD
ATOM     20  O   UNL A   1      33.639  25.412  22.198  1.00  0.00    -0.275 OA
BRANCH  18  21
ATOM     21  C   UNL A   1      32.078  26.623  23.527  1.00  0.00     0.132 C 
BRANCH  21  22
ATOM     22  C   UNL A   1      31.787  27.710  22.487  1.00  0.00     0.127 C 
ATOM     23  C   UNL A   1      32.198  29.069  23.061  1.00  0.00     0.033 C 
ATOM     24  O   UNL A   1      30.482  27.817  21.933  1.00  0.00    -0.378 OA
ATOM     25  C   UNL A   1      31.220  29.506  24.148  1.00  0.00     0.005 C 
ATOM     26  C   UNL A   1      29.460  28.356  22.749  1.00  0.00     0.160 C 
ATOM     27  C   UNL A   1      29.818  29.568  23.586  1.00  0.00     0.029 C 
ENDBRANCH  21  22
ENDBRANCH  18  21
ENDBRANCH  15  17
ENDBRANCH   8  10
ENDBRANCH   7   8
ENDBRANCH   6   7
ENDBRANCH   5   6
ENDBRANCH   4   5
ENDBRANCH   3   4
ENDBRANCH   2   3
ENDBRANCH   1   2
BRANCH   1  28
ATOM     28  C   UNL A   1      41.826  20.215  27.207  1.00  0.00     0.188 C 
BRANCH  28  29
ATOM     29  C   UNL A   1      41.543  19.206  26.113  1.00  0.00     0.188 C 
BRANCH  29  30
ATOM     30  O   UNL A   1      42.629  19.297  25.188  1.00  0.00    -0.376 OA
BRANCH  30  31
ATOM     31  C   UNL A   1      43.872  18.792  25.633  1.00  0.00     0.202 C 
BRANCH  31  32
ATOM     32  C   UNL A   1      45.004  19.046  24.642  1.00  0.00     0.261 C 
BRANCH  32  33
ATOM     33  O   UNL A   1      45.724  20.272  24.938  1.00  0.00    -0.460 OA
BRANCH  33  34
ATOM     34  C   UNL A   1      45.349  21.447  24.342  1.00  0.00     0.338 C 
ATOM     35  O   UNL A   1      44.532  21.494  23.435  1.00  0.00    -0.246 OA
BRANCH  34  36
ATOM     36  C   UNL A   1      45.780  22.658  25.098  1.00  0.00     0.060 A 
ATOM     37  C   UNL A   1      45.618  22.801  26.485  1.00  0.00     0.016 A 
ATOM     38  C   UNL A   1      46.366  23.694  24.405  1.00  0.00     0.016 A 
ATOM     39  C   UNL A   1      45.817  24.048  27.125  1.00  0.00     0.010 A 
ATOM     40  C   UNL A   1      46.553  24.909  25.037  1.00  0.00     0.010 A 
ATOM     41  C   UNL A   1      46.214  25.152  26.382  1.00  0.00    -0.014 A 
BRANCH  41  42
ATOM     42  C   UNL A   1      46.202  26.581  26.841  1.00  0.00     0.031 A 
ATOM     43  C   UNL A   1      44.848  27.228  27.130  1.00  0.00     0.074 A 
ATOM     44  C   UNL A   1      47.351  27.091  27.380  1.00  0.00     0.049 A 
ATOM     45  N   UNL A   1      44.636  28.336  27.758  1.00  0.00    -0.248 NA
ATOM     46  C   UNL A   1      43.571  26.588  26.794  1.00  0.00     0.031 C 
ATOM     47  C   UNL A   1      47.461  28.113  28.424  1.00  0.00     0.029 A 
ATOM     48  N   UNL A   1      48.684  26.738  27.242  1.00  0.00    -0.354 N 
ATOM     49  C   UNL A   1      43.331  28.335  28.263  1.00  0.00     0.074 A 
ATOM     50  C   UNL A   1      42.691  27.269  27.540  1.00  0.00     0.031 C 
ATOM     51  C   UNL A   1      48.728  28.297  28.827  1.00  0.00     0.029 A 
ATOM     52  C   UNL A   1      49.529  27.709  27.794  1.00  0.00     0.049 A 
ATOM     53  H   UNL A   1      48.996  25.911  26.811  1.00  0.00     0.167 HD
ATOM     54  C   UNL A   1      43.000  29.147  29.325  1.00  0.00     0.037 A 
ATOM     55  C   UNL A   1      50.266  28.531  26.984  1.00  0.00     0.037 A 
ATOM     56  C   UNL A   1      44.142  30.030  29.670  1.00  0.00     0.049 A 
ATOM     57  C   UNL A   1      49.628  29.947  26.978  1.00  0.00     0.074 A 
ATOM     58  C   UNL A   1      44.820  30.345  30.833  1.00  0.00     0.029 A 
ATOM     59  N   UNL A   1      44.873  30.646  28.650  1.00  0.00    -0.354 N 
ATOM     60  N   UNL A   1      48.323  30.169  27.035  1.00  0.00    -0.248 NA
ATOM     61  C   UNL A   1      50.387  31.158  27.315  1.00  0.00     0.031 C 
ATOM     62  C   UNL A   1      46.070  30.941  30.473  1.00  0.00     0.029 A 
ATOM     63  C   UNL A   1      46.104  31.101  29.090  1.00  0.00     0.049 A 
ATOM     64  H   UNL A   1      44.550  30.746  27.725  1.00  0.00     0.167 HD
ATOM     65  C   UNL A   1      48.085  31.408  27.596  1.00  0.00     0.074 A 
ATOM     66  C   UNL A   1      49.412  32.008  27.693  1.00  0.00     0.031 C 
ATOM     67  C   UNL A   1      46.946  31.893  28.201  1.00  0.00     0.037 A 
BRANCH  54  68
ATOM     68  C   UNL A   1      41.716  29.092  30.213  1.00  0.00     0.058 A 
ATOM     69  C   UNL A   1      40.627  29.970  29.959  1.00  0.00     0.135 A 
ATOM     70  C   UNL A   1      41.501  28.273  31.349  1.00  0.00     0.135 A 
ATOM     71  F   UNL A   1      40.635  30.796  28.904  1.00  0.00    -0.206 F 
ATOM     72  C   UNL A   1      39.462  30.040  30.748  1.00  0.00     0.059 A 
ATOM     73  C   UNL A   1      40.318  28.292  32.128  1.00  0.00     0.059 A 
ATOM     74  F   UNL A   1      42.432  27.417  31.785  1.00  0.00    -0.206 F 
ATOM     75  C   UNL A   1      39.303  29.189  31.829  1.00  0.00     0.060 A 
BRANCH  75  76
ATOM     76  S   UNL A   1      37.754  29.236  32.770  1.00  0.00     0.124 S 
ATOM     77  O   UNL A   1      38.054  30.196  33.828  1.00  0.00    -0.237 OA
ATOM     78  O   UNL A   1      36.790  29.687  31.768  1.00  0.00    -0.237 OA
ATOM     79  O   UNL A   1      37.576  27.855  33.213  1.00  0.00    -0.744 OA
ENDBRANCH  75  76
ENDBRANCH  54  68
BRANCH  55  80
ATOM     80  C   UNL A   1      51.062  27.690  26.020  1.00  0.00     0.058 A 
ATOM     81  C   UNL A   1      50.583  27.775  24.684  1.00  0.00     0.135 A 
ATOM     82  C   UNL A   1      52.461  27.585  26.160  1.00  0.00     0.135 A 
ATOM     83  F   UNL A   1      49.259  27.829  24.459  1.00  0.00    -0.206 F 
ATOM     84  C   UNL A   1      51.426  28.052  23.604  1.00  0.00     0.059 A 
ATOM     85  C   UNL A   1      53.327  27.848  25.080  1.00  0.00     0.059 A 
ATOM     86  F   UNL A   1      53.003  27.479  27.383  1.00  0.00    -0.206 F 
ATOM     87  C   UNL A   1      52.795  28.158  23.825  1.00  0.00     0.060 A 
BRANCH  87  88
ATOM     88  S   UNL A   1      53.809  28.936  22.529  1.00  0.00     0.124 S 
ATOM     89  O   UNL A   1      53.493  28.125  21.362  1.00  0.00    -0.237 OA
ATOM     90  O   UNL A   1      53.301  30.306  22.512  1.00  0.00    -0.237 OA
ATOM     91  O   UNL A   1      55.162  28.799  23.046  1.00  0.00    -0.744 OA
ENDBRANCH  87  88
ENDBRANCH  55  80
BRANCH  67  92
ATOM     92  C   UNL A   1      46.457  33.294  27.888  1.00  0.00     0.058 A 
ATOM     93  C   UNL A   1      45.526  33.547  26.870  1.00  0.00     0.135 A 
ATOM     94  C   UNL A   1      46.739  34.392  28.749  1.00  0.00     0.135 A 
ATOM     95  F   UNL A   1      45.102  32.579  26.044  1.00  0.00    -0.206 F 
ATOM     96  C   UNL A   1      44.963  34.801  26.678  1.00  0.00     0.059 A 
ATOM     97  C   UNL A   1      46.139  35.636  28.610  1.00  0.00     0.059 A 
ATOM     98  F   UNL A   1      47.593  34.301  29.778  1.00  0.00    -0.206 F 
ATOM     99  C   UNL A   1      45.277  35.837  27.549  1.00  0.00     0.060 A 
BRANCH  99 100
ATOM    100  S   UNL A   1      44.545  37.449  27.267  1.00  0.00     0.124 S 
ATOM    101  O   UNL A   1      45.607  38.112  26.517  1.00  0.00    -0.237 OA
ATOM    102  O   UNL A   1      43.344  37.119  26.504  1.00  0.00    -0.237 OA
ATOM    103  O   UNL A   1      44.307  37.959  28.612  1.00  0.00    -0.744 OA
ENDBRANCH  99 100
ENDBRANCH  67  92
ENDBRANCH  41  42
ENDBRANCH  34  36
ENDBRANCH  33  34
ENDBRANCH  32  33
ENDBRANCH  31  32
ENDBRANCH  30  31
ENDBRANCH  29  30
ENDBRANCH  28  29
ENDBRANCH   1  28
TORSDOF 26
ENDMDL
