MODEL 1
REMARK VINA RESULT:      -8.6      0.000      0.000
REMARK SMILES CCn1cc(/C=C/c2cc(C(=O)OCCOCCOCCOCCOC(=O)c3ccc(-c4c5nc(c(-c6c(F)cc(S(=O)(=O)[O-])cc6F)c6ccc([nH]6)c(-c6c(F)cc(S(=O)(=O)[O-])cc6F)c6nc(c(-c7c(F)cc(S(=O)(=O)[O-])cc7F)c7ccc4[nH]7)C=C6)C=C5)cc3)ncn2)cn1
REMARK SMILES IDX 19 1 18 2 17 3 16 4 15 5 14 6 13 7 11 8 12 9 10 10 8 11 9 12
REMARK SMILES IDX 96 13 95 14 94 15 7 16 6 17 5 18 3 19 4 20 98 21 97 22 2 23
REMARK SMILES IDX 1 24 20 25 21 26 22 27 23 28 24 29 25 30 26 31 27 32 28 33
REMARK SMILES IDX 29 34 93 35 30 36 92 37 31 38 32 39 33 40 86 41 34 42 91 43
REMARK SMILES IDX 85 44 87 45 35 46 90 47 84 48 83 49 36 51 70 52 49 53 69 54
REMARK SMILES IDX 50 55 53 56 68 57 88 58 51 59 52 60 67 62 89 63 54 64 37 65
REMARK SMILES IDX 38 66 47 67 39 68 40 69 46 70 48 71 41 72 42 73 43 74 44 75
REMARK SMILES IDX 45 76 71 77 72 78 81 79 73 80 74 81 80 82 82 83 75 84 76 85
REMARK SMILES IDX 77 86 78 87 79 88 55 89 56 90 65 91 57 92 58 93 64 94 66 95
REMARK SMILES IDX 59 96 60 97 61 98 62 99 63 100
REMARK H PARENT 87 50 53 61
REMARK Flexibility Score: inf
ROOT
ATOM      1  O   UNL A   1      32.724  35.122  30.063  1.00  0.00    -0.377 OA
ENDROOT
BRANCH   1   2
ATOM      2  C   UNL A   1      33.659  35.375  29.029  1.00  0.00     0.188 C 
BRANCH   2   3
ATOM      3  C   UNL A   1      33.879  34.178  28.078  1.00  0.00     0.188 C 
BRANCH   3   4
ATOM      4  O   UNL A   1      34.276  32.917  28.588  1.00  0.00    -0.376 OA
BRANCH   4   5
ATOM      5  C   UNL A   1      35.272  32.105  27.994  1.00  0.00     0.202 C 
BRANCH   5   6
ATOM      6  C   UNL A   1      35.036  30.757  27.291  1.00  0.00     0.261 C 
BRANCH   6   7
ATOM      7  O   UNL A   1      33.850  30.043  27.620  1.00  0.00    -0.459 OA
BRANCH   7   8
ATOM      8  C   UNL A   1      32.756  30.306  26.866  1.00  0.00     0.357 C 
ATOM      9  O   UNL A   1      32.063  31.305  26.911  1.00  0.00    -0.244 OA
BRANCH   8  10
ATOM     10  C   UNL A   1      32.644  29.203  25.866  1.00  0.00     0.152 A 
ATOM     11  C   UNL A   1      33.037  27.018  25.160  1.00  0.00     0.067 A 
ATOM     12  C   UNL A   1      33.198  27.974  26.138  1.00  0.00     0.064 A 
ATOM     13  N   UNL A   1      32.485  27.290  23.964  1.00  0.00    -0.237 NA
ATOM     14  C   UNL A   1      32.020  28.535  23.790  1.00  0.00     0.223 A 
ATOM     15  N   UNL A   1      32.039  29.514  24.698  1.00  0.00    -0.229 NA
BRANCH  11  16
ATOM     16  C   UNL A   1      33.418  25.618  25.376  1.00  0.00     0.029 C 
ATOM     17  C   UNL A   1      34.653  25.180  25.080  1.00  0.00     0.013 C 
BRANCH  17  18
ATOM     18  C   UNL A   1      35.179  23.880  25.284  1.00  0.00     0.013 A 
ATOM     19  N   UNL A   1      35.364  21.700  25.180  1.00  0.00    -0.272 N 
ATOM     20  C   UNL A   1      34.584  22.746  24.784  1.00  0.00     0.116 A 
ATOM     21  N   UNL A   1      36.450  22.091  25.879  1.00  0.00    -0.181 NA
ATOM     22  C   UNL A   1      36.322  23.420  25.958  1.00  0.00     0.143 A 
BRANCH  19  23
ATOM     23  C   UNL A   1      35.140  20.282  24.965  1.00  0.00     0.141 C 
ATOM     24  C   UNL A   1      33.694  19.879  24.712  1.00  0.00     0.029 C 
ENDBRANCH  19  23
ENDBRANCH  17  18
ENDBRANCH  11  16
ENDBRANCH   8  10
ENDBRANCH   7   8
ENDBRANCH   6   7
ENDBRANCH   5   6
ENDBRANCH   4   5
ENDBRANCH   3   4
ENDBRANCH   2   3
ENDBRANCH   1   2
BRANCH   1  25
ATOM     25  C   UNL A   1      32.579  36.139  31.056  1.00  0.00     0.188 C 
BRANCH  25  26
ATOM     26  C   UNL A   1      33.720  36.388  32.074  1.00  0.00     0.188 C 
BRANCH  26  27
ATOM     27  O   UNL A   1      34.658  35.328  32.189  1.00  0.00    -0.376 OA
BRANCH  27  28
ATOM     28  C   UNL A   1      34.716  34.500  33.335  1.00  0.00     0.202 C 
BRANCH  28  29
ATOM     29  C   UNL A   1      34.647  32.994  33.121  1.00  0.00     0.261 C 
BRANCH  29  30
ATOM     30  O   UNL A   1      35.863  32.312  33.362  1.00  0.00    -0.460 OA
BRANCH  30  31
ATOM     31  C   UNL A   1      36.265  31.520  32.348  1.00  0.00     0.338 C 
ATOM     32  O   UNL A   1      35.681  31.302  31.306  1.00  0.00    -0.246 OA
BRANCH  31  33
ATOM     33  C   UNL A   1      37.471  30.818  32.782  1.00  0.00     0.060 A 
ATOM     34  C   UNL A   1      38.626  31.583  32.930  1.00  0.00     0.016 A 
ATOM     35  C   UNL A   1      37.495  29.416  32.717  1.00  0.00     0.016 A 
ATOM     36  C   UNL A   1      39.837  30.944  32.811  1.00  0.00     0.010 A 
ATOM     37  C   UNL A   1      38.702  28.785  32.574  1.00  0.00     0.010 A 
ATOM     38  C   UNL A   1      39.851  29.568  32.544  1.00  0.00    -0.014 A 
BRANCH  38  39
ATOM     39  C   UNL A   1      41.137  28.926  32.386  1.00  0.00     0.031 A 
ATOM     40  C   UNL A   1      41.854  28.832  33.676  1.00  0.00     0.074 A 
ATOM     41  C   UNL A   1      41.555  28.402  31.219  1.00  0.00     0.049 A 
ATOM     42  N   UNL A   1      42.890  29.506  34.044  1.00  0.00    -0.248 NA
ATOM     43  C   UNL A   1      41.208  28.081  34.767  1.00  0.00     0.031 C 
ATOM     44  C   UNL A   1      40.791  28.220  29.983  1.00  0.00     0.029 A 
ATOM     45  N   UNL A   1      42.750  27.829  30.919  1.00  0.00    -0.354 N 
ATOM     46  C   UNL A   1      43.186  29.046  35.322  1.00  0.00     0.074 A 
ATOM     47  C   UNL A   1      42.003  28.384  35.794  1.00  0.00     0.031 C 
ATOM     48  C   UNL A   1      41.465  27.382  29.160  1.00  0.00     0.029 A 
ATOM     49  C   UNL A   1      42.757  27.072  29.750  1.00  0.00     0.049 A 
ATOM     50  H   UNL A   1      43.549  27.940  31.485  1.00  0.00     0.167 HD
ATOM     51  C   UNL A   1      44.479  28.968  35.736  1.00  0.00     0.037 A 
ATOM     52  C   UNL A   1      43.737  26.214  29.356  1.00  0.00     0.037 A 
ATOM     53  C   UNL A   1      45.321  29.830  34.939  1.00  0.00     0.049 A 
ATOM     54  C   UNL A   1      44.961  26.586  30.117  1.00  0.00     0.074 A 
ATOM     55  C   UNL A   1      45.326  31.181  34.647  1.00  0.00     0.029 A 
ATOM     56  N   UNL A   1      46.113  29.236  33.986  1.00  0.00    -0.354 N 
ATOM     57  N   UNL A   1      45.619  27.698  29.937  1.00  0.00    -0.248 NA
ATOM     58  C   UNL A   1      45.191  25.924  31.392  1.00  0.00     0.031 C 
ATOM     59  C   UNL A   1      45.734  31.267  33.284  1.00  0.00     0.029 A 
ATOM     60  C   UNL A   1      46.028  29.978  32.838  1.00  0.00     0.049 A 
ATOM     61  H   UNL A   1      46.647  28.419  34.108  1.00  0.00     0.167 HD
ATOM     62  C   UNL A   1      45.990  28.098  31.213  1.00  0.00     0.074 A 
ATOM     63  C   UNL A   1      45.775  26.925  32.057  1.00  0.00     0.031 C 
ATOM     64  C   UNL A   1      46.155  29.419  31.511  1.00  0.00     0.037 A 
BRANCH  51  65
ATOM     65  C   UNL A   1      45.028  27.802  36.534  1.00  0.00     0.058 A 
ATOM     66  C   UNL A   1      45.794  28.077  37.687  1.00  0.00     0.135 A 
ATOM     67  C   UNL A   1      45.091  26.465  36.075  1.00  0.00     0.135 A 
ATOM     68  F   UNL A   1      45.810  29.310  38.220  1.00  0.00    -0.206 F 
ATOM     69  C   UNL A   1      46.632  27.130  38.273  1.00  0.00     0.059 A 
ATOM     70  C   UNL A   1      45.879  25.492  36.677  1.00  0.00     0.059 A 
ATOM     71  F   UNL A   1      44.469  26.040  34.973  1.00  0.00    -0.206 F 
ATOM     72  C   UNL A   1      46.678  25.843  37.749  1.00  0.00     0.060 A 
BRANCH  72  73
ATOM     73  S   UNL A   1      47.812  24.638  38.452  1.00  0.00     0.124 S 
ATOM     74  O   UNL A   1      48.409  24.070  37.250  1.00  0.00    -0.237 OA
ATOM     75  O   UNL A   1      48.680  25.485  39.263  1.00  0.00    -0.237 OA
ATOM     76  O   UNL A   1      46.932  23.749  39.204  1.00  0.00    -0.744 OA
ENDBRANCH  72  73
ENDBRANCH  51  65
BRANCH  52  77
ATOM     77  C   UNL A   1      43.629  24.901  28.656  1.00  0.00     0.058 A 
ATOM     78  C   UNL A   1      43.328  23.729  29.379  1.00  0.00     0.135 A 
ATOM     79  C   UNL A   1      43.500  24.809  27.257  1.00  0.00     0.135 A 
ATOM     80  F   UNL A   1      43.426  23.717  30.718  1.00  0.00    -0.206 F 
ATOM     81  C   UNL A   1      42.838  22.571  28.765  1.00  0.00     0.059 A 
ATOM     82  C   UNL A   1      43.024  23.661  26.620  1.00  0.00     0.059 A 
ATOM     83  F   UNL A   1      43.735  25.865  26.466  1.00  0.00    -0.206 F 
ATOM     84  C   UNL A   1      42.658  22.559  27.384  1.00  0.00     0.060 A 
BRANCH  84  85
ATOM     85  S   UNL A   1      41.812  21.158  26.611  1.00  0.00     0.124 S 
ATOM     86  O   UNL A   1      42.579  20.981  25.383  1.00  0.00    -0.237 OA
ATOM     87  O   UNL A   1      41.965  20.111  27.615  1.00  0.00    -0.237 OA
ATOM     88  O   UNL A   1      40.447  21.647  26.429  1.00  0.00    -0.744 OA
ENDBRANCH  84  85
ENDBRANCH  52  77
BRANCH  64  89
ATOM     89  C   UNL A   1      46.285  30.400  30.376  1.00  0.00     0.058 A 
ATOM     90  C   UNL A   1      45.212  31.028  29.719  1.00  0.00     0.135 A 
ATOM     91  C   UNL A   1      47.579  30.833  30.046  1.00  0.00     0.135 A 
ATOM     92  F   UNL A   1      43.941  30.744  30.042  1.00  0.00    -0.206 F 
ATOM     93  C   UNL A   1      45.422  32.015  28.752  1.00  0.00     0.059 A 
ATOM     94  C   UNL A   1      47.810  31.837  29.115  1.00  0.00     0.059 A 
ATOM     95  F   UNL A   1      48.644  30.310  30.679  1.00  0.00    -0.206 F 
ATOM     96  C   UNL A   1      46.727  32.417  28.461  1.00  0.00     0.060 A 
BRANCH  96  97
ATOM     97  S   UNL A   1      47.001  33.751  27.274  1.00  0.00     0.124 S 
ATOM     98  O   UNL A   1      48.403  34.085  27.507  1.00  0.00    -0.237 OA
ATOM     99  O   UNL A   1      46.707  33.105  25.998  1.00  0.00    -0.237 OA
ATOM    100  O   UNL A   1      46.040  34.773  27.681  1.00  0.00    -0.744 OA
ENDBRANCH  96  97
ENDBRANCH  64  89
ENDBRANCH  38  39
ENDBRANCH  31  33
ENDBRANCH  30  31
ENDBRANCH  29  30
ENDBRANCH  28  29
ENDBRANCH  27  28
ENDBRANCH  26  27
ENDBRANCH  25  26
ENDBRANCH   1  25
TORSDOF 26
ENDMDL
MODEL 2
REMARK VINA RESULT:      -8.1      2.777      7.550
REMARK SMILES CCn1cc(/C=C/c2cc(C(=O)OCCOCCOCCOCCOC(=O)c3ccc(-c4c5nc(c(-c6c(F)cc(S(=O)(=O)[O-])cc6F)c6ccc([nH]6)c(-c6c(F)cc(S(=O)(=O)[O-])cc6F)c6nc(c(-c7c(F)cc(S(=O)(=O)[O-])cc7F)c7ccc4[nH]7)C=C6)C=C5)cc3)ncn2)cn1
REMARK SMILES IDX 19 1 18 2 17 3 16 4 15 5 14 6 13 7 11 8 12 9 10 10 8 11 9 12
REMARK SMILES IDX 96 13 95 14 94 15 7 16 6 17 5 18 3 19 4 20 98 21 97 22 2 23
REMARK SMILES IDX 1 24 20 25 21 26 22 27 23 28 24 29 25 30 26 31 27 32 28 33
REMARK SMILES IDX 29 34 93 35 30 36 92 37 31 38 32 39 33 40 86 41 34 42 91 43
REMARK SMILES IDX 85 44 87 45 35 46 90 47 84 48 83 49 36 51 70 52 49 53 69 54
REMARK SMILES IDX 50 55 53 56 68 57 88 58 51 59 52 60 67 62 89 63 54 64 37 65
REMARK SMILES IDX 38 66 47 67 39 68 40 69 46 70 48 71 41 72 42 73 43 74 44 75
REMARK SMILES IDX 45 76 71 77 72 78 81 79 73 80 74 81 80 82 82 83 75 84 76 85
REMARK SMILES IDX 77 86 78 87 79 88 55 89 56 90 65 91 57 92 58 93 64 94 66 95
REMARK SMILES IDX 59 96 60 97 61 98 62 99 63 100
REMARK H PARENT 87 50 53 61
REMARK Flexibility Score: inf
ROOT
ATOM      1  O   UNL A   1      32.437  36.789  30.904  1.00  0.00    -0.377 OA
ENDROOT
BRANCH   1   2
ATOM      2  C   UNL A   1      32.771  35.863  29.884  1.00  0.00     0.188 C 
BRANCH   2   3
ATOM      3  C   UNL A   1      34.291  35.679  29.678  1.00  0.00     0.188 C 
BRANCH   3   4
ATOM      4  O   UNL A   1      34.781  34.887  28.610  1.00  0.00    -0.376 OA
BRANCH   4   5
ATOM      5  C   UNL A   1      34.063  33.811  28.035  1.00  0.00     0.202 C 
BRANCH   5   6
ATOM      6  C   UNL A   1      34.079  32.352  28.524  1.00  0.00     0.261 C 
BRANCH   6   7
ATOM      7  O   UNL A   1      33.445  31.377  27.704  1.00  0.00    -0.459 OA
BRANCH   7   8
ATOM      8  C   UNL A   1      34.208  30.329  27.310  1.00  0.00     0.357 C 
ATOM      9  O   UNL A   1      35.280  29.993  27.777  1.00  0.00    -0.244 OA
BRANCH   8  10
ATOM     10  C   UNL A   1      33.417  29.577  26.292  1.00  0.00     0.152 A 
ATOM     11  C   UNL A   1      33.092  27.760  24.870  1.00  0.00     0.067 A 
ATOM     12  C   UNL A   1      33.894  28.384  25.798  1.00  0.00     0.064 A 
ATOM     13  N   UNL A   1      31.974  28.326  24.379  1.00  0.00    -0.237 NA
ATOM     14  C   UNL A   1      31.628  29.512  24.899  1.00  0.00     0.223 A 
ATOM     15  N   UNL A   1      32.278  30.165  25.865  1.00  0.00    -0.229 NA
BRANCH  11  16
ATOM     16  C   UNL A   1      33.380  26.406  24.385  1.00  0.00     0.029 C 
ATOM     17  C   UNL A   1      34.284  25.626  24.998  1.00  0.00     0.013 C 
BRANCH  17  18
ATOM     18  C   UNL A   1      34.626  24.287  24.681  1.00  0.00     0.013 A 
ATOM     19  N   UNL A   1      34.527  22.100  24.628  1.00  0.00    -0.272 N 
ATOM     20  C   UNL A   1      33.904  23.206  25.126  1.00  0.00     0.116 A 
ATOM     21  N   UNL A   1      35.592  22.401  23.856  1.00  0.00    -0.181 NA
ATOM     22  C   UNL A   1      35.661  23.736  23.908  1.00  0.00     0.143 A 
BRANCH  19  23
ATOM     23  C   UNL A   1      34.198  20.706  24.857  1.00  0.00     0.141 C 
ATOM     24  C   UNL A   1      33.331  20.430  26.079  1.00  0.00     0.029 C 
ENDBRANCH  19  23
ENDBRANCH  17  18
ENDBRANCH  11  16
ENDBRANCH   8  10
ENDBRANCH   7   8
ENDBRANCH   6   7
ENDBRANCH   5   6
ENDBRANCH   4   5
ENDBRANCH   3   4
ENDBRANCH   2   3
ENDBRANCH   1   2
BRANCH   1  25
ATOM     25  C   UNL A   1      33.506  37.222  31.747  1.00  0.00     0.188 C 
BRANCH  25  26
ATOM     26  C   UNL A   1      33.695  36.577  33.143  1.00  0.00     0.188 C 
BRANCH  26  27
ATOM     27  O   UNL A   1      34.918  35.877  33.317  1.00  0.00    -0.376 OA
BRANCH  27  28
ATOM     28  C   UNL A   1      34.964  34.568  33.848  1.00  0.00     0.202 C 
BRANCH  28  29
ATOM     29  C   UNL A   1      34.691  33.410  32.895  1.00  0.00     0.261 C 
BRANCH  29  30
ATOM     30  O   UNL A   1      35.565  33.347  31.785  1.00  0.00    -0.460 OA
BRANCH  30  31
ATOM     31  C   UNL A   1      36.131  32.139  31.592  1.00  0.00     0.338 C 
ATOM     32  O   UNL A   1      35.582  31.056  31.610  1.00  0.00    -0.246 OA
BRANCH  31  33
ATOM     33  C   UNL A   1      37.577  32.330  31.517  1.00  0.00     0.060 A 
ATOM     34  C   UNL A   1      38.087  32.823  30.318  1.00  0.00     0.016 A 
ATOM     35  C   UNL A   1      38.388  31.731  32.494  1.00  0.00     0.016 A 
ATOM     36  C   UNL A   1      39.394  32.529  30.009  1.00  0.00     0.010 A 
ATOM     37  C   UNL A   1      39.682  31.418  32.174  1.00  0.00     0.010 A 
ATOM     38  C   UNL A   1      40.142  31.753  30.905  1.00  0.00    -0.014 A 
BRANCH  38  39
ATOM     39  C   UNL A   1      41.502  31.427  30.539  1.00  0.00     0.031 A 
ATOM     40  C   UNL A   1      41.609  30.033  30.057  1.00  0.00     0.074 A 
ATOM     41  C   UNL A   1      42.501  32.328  30.555  1.00  0.00     0.049 A 
ATOM     42  N   UNL A   1      42.151  29.034  30.666  1.00  0.00    -0.248 NA
ATOM     43  C   UNL A   1      40.818  29.654  28.872  1.00  0.00     0.031 C 
ATOM     44  C   UNL A   1      42.411  33.776  30.759  1.00  0.00     0.029 A 
ATOM     45  N   UNL A   1      43.822  32.144  30.296  1.00  0.00    -0.354 N 
ATOM     46  C   UNL A   1      42.008  27.958  29.798  1.00  0.00     0.074 A 
ATOM     47  C   UNL A   1      40.986  28.332  28.862  1.00  0.00     0.031 C 
ATOM     48  C   UNL A   1      43.579  34.352  30.389  1.00  0.00     0.029 A 
ATOM     49  C   UNL A   1      44.536  33.313  30.046  1.00  0.00     0.049 A 
ATOM     50  H   UNL A   1      44.242  31.253  30.285  1.00  0.00     0.167 HD
ATOM     51  C   UNL A   1      42.971  27.000  29.735  1.00  0.00     0.037 A 
ATOM     52  C   UNL A   1      45.794  33.391  29.533  1.00  0.00     0.037 A 
ATOM     53  C   UNL A   1      43.776  27.009  30.934  1.00  0.00     0.049 A 
ATOM     54  C   UNL A   1      46.423  32.058  29.741  1.00  0.00     0.074 A 
ATOM     55  C   UNL A   1      43.509  26.879  32.284  1.00  0.00     0.029 A 
ATOM     56  N   UNL A   1      45.029  27.569  30.851  1.00  0.00    -0.354 N 
ATOM     57  N   UNL A   1      46.740  31.578  30.913  1.00  0.00    -0.248 NA
ATOM     58  C   UNL A   1      46.282  31.071  28.681  1.00  0.00     0.031 C 
ATOM     59  C   UNL A   1      44.403  27.781  32.931  1.00  0.00     0.029 A 
ATOM     60  C   UNL A   1      45.217  28.357  31.956  1.00  0.00     0.049 A 
ATOM     61  H   UNL A   1      45.677  27.429  30.124  1.00  0.00     0.167 HD
ATOM     62  C   UNL A   1      46.411  30.233  30.843  1.00  0.00     0.074 A 
ATOM     63  C   UNL A   1      46.216  29.961  29.421  1.00  0.00     0.031 C 
ATOM     64  C   UNL A   1      46.043  29.544  31.962  1.00  0.00     0.037 A 
BRANCH  51  65
ATOM     65  C   UNL A   1      43.452  26.389  28.434  1.00  0.00     0.058 A 
ATOM     66  C   UNL A   1      43.614  24.989  28.368  1.00  0.00     0.135 A 
ATOM     67  C   UNL A   1      44.031  27.112  27.364  1.00  0.00     0.135 A 
ATOM     68  F   UNL A   1      43.103  24.195  29.323  1.00  0.00    -0.206 F 
ATOM     69  C   UNL A   1      44.375  24.369  27.378  1.00  0.00     0.059 A 
ATOM     70  C   UNL A   1      44.749  26.509  26.340  1.00  0.00     0.059 A 
ATOM     71  F   UNL A   1      44.016  28.446  27.290  1.00  0.00    -0.206 F 
ATOM     72  C   UNL A   1      44.952  25.142  26.377  1.00  0.00     0.060 A 
BRANCH  72  73
ATOM     73  S   UNL A   1      45.998  24.359  25.141  1.00  0.00     0.124 S 
ATOM     74  O   UNL A   1      45.008  23.905  24.173  1.00  0.00    -0.237 OA
ATOM     75  O   UNL A   1      46.845  25.471  24.722  1.00  0.00    -0.237 OA
ATOM     76  O   UNL A   1      46.677  23.310  25.894  1.00  0.00    -0.744 OA
ENDBRANCH  72  73
ENDBRANCH  51  65
BRANCH  52  77
ATOM     77  C   UNL A   1      46.376  34.381  28.581  1.00  0.00     0.058 A 
ATOM     78  C   UNL A   1      45.579  34.950  27.567  1.00  0.00     0.135 A 
ATOM     79  C   UNL A   1      47.604  35.024  28.830  1.00  0.00     0.135 A 
ATOM     80  F   UNL A   1      44.393  34.406  27.254  1.00  0.00    -0.206 F 
ATOM     81  C   UNL A   1      45.931  36.135  26.910  1.00  0.00     0.059 A 
ATOM     82  C   UNL A   1      47.982  36.200  28.179  1.00  0.00     0.059 A 
ATOM     83  F   UNL A   1      48.435  34.589  29.787  1.00  0.00    -0.206 F 
ATOM     84  C   UNL A   1      47.122  36.771  27.248  1.00  0.00     0.060 A 
BRANCH  84  85
ATOM     85  S   UNL A   1      47.473  38.414  26.576  1.00  0.00     0.124 S 
ATOM     86  O   UNL A   1      48.789  38.221  25.974  1.00  0.00    -0.237 OA
ATOM     87  O   UNL A   1      46.368  38.609  25.643  1.00  0.00    -0.237 OA
ATOM     88  O   UNL A   1      47.447  39.274  27.756  1.00  0.00    -0.744 OA
ENDBRANCH  84  85
ENDBRANCH  52  77
BRANCH  64  89
ATOM     89  C   UNL A   1      46.342  30.150  33.308  1.00  0.00     0.058 A 
ATOM     90  C   UNL A   1      45.510  31.052  33.994  1.00  0.00     0.135 A 
ATOM     91  C   UNL A   1      47.465  29.664  33.996  1.00  0.00     0.135 A 
ATOM     92  F   UNL A   1      44.365  31.491  33.449  1.00  0.00    -0.206 F 
ATOM     93  C   UNL A   1      45.805  31.478  35.293  1.00  0.00     0.059 A 
ATOM     94  C   UNL A   1      47.758  30.046  35.299  1.00  0.00     0.059 A 
ATOM     95  F   UNL A   1      48.269  28.757  33.414  1.00  0.00    -0.206 F 
ATOM     96  C   UNL A   1      46.931  30.963  35.939  1.00  0.00     0.060 A 
BRANCH  96  97
ATOM     97  S   UNL A   1      47.271  31.445  37.646  1.00  0.00     0.124 S 
ATOM     98  O   UNL A   1      48.628  31.974  37.551  1.00  0.00    -0.237 OA
ATOM     99  O   UNL A   1      46.225  32.428  37.913  1.00  0.00    -0.237 OA
ATOM    100  O   UNL A   1      47.140  30.193  38.387  1.00  0.00    -0.744 OA
ENDBRANCH  96  97
ENDBRANCH  64  89
ENDBRANCH  38  39
ENDBRANCH  31  33
ENDBRANCH  30  31
ENDBRANCH  29  30
ENDBRANCH  28  29
ENDBRANCH  27  28
ENDBRANCH  26  27
ENDBRANCH  25  26
ENDBRANCH   1  25
TORSDOF 26
ENDMDL
MODEL 3
REMARK VINA RESULT:      -8.1      5.079     12.198
REMARK SMILES CCn1cc(/C=C/c2cc(C(=O)OCCOCCOCCOCCOC(=O)c3ccc(-c4c5nc(c(-c6c(F)cc(S(=O)(=O)[O-])cc6F)c6ccc([nH]6)c(-c6c(F)cc(S(=O)(=O)[O-])cc6F)c6nc(c(-c7c(F)cc(S(=O)(=O)[O-])cc7F)c7ccc4[nH]7)C=C6)C=C5)cc3)ncn2)cn1
REMARK SMILES IDX 19 1 18 2 17 3 16 4 15 5 14 6 13 7 11 8 12 9 10 10 8 11 9 12
REMARK SMILES IDX 96 13 95 14 94 15 7 16 6 17 5 18 3 19 4 20 98 21 97 22 2 23
REMARK SMILES IDX 1 24 20 25 21 26 22 27 23 28 24 29 25 30 26 31 27 32 28 33
REMARK SMILES IDX 29 34 93 35 30 36 92 37 31 38 32 39 33 40 86 41 34 42 91 43
REMARK SMILES IDX 85 44 87 45 35 46 90 47 84 48 83 49 36 51 70 52 49 53 69 54
REMARK SMILES IDX 50 55 53 56 68 57 88 58 51 59 52 60 67 62 89 63 54 64 37 65
REMARK SMILES IDX 38 66 47 67 39 68 40 69 46 70 48 71 41 72 42 73 43 74 44 75
REMARK SMILES IDX 45 76 71 77 72 78 81 79 73 80 74 81 80 82 82 83 75 84 76 85
REMARK SMILES IDX 77 86 78 87 79 88 55 89 56 90 65 91 57 92 58 93 64 94 66 95
REMARK SMILES IDX 59 96 60 97 61 98 62 99 63 100
REMARK H PARENT 87 50 53 61
REMARK Flexibility Score: inf
ROOT
ATOM      1  O   UNL A   1      51.702  28.664  26.887  1.00  0.00    -0.377 OA
ENDROOT
BRANCH   1   2
ATOM      2  C   UNL A   1      50.680  28.172  27.737  1.00  0.00     0.188 C 
BRANCH   2   3
ATOM      3  C   UNL A   1      50.636  26.631  27.835  1.00  0.00     0.188 C 
BRANCH   3   4
ATOM      4  O   UNL A   1      49.691  25.890  27.084  1.00  0.00    -0.376 OA
BRANCH   4   5
ATOM      5  C   UNL A   1      48.864  24.882  27.635  1.00  0.00     0.202 C 
BRANCH   5   6
ATOM      6  C   UNL A   1      47.331  24.938  27.754  1.00  0.00     0.261 C 
BRANCH   6   7
ATOM      7  O   UNL A   1      46.600  23.772  27.393  1.00  0.00    -0.459 OA
BRANCH   7   8
ATOM      8  C   UNL A   1      45.391  23.608  27.983  1.00  0.00     0.357 C 
ATOM      9  O   UNL A   1      45.181  23.288  29.137  1.00  0.00    -0.244 OA
BRANCH   8  10
ATOM     10  C   UNL A   1      44.363  24.038  26.989  1.00  0.00     0.152 A 
ATOM     11  C   UNL A   1      42.349  25.063  26.424  1.00  0.00     0.067 A 
ATOM     12  C   UNL A   1      43.235  24.701  27.414  1.00  0.00     0.064 A 
ATOM     13  N   UNL A   1      42.504  24.694  25.140  1.00  0.00    -0.237 NA
ATOM     14  C   UNL A   1      43.618  24.010  24.846  1.00  0.00     0.223 A 
ATOM     15  N   UNL A   1      44.588  23.683  25.704  1.00  0.00    -0.229 NA
BRANCH  11  16
ATOM     16  C   UNL A   1      41.192  25.924  26.699  1.00  0.00     0.029 C 
ATOM     17  C   UNL A   1      41.177  26.751  27.757  1.00  0.00     0.013 C 
BRANCH  17  18
ATOM     18  C   UNL A   1      40.163  27.673  28.117  1.00  0.00     0.013 A 
ATOM     19  N   UNL A   1      38.586  28.635  29.292  1.00  0.00    -0.272 N 
ATOM     20  C   UNL A   1      39.467  27.595  29.299  1.00  0.00     0.116 A 
ATOM     21  N   UNL A   1      38.692  29.406  28.190  1.00  0.00    -0.181 NA
ATOM     22  C   UNL A   1      39.642  28.804  27.466  1.00  0.00     0.143 A 
BRANCH  19  23
ATOM     23  C   UNL A   1      37.576  28.962  30.282  1.00  0.00     0.141 C 
ATOM     24  C   UNL A   1      36.437  29.844  29.789  1.00  0.00     0.029 C 
ENDBRANCH  19  23
ENDBRANCH  17  18
ENDBRANCH  11  16
ENDBRANCH   8  10
ENDBRANCH   7   8
ENDBRANCH   6   7
ENDBRANCH   5   6
ENDBRANCH   4   5
ENDBRANCH   3   4
ENDBRANCH   2   3
ENDBRANCH   1   2
BRANCH   1  25
ATOM     25  C   UNL A   1      52.007  27.878  25.734  1.00  0.00     0.188 C 
BRANCH  25  26
ATOM     26  C   UNL A   1      51.261  28.145  24.402  1.00  0.00     0.188 C 
BRANCH  26  27
ATOM     27  O   UNL A   1      50.120  27.328  24.184  1.00  0.00    -0.376 OA
BRANCH  27  28
ATOM     28  C   UNL A   1      49.367  27.396  22.989  1.00  0.00     0.202 C 
BRANCH  28  29
ATOM     29  C   UNL A   1      47.863  27.606  23.114  1.00  0.00     0.261 C 
BRANCH  29  30
ATOM     30  O   UNL A   1      47.437  28.047  24.389  1.00  0.00    -0.460 OA
BRANCH  30  31
ATOM     31  C   UNL A   1      46.435  27.319  24.922  1.00  0.00     0.338 C 
ATOM     32  O   UNL A   1      45.938  26.307  24.470  1.00  0.00    -0.246 OA
BRANCH  31  33
ATOM     33  C   UNL A   1      45.920  28.048  26.077  1.00  0.00     0.060 A 
ATOM     34  C   UNL A   1      44.535  28.135  26.201  1.00  0.00     0.016 A 
ATOM     35  C   UNL A   1      46.797  28.870  26.802  1.00  0.00     0.016 A 
ATOM     36  C   UNL A   1      44.020  29.195  26.909  1.00  0.00     0.010 A 
ATOM     37  C   UNL A   1      46.283  29.939  27.486  1.00  0.00     0.010 A 
ATOM     38  C   UNL A   1      44.905  30.129  27.464  1.00  0.00    -0.014 A 
BRANCH  38  39
ATOM     39  C   UNL A   1      44.338  31.255  28.172  1.00  0.00     0.031 A 
ATOM     40  C   UNL A   1      44.791  32.538  27.592  1.00  0.00     0.074 A 
ATOM     41  C   UNL A   1      43.440  31.119  29.164  1.00  0.00     0.049 A 
ATOM     42  N   UNL A   1      45.622  33.379  28.107  1.00  0.00    -0.248 NA
ATOM     43  C   UNL A   1      44.469  32.804  26.178  1.00  0.00     0.031 C 
ATOM     44  C   UNL A   1      42.751  29.903  29.601  1.00  0.00     0.029 A 
ATOM     45  N   UNL A   1      42.878  32.079  29.945  1.00  0.00    -0.354 N 
ATOM     46  C   UNL A   1      45.703  34.418  27.189  1.00  0.00     0.074 A 
ATOM     47  C   UNL A   1      45.193  33.900  25.951  1.00  0.00     0.031 C 
ATOM     48  C   UNL A   1      41.710  30.241  30.399  1.00  0.00     0.029 A 
ATOM     49  C   UNL A   1      41.736  31.677  30.633  1.00  0.00     0.049 A 
ATOM     50  H   UNL A   1      43.249  32.988  30.019  1.00  0.00     0.167 HD
ATOM     51  C   UNL A   1      45.876  35.697  27.619  1.00  0.00     0.037 A 
ATOM     52  C   UNL A   1      40.860  32.492  31.280  1.00  0.00     0.037 A 
ATOM     53  C   UNL A   1      46.424  35.714  28.954  1.00  0.00     0.049 A 
ATOM     54  C   UNL A   1      41.574  33.774  31.528  1.00  0.00     0.074 A 
ATOM     55  C   UNL A   1      47.560  35.191  29.545  1.00  0.00     0.029 A 
ATOM     56  N   UNL A   1      45.567  36.011  29.987  1.00  0.00    -0.354 N 
ATOM     57  N   UNL A   1      42.575  33.901  32.354  1.00  0.00    -0.248 NA
ATOM     58  C   UNL A   1      41.464  34.815  30.517  1.00  0.00     0.031 C 
ATOM     59  C   UNL A   1      47.148  34.775  30.844  1.00  0.00     0.029 A 
ATOM     60  C   UNL A   1      45.809  35.131  31.009  1.00  0.00     0.049 A 
ATOM     61  H   UNL A   1      44.895  36.730  29.991  1.00  0.00     0.167 HD
ATOM     62  C   UNL A   1      43.454  34.761  31.713  1.00  0.00     0.074 A 
ATOM     63  C   UNL A   1      42.678  35.358  30.628  1.00  0.00     0.031 C 
ATOM     64  C   UNL A   1      44.798  34.686  31.941  1.00  0.00     0.037 A 
BRANCH  51  65
ATOM     65  C   UNL A   1      45.140  36.881  27.023  1.00  0.00     0.058 A 
ATOM     66  C   UNL A   1      45.886  38.021  26.657  1.00  0.00     0.135 A 
ATOM     67  C   UNL A   1      43.738  37.068  27.065  1.00  0.00     0.135 A 
ATOM     68  F   UNL A   1      47.226  37.966  26.577  1.00  0.00    -0.206 F 
ATOM     69  C   UNL A   1      45.297  39.267  26.450  1.00  0.00     0.059 A 
ATOM     70  C   UNL A   1      43.127  38.289  26.810  1.00  0.00     0.059 A 
ATOM     71  F   UNL A   1      42.883  36.112  27.437  1.00  0.00    -0.206 F 
ATOM     72  C   UNL A   1      43.915  39.392  26.545  1.00  0.00     0.060 A 
BRANCH  72  73
ATOM     73  S   UNL A   1      43.155  41.011  26.354  1.00  0.00     0.124 S 
ATOM     74  O   UNL A   1      43.813  41.764  27.414  1.00  0.00    -0.237 OA
ATOM     75  O   UNL A   1      43.533  41.358  24.988  1.00  0.00    -0.237 OA
ATOM     76  O   UNL A   1      41.735  40.739  26.556  1.00  0.00    -0.744 OA
ENDBRANCH  72  73
ENDBRANCH  51  65
BRANCH  52  77
ATOM     77  C   UNL A   1      39.375  32.398  31.394  1.00  0.00     0.058 A 
ATOM     78  C   UNL A   1      38.772  32.066  32.625  1.00  0.00     0.135 A 
ATOM     79  C   UNL A   1      38.516  32.932  30.415  1.00  0.00     0.135 A 
ATOM     80  F   UNL A   1      39.509  31.547  33.620  1.00  0.00    -0.206 F 
ATOM     81  C   UNL A   1      37.427  32.336  32.900  1.00  0.00     0.059 A 
ATOM     82  C   UNL A   1      37.168  33.199  30.662  1.00  0.00     0.059 A 
ATOM     83  F   UNL A   1      38.979  33.308  29.214  1.00  0.00    -0.206 F 
ATOM     84  C   UNL A   1      36.640  32.935  31.920  1.00  0.00     0.060 A 
BRANCH  84  85
ATOM     85  S   UNL A   1      34.972  33.496  32.342  1.00  0.00     0.124 S 
ATOM     86  O   UNL A   1      35.069  33.679  33.786  1.00  0.00    -0.237 OA
ATOM     87  O   UNL A   1      34.847  34.716  31.551  1.00  0.00    -0.237 OA
ATOM     88  O   UNL A   1      34.123  32.388  31.909  1.00  0.00    -0.744 OA
ENDBRANCH  84  85
ENDBRANCH  52  77
BRANCH  64  89
ATOM     89  C   UNL A   1      45.280  33.921  33.145  1.00  0.00     0.058 A 
ATOM     90  C   UNL A   1      45.387  34.442  34.447  1.00  0.00     0.135 A 
ATOM     91  C   UNL A   1      45.499  32.544  32.985  1.00  0.00     0.135 A 
ATOM     92  F   UNL A   1      45.100  35.726  34.705  1.00  0.00    -0.206 F 
ATOM     93  C   UNL A   1      45.733  33.631  35.533  1.00  0.00     0.059 A 
ATOM     94  C   UNL A   1      45.809  31.714  34.054  1.00  0.00     0.059 A 
ATOM     95  F   UNL A   1      45.358  31.977  31.774  1.00  0.00    -0.206 F 
ATOM     96  C   UNL A   1      45.937  32.266  35.326  1.00  0.00     0.060 A 
BRANCH  96  97
ATOM     97  S   UNL A   1      46.301  31.199  36.737  1.00  0.00     0.124 S 
ATOM     98  O   UNL A   1      45.132  30.328  36.773  1.00  0.00    -0.237 OA
ATOM     99  O   UNL A   1      47.554  30.564  36.340  1.00  0.00    -0.237 OA
ATOM    100  O   UNL A   1      46.415  32.136  37.852  1.00  0.00    -0.744 OA
ENDBRANCH  96  97
ENDBRANCH  64  89
ENDBRANCH  38  39
ENDBRANCH  31  33
ENDBRANCH  30  31
ENDBRANCH  29  30
ENDBRANCH  28  29
ENDBRANCH  27  28
ENDBRANCH  26  27
ENDBRANCH  25  26
ENDBRANCH   1  25
TORSDOF 26
ENDMDL
