MODEL 1
REMARK VINA RESULT:      -8.8      0.000      0.000
REMARK SMILES N#C[C@@H]1CN(C(=O)NCCCC(=O)OCCOCCOCCOCCOC(=O)c2ccc(-c3c4nc(c(-c5c(F)cc(S(=O)(=O)[O-])cc5F)c5ccc([nH]5)c(-c5c(F)cc(S(=O)(=O)[O-])cc5F)c5nc(c(-c6c(F)cc(S(=O)(=O)[O-])cc6F)c6ccc3[nH]6)C=C5)C=C4)cc2)CCO1
REMARK SMILES IDX 19 1 18 2 17 3 16 4 15 5 14 6 12 7 13 8 11 9 10 10 9 11 8 12
REMARK SMILES IDX 6 13 7 14 5 16 3 17 4 18 97 19 96 20 95 21 2 22 1 23 20 24
REMARK SMILES IDX 21 25 22 26 23 27 24 28 25 29 26 30 27 31 28 32 29 33 30 34
REMARK SMILES IDX 94 35 31 36 93 37 32 38 33 39 34 40 87 41 35 42 92 43 86 44
REMARK SMILES IDX 88 45 36 46 91 47 85 48 84 49 37 51 71 52 50 53 70 54 51 55
REMARK SMILES IDX 54 56 69 57 89 58 52 59 53 60 68 62 90 63 55 64 38 65 39 66
REMARK SMILES IDX 48 67 40 68 41 69 47 70 49 71 42 72 43 73 44 74 45 75 46 76
REMARK SMILES IDX 72 77 73 78 82 79 74 80 75 81 81 82 83 83 76 84 77 85 78 86
REMARK SMILES IDX 79 87 80 88 56 89 57 90 66 91 58 92 59 93 65 94 67 95 60 96
REMARK SMILES IDX 61 97 62 98 63 99 64 100
REMARK H PARENT 8 15 88 50 54 61
REMARK Flexibility Score: inf
ROOT
ATOM      1  C   UNL A   1      33.642  35.680  30.011  1.00  0.00     0.188 C 
ENDROOT
BRANCH   1   2
ATOM      2  C   UNL A   1      32.938  35.130  28.761  1.00  0.00     0.188 C 
BRANCH   2   3
ATOM      3  O   UNL A   1      33.668  34.230  27.960  1.00  0.00    -0.376 OA
BRANCH   3   4
ATOM      4  C   UNL A   1      33.990  32.922  28.406  1.00  0.00     0.202 C 
BRANCH   4   5
ATOM      5  C   UNL A   1      33.802  31.626  27.599  1.00  0.00     0.261 C 
BRANCH   5   6
ATOM      6  O   UNL A   1      32.471  31.304  27.196  1.00  0.00    -0.463 OA
BRANCH   6   7
ATOM      7  C   UNL A   1      32.282  30.159  26.512  1.00  0.00     0.305 C 
ATOM      8  O   UNL A   1      31.848  30.098  25.367  1.00  0.00    -0.252 OA
BRANCH   7   9
ATOM      9  C   UNL A   1      32.717  28.918  27.269  1.00  0.00     0.124 C 
BRANCH   9  10
ATOM     10  C   UNL A   1      33.680  27.882  26.672  1.00  0.00     0.033 C 
BRANCH  10  11
ATOM     11  C   UNL A   1      33.096  26.818  25.741  1.00  0.00     0.118 C 
BRANCH  11  12
ATOM     12  N   UNL A   1      32.433  25.788  26.505  1.00  0.00    -0.338 N 
ATOM     13  C   UNL A   1      31.931  24.565  26.320  1.00  0.00     0.317 C 
ATOM     14  O   UNL A   1      31.324  24.115  27.297  1.00  0.00    -0.249 OA
ATOM     15  H   UNL A   1      32.317  26.071  27.441  1.00  0.00     0.165 HD
BRANCH  13  16
ATOM     16  N   UNL A   1      32.067  23.839  25.177  1.00  0.00    -0.319 N 
ATOM     17  C   UNL A   1      31.351  24.231  22.840  1.00  0.00     0.240 C 
ATOM     18  C   UNL A   1      31.089  23.470  24.150  1.00  0.00     0.169 C 
ATOM     19  O   UNL A   1      32.700  23.902  22.393  1.00  0.00    -0.360 OA
ATOM     20  C   UNL A   1      33.698  24.254  23.380  1.00  0.00     0.183 C 
ATOM     21  C   UNL A   1      33.438  23.558  24.725  1.00  0.00     0.150 C 
BRANCH  17  22
ATOM     22  C   UNL A   1      31.190  25.739  22.950  1.00  0.00     0.096 C 
ATOM     23  N   UNL A   1      31.056  26.988  23.041  1.00  0.00    -0.195 NA
ENDBRANCH  17  22
ENDBRANCH  13  16
ENDBRANCH  11  12
ENDBRANCH  10  11
ENDBRANCH   9  10
ENDBRANCH   7   9
ENDBRANCH   6   7
ENDBRANCH   5   6
ENDBRANCH   4   5
ENDBRANCH   3   4
ENDBRANCH   2   3
ENDBRANCH   1   2
BRANCH   1  24
ATOM     24  O   UNL A   1      32.840  36.152  31.075  1.00  0.00    -0.377 OA
BRANCH  24  25
ATOM     25  C   UNL A   1      33.086  35.685  32.401  1.00  0.00     0.188 C 
BRANCH  25  26
ATOM     26  C   UNL A   1      33.964  34.443  32.682  1.00  0.00     0.188 C 
BRANCH  26  27
ATOM     27  O   UNL A   1      35.263  34.717  33.182  1.00  0.00    -0.376 OA
BRANCH  27  28
ATOM     28  C   UNL A   1      36.364  34.572  32.298  1.00  0.00     0.202 C 
BRANCH  28  29
ATOM     29  C   UNL A   1      37.372  33.458  32.624  1.00  0.00     0.261 C 
BRANCH  29  30
ATOM     30  O   UNL A   1      36.819  32.146  32.802  1.00  0.00    -0.460 OA
BRANCH  30  31
ATOM     31  C   UNL A   1      36.386  31.507  31.693  1.00  0.00     0.338 C 
ATOM     32  O   UNL A   1      35.276  31.581  31.189  1.00  0.00    -0.246 OA
BRANCH  31  33
ATOM     33  C   UNL A   1      37.543  30.832  31.079  1.00  0.00     0.060 A 
ATOM     34  C   UNL A   1      38.408  30.092  31.894  1.00  0.00     0.016 A 
ATOM     35  C   UNL A   1      37.775  30.941  29.707  1.00  0.00     0.016 A 
ATOM     36  C   UNL A   1      39.536  29.486  31.340  1.00  0.00     0.010 A 
ATOM     37  C   UNL A   1      38.914  30.350  29.158  1.00  0.00     0.010 A 
ATOM     38  C   UNL A   1      39.818  29.652  29.979  1.00  0.00    -0.014 A 
BRANCH  38  39
ATOM     39  C   UNL A   1      41.156  29.278  29.457  1.00  0.00     0.031 A 
ATOM     40  C   UNL A   1      42.217  30.344  29.395  1.00  0.00     0.074 A 
ATOM     41  C   UNL A   1      41.434  28.021  29.071  1.00  0.00     0.049 A 
ATOM     42  N   UNL A   1      43.437  30.278  28.929  1.00  0.00    -0.248 NA
ATOM     43  C   UNL A   1      41.849  31.666  29.930  1.00  0.00     0.031 C 
ATOM     44  C   UNL A   1      40.502  26.898  29.123  1.00  0.00     0.029 A 
ATOM     45  N   UNL A   1      42.583  27.483  28.546  1.00  0.00    -0.354 N 
ATOM     46  C   UNL A   1      43.975  31.548  29.102  1.00  0.00     0.074 A 
ATOM     47  C   UNL A   1      42.942  32.372  29.686  1.00  0.00     0.031 C 
ATOM     48  C   UNL A   1      41.112  25.803  28.635  1.00  0.00     0.029 A 
ATOM     49  C   UNL A   1      42.462  26.158  28.202  1.00  0.00     0.049 A 
ATOM     50  H   UNL A   1      43.414  27.998  28.428  1.00  0.00     0.167 HD
ATOM     51  C   UNL A   1      45.223  31.984  28.806  1.00  0.00     0.037 A 
ATOM     52  C   UNL A   1      43.333  25.336  27.581  1.00  0.00     0.037 A 
ATOM     53  C   UNL A   1      46.244  31.155  28.220  1.00  0.00     0.049 A 
ATOM     54  C   UNL A   1      44.692  25.864  27.191  1.00  0.00     0.074 A 
ATOM     55  C   UNL A   1      47.545  31.495  27.893  1.00  0.00     0.029 A 
ATOM     56  N   UNL A   1      46.077  29.825  27.860  1.00  0.00    -0.354 N 
ATOM     57  N   UNL A   1      45.199  27.060  27.377  1.00  0.00    -0.248 NA
ATOM     58  C   UNL A   1      45.597  24.929  26.508  1.00  0.00     0.031 C 
ATOM     59  C   UNL A   1      48.145  30.390  27.281  1.00  0.00     0.029 A 
ATOM     60  C   UNL A   1      47.242  29.339  27.289  1.00  0.00     0.049 A 
ATOM     61  H   UNL A   1      45.252  29.303  27.992  1.00  0.00     0.167 HD
ATOM     62  C   UNL A   1      46.492  27.012  26.862  1.00  0.00     0.074 A 
ATOM     63  C   UNL A   1      46.692  25.665  26.368  1.00  0.00     0.031 C 
ATOM     64  C   UNL A   1      47.430  27.992  26.808  1.00  0.00     0.037 A 
BRANCH  51  65
ATOM     65  C   UNL A   1      45.538  33.430  29.078  1.00  0.00     0.058 A 
ATOM     66  C   UNL A   1      45.323  34.432  28.116  1.00  0.00     0.135 A 
ATOM     67  C   UNL A   1      46.043  33.823  30.327  1.00  0.00     0.135 A 
ATOM     68  F   UNL A   1      44.862  34.113  26.897  1.00  0.00    -0.206 F 
ATOM     69  C   UNL A   1      45.626  35.765  28.375  1.00  0.00     0.059 A 
ATOM     70  C   UNL A   1      46.322  35.155  30.619  1.00  0.00     0.059 A 
ATOM     71  F   UNL A   1      46.272  32.908  31.283  1.00  0.00    -0.206 F 
ATOM     72  C   UNL A   1      46.125  36.117  29.630  1.00  0.00     0.060 A 
BRANCH  72  73
ATOM     73  S   UNL A   1      46.514  37.850  29.949  1.00  0.00     0.124 S 
ATOM     74  O   UNL A   1      47.807  37.986  29.281  1.00  0.00    -0.237 OA
ATOM     75  O   UNL A   1      45.398  38.541  29.311  1.00  0.00    -0.237 OA
ATOM     76  O   UNL A   1      46.550  37.931  31.405  1.00  0.00    -0.744 OA
ENDBRANCH  72  73
ENDBRANCH  51  65
BRANCH  52  77
ATOM     77  C   UNL A   1      42.946  23.931  27.280  1.00  0.00     0.058 A 
ATOM     78  C   UNL A   1      42.643  23.525  25.972  1.00  0.00     0.135 A 
ATOM     79  C   UNL A   1      42.873  22.962  28.295  1.00  0.00     0.135 A 
ATOM     80  F   UNL A   1      42.682  24.415  24.968  1.00  0.00    -0.206 F 
ATOM     81  C   UNL A   1      42.271  22.217  25.680  1.00  0.00     0.059 A 
ATOM     82  C   UNL A   1      42.533  21.641  28.024  1.00  0.00     0.059 A 
ATOM     83  F   UNL A   1      43.149  23.296  29.565  1.00  0.00    -0.206 F 
ATOM     84  C   UNL A   1      42.225  21.279  26.713  1.00  0.00     0.060 A 
BRANCH  84  85
ATOM     85  S   UNL A   1      41.789  19.572  26.312  1.00  0.00     0.124 S 
ATOM     86  O   UNL A   1      42.312  18.854  27.468  1.00  0.00    -0.237 OA
ATOM     87  O   UNL A   1      40.335  19.646  26.211  1.00  0.00    -0.237 OA
ATOM     88  O   UNL A   1      42.486  19.333  25.052  1.00  0.00    -0.744 OA
ENDBRANCH  84  85
ENDBRANCH  52  77
BRANCH  64  89
ATOM     89  C   UNL A   1      48.777  27.638  26.234  1.00  0.00     0.058 A 
ATOM     90  C   UNL A   1      49.017  27.620  24.851  1.00  0.00     0.135 A 
ATOM     91  C   UNL A   1      49.863  27.375  27.088  1.00  0.00     0.135 A 
ATOM     92  F   UNL A   1      48.016  27.861  23.989  1.00  0.00    -0.206 F 
ATOM     93  C   UNL A   1      50.276  27.329  24.334  1.00  0.00     0.059 A 
ATOM     94  C   UNL A   1      51.137  27.113  26.594  1.00  0.00     0.059 A 
ATOM     95  F   UNL A   1      49.695  27.392  28.420  1.00  0.00    -0.206 F 
ATOM     96  C   UNL A   1      51.331  27.081  25.215  1.00  0.00     0.060 A 
BRANCH  96  97
ATOM     97  S   UNL A   1      52.967  26.739  24.530  1.00  0.00     0.124 S 
ATOM     98  O   UNL A   1      53.016  25.282  24.598  1.00  0.00    -0.237 OA
ATOM     99  O   UNL A   1      52.869  27.310  23.191  1.00  0.00    -0.237 OA
ATOM    100  O   UNL A   1      53.870  27.439  25.439  1.00  0.00    -0.744 OA
ENDBRANCH  96  97
ENDBRANCH  64  89
ENDBRANCH  38  39
ENDBRANCH  31  33
ENDBRANCH  30  31
ENDBRANCH  29  30
ENDBRANCH  28  29
ENDBRANCH  27  28
ENDBRANCH  26  27
ENDBRANCH  25  26
ENDBRANCH  24  25
ENDBRANCH   1  24
TORSDOF 28
ENDMDL
MODEL 2
REMARK VINA RESULT:      -8.0      3.775      6.390
REMARK SMILES N#C[C@@H]1CN(C(=O)NCCCC(=O)OCCOCCOCCOCCOC(=O)c2ccc(-c3c4nc(c(-c5c(F)cc(S(=O)(=O)[O-])cc5F)c5ccc([nH]5)c(-c5c(F)cc(S(=O)(=O)[O-])cc5F)c5nc(c(-c6c(F)cc(S(=O)(=O)[O-])cc6F)c6ccc3[nH]6)C=C5)C=C4)cc2)CCO1
REMARK SMILES IDX 19 1 18 2 17 3 16 4 15 5 14 6 12 7 13 8 11 9 10 10 9 11 8 12
REMARK SMILES IDX 6 13 7 14 5 16 3 17 4 18 97 19 96 20 95 21 2 22 1 23 20 24
REMARK SMILES IDX 21 25 22 26 23 27 24 28 25 29 26 30 27 31 28 32 29 33 30 34
REMARK SMILES IDX 94 35 31 36 93 37 32 38 33 39 34 40 87 41 35 42 92 43 86 44
REMARK SMILES IDX 88 45 36 46 91 47 85 48 84 49 37 51 71 52 50 53 70 54 51 55
REMARK SMILES IDX 54 56 69 57 89 58 52 59 53 60 68 62 90 63 55 64 38 65 39 66
REMARK SMILES IDX 48 67 40 68 41 69 47 70 49 71 42 72 43 73 44 74 45 75 46 76
REMARK SMILES IDX 72 77 73 78 82 79 74 80 75 81 81 82 83 83 76 84 77 85 78 86
REMARK SMILES IDX 79 87 80 88 56 89 57 90 66 91 58 92 59 93 65 94 67 95 60 96
REMARK SMILES IDX 61 97 62 98 63 99 64 100
REMARK H PARENT 8 15 88 50 54 61
REMARK Flexibility Score: inf
ROOT
ATOM      1  C   UNL A   1      33.157  36.326  31.762  1.00  0.00     0.188 C 
ENDROOT
BRANCH   1   2
ATOM      2  C   UNL A   1      34.259  36.757  32.743  1.00  0.00     0.188 C 
BRANCH   2   3
ATOM      3  O   UNL A   1      34.337  36.058  33.964  1.00  0.00    -0.376 OA
BRANCH   3   4
ATOM      4  C   UNL A   1      34.996  34.807  34.070  1.00  0.00     0.202 C 
BRANCH   4   5
ATOM      5  C   UNL A   1      36.515  34.600  34.196  1.00  0.00     0.261 C 
BRANCH   5   6
ATOM      6  O   UNL A   1      37.190  34.065  33.057  1.00  0.00    -0.463 OA
BRANCH   6   7
ATOM      7  C   UNL A   1      38.396  33.496  33.253  1.00  0.00     0.305 C 
ATOM      8  O   UNL A   1      38.931  32.719  32.470  1.00  0.00    -0.252 OA
BRANCH   7   9
ATOM      9  C   UNL A   1      39.087  33.952  34.525  1.00  0.00     0.124 C 
BRANCH   9  10
ATOM     10  C   UNL A   1      40.615  34.014  34.658  1.00  0.00     0.033 C 
BRANCH  10  11
ATOM     11  C   UNL A   1      41.260  33.273  35.831  1.00  0.00     0.118 C 
BRANCH  11  12
ATOM     12  N   UNL A   1      42.445  32.574  35.394  1.00  0.00    -0.338 N 
ATOM     13  C   UNL A   1      42.795  31.358  34.968  1.00  0.00     0.317 C 
ATOM     14  O   UNL A   1      44.013  31.204  34.826  1.00  0.00    -0.249 OA
ATOM     15  H   UNL A   1      43.228  33.171  35.418  1.00  0.00     0.165 HD
BRANCH  13  16
ATOM     16  N   UNL A   1      41.919  30.356  34.688  1.00  0.00    -0.319 N 
ATOM     17  C   UNL A   1      42.209  28.076  33.766  1.00  0.00     0.240 C 
ATOM     18  C   UNL A   1      41.761  29.522  33.493  1.00  0.00     0.169 C 
ATOM     19  O   UNL A   1      41.394  27.553  34.858  1.00  0.00    -0.360 OA
ATOM     20  C   UNL A   1      41.523  28.349  36.059  1.00  0.00     0.183 C 
ATOM     21  C   UNL A   1      41.141  29.817  35.814  1.00  0.00     0.150 C 
BRANCH  17  22
ATOM     22  C   UNL A   1      43.685  27.931  34.100  1.00  0.00     0.096 C 
ATOM     23  N   UNL A   1      44.908  27.811  34.377  1.00  0.00    -0.195 NA
ENDBRANCH  17  22
ENDBRANCH  13  16
ENDBRANCH  11  12
ENDBRANCH  10  11
ENDBRANCH   9  10
ENDBRANCH   7   9
ENDBRANCH   6   7
ENDBRANCH   5   6
ENDBRANCH   4   5
ENDBRANCH   3   4
ENDBRANCH   2   3
ENDBRANCH   1   2
BRANCH   1  24
ATOM     24  O   UNL A   1      33.120  36.940  30.489  1.00  0.00    -0.377 OA
BRANCH  24  25
ATOM     25  C   UNL A   1      32.924  36.135  29.326  1.00  0.00     0.188 C 
BRANCH  25  26
ATOM     26  C   UNL A   1      33.865  34.960  28.974  1.00  0.00     0.188 C 
BRANCH  26  27
ATOM     27  O   UNL A   1      33.676  33.780  29.738  1.00  0.00    -0.376 OA
BRANCH  27  28
ATOM     28  C   UNL A   1      34.580  33.518  30.801  1.00  0.00     0.202 C 
BRANCH  28  29
ATOM     29  C   UNL A   1      35.308  32.165  30.775  1.00  0.00     0.261 C 
BRANCH  29  30
ATOM     30  O   UNL A   1      36.546  32.134  30.050  1.00  0.00    -0.460 OA
BRANCH  30  31
ATOM     31  C   UNL A   1      36.546  31.485  28.865  1.00  0.00     0.338 C 
ATOM     32  O   UNL A   1      35.744  31.620  27.953  1.00  0.00    -0.246 OA
BRANCH  31  33
ATOM     33  C   UNL A   1      37.791  30.702  28.778  1.00  0.00     0.060 A 
ATOM     34  C   UNL A   1      38.703  30.756  29.839  1.00  0.00     0.016 A 
ATOM     35  C   UNL A   1      38.058  29.929  27.647  1.00  0.00     0.016 A 
ATOM     36  C   UNL A   1      39.909  30.061  29.754  1.00  0.00     0.010 A 
ATOM     37  C   UNL A   1      39.274  29.249  27.556  1.00  0.00     0.010 A 
ATOM     38  C   UNL A   1      40.220  29.343  28.593  1.00  0.00    -0.014 A 
BRANCH  38  39
ATOM     39  C   UNL A   1      41.608  28.867  28.376  1.00  0.00     0.031 A 
ATOM     40  C   UNL A   1      42.723  29.876  28.445  1.00  0.00     0.074 A 
ATOM     41  C   UNL A   1      41.879  27.571  28.147  1.00  0.00     0.049 A 
ATOM     42  N   UNL A   1      44.004  29.716  28.235  1.00  0.00    -0.248 NA
ATOM     43  C   UNL A   1      42.339  31.253  28.797  1.00  0.00     0.031 C 
ATOM     44  C   UNL A   1      40.889  26.498  28.098  1.00  0.00     0.029 A 
ATOM     45  N   UNL A   1      43.073  26.940  27.901  1.00  0.00    -0.354 N 
ATOM     46  C   UNL A   1      44.574  30.971  28.416  1.00  0.00     0.074 A 
ATOM     47  C   UNL A   1      43.499  31.887  28.721  1.00  0.00     0.031 C 
ATOM     48  C   UNL A   1      41.515  25.340  27.822  1.00  0.00     0.029 A 
ATOM     49  C   UNL A   1      42.942  25.597  27.639  1.00  0.00     0.049 A 
ATOM     50  H   UNL A   1      43.941  27.406  27.910  1.00  0.00     0.167 HD
ATOM     51  C   UNL A   1      45.880  31.324  28.340  1.00  0.00     0.037 A 
ATOM     52  C   UNL A   1      43.865  24.687  27.265  1.00  0.00     0.037 A 
ATOM     53  C   UNL A   1      46.943  30.404  28.030  1.00  0.00     0.049 A 
ATOM     54  C   UNL A   1      45.303  25.120  27.112  1.00  0.00     0.074 A 
ATOM     55  C   UNL A   1      48.300  30.658  27.943  1.00  0.00     0.029 A 
ATOM     56  N   UNL A   1      46.769  29.057  27.745  1.00  0.00    -0.354 N 
ATOM     57  N   UNL A   1      45.836  26.303  27.305  1.00  0.00    -0.248 NA
ATOM     58  C   UNL A   1      46.265  24.091  26.693  1.00  0.00     0.031 C 
ATOM     59  C   UNL A   1      48.939  29.479  27.545  1.00  0.00     0.029 A 
ATOM     60  C   UNL A   1      47.990  28.473  27.453  1.00  0.00     0.049 A 
ATOM     61  H   UNL A   1      45.904  28.586  27.751  1.00  0.00     0.167 HD
ATOM     62  C   UNL A   1      47.199  26.154  27.061  1.00  0.00     0.074 A 
ATOM     63  C   UNL A   1      47.409  24.762  26.718  1.00  0.00     0.031 C 
ATOM     64  C   UNL A   1      48.186  27.083  27.120  1.00  0.00     0.037 A 
BRANCH  51  65
ATOM     65  C   UNL A   1      46.223  32.774  28.560  1.00  0.00     0.058 A 
ATOM     66  C   UNL A   1      46.598  33.266  29.821  1.00  0.00     0.135 A 
ATOM     67  C   UNL A   1      46.195  33.679  27.487  1.00  0.00     0.135 A 
ATOM     68  F   UNL A   1      46.623  32.451  30.887  1.00  0.00    -0.206 F 
ATOM     69  C   UNL A   1      46.905  34.609  30.015  1.00  0.00     0.059 A 
ATOM     70  C   UNL A   1      46.529  35.020  27.652  1.00  0.00     0.059 A 
ATOM     71  F   UNL A   1      45.839  33.265  26.261  1.00  0.00    -0.206 F 
ATOM     72  C   UNL A   1      46.867  35.479  28.923  1.00  0.00     0.060 A 
BRANCH  72  73
ATOM     73  S   UNL A   1      47.265  37.218  29.193  1.00  0.00     0.124 S 
ATOM     74  O   UNL A   1      48.715  37.217  29.015  1.00  0.00    -0.237 OA
ATOM     75  O   UNL A   1      46.500  37.879  28.140  1.00  0.00    -0.237 OA
ATOM     76  O   UNL A   1      46.801  37.469  30.553  1.00  0.00    -0.744 OA
ENDBRANCH  72  73
ENDBRANCH  51  65
BRANCH  52  77
ATOM     77  C   UNL A   1      43.460  23.280  26.999  1.00  0.00     0.058 A 
ATOM     78  C   UNL A   1      43.472  22.754  25.699  1.00  0.00     0.135 A 
ATOM     79  C   UNL A   1      43.053  22.430  28.041  1.00  0.00     0.135 A 
ATOM     80  F   UNL A   1      43.837  23.530  24.666  1.00  0.00    -0.206 F 
ATOM     81  C   UNL A   1      43.087  21.444  25.437  1.00  0.00     0.059 A 
ATOM     82  C   UNL A   1      42.692  21.107  27.809  1.00  0.00     0.059 A 
ATOM     83  F   UNL A   1      43.020  22.882  29.304  1.00  0.00    -0.206 F 
ATOM     84  C   UNL A   1      42.704  20.624  26.501  1.00  0.00     0.060 A 
BRANCH  84  85
ATOM     85  S   UNL A   1      42.254  18.910  26.152  1.00  0.00     0.124 S 
ATOM     86  O   UNL A   1      43.276  18.527  25.185  1.00  0.00    -0.237 OA
ATOM     87  O   UNL A   1      42.361  18.293  27.471  1.00  0.00    -0.237 OA
ATOM     88  O   UNL A   1      40.897  19.017  25.626  1.00  0.00    -0.744 OA
ENDBRANCH  84  85
ENDBRANCH  52  77
BRANCH  64  89
ATOM     89  C   UNL A   1      49.595  26.623  26.852  1.00  0.00     0.058 A 
ATOM     90  C   UNL A   1      50.157  26.654  25.566  1.00  0.00     0.135 A 
ATOM     91  C   UNL A   1      50.417  26.203  27.912  1.00  0.00     0.135 A 
ATOM     92  F   UNL A   1      49.418  27.043  24.514  1.00  0.00    -0.206 F 
ATOM     93  C   UNL A   1      51.473  26.262  25.336  1.00  0.00     0.059 A 
ATOM     94  C   UNL A   1      51.744  25.837  27.711  1.00  0.00     0.059 A 
ATOM     95  F   UNL A   1      49.937  26.166  29.166  1.00  0.00    -0.206 F 
ATOM     96  C   UNL A   1      52.260  25.859  26.417  1.00  0.00     0.060 A 
BRANCH  96  97
ATOM     97  S   UNL A   1      53.975  25.386  26.109  1.00  0.00     0.124 S 
ATOM     98  O   UNL A   1      53.814  24.070  25.500  1.00  0.00    -0.237 OA
ATOM     99  O   UNL A   1      54.435  26.447  25.218  1.00  0.00    -0.237 OA
ATOM    100  O   UNL A   1      54.575  25.390  27.441  1.00  0.00    -0.744 OA
ENDBRANCH  96  97
ENDBRANCH  64  89
ENDBRANCH  38  39
ENDBRANCH  31  33
ENDBRANCH  30  31
ENDBRANCH  29  30
ENDBRANCH  28  29
ENDBRANCH  27  28
ENDBRANCH  26  27
ENDBRANCH  25  26
ENDBRANCH  24  25
ENDBRANCH   1  24
TORSDOF 28
ENDMDL
MODEL 3
REMARK VINA RESULT:      -7.8      3.652      6.506
REMARK SMILES N#C[C@@H]1CN(C(=O)NCCCC(=O)OCCOCCOCCOCCOC(=O)c2ccc(-c3c4nc(c(-c5c(F)cc(S(=O)(=O)[O-])cc5F)c5ccc([nH]5)c(-c5c(F)cc(S(=O)(=O)[O-])cc5F)c5nc(c(-c6c(F)cc(S(=O)(=O)[O-])cc6F)c6ccc3[nH]6)C=C5)C=C4)cc2)CCO1
REMARK SMILES IDX 19 1 18 2 17 3 16 4 15 5 14 6 12 7 13 8 11 9 10 10 9 11 8 12
REMARK SMILES IDX 6 13 7 14 5 16 3 17 4 18 97 19 96 20 95 21 2 22 1 23 20 24
REMARK SMILES IDX 21 25 22 26 23 27 24 28 25 29 26 30 27 31 28 32 29 33 30 34
REMARK SMILES IDX 94 35 31 36 93 37 32 38 33 39 34 40 87 41 35 42 92 43 86 44
REMARK SMILES IDX 88 45 36 46 91 47 85 48 84 49 37 51 71 52 50 53 70 54 51 55
REMARK SMILES IDX 54 56 69 57 89 58 52 59 53 60 68 62 90 63 55 64 38 65 39 66
REMARK SMILES IDX 48 67 40 68 41 69 47 70 49 71 42 72 43 73 44 74 45 75 46 76
REMARK SMILES IDX 72 77 73 78 82 79 74 80 75 81 81 82 83 83 76 84 77 85 78 86
REMARK SMILES IDX 79 87 80 88 56 89 57 90 66 91 58 92 59 93 65 94 67 95 60 96
REMARK SMILES IDX 61 97 62 98 63 99 64 100
REMARK H PARENT 8 15 88 50 54 61
REMARK Flexibility Score: inf
ROOT
ATOM      1  C   UNL A   1      33.107  36.672  31.611  1.00  0.00     0.188 C 
ENDROOT
BRANCH   1   2
ATOM      2  C   UNL A   1      34.182  37.034  32.648  1.00  0.00     0.188 C 
BRANCH   2   3
ATOM      3  O   UNL A   1      34.169  36.316  33.861  1.00  0.00    -0.376 OA
BRANCH   3   4
ATOM      4  C   UNL A   1      34.769  35.036  33.979  1.00  0.00     0.202 C 
BRANCH   4   5
ATOM      5  C   UNL A   1      35.504  34.500  35.220  1.00  0.00     0.261 C 
BRANCH   5   6
ATOM      6  O   UNL A   1      36.330  33.351  35.035  1.00  0.00    -0.463 OA
BRANCH   6   7
ATOM      7  C   UNL A   1      37.664  33.517  35.124  1.00  0.00     0.305 C 
ATOM      8  O   UNL A   1      38.232  34.603  35.093  1.00  0.00    -0.252 OA
BRANCH   7   9
ATOM      9  C   UNL A   1      38.427  32.222  35.331  1.00  0.00     0.124 C 
BRANCH   9  10
ATOM     10  C   UNL A   1      38.452  31.100  34.283  1.00  0.00     0.033 C 
BRANCH  10  11
ATOM     11  C   UNL A   1      38.866  31.466  32.857  1.00  0.00     0.118 C 
BRANCH  11  12
ATOM     12  N   UNL A   1      40.288  31.288  32.684  1.00  0.00    -0.338 N 
ATOM     13  C   UNL A   1      41.366  32.024  32.400  1.00  0.00     0.317 C 
ATOM     14  O   UNL A   1      42.397  31.364  32.233  1.00  0.00    -0.249 OA
ATOM     15  H   UNL A   1      40.538  30.345  32.815  1.00  0.00     0.165 HD
BRANCH  13  16
ATOM     16  N   UNL A   1      41.372  33.381  32.309  1.00  0.00    -0.319 N 
ATOM     17  C   UNL A   1      43.013  35.105  32.992  1.00  0.00     0.240 C 
ATOM     18  C   UNL A   1      41.678  34.410  33.307  1.00  0.00     0.169 C 
ATOM     19  O   UNL A   1      42.905  35.704  31.666  1.00  0.00    -0.360 OA
ATOM     20  C   UNL A   1      42.606  34.719  30.650  1.00  0.00     0.183 C 
ATOM     21  C   UNL A   1      41.306  33.959  30.958  1.00  0.00     0.150 C 
BRANCH  17  22
ATOM     22  C   UNL A   1      44.224  34.189  33.055  1.00  0.00     0.096 C 
ATOM     23  N   UNL A   1      45.228  33.430  33.107  1.00  0.00    -0.195 NA
ENDBRANCH  17  22
ENDBRANCH  13  16
ENDBRANCH  11  12
ENDBRANCH  10  11
ENDBRANCH   9  10
ENDBRANCH   7   9
ENDBRANCH   6   7
ENDBRANCH   5   6
ENDBRANCH   4   5
ENDBRANCH   3   4
ENDBRANCH   2   3
ENDBRANCH   1   2
BRANCH   1  24
ATOM     24  O   UNL A   1      33.299  37.094  30.276  1.00  0.00    -0.377 OA
BRANCH  24  25
ATOM     25  C   UNL A   1      32.951  36.217  29.205  1.00  0.00     0.188 C 
BRANCH  25  26
ATOM     26  C   UNL A   1      33.766  34.942  28.892  1.00  0.00     0.188 C 
BRANCH  26  27
ATOM     27  O   UNL A   1      33.849  33.999  29.948  1.00  0.00    -0.376 OA
BRANCH  27  28
ATOM     28  C   UNL A   1      35.109  33.803  30.573  1.00  0.00     0.202 C 
BRANCH  28  29
ATOM     29  C   UNL A   1      35.736  32.405  30.448  1.00  0.00     0.261 C 
BRANCH  29  30
ATOM     30  O   UNL A   1      36.502  32.168  29.258  1.00  0.00    -0.460 OA
BRANCH  30  31
ATOM     31  C   UNL A   1      36.367  30.958  28.673  1.00  0.00     0.338 C 
ATOM     32  O   UNL A   1      35.377  30.521  28.106  1.00  0.00    -0.246 OA
BRANCH  31  33
ATOM     33  C   UNL A   1      37.688  30.304  28.677  1.00  0.00     0.060 A 
ATOM     34  C   UNL A   1      38.759  30.941  29.315  1.00  0.00     0.016 A 
ATOM     35  C   UNL A   1      37.865  29.074  28.042  1.00  0.00     0.016 A 
ATOM     36  C   UNL A   1      40.028  30.362  29.287  1.00  0.00     0.010 A 
ATOM     37  C   UNL A   1      39.140  28.505  27.999  1.00  0.00     0.010 A 
ATOM     38  C   UNL A   1      40.233  29.166  28.589  1.00  0.00    -0.014 A 
BRANCH  38  39
ATOM     39  C   UNL A   1      41.616  28.716  28.297  1.00  0.00     0.031 A 
ATOM     40  C   UNL A   1      42.713  29.746  28.296  1.00  0.00     0.074 A 
ATOM     41  C   UNL A   1      41.899  27.422  28.064  1.00  0.00     0.049 A 
ATOM     42  N   UNL A   1      43.983  29.609  28.016  1.00  0.00    -0.248 NA
ATOM     43  C   UNL A   1      42.322  31.119  28.658  1.00  0.00     0.031 C 
ATOM     44  C   UNL A   1      40.930  26.330  28.079  1.00  0.00     0.029 A 
ATOM     45  N   UNL A   1      43.091  26.813  27.756  1.00  0.00    -0.354 N 
ATOM     46  C   UNL A   1      44.537  30.877  28.155  1.00  0.00     0.074 A 
ATOM     47  C   UNL A   1      43.463  31.774  28.513  1.00  0.00     0.031 C 
ATOM     48  C   UNL A   1      41.562  25.183  27.777  1.00  0.00     0.029 A 
ATOM     49  C   UNL A   1      42.972  25.465  27.512  1.00  0.00     0.049 A 
ATOM     50  H   UNL A   1      43.948  27.295  27.713  1.00  0.00     0.167 HD
ATOM     51  C   UNL A   1      45.830  31.254  28.003  1.00  0.00     0.037 A 
ATOM     52  C   UNL A   1      43.891  24.571  27.094  1.00  0.00     0.037 A 
ATOM     53  C   UNL A   1      46.891  30.353  27.642  1.00  0.00     0.049 A 
ATOM     54  C   UNL A   1      45.309  25.029  26.858  1.00  0.00     0.074 A 
ATOM     55  C   UNL A   1      48.236  30.632  27.476  1.00  0.00     0.029 A 
ATOM     56  N   UNL A   1      46.729  29.000  27.377  1.00  0.00    -0.354 N 
ATOM     57  N   UNL A   1      45.828  26.225  27.011  1.00  0.00    -0.248 NA
ATOM     58  C   UNL A   1      46.266  24.016  26.393  1.00  0.00     0.031 C 
ATOM     59  C   UNL A   1      48.876  29.462  27.052  1.00  0.00     0.029 A 
ATOM     60  C   UNL A   1      47.943  28.437  27.021  1.00  0.00     0.049 A 
ATOM     61  H   UNL A   1      45.875  28.512  27.435  1.00  0.00     0.167 HD
ATOM     62  C   UNL A   1      47.177  26.100  26.692  1.00  0.00     0.074 A 
ATOM     63  C   UNL A   1      47.396  24.710  26.348  1.00  0.00     0.031 C 
ATOM     64  C   UNL A   1      48.148  27.048  26.688  1.00  0.00     0.037 A 
BRANCH  51  65
ATOM     65  C   UNL A   1      46.155  32.712  28.193  1.00  0.00     0.058 A 
ATOM     66  C   UNL A   1      46.634  33.215  29.414  1.00  0.00     0.135 A 
ATOM     67  C   UNL A   1      46.006  33.615  27.128  1.00  0.00     0.135 A 
ATOM     68  F   UNL A   1      46.777  32.402  30.472  1.00  0.00    -0.206 F 
ATOM     69  C   UNL A   1      46.923  34.565  29.580  1.00  0.00     0.059 A 
ATOM     70  C   UNL A   1      46.320  34.964  27.263  1.00  0.00     0.059 A 
ATOM     71  F   UNL A   1      45.548  33.191  25.939  1.00  0.00    -0.206 F 
ATOM     72  C   UNL A   1      46.763  35.433  28.498  1.00  0.00     0.060 A 
BRANCH  72  73
ATOM     73  S   UNL A   1      47.141  37.182  28.732  1.00  0.00     0.124 S 
ATOM     74  O   UNL A   1      46.066  37.817  27.973  1.00  0.00    -0.237 OA
ATOM     75  O   UNL A   1      47.062  37.326  30.182  1.00  0.00    -0.237 OA
ATOM     76  O   UNL A   1      48.477  37.323  28.162  1.00  0.00    -0.744 OA
ENDBRANCH  72  73
ENDBRANCH  51  65
BRANCH  52  77
ATOM     77  C   UNL A   1      43.499  23.154  26.863  1.00  0.00     0.058 A 
ATOM     78  C   UNL A   1      43.315  22.266  27.934  1.00  0.00     0.135 A 
ATOM     79  C   UNL A   1      43.301  22.656  25.564  1.00  0.00     0.135 A 
ATOM     80  F   UNL A   1      43.508  22.687  29.193  1.00  0.00    -0.206 F 
ATOM     81  C   UNL A   1      42.959  20.938  27.729  1.00  0.00     0.059 A 
ATOM     82  C   UNL A   1      42.915  21.339  25.335  1.00  0.00     0.059 A 
ATOM     83  F   UNL A   1      43.467  23.460  24.503  1.00  0.00    -0.206 F 
ATOM     84  C   UNL A   1      42.754  20.484  26.424  1.00  0.00     0.060 A 
BRANCH  84  85
ATOM     85  S   UNL A   1      42.244  18.769  26.176  1.00  0.00     0.124 S 
ATOM     86  O   UNL A   1      40.873  18.934  25.705  1.00  0.00    -0.237 OA
ATOM     87  O   UNL A   1      43.208  18.306  25.183  1.00  0.00    -0.237 OA
ATOM     88  O   UNL A   1      42.388  18.178  27.503  1.00  0.00    -0.744 OA
ENDBRANCH  84  85
ENDBRANCH  52  77
BRANCH  64  89
ATOM     89  C   UNL A   1      49.549  26.614  26.345  1.00  0.00     0.058 A 
ATOM     90  C   UNL A   1      50.157  26.954  25.127  1.00  0.00     0.135 A 
ATOM     91  C   UNL A   1      50.317  25.897  27.280  1.00  0.00     0.135 A 
ATOM     92  F   UNL A   1      49.470  27.635  24.195  1.00  0.00    -0.206 F 
ATOM     93  C   UNL A   1      51.465  26.578  24.836  1.00  0.00     0.059 A 
ATOM     94  C   UNL A   1      51.637  25.539  27.023  1.00  0.00     0.059 A 
ATOM     95  F   UNL A   1      49.791  25.555  28.467  1.00  0.00    -0.206 F 
ATOM     96  C   UNL A   1      52.198  25.874  25.793  1.00  0.00     0.060 A 
BRANCH  96  97
ATOM     97  S   UNL A   1      53.906  25.424  25.417  1.00  0.00     0.124 S 
ATOM     98  O   UNL A   1      53.737  24.111  24.803  1.00  0.00    -0.237 OA
ATOM     99  O   UNL A   1      54.319  26.496  24.517  1.00  0.00    -0.237 OA
ATOM    100  O   UNL A   1      54.556  25.425  26.724  1.00  0.00    -0.744 OA
ENDBRANCH  96  97
ENDBRANCH  64  89
ENDBRANCH  38  39
ENDBRANCH  31  33
ENDBRANCH  30  31
ENDBRANCH  29  30
ENDBRANCH  28  29
ENDBRANCH  27  28
ENDBRANCH  26  27
ENDBRANCH  25  26
ENDBRANCH  24  25
ENDBRANCH   1  24
TORSDOF 28
ENDMDL
