MODEL 1
REMARK VINA RESULT:      -9.6      0.000      0.000
REMARK SMILES CC1(C)CCSC[C@@]1(Nc1ccccc1Br)C(=O)OCCOCCOCCOCCOC(=O)c1ccc(-c2c3nc(c(-c4c(F)cc(S(=O)(=O)[O-])cc4F)c4ccc([nH]4)c(-c4c(F)cc(S(=O)(=O)[O-])cc4F)c4nc(c(-c5c(F)cc(S(=O)(=O)[O-])cc5F)c5ccc2[nH]5)C=C4)C=C3)cc1
REMARK SMILES IDX 26 1 25 2 24 3 23 4 22 5 21 6 20 7 19 8 17 9 18 10 8 11 1 12
REMARK SMILES IDX 2 13 3 14 4 15 5 16 7 17 6 18 9 19 10 21 11 22 15 23 12 24
REMARK SMILES IDX 14 25 16 26 13 27 27 28 28 29 29 30 30 31 31 32 32 33 33 34
REMARK SMILES IDX 34 35 35 36 99 37 36 38 98 39 37 40 38 41 39 42 92 43 40 44
REMARK SMILES IDX 97 45 91 46 93 47 41 48 96 49 90 50 89 51 42 53 76 54 55 55
REMARK SMILES IDX 75 56 56 57 59 58 74 59 94 60 57 61 58 62 73 64 95 65 60 66
REMARK SMILES IDX 43 67 44 68 53 69 45 70 46 71 52 72 54 73 47 74 48 75 49 76
REMARK SMILES IDX 50 77 51 78 77 79 78 80 87 81 79 82 80 83 86 84 88 85 81 86
REMARK SMILES IDX 82 87 83 88 84 89 85 90 61 91 62 92 71 93 63 94 64 95 70 96
REMARK SMILES IDX 72 97 65 98 66 99 67 100 68 101 69 102
REMARK H PARENT 9 20 93 52 59 63
REMARK Flexibility Score: inf
ROOT
ATOM      1  C   UNL A   1      42.359  21.258  26.316  1.00  0.00     0.188 C 
ENDROOT
BRANCH   1   2
ATOM      2  O   UNL A   1      41.022  20.881  26.086  1.00  0.00    -0.377 OA
BRANCH   2   3
ATOM      3  C   UNL A   1      40.053  21.575  26.831  1.00  0.00     0.188 C 
BRANCH   3   4
ATOM      4  C   UNL A   1      38.787  21.908  26.046  1.00  0.00     0.188 C 
BRANCH   4   5
ATOM      5  O   UNL A   1      38.488  23.242  25.640  1.00  0.00    -0.376 OA
BRANCH   5   6
ATOM      6  C   UNL A   1      37.288  23.864  26.067  1.00  0.00     0.202 C 
BRANCH   6   7
ATOM      7  C   UNL A   1      36.013  23.571  25.257  1.00  0.00     0.261 C 
BRANCH   7   8
ATOM      8  O   UNL A   1      35.060  24.653  25.135  1.00  0.00    -0.461 OA
BRANCH   8   9
ATOM      9  C   UNL A   1      34.351  24.692  23.980  1.00  0.00     0.333 C 
ATOM     10  O   UNL A   1      34.851  24.317  22.920  1.00  0.00    -0.249 OA
BRANCH   9  11
ATOM     11  C   UNL A   1      32.945  25.449  24.055  1.00  0.00     0.150 C 
ATOM     12  C   UNL A   1      33.943  27.820  24.793  1.00  0.00     0.014 C 
ATOM     13  C   UNL A   1      32.768  26.809  24.938  1.00  0.00     0.000 C 
ATOM     14  C   UNL A   1      32.527  26.499  26.445  1.00  0.00     0.014 C 
ATOM     15  C   UNL A   1      31.474  27.615  24.536  1.00  0.00     0.020 C 
ATOM     16  C   UNL A   1      31.408  28.088  23.095  1.00  0.00     0.070 C 
ATOM     17  C   UNL A   1      32.770  25.791  22.534  1.00  0.00     0.110 C 
ATOM     18  S   UNL A   1      31.248  26.657  22.024  1.00  0.00    -0.159 SA
BRANCH  11  19
ATOM     19  N   UNL A   1      31.863  24.479  24.559  1.00  0.00    -0.368 N 
ATOM     20  H   UNL A   1      31.048  24.837  24.979  1.00  0.00     0.161 HD
BRANCH  19  21
ATOM     21  C   UNL A   1      32.021  23.089  24.430  1.00  0.00     0.049 A 
ATOM     22  C   UNL A   1      31.728  22.502  23.192  1.00  0.00     0.027 A 
ATOM     23  C   UNL A   1      32.539  22.242  25.427  1.00  0.00     0.041 A 
ATOM     24  C   UNL A   1      32.099  21.190  22.898  1.00  0.00     0.002 A 
ATOM     25  C   UNL A   1      32.948  20.936  25.127  1.00  0.00     0.018 A 
ATOM     26  Br  UNL A   1      32.600  22.733  27.255  1.00  0.00    -0.049 Br
ATOM     27  C   UNL A   1      32.754  20.421  23.851  1.00  0.00     0.001 A 
ENDBRANCH  19  21
ENDBRANCH  11  19
ENDBRANCH   9  11
ENDBRANCH   8   9
ENDBRANCH   7   8
ENDBRANCH   6   7
ENDBRANCH   5   6
ENDBRANCH   4   5
ENDBRANCH   3   4
ENDBRANCH   2   3
ENDBRANCH   1   2
BRANCH   1  28
ATOM     28  C   UNL A   1      42.904  22.408  25.464  1.00  0.00     0.188 C 
BRANCH  28  29
ATOM     29  O   UNL A   1      44.331  22.388  25.353  1.00  0.00    -0.376 OA
BRANCH  29  30
ATOM     30  C   UNL A   1      45.001  23.636  25.515  1.00  0.00     0.202 C 
BRANCH  30  31
ATOM     31  C   UNL A   1      44.266  24.858  24.937  1.00  0.00     0.261 C 
BRANCH  31  32
ATOM     32  O   UNL A   1      43.871  25.889  25.861  1.00  0.00    -0.460 OA
BRANCH  32  33
ATOM     33  C   UNL A   1      42.578  26.283  25.909  1.00  0.00     0.338 C 
ATOM     34  O   UNL A   1      41.688  25.976  25.135  1.00  0.00    -0.246 OA
BRANCH  33  35
ATOM     35  C   UNL A   1      42.368  26.963  27.209  1.00  0.00     0.060 A 
ATOM     36  C   UNL A   1      41.462  26.405  28.121  1.00  0.00     0.016 A 
ATOM     37  C   UNL A   1      43.115  28.089  27.561  1.00  0.00     0.016 A 
ATOM     38  C   UNL A   1      41.313  26.961  29.395  1.00  0.00     0.010 A 
ATOM     39  C   UNL A   1      42.932  28.671  28.819  1.00  0.00     0.010 A 
ATOM     40  C   UNL A   1      42.024  28.118  29.739  1.00  0.00    -0.014 A 
BRANCH  40  41
ATOM     41  C   UNL A   1      41.691  28.866  30.975  1.00  0.00     0.031 A 
ATOM     42  C   UNL A   1      40.515  29.803  30.936  1.00  0.00     0.074 A 
ATOM     43  C   UNL A   1      42.435  28.756  32.092  1.00  0.00     0.049 A 
ATOM     44  N   UNL A   1      40.100  30.649  31.840  1.00  0.00    -0.248 NA
ATOM     45  C   UNL A   1      39.702  29.786  29.707  1.00  0.00     0.031 C 
ATOM     46  C   UNL A   1      43.577  27.861  32.268  1.00  0.00     0.029 A 
ATOM     47  N   UNL A   1      42.351  29.431  33.287  1.00  0.00    -0.354 N 
ATOM     48  C   UNL A   1      38.989  31.274  31.289  1.00  0.00     0.074 A 
ATOM     49  C   UNL A   1      38.794  30.714  29.969  1.00  0.00     0.031 C 
ATOM     50  C   UNL A   1      44.110  28.068  33.487  1.00  0.00     0.029 A 
ATOM     51  C   UNL A   1      43.369  29.134  34.163  1.00  0.00     0.049 A 
ATOM     52  H   UNL A   1      41.630  30.068  33.496  1.00  0.00     0.167 HD
ATOM     53  C   UNL A   1      38.204  32.231  31.832  1.00  0.00     0.037 A 
ATOM     54  C   UNL A   1      43.687  29.688  35.351  1.00  0.00     0.037 A 
ATOM     55  C   UNL A   1      38.395  32.785  33.144  1.00  0.00     0.049 A 
ATOM     56  C   UNL A   1      42.842  30.814  35.898  1.00  0.00     0.074 A 
ATOM     57  C   UNL A   1      37.612  33.715  33.803  1.00  0.00     0.029 A 
ATOM     58  N   UNL A   1      39.450  32.477  33.987  1.00  0.00    -0.354 N 
ATOM     59  N   UNL A   1      41.756  31.351  35.393  1.00  0.00    -0.248 NA
ATOM     60  C   UNL A   1      43.271  31.419  37.168  1.00  0.00     0.031 C 
ATOM     61  C   UNL A   1      38.223  34.012  35.025  1.00  0.00     0.029 A 
ATOM     62  C   UNL A   1      39.363  33.233  35.143  1.00  0.00     0.049 A 
ATOM     63  H   UNL A   1      40.157  31.820  33.792  1.00  0.00     0.167 HD
ATOM     64  C   UNL A   1      41.368  32.343  36.291  1.00  0.00     0.074 A 
ATOM     65  C   UNL A   1      42.323  32.322  37.377  1.00  0.00     0.031 C 
ATOM     66  C   UNL A   1      40.319  33.198  36.219  1.00  0.00     0.037 A 
BRANCH  53  67
ATOM     67  C   UNL A   1      37.075  32.767  31.003  1.00  0.00     0.058 A 
ATOM     68  C   UNL A   1      35.751  32.357  31.214  1.00  0.00     0.135 A 
ATOM     69  C   UNL A   1      37.316  33.760  30.042  1.00  0.00     0.135 A 
ATOM     70  F   UNL A   1      35.475  31.392  32.105  1.00  0.00    -0.206 F 
ATOM     71  C   UNL A   1      34.699  32.920  30.501  1.00  0.00     0.059 A 
ATOM     72  C   UNL A   1      36.277  34.351  29.330  1.00  0.00     0.059 A 
ATOM     73  F   UNL A   1      38.569  34.174  29.797  1.00  0.00    -0.206 F 
ATOM     74  C   UNL A   1      34.971  33.922  29.567  1.00  0.00     0.060 A 
BRANCH  74  75
ATOM     75  S   UNL A   1      33.589  34.680  28.687  1.00  0.00     0.124 S 
ATOM     76  O   UNL A   1      33.247  33.634  27.727  1.00  0.00    -0.237 OA
ATOM     77  O   UNL A   1      32.621  34.897  29.758  1.00  0.00    -0.237 OA
ATOM     78  O   UNL A   1      34.171  35.890  28.117  1.00  0.00    -0.744 OA
ENDBRANCH  74  75
ENDBRANCH  53  67
BRANCH  54  79
ATOM     79  C   UNL A   1      44.901  29.247  36.093  1.00  0.00     0.058 A 
ATOM     80  C   UNL A   1      44.839  28.223  37.050  1.00  0.00     0.135 A 
ATOM     81  C   UNL A   1      46.135  29.890  35.907  1.00  0.00     0.135 A 
ATOM     82  F   UNL A   1      43.677  27.590  37.279  1.00  0.00    -0.206 F 
ATOM     83  C   UNL A   1      45.946  27.871  37.816  1.00  0.00     0.059 A 
ATOM     84  C   UNL A   1      47.263  29.539  36.642  1.00  0.00     0.059 A 
ATOM     85  F   UNL A   1      46.252  30.873  35.001  1.00  0.00    -0.206 F 
ATOM     86  C   UNL A   1      47.153  28.541  37.609  1.00  0.00     0.060 A 
BRANCH  86  87
ATOM     87  S   UNL A   1      48.590  28.077  38.600  1.00  0.00     0.124 S 
ATOM     88  O   UNL A   1      49.388  29.296  38.545  1.00  0.00    -0.237 OA
ATOM     89  O   UNL A   1      47.988  27.764  39.892  1.00  0.00    -0.237 OA
ATOM     90  O   UNL A   1      49.134  26.930  37.877  1.00  0.00    -0.744 OA
ENDBRANCH  86  87
ENDBRANCH  54  79
BRANCH  66  91
ATOM     91  C   UNL A   1      40.132  34.177  37.343  1.00  0.00     0.058 A 
ATOM     92  C   UNL A   1      40.774  35.425  37.340  1.00  0.00     0.135 A 
ATOM     93  C   UNL A   1      39.237  33.901  38.390  1.00  0.00     0.135 A 
ATOM     94  F   UNL A   1      41.644  35.734  36.365  1.00  0.00    -0.206 F 
ATOM     95  C   UNL A   1      40.541  36.364  38.340  1.00  0.00     0.059 A 
ATOM     96  C   UNL A   1      38.972  34.834  39.388  1.00  0.00     0.059 A 
ATOM     97  F   UNL A   1      38.589  32.726  38.434  1.00  0.00    -0.206 F 
ATOM     98  C   UNL A   1      39.634  36.061  39.357  1.00  0.00     0.060 A 
BRANCH  98  99
ATOM     99  S   UNL A   1      39.297  37.310  40.617  1.00  0.00     0.124 S 
ATOM    100  O   UNL A   1      38.973  36.482  41.774  1.00  0.00    -0.237 OA
ATOM    101  O   UNL A   1      40.563  38.034  40.689  1.00  0.00    -0.237 OA
ATOM    102  O   UNL A   1      38.181  38.067  40.054  1.00  0.00    -0.744 OA
ENDBRANCH  98  99
ENDBRANCH  66  91
ENDBRANCH  40  41
ENDBRANCH  33  35
ENDBRANCH  32  33
ENDBRANCH  31  32
ENDBRANCH  30  31
ENDBRANCH  29  30
ENDBRANCH  28  29
ENDBRANCH   1  28
TORSDOF 25
ENDMDL
MODEL 2
REMARK VINA RESULT:      -9.3      5.827     11.830
REMARK SMILES CC1(C)CCSC[C@@]1(Nc1ccccc1Br)C(=O)OCCOCCOCCOCCOC(=O)c1ccc(-c2c3nc(c(-c4c(F)cc(S(=O)(=O)[O-])cc4F)c4ccc([nH]4)c(-c4c(F)cc(S(=O)(=O)[O-])cc4F)c4nc(c(-c5c(F)cc(S(=O)(=O)[O-])cc5F)c5ccc2[nH]5)C=C4)C=C3)cc1
REMARK SMILES IDX 26 1 25 2 24 3 23 4 22 5 21 6 20 7 19 8 17 9 18 10 8 11 1 12
REMARK SMILES IDX 2 13 3 14 4 15 5 16 7 17 6 18 9 19 10 21 11 22 15 23 12 24
REMARK SMILES IDX 14 25 16 26 13 27 27 28 28 29 29 30 30 31 31 32 32 33 33 34
REMARK SMILES IDX 34 35 35 36 99 37 36 38 98 39 37 40 38 41 39 42 92 43 40 44
REMARK SMILES IDX 97 45 91 46 93 47 41 48 96 49 90 50 89 51 42 53 76 54 55 55
REMARK SMILES IDX 75 56 56 57 59 58 74 59 94 60 57 61 58 62 73 64 95 65 60 66
REMARK SMILES IDX 43 67 44 68 53 69 45 70 46 71 52 72 54 73 47 74 48 75 49 76
REMARK SMILES IDX 50 77 51 78 77 79 78 80 87 81 79 82 80 83 86 84 88 85 81 86
REMARK SMILES IDX 82 87 83 88 84 89 85 90 61 91 62 92 71 93 63 94 64 95 70 96
REMARK SMILES IDX 72 97 65 98 66 99 67 100 68 101 69 102
REMARK H PARENT 9 20 93 52 59 63
REMARK Flexibility Score: inf
ROOT
ATOM      1  C   UNL A   1      34.762  34.103  28.403  1.00  0.00     0.188 C 
ENDROOT
BRANCH   1   2
ATOM      2  O   UNL A   1      34.458  33.026  27.548  1.00  0.00    -0.377 OA
BRANCH   2   3
ATOM      3  C   UNL A   1      34.156  31.808  28.179  1.00  0.00     0.188 C 
BRANCH   3   4
ATOM      4  C   UNL A   1      33.608  30.740  27.238  1.00  0.00     0.188 C 
BRANCH   4   5
ATOM      5  O   UNL A   1      34.397  29.623  26.832  1.00  0.00    -0.376 OA
BRANCH   5   6
ATOM      6  C   UNL A   1      33.886  28.307  26.958  1.00  0.00     0.202 C 
BRANCH   6   7
ATOM      7  C   UNL A   1      33.355  27.630  25.682  1.00  0.00     0.261 C 
BRANCH   7   8
ATOM      8  O   UNL A   1      33.406  26.184  25.647  1.00  0.00    -0.461 OA
BRANCH   8   9
ATOM      9  C   UNL A   1      33.652  25.628  24.434  1.00  0.00     0.333 C 
ATOM     10  O   UNL A   1      34.268  26.250  23.569  1.00  0.00    -0.249 OA
BRANCH   9  11
ATOM     11  C   UNL A   1      32.912  24.242  24.144  1.00  0.00     0.150 C 
ATOM     12  C   UNL A   1      35.130  22.854  23.578  1.00  0.00     0.014 C 
ATOM     13  C   UNL A   1      33.625  23.079  23.249  1.00  0.00     0.000 C 
ATOM     14  C   UNL A   1      33.455  23.334  21.721  1.00  0.00     0.014 C 
ATOM     15  C   UNL A   1      32.941  21.673  23.447  1.00  0.00     0.020 C 
ATOM     16  C   UNL A   1      32.954  21.122  24.861  1.00  0.00     0.070 C 
ATOM     17  C   UNL A   1      32.753  23.735  25.620  1.00  0.00     0.110 C 
ATOM     18  S   UNL A   1      31.899  22.147  25.890  1.00  0.00    -0.159 SA
BRANCH  11  19
ATOM     19  N   UNL A   1      31.554  24.512  23.475  1.00  0.00    -0.368 N 
ATOM     20  H   UNL A   1      31.047  23.763  23.086  1.00  0.00     0.161 HD
BRANCH  19  21
ATOM     21  C   UNL A   1      31.026  25.812  23.408  1.00  0.00     0.049 A 
ATOM     22  C   UNL A   1      31.372  26.611  22.310  1.00  0.00     0.027 A 
ATOM     23  C   UNL A   1      30.098  26.352  24.317  1.00  0.00     0.041 A 
ATOM     24  C   UNL A   1      30.700  27.800  22.028  1.00  0.00     0.002 A 
ATOM     25  C   UNL A   1      29.393  27.526  24.021  1.00  0.00     0.018 A 
ATOM     26  Br  UNL A   1      29.825  25.633  26.048  1.00  0.00    -0.049 Br
ATOM     27  C   UNL A   1      29.675  28.234  22.859  1.00  0.00     0.001 A 
ENDBRANCH  19  21
ENDBRANCH  11  19
ENDBRANCH   9  11
ENDBRANCH   8   9
ENDBRANCH   7   8
ENDBRANCH   6   7
ENDBRANCH   5   6
ENDBRANCH   4   5
ENDBRANCH   3   4
ENDBRANCH   2   3
ENDBRANCH   1   2
BRANCH   1  28
ATOM     28  C   UNL A   1      35.699  33.803  29.578  1.00  0.00     0.188 C 
BRANCH  28  29
ATOM     29  O   UNL A   1      35.035  33.853  30.845  1.00  0.00    -0.376 OA
BRANCH  29  30
ATOM     30  C   UNL A   1      34.778  32.603  31.479  1.00  0.00     0.202 C 
BRANCH  30  31
ATOM     31  C   UNL A   1      35.890  32.099  32.416  1.00  0.00     0.261 C 
BRANCH  31  32
ATOM     32  O   UNL A   1      37.089  31.591  31.803  1.00  0.00    -0.460 OA
BRANCH  32  33
ATOM     33  C   UNL A   1      37.441  30.298  31.993  1.00  0.00     0.338 C 
ATOM     34  O   UNL A   1      36.748  29.410  32.458  1.00  0.00    -0.246 OA
BRANCH  33  35
ATOM     35  C   UNL A   1      38.740  30.086  31.313  1.00  0.00     0.060 A 
ATOM     36  C   UNL A   1      38.891  30.538  29.995  1.00  0.00     0.016 A 
ATOM     37  C   UNL A   1      39.824  29.524  31.991  1.00  0.00     0.016 A 
ATOM     38  C   UNL A   1      40.131  30.445  29.357  1.00  0.00     0.010 A 
ATOM     39  C   UNL A   1      41.053  29.390  31.337  1.00  0.00     0.010 A 
ATOM     40  C   UNL A   1      41.211  29.840  30.014  1.00  0.00    -0.014 A 
BRANCH  40  41
ATOM     41  C   UNL A   1      42.448  29.500  29.271  1.00  0.00     0.031 A 
ATOM     42  C   UNL A   1      42.577  28.107  28.718  1.00  0.00     0.074 A 
ATOM     43  C   UNL A   1      43.454  30.384  29.127  1.00  0.00     0.049 A 
ATOM     44  N   UNL A   1      43.602  27.537  28.142  1.00  0.00    -0.248 NA
ATOM     45  C   UNL A   1      41.392  27.241  28.838  1.00  0.00     0.031 C 
ATOM     46  C   UNL A   1      43.439  31.771  29.586  1.00  0.00     0.029 A 
ATOM     47  N   UNL A   1      44.701  30.229  28.570  1.00  0.00    -0.354 N 
ATOM     48  C   UNL A   1      43.192  26.244  27.842  1.00  0.00     0.074 A 
ATOM     49  C   UNL A   1      41.827  26.110  28.302  1.00  0.00     0.031 C 
ATOM     50  C   UNL A   1      44.635  32.330  29.325  1.00  0.00     0.029 A 
ATOM     51  C   UNL A   1      45.512  31.332  28.712  1.00  0.00     0.049 A 
ATOM     52  H   UNL A   1      44.989  29.406  28.113  1.00  0.00     0.167 HD
ATOM     53  C   UNL A   1      43.891  25.256  27.241  1.00  0.00     0.037 A 
ATOM     54  C   UNL A   1      46.818  31.499  28.419  1.00  0.00     0.037 A 
ATOM     55  C   UNL A   1      45.246  25.389  26.780  1.00  0.00     0.049 A 
ATOM     56  C   UNL A   1      47.599  30.351  27.825  1.00  0.00     0.074 A 
ATOM     57  C   UNL A   1      46.016  24.462  26.102  1.00  0.00     0.029 A 
ATOM     58  N   UNL A   1      46.038  26.511  26.967  1.00  0.00    -0.354 N 
ATOM     59  N   UNL A   1      47.181  29.154  27.488  1.00  0.00    -0.248 NA
ATOM     60  C   UNL A   1      49.034  30.571  27.582  1.00  0.00     0.031 C 
ATOM     61  C   UNL A   1      47.294  25.001  25.927  1.00  0.00     0.029 A 
ATOM     62  C   UNL A   1      47.304  26.281  26.456  1.00  0.00     0.049 A 
ATOM     63  H   UNL A   1      45.745  27.345  27.398  1.00  0.00     0.167 HD
ATOM     64  C   UNL A   1      48.295  28.488  26.982  1.00  0.00     0.074 A 
ATOM     65  C   UNL A   1      49.402  29.418  27.040  1.00  0.00     0.031 C 
ATOM     66  C   UNL A   1      48.395  27.219  26.517  1.00  0.00     0.037 A 
BRANCH  53  67
ATOM     67  C   UNL A   1      43.220  23.927  27.063  1.00  0.00     0.058 A 
ATOM     68  C   UNL A   1      43.100  23.018  28.123  1.00  0.00     0.135 A 
ATOM     69  C   UNL A   1      42.621  23.599  25.838  1.00  0.00     0.135 A 
ATOM     70  F   UNL A   1      43.677  23.278  29.307  1.00  0.00    -0.206 F 
ATOM     71  C   UNL A   1      42.402  21.825  27.976  1.00  0.00     0.059 A 
ATOM     72  C   UNL A   1      41.903  22.419  25.673  1.00  0.00     0.059 A 
ATOM     73  F   UNL A   1      42.722  24.433  24.791  1.00  0.00    -0.206 F 
ATOM     74  C   UNL A   1      41.800  21.538  26.749  1.00  0.00     0.060 A 
BRANCH  74  75
ATOM     75  S   UNL A   1      40.853  20.010  26.590  1.00  0.00     0.124 S 
ATOM     76  O   UNL A   1      40.817  19.545  27.974  1.00  0.00    -0.237 OA
ATOM     77  O   UNL A   1      39.584  20.486  26.048  1.00  0.00    -0.237 OA
ATOM     78  O   UNL A   1      41.658  19.204  25.678  1.00  0.00    -0.744 OA
ENDBRANCH  74  75
ENDBRANCH  53  67
BRANCH  54  79
ATOM     79  C   UNL A   1      47.510  32.777  28.741  1.00  0.00     0.058 A 
ATOM     80  C   UNL A   1      47.620  33.805  27.792  1.00  0.00     0.135 A 
ATOM     81  C   UNL A   1      48.135  32.968  29.983  1.00  0.00     0.135 A 
ATOM     82  F   UNL A   1      47.057  33.663  26.583  1.00  0.00    -0.206 F 
ATOM     83  C   UNL A   1      48.348  34.963  28.051  1.00  0.00     0.059 A 
ATOM     84  C   UNL A   1      48.847  34.127  30.276  1.00  0.00     0.059 A 
ATOM     85  F   UNL A   1      48.057  32.018  30.929  1.00  0.00    -0.206 F 
ATOM     86  C   UNL A   1      48.964  35.111  29.295  1.00  0.00     0.060 A 
BRANCH  86  87
ATOM     87  S   UNL A   1      49.902  36.618  29.631  1.00  0.00     0.124 S 
ATOM     88  O   UNL A   1      50.441  36.926  28.311  1.00  0.00    -0.237 OA
ATOM     89  O   UNL A   1      48.870  37.521  30.128  1.00  0.00    -0.237 OA
ATOM     90  O   UNL A   1      50.878  36.185  30.628  1.00  0.00    -0.744 OA
ENDBRANCH  86  87
ENDBRANCH  54  79
BRANCH  66  91
ATOM     91  C   UNL A   1      49.735  26.755  26.021  1.00  0.00     0.058 A 
ATOM     92  C   UNL A   1      50.178  27.056  24.724  1.00  0.00     0.135 A 
ATOM     93  C   UNL A   1      50.619  26.078  26.877  1.00  0.00     0.135 A 
ATOM     94  F   UNL A   1      49.369  27.696  23.865  1.00  0.00    -0.206 F 
ATOM     95  C   UNL A   1      51.451  26.696  24.290  1.00  0.00     0.059 A 
ATOM     96  C   UNL A   1      51.903  25.729  26.472  1.00  0.00     0.059 A 
ATOM     97  F   UNL A   1      50.247  25.777  28.132  1.00  0.00    -0.206 F 
ATOM     98  C   UNL A   1      52.308  26.037  25.173  1.00  0.00     0.060 A 
BRANCH  98  99
ATOM     99  S   UNL A   1      53.976  25.627  24.617  1.00  0.00     0.124 S 
ATOM    100  O   UNL A   1      53.953  24.168  24.666  1.00  0.00    -0.237 OA
ATOM    101  O   UNL A   1      54.016  26.216  23.282  1.00  0.00    -0.237 OA
ATOM    102  O   UNL A   1      54.833  26.274  25.607  1.00  0.00    -0.744 OA
ENDBRANCH  98  99
ENDBRANCH  66  91
ENDBRANCH  40  41
ENDBRANCH  33  35
ENDBRANCH  32  33
ENDBRANCH  31  32
ENDBRANCH  30  31
ENDBRANCH  29  30
ENDBRANCH  28  29
ENDBRANCH   1  28
TORSDOF 25
ENDMDL
MODEL 3
REMARK VINA RESULT:      -8.6      5.845     12.021
REMARK SMILES CC1(C)CCSC[C@@]1(Nc1ccccc1Br)C(=O)OCCOCCOCCOCCOC(=O)c1ccc(-c2c3nc(c(-c4c(F)cc(S(=O)(=O)[O-])cc4F)c4ccc([nH]4)c(-c4c(F)cc(S(=O)(=O)[O-])cc4F)c4nc(c(-c5c(F)cc(S(=O)(=O)[O-])cc5F)c5ccc2[nH]5)C=C4)C=C3)cc1
REMARK SMILES IDX 26 1 25 2 24 3 23 4 22 5 21 6 20 7 19 8 17 9 18 10 8 11 1 12
REMARK SMILES IDX 2 13 3 14 4 15 5 16 7 17 6 18 9 19 10 21 11 22 15 23 12 24
REMARK SMILES IDX 14 25 16 26 13 27 27 28 28 29 29 30 30 31 31 32 32 33 33 34
REMARK SMILES IDX 34 35 35 36 99 37 36 38 98 39 37 40 38 41 39 42 92 43 40 44
REMARK SMILES IDX 97 45 91 46 93 47 41 48 96 49 90 50 89 51 42 53 76 54 55 55
REMARK SMILES IDX 75 56 56 57 59 58 74 59 94 60 57 61 58 62 73 64 95 65 60 66
REMARK SMILES IDX 43 67 44 68 53 69 45 70 46 71 52 72 54 73 47 74 48 75 49 76
REMARK SMILES IDX 50 77 51 78 77 79 78 80 87 81 79 82 80 83 86 84 88 85 81 86
REMARK SMILES IDX 82 87 83 88 84 89 85 90 61 91 62 92 71 93 63 94 64 95 70 96
REMARK SMILES IDX 72 97 65 98 66 99 67 100 68 101 69 102
REMARK H PARENT 9 20 93 52 59 63
REMARK Flexibility Score: inf
ROOT
ATOM      1  C   UNL A   1      34.760  34.212  29.136  1.00  0.00     0.188 C 
ENDROOT
BRANCH   1   2
ATOM      2  O   UNL A   1      35.089  33.079  28.368  1.00  0.00    -0.377 OA
BRANCH   2   3
ATOM      3  C   UNL A   1      34.010  32.416  27.760  1.00  0.00     0.188 C 
BRANCH   3   4
ATOM      4  C   UNL A   1      34.208  30.910  27.615  1.00  0.00     0.188 C 
BRANCH   4   5
ATOM      5  O   UNL A   1      33.309  30.106  26.853  1.00  0.00    -0.376 OA
BRANCH   5   6
ATOM      6  C   UNL A   1      32.557  29.084  27.485  1.00  0.00     0.202 C 
BRANCH   6   7
ATOM      7  C   UNL A   1      31.753  28.136  26.578  1.00  0.00     0.261 C 
BRANCH   7   8
ATOM      8  O   UNL A   1      32.011  26.720  26.731  1.00  0.00    -0.461 OA
BRANCH   8   9
ATOM      9  C   UNL A   1      33.038  26.221  25.999  1.00  0.00     0.333 C 
ATOM     10  O   UNL A   1      34.076  26.865  25.848  1.00  0.00    -0.249 OA
BRANCH   9  11
ATOM     11  C   UNL A   1      32.724  24.881  25.187  1.00  0.00     0.150 C 
ATOM     12  C   UNL A   1      34.793  23.481  26.148  1.00  0.00     0.014 C 
ATOM     13  C   UNL A   1      33.887  23.770  24.915  1.00  0.00     0.000 C 
ATOM     14  C   UNL A   1      34.775  24.143  23.690  1.00  0.00     0.014 C 
ATOM     15  C   UNL A   1      33.289  22.372  24.501  1.00  0.00     0.020 C 
ATOM     16  C   UNL A   1      32.371  21.716  25.515  1.00  0.00     0.070 C 
ATOM     17  C   UNL A   1      31.635  24.269  26.135  1.00  0.00     0.110 C 
ATOM     18  S   UNL A   1      30.868  22.689  25.648  1.00  0.00    -0.159 SA
BRANCH  11  19
ATOM     19  N   UNL A   1      32.154  25.237  23.804  1.00  0.00    -0.368 N 
ATOM     20  H   UNL A   1      32.064  24.534  23.120  1.00  0.00     0.161 HD
BRANCH  19  21
ATOM     21  C   UNL A   1      31.760  26.551  23.500  1.00  0.00     0.049 A 
ATOM     22  C   UNL A   1      32.745  27.458  23.090  1.00  0.00     0.027 A 
ATOM     23  C   UNL A   1      30.430  27.010  23.487  1.00  0.00     0.041 A 
ATOM     24  C   UNL A   1      32.417  28.691  22.525  1.00  0.00     0.002 A 
ATOM     25  C   UNL A   1      30.091  28.230  22.886  1.00  0.00     0.018 A 
ATOM     26  Br  UNL A   1      29.028  26.108  24.385  1.00  0.00    -0.049 Br
ATOM     27  C   UNL A   1      31.085  29.056  22.378  1.00  0.00     0.001 A 
ENDBRANCH  19  21
ENDBRANCH  11  19
ENDBRANCH   9  11
ENDBRANCH   8   9
ENDBRANCH   7   8
ENDBRANCH   6   7
ENDBRANCH   5   6
ENDBRANCH   4   5
ENDBRANCH   3   4
ENDBRANCH   2   3
ENDBRANCH   1   2
BRANCH   1  28
ATOM     28  C   UNL A   1      34.352  33.962  30.591  1.00  0.00     0.188 C 
BRANCH  28  29
ATOM     29  O   UNL A   1      34.990  34.857  31.508  1.00  0.00    -0.376 OA
BRANCH  29  30
ATOM     30  C   UNL A   1      35.834  34.264  32.493  1.00  0.00     0.202 C 
BRANCH  30  31
ATOM     31  C   UNL A   1      35.842  32.726  32.514  1.00  0.00     0.261 C 
BRANCH  31  32
ATOM     32  O   UNL A   1      37.022  32.066  32.018  1.00  0.00    -0.460 OA
BRANCH  32  33
ATOM     33  C   UNL A   1      36.906  31.123  31.055  1.00  0.00     0.338 C 
ATOM     34  O   UNL A   1      35.890  30.802  30.462  1.00  0.00    -0.246 OA
BRANCH  33  35
ATOM     35  C   UNL A   1      38.276  30.713  30.666  1.00  0.00     0.060 A 
ATOM     36  C   UNL A   1      38.653  30.818  29.321  1.00  0.00     0.016 A 
ATOM     37  C   UNL A   1      39.206  30.309  31.627  1.00  0.00     0.016 A 
ATOM     38  C   UNL A   1      39.966  30.536  28.933  1.00  0.00     0.010 A 
ATOM     39  C   UNL A   1      40.507  29.983  31.232  1.00  0.00     0.010 A 
ATOM     40  C   UNL A   1      40.892  30.085  29.883  1.00  0.00    -0.014 A 
BRANCH  40  41
ATOM     41  C   UNL A   1      42.202  29.537  29.456  1.00  0.00     0.031 A 
ATOM     42  C   UNL A   1      43.360  30.491  29.341  1.00  0.00     0.074 A 
ATOM     43  C   UNL A   1      42.356  28.239  29.132  1.00  0.00     0.049 A 
ATOM     44  N   UNL A   1      44.563  30.280  28.877  1.00  0.00    -0.248 NA
ATOM     45  C   UNL A   1      43.126  31.868  29.808  1.00  0.00     0.031 C 
ATOM     46  C   UNL A   1      41.323  27.210  29.231  1.00  0.00     0.029 A 
ATOM     47  N   UNL A   1      43.446  27.572  28.625  1.00  0.00    -0.354 N 
ATOM     48  C   UNL A   1      45.225  31.496  28.983  1.00  0.00     0.074 A 
ATOM     49  C   UNL A   1      44.291  32.444  29.552  1.00  0.00     0.031 C 
ATOM     50  C   UNL A   1      41.818  26.049  28.764  1.00  0.00     0.029 A 
ATOM     51  C   UNL A   1      43.190  26.260  28.301  1.00  0.00     0.049 A 
ATOM     52  H   UNL A   1      44.327  27.994  28.504  1.00  0.00     0.167 HD
ATOM     53  C   UNL A   1      46.495  31.798  28.634  1.00  0.00     0.037 A 
ATOM     54  C   UNL A   1      43.960  25.351  27.668  1.00  0.00     0.037 A 
ATOM     55  C   UNL A   1      47.425  30.856  28.073  1.00  0.00     0.049 A 
ATOM     56  C   UNL A   1      45.347  25.739  27.214  1.00  0.00     0.074 A 
ATOM     57  C   UNL A   1      48.754  31.055  27.746  1.00  0.00     0.029 A 
ATOM     58  N   UNL A   1      47.119  29.548  27.737  1.00  0.00    -0.354 N 
ATOM     59  N   UNL A   1      45.983  26.875  27.378  1.00  0.00    -0.248 NA
ATOM     60  C   UNL A   1      46.119  24.726  26.475  1.00  0.00     0.031 C 
ATOM     61  C   UNL A   1      49.239  29.883  27.161  1.00  0.00     0.029 A 
ATOM     62  C   UNL A   1      48.224  28.940  27.164  1.00  0.00     0.049 A 
ATOM     63  H   UNL A   1      46.247  29.115  27.883  1.00  0.00     0.167 HD
ATOM     64  C   UNL A   1      47.228  26.706  26.777  1.00  0.00     0.074 A 
ATOM     65  C   UNL A   1      47.266  25.356  26.262  1.00  0.00     0.031 C 
ATOM     66  C   UNL A   1      48.248  27.592  26.660  1.00  0.00     0.037 A 
BRANCH  53  67
ATOM     67  C   UNL A   1      46.959  33.211  28.823  1.00  0.00     0.058 A 
ATOM     68  C   UNL A   1      46.793  34.178  27.821  1.00  0.00     0.135 A 
ATOM     69  C   UNL A   1      47.503  33.616  30.051  1.00  0.00     0.135 A 
ATOM     70  F   UNL A   1      46.300  33.832  26.622  1.00  0.00    -0.206 F 
ATOM     71  C   UNL A   1      47.147  35.505  28.033  1.00  0.00     0.059 A 
ATOM     72  C   UNL A   1      47.847  34.942  30.292  1.00  0.00     0.059 A 
ATOM     73  F   UNL A   1      47.692  32.722  31.034  1.00  0.00    -0.206 F 
ATOM     74  C   UNL A   1      47.666  35.879  29.275  1.00  0.00     0.060 A 
BRANCH  74  75
ATOM     75  S   UNL A   1      48.071  37.616  29.552  1.00  0.00     0.124 S 
ATOM     76  O   UNL A   1      49.484  37.531  29.912  1.00  0.00    -0.237 OA
ATOM     77  O   UNL A   1      47.784  38.214  28.252  1.00  0.00    -0.237 OA
ATOM     78  O   UNL A   1      47.171  38.007  30.632  1.00  0.00    -0.744 OA
ENDBRANCH  74  75
ENDBRANCH  53  67
BRANCH  54  79
ATOM     79  C   UNL A   1      43.430  23.996  27.353  1.00  0.00     0.058 A 
ATOM     80  C   UNL A   1      42.665  23.761  26.200  1.00  0.00     0.135 A 
ATOM     81  C   UNL A   1      43.623  22.921  28.236  1.00  0.00     0.135 A 
ATOM     82  F   UNL A   1      42.436  24.761  25.334  1.00  0.00    -0.206 F 
ATOM     83  C   UNL A   1      42.086  22.521  25.948  1.00  0.00     0.059 A 
ATOM     84  C   UNL A   1      43.076  21.665  27.993  1.00  0.00     0.059 A 
ATOM     85  F   UNL A   1      44.351  23.089  29.351  1.00  0.00    -0.206 F 
ATOM     86  C   UNL A   1      42.293  21.480  26.855  1.00  0.00     0.060 A 
BRANCH  86  87
ATOM     87  S   UNL A   1      41.545  19.870  26.521  1.00  0.00     0.124 S 
ATOM     88  O   UNL A   1      42.706  19.090  26.108  1.00  0.00    -0.237 OA
ATOM     89  O   UNL A   1      40.967  19.522  27.815  1.00  0.00    -0.237 OA
ATOM     90  O   UNL A   1      40.575  20.167  25.470  1.00  0.00    -0.744 OA
ENDBRANCH  86  87
ENDBRANCH  54  79
BRANCH  66  91
ATOM     91  C   UNL A   1      49.496  27.137  25.959  1.00  0.00     0.058 A 
ATOM     92  C   UNL A   1      49.652  27.289  24.572  1.00  0.00     0.135 A 
ATOM     93  C   UNL A   1      50.580  26.625  26.690  1.00  0.00     0.135 A 
ATOM     94  F   UNL A   1      48.643  27.769  23.828  1.00  0.00    -0.206 F 
ATOM     95  C   UNL A   1      50.838  26.941  23.933  1.00  0.00     0.059 A 
ATOM     96  C   UNL A   1      51.783  26.291  26.074  1.00  0.00     0.059 A 
ATOM     97  F   UNL A   1      50.486  26.470  28.020  1.00  0.00    -0.206 F 
ATOM     98  C   UNL A   1      51.900  26.448  24.694  1.00  0.00     0.060 A 
BRANCH  98  99
ATOM     99  S   UNL A   1      53.453  26.055  23.860  1.00  0.00     0.124 S 
ATOM    100  O   UNL A   1      54.250  27.242  24.149  1.00  0.00    -0.237 OA
ATOM    101  O   UNL A   1      53.871  24.830  24.535  1.00  0.00    -0.237 OA
ATOM    102  O   UNL A   1      53.056  25.890  22.464  1.00  0.00    -0.744 OA
ENDBRANCH  98  99
ENDBRANCH  66  91
ENDBRANCH  40  41
ENDBRANCH  33  35
ENDBRANCH  32  33
ENDBRANCH  31  32
ENDBRANCH  30  31
ENDBRANCH  29  30
ENDBRANCH  28  29
ENDBRANCH   1  28
TORSDOF 25
ENDMDL
