MODEL 1
REMARK VINA RESULT:     -11.1      0.000      0.000
REMARK SMILES Cc1cc(C(=O)OCCOCCOCCOCCOC(=O)c2ccc(-c3c4nc(c(-c5c(F)cc(S(=O)(=O)[O-])cc5F)c5ccc([nH]5)c(-c5c(F)cc(S(=O)(=O)[O-])cc5F)c5nc(c(-c6c(F)cc(S(=O)(=O)[O-])cc6F)c6ccc3[nH]6)C=C5)C=C4)cc2)ccc1NC(=O)N1C[C@@H](C)[C@H](C)C1
REMARK SMILES IDX 14 1 13 2 12 3 11 4 10 5 9 6 8 7 7 8 5 9 6 10 4 11 1 12 2 13
REMARK SMILES IDX 3 14 90 15 89 16 88 17 91 18 92 19 93 21 94 22 95 23 100 24
REMARK SMILES IDX 96 25 98 26 97 27 99 28 15 29 16 30 17 31 18 32 19 33 20 34
REMARK SMILES IDX 21 35 22 36 23 37 87 38 24 39 86 40 25 41 26 42 27 43 80 44
REMARK SMILES IDX 28 45 85 46 79 47 81 48 29 49 84 50 78 51 77 52 30 54 64 55
REMARK SMILES IDX 43 56 63 57 44 58 47 59 62 60 82 61 45 62 46 63 61 65 83 66
REMARK SMILES IDX 48 67 31 68 32 69 41 70 33 71 34 72 40 73 42 74 35 75 36 76
REMARK SMILES IDX 37 77 38 78 39 79 65 80 66 81 75 82 67 83 68 84 74 85 76 86
REMARK SMILES IDX 69 87 70 88 71 89 72 90 73 91 49 92 50 93 59 94 51 95 52 96
REMARK SMILES IDX 58 97 60 98 53 99 54 100 55 101 56 102 57 103
REMARK H PARENT 91 20 81 53 47 64
REMARK Flexibility Score: inf
ROOT
ATOM      1  C   UNL A   1      31.450  27.153  26.568  1.00  0.00     0.188 C 
ENDROOT
BRANCH   1   2
ATOM      2  O   UNL A   1      30.935  25.850  26.879  1.00  0.00    -0.377 OA
BRANCH   2   3
ATOM      3  C   UNL A   1      31.574  24.717  26.310  1.00  0.00     0.188 C 
BRANCH   3   4
ATOM      4  C   UNL A   1      31.210  23.333  26.862  1.00  0.00     0.188 C 
BRANCH   4   5
ATOM      5  O   UNL A   1      32.106  22.696  27.761  1.00  0.00    -0.376 OA
BRANCH   5   6
ATOM      6  C   UNL A   1      33.493  22.951  27.519  1.00  0.00     0.202 C 
BRANCH   6   7
ATOM      7  C   UNL A   1      34.377  21.731  27.250  1.00  0.00     0.261 C 
BRANCH   7   8
ATOM      8  O   UNL A   1      33.771  20.959  26.216  1.00  0.00    -0.460 OA
BRANCH   8   9
ATOM      9  C   UNL A   1      34.560  20.673  25.165  1.00  0.00     0.338 C 
ATOM     10  O   UNL A   1      35.248  19.687  24.992  1.00  0.00    -0.246 OA
BRANCH   9  11
ATOM     11  C   UNL A   1      34.159  21.609  24.094  1.00  0.00     0.060 A 
ATOM     12  C   UNL A   1      30.829  23.059  23.126  1.00  0.00     0.046 C 
ATOM     13  C   UNL A   1      32.305  22.779  23.047  1.00  0.00    -0.027 A 
ATOM     14  C   UNL A   1      32.789  21.780  23.902  1.00  0.00     0.021 A 
ATOM     15  C   UNL A   1      33.228  23.558  22.320  1.00  0.00     0.045 A 
ATOM     16  C   UNL A   1      34.570  23.514  22.685  1.00  0.00     0.027 A 
ATOM     17  C   UNL A   1      35.053  22.508  23.514  1.00  0.00     0.018 A 
BRANCH  15  18
ATOM     18  N   UNL A   1      32.778  24.345  21.251  1.00  0.00    -0.308 N 
ATOM     19  C   UNL A   1      32.193  25.564  21.157  1.00  0.00     0.321 C 
ATOM     20  H   UNL A   1      32.917  23.919  20.374  1.00  0.00     0.171 HD
ATOM     21  O   UNL A   1      31.693  25.848  20.062  1.00  0.00    -0.248 OA
ATOM     22  N   UNL A   1      32.150  26.436  22.206  1.00  0.00    -0.324 N 
ATOM     23  C   UNL A   1      31.076  27.411  22.263  1.00  0.00     0.125 C 
ATOM     24  C   UNL A   1      33.293  26.895  23.003  1.00  0.00     0.125 C 
ATOM     25  C   UNL A   1      31.707  28.668  22.853  1.00  0.00     0.010 C 
ATOM     26  C   UNL A   1      32.756  28.087  23.809  1.00  0.00     0.010 C 
ATOM     27  C   UNL A   1      30.680  29.568  23.516  1.00  0.00     0.010 C 
ATOM     28  C   UNL A   1      33.842  29.073  24.219  1.00  0.00     0.010 C 
ENDBRANCH  15  18
ENDBRANCH   9  11
ENDBRANCH   8   9
ENDBRANCH   7   8
ENDBRANCH   6   7
ENDBRANCH   5   6
ENDBRANCH   4   5
ENDBRANCH   3   4
ENDBRANCH   2   3
ENDBRANCH   1   2
BRANCH   1  29
ATOM     29  C   UNL A   1      31.463  28.209  27.670  1.00  0.00     0.188 C 
BRANCH  29  30
ATOM     30  O   UNL A   1      32.449  29.190  27.320  1.00  0.00    -0.376 OA
BRANCH  30  31
ATOM     31  C   UNL A   1      31.940  30.436  26.866  1.00  0.00     0.202 C 
BRANCH  31  32
ATOM     32  C   UNL A   1      32.862  31.627  27.140  1.00  0.00     0.261 C 
BRANCH  32  33
ATOM     33  O   UNL A   1      33.821  31.326  28.175  1.00  0.00    -0.460 OA
BRANCH  33  34
ATOM     34  C   UNL A   1      35.087  31.780  27.950  1.00  0.00     0.338 C 
ATOM     35  O   UNL A   1      35.339  32.899  27.538  1.00  0.00    -0.246 OA
BRANCH  34  36
ATOM     36  C   UNL A   1      36.098  30.795  28.411  1.00  0.00     0.060 A 
ATOM     37  C   UNL A   1      35.935  30.072  29.599  1.00  0.00     0.016 A 
ATOM     38  C   UNL A   1      37.272  30.653  27.683  1.00  0.00     0.016 A 
ATOM     39  C   UNL A   1      37.005  29.323  30.130  1.00  0.00     0.010 A 
ATOM     40  C   UNL A   1      38.330  29.958  28.234  1.00  0.00     0.010 A 
ATOM     41  C   UNL A   1      38.242  29.316  29.481  1.00  0.00    -0.014 A 
BRANCH  41  42
ATOM     42  C   UNL A   1      39.534  28.862  30.049  1.00  0.00     0.031 A 
ATOM     43  C   UNL A   1      40.161  27.565  29.600  1.00  0.00     0.074 A 
ATOM     44  C   UNL A   1      40.331  29.799  30.630  1.00  0.00     0.049 A 
ATOM     45  N   UNL A   1      41.332  27.151  29.962  1.00  0.00    -0.248 NA
ATOM     46  C   UNL A   1      39.525  26.608  28.689  1.00  0.00     0.031 C 
ATOM     47  C   UNL A   1      41.796  29.814  30.635  1.00  0.00     0.029 A 
ATOM     48  N   UNL A   1      40.019  30.969  31.323  1.00  0.00    -0.354 N 
ATOM     49  C   UNL A   1      41.743  26.173  29.080  1.00  0.00     0.074 A 
ATOM     50  C   UNL A   1      40.538  25.779  28.399  1.00  0.00     0.031 C 
ATOM     51  C   UNL A   1      42.251  30.833  31.373  1.00  0.00     0.029 A 
ATOM     52  C   UNL A   1      41.116  31.325  32.116  1.00  0.00     0.049 A 
ATOM     53  H   UNL A   1      39.169  31.461  31.265  1.00  0.00     0.167 HD
ATOM     54  C   UNL A   1      43.082  25.928  28.922  1.00  0.00     0.037 A 
ATOM     55  C   UNL A   1      41.098  31.375  33.479  1.00  0.00     0.037 A 
ATOM     56  C   UNL A   1      43.886  26.627  29.942  1.00  0.00     0.049 A 
ATOM     57  C   UNL A   1      42.027  30.322  34.058  1.00  0.00     0.074 A 
ATOM     58  C   UNL A   1      44.976  27.477  29.900  1.00  0.00     0.029 A 
ATOM     59  N   UNL A   1      43.489  26.587  31.281  1.00  0.00    -0.354 N 
ATOM     60  N   UNL A   1      42.390  29.263  33.375  1.00  0.00    -0.248 NA
ATOM     61  C   UNL A   1      42.705  30.389  35.350  1.00  0.00     0.031 C 
ATOM     62  C   UNL A   1      45.126  28.065  31.189  1.00  0.00     0.029 A 
ATOM     63  C   UNL A   1      44.195  27.491  32.045  1.00  0.00     0.049 A 
ATOM     64  H   UNL A   1      42.792  25.988  31.635  1.00  0.00     0.167 HD
ATOM     65  C   UNL A   1      43.372  28.590  34.035  1.00  0.00     0.074 A 
ATOM     66  C   UNL A   1      43.493  29.295  35.299  1.00  0.00     0.031 C 
ATOM     67  C   UNL A   1      44.037  27.528  33.495  1.00  0.00     0.037 A 
BRANCH  54  68
ATOM     68  C   UNL A   1      43.723  25.214  27.725  1.00  0.00     0.058 A 
ATOM     69  C   UNL A   1      44.428  23.998  27.902  1.00  0.00     0.135 A 
ATOM     70  C   UNL A   1      43.784  25.725  26.407  1.00  0.00     0.135 A 
ATOM     71  F   UNL A   1      44.469  23.394  29.098  1.00  0.00    -0.206 F 
ATOM     72  C   UNL A   1      45.128  23.351  26.870  1.00  0.00     0.059 A 
ATOM     73  C   UNL A   1      44.428  25.065  25.347  1.00  0.00     0.059 A 
ATOM     74  F   UNL A   1      43.270  26.919  26.090  1.00  0.00    -0.206 F 
ATOM     75  C   UNL A   1      45.117  23.886  25.589  1.00  0.00     0.060 A 
BRANCH  75  76
ATOM     76  S   UNL A   1      45.978  23.028  24.249  1.00  0.00     0.124 S 
ATOM     77  O   UNL A   1      44.905  22.800  23.289  1.00  0.00    -0.237 OA
ATOM     78  O   UNL A   1      46.993  23.998  23.850  1.00  0.00    -0.237 OA
ATOM     79  O   UNL A   1      46.500  21.826  24.897  1.00  0.00    -0.744 OA
ENDBRANCH  75  76
ENDBRANCH  54  68
BRANCH  55  80
ATOM     80  C   UNL A   1      39.889  32.043  34.038  1.00  0.00     0.058 A 
ATOM     81  C   UNL A   1      39.777  33.406  33.690  1.00  0.00     0.135 A 
ATOM     82  C   UNL A   1      38.692  31.321  34.188  1.00  0.00     0.135 A 
ATOM     83  F   UNL A   1      40.884  34.163  33.600  1.00  0.00    -0.206 F 
ATOM     84  C   UNL A   1      38.581  33.943  33.221  1.00  0.00     0.059 A 
ATOM     85  C   UNL A   1      37.478  31.843  33.726  1.00  0.00     0.059 A 
ATOM     86  F   UNL A   1      38.729  30.021  34.518  1.00  0.00    -0.206 F 
ATOM     87  C   UNL A   1      37.460  33.119  33.158  1.00  0.00     0.060 A 
BRANCH  87  88
ATOM     88  S   UNL A   1      36.106  33.621  32.056  1.00  0.00     0.124 S 
ATOM     89  O   UNL A   1      36.673  33.360  30.740  1.00  0.00    -0.237 OA
ATOM     90  O   UNL A   1      35.027  32.731  32.478  1.00  0.00    -0.237 OA
ATOM     91  O   UNL A   1      35.912  35.025  32.400  1.00  0.00    -0.744 OA
ENDBRANCH  87  88
ENDBRANCH  55  80
BRANCH  67  92
ATOM     92  C   UNL A   1      44.651  26.415  34.306  1.00  0.00     0.058 A 
ATOM     93  C   UNL A   1      43.888  25.355  34.823  1.00  0.00     0.135 A 
ATOM     94  C   UNL A   1      46.057  26.252  34.374  1.00  0.00     0.135 A 
ATOM     95  F   UNL A   1      42.550  25.344  34.730  1.00  0.00    -0.206 F 
ATOM     96  C   UNL A   1      44.473  24.235  35.408  1.00  0.00     0.059 A 
ATOM     97  C   UNL A   1      46.660  25.116  34.905  1.00  0.00     0.059 A 
ATOM     98  F   UNL A   1      46.900  27.178  33.894  1.00  0.00    -0.206 F 
ATOM     99  C   UNL A   1      45.858  24.122  35.441  1.00  0.00     0.060 A 
BRANCH  99 100
ATOM    100  S   UNL A   1      46.603  22.646  36.147  1.00  0.00     0.124 S 
ATOM    101  O   UNL A   1      45.426  21.814  36.377  1.00  0.00    -0.237 OA
ATOM    102  O   UNL A   1      47.494  22.196  35.081  1.00  0.00    -0.237 OA
ATOM    103  O   UNL A   1      47.272  23.143  37.344  1.00  0.00    -0.744 OA
ENDBRANCH  99 100
ENDBRANCH  67  92
ENDBRANCH  41  42
ENDBRANCH  34  36
ENDBRANCH  33  34
ENDBRANCH  32  33
ENDBRANCH  31  32
ENDBRANCH  30  31
ENDBRANCH  29  30
ENDBRANCH   1  29
TORSDOF 24
ENDMDL
MODEL 2
REMARK VINA RESULT:     -10.5      1.417      2.402
REMARK SMILES Cc1cc(C(=O)OCCOCCOCCOCCOC(=O)c2ccc(-c3c4nc(c(-c5c(F)cc(S(=O)(=O)[O-])cc5F)c5ccc([nH]5)c(-c5c(F)cc(S(=O)(=O)[O-])cc5F)c5nc(c(-c6c(F)cc(S(=O)(=O)[O-])cc6F)c6ccc3[nH]6)C=C5)C=C4)cc2)ccc1NC(=O)N1C[C@@H](C)[C@H](C)C1
REMARK SMILES IDX 14 1 13 2 12 3 11 4 10 5 9 6 8 7 7 8 5 9 6 10 4 11 1 12 2 13
REMARK SMILES IDX 3 14 90 15 89 16 88 17 91 18 92 19 93 21 94 22 95 23 100 24
REMARK SMILES IDX 96 25 98 26 97 27 99 28 15 29 16 30 17 31 18 32 19 33 20 34
REMARK SMILES IDX 21 35 22 36 23 37 87 38 24 39 86 40 25 41 26 42 27 43 80 44
REMARK SMILES IDX 28 45 85 46 79 47 81 48 29 49 84 50 78 51 77 52 30 54 64 55
REMARK SMILES IDX 43 56 63 57 44 58 47 59 62 60 82 61 45 62 46 63 61 65 83 66
REMARK SMILES IDX 48 67 31 68 32 69 41 70 33 71 34 72 40 73 42 74 35 75 36 76
REMARK SMILES IDX 37 77 38 78 39 79 65 80 66 81 75 82 67 83 68 84 74 85 76 86
REMARK SMILES IDX 69 87 70 88 71 89 72 90 73 91 49 92 50 93 59 94 51 95 52 96
REMARK SMILES IDX 58 97 60 98 53 99 54 100 55 101 56 102 57 103
REMARK H PARENT 91 20 81 53 47 64
REMARK Flexibility Score: inf
ROOT
ATOM      1  C   UNL A   1      34.171  25.826  24.943  1.00  0.00     0.188 C 
ENDROOT
BRANCH   1   2
ATOM      2  O   UNL A   1      34.880  24.759  25.589  1.00  0.00    -0.377 OA
BRANCH   2   3
ATOM      3  C   UNL A   1      35.537  23.795  24.779  1.00  0.00     0.188 C 
BRANCH   3   4
ATOM      4  C   UNL A   1      37.059  23.658  24.916  1.00  0.00     0.188 C 
BRANCH   4   5
ATOM      5  O   UNL A   1      37.581  22.740  25.865  1.00  0.00    -0.376 OA
BRANCH   5   6
ATOM      6  C   UNL A   1      38.405  21.705  25.320  1.00  0.00     0.202 C 
BRANCH   6   7
ATOM      7  C   UNL A   1      37.699  20.410  24.915  1.00  0.00     0.261 C 
BRANCH   7   8
ATOM      8  O   UNL A   1      36.426  20.375  25.556  1.00  0.00    -0.460 OA
BRANCH   8   9
ATOM      9  C   UNL A   1      35.465  19.695  24.905  1.00  0.00     0.338 C 
ATOM     10  O   UNL A   1      35.550  18.609  24.367  1.00  0.00    -0.246 OA
BRANCH   9  11
ATOM     11  C   UNL A   1      34.191  20.346  25.273  1.00  0.00     0.060 A 
ATOM     12  C   UNL A   1      33.291  22.770  28.002  1.00  0.00     0.046 C 
ATOM     13  C   UNL A   1      33.087  21.851  26.828  1.00  0.00    -0.027 A 
ATOM     14  C   UNL A   1      34.178  21.045  26.478  1.00  0.00     0.021 A 
ATOM     15  C   UNL A   1      31.962  21.879  25.978  1.00  0.00     0.045 A 
ATOM     16  C   UNL A   1      32.083  21.351  24.696  1.00  0.00     0.027 A 
ATOM     17  C   UNL A   1      33.155  20.533  24.359  1.00  0.00     0.018 A 
BRANCH  15  18
ATOM     18  N   UNL A   1      30.758  22.427  26.442  1.00  0.00    -0.308 N 
ATOM     19  C   UNL A   1      30.191  23.655  26.370  1.00  0.00     0.321 C 
ATOM     20  H   UNL A   1      30.201  21.776  26.927  1.00  0.00     0.171 HD
ATOM     21  O   UNL A   1      29.224  23.856  27.115  1.00  0.00    -0.248 OA
ATOM     22  N   UNL A   1      30.653  24.625  25.529  1.00  0.00    -0.324 N 
ATOM     23  C   UNL A   1      30.431  26.018  25.875  1.00  0.00     0.125 C 
ATOM     24  C   UNL A   1      30.871  24.492  24.083  1.00  0.00     0.125 C 
ATOM     25  C   UNL A   1      30.180  26.726  24.548  1.00  0.00     0.010 C 
ATOM     26  C   UNL A   1      31.068  25.930  23.582  1.00  0.00     0.010 C 
ATOM     27  C   UNL A   1      30.499  28.209  24.620  1.00  0.00     0.010 C 
ATOM     28  C   UNL A   1      30.708  26.109  22.113  1.00  0.00     0.010 C 
ENDBRANCH  15  18
ENDBRANCH   9  11
ENDBRANCH   8   9
ENDBRANCH   7   8
ENDBRANCH   6   7
ENDBRANCH   5   6
ENDBRANCH   4   5
ENDBRANCH   3   4
ENDBRANCH   2   3
ENDBRANCH   1   2
BRANCH   1  29
ATOM     29  C   UNL A   1      33.872  27.089  25.748  1.00  0.00     0.188 C 
BRANCH  29  30
ATOM     30  O   UNL A   1      33.610  28.146  24.815  1.00  0.00    -0.376 OA
BRANCH  30  31
ATOM     31  C   UNL A   1      33.648  29.461  25.351  1.00  0.00     0.202 C 
BRANCH  31  32
ATOM     32  C   UNL A   1      33.769  29.511  26.877  1.00  0.00     0.261 C 
BRANCH  32  33
ATOM     33  O   UNL A   1      33.609  30.856  27.375  1.00  0.00    -0.460 OA
BRANCH  33  34
ATOM     34  C   UNL A   1      34.769  31.521  27.645  1.00  0.00     0.338 C 
ATOM     35  O   UNL A   1      34.882  32.733  27.580  1.00  0.00    -0.246 OA
BRANCH  34  36
ATOM     36  C   UNL A   1      35.807  30.596  28.164  1.00  0.00     0.060 A 
ATOM     37  C   UNL A   1      35.677  29.965  29.408  1.00  0.00     0.016 A 
ATOM     38  C   UNL A   1      36.973  30.421  27.431  1.00  0.00     0.016 A 
ATOM     39  C   UNL A   1      36.771  29.281  29.978  1.00  0.00     0.010 A 
ATOM     40  C   UNL A   1      38.053  29.793  28.017  1.00  0.00     0.010 A 
ATOM     41  C   UNL A   1      37.998  29.249  29.311  1.00  0.00    -0.014 A 
BRANCH  41  42
ATOM     42  C   UNL A   1      39.308  28.867  29.892  1.00  0.00     0.031 A 
ATOM     43  C   UNL A   1      39.982  27.578  29.492  1.00  0.00     0.074 A 
ATOM     44  C   UNL A   1      40.070  29.856  30.432  1.00  0.00     0.049 A 
ATOM     45  N   UNL A   1      41.169  27.224  29.865  1.00  0.00    -0.248 NA
ATOM     46  C   UNL A   1      39.381  26.562  28.622  1.00  0.00     0.031 C 
ATOM     47  C   UNL A   1      41.533  29.927  30.430  1.00  0.00     0.029 A 
ATOM     48  N   UNL A   1      39.715  31.039  31.080  1.00  0.00    -0.354 N 
ATOM     49  C   UNL A   1      41.615  26.227  29.021  1.00  0.00     0.074 A 
ATOM     50  C   UNL A   1      40.424  25.761  28.360  1.00  0.00     0.031 C 
ATOM     51  C   UNL A   1      41.951  30.991  31.126  1.00  0.00     0.029 A 
ATOM     52  C   UNL A   1      40.800  31.469  31.853  1.00  0.00     0.049 A 
ATOM     53  H   UNL A   1      38.847  31.497  31.005  1.00  0.00     0.167 HD
ATOM     54  C   UNL A   1      42.962  26.028  28.868  1.00  0.00     0.037 A 
ATOM     55  C   UNL A   1      40.784  31.572  33.214  1.00  0.00     0.037 A 
ATOM     56  C   UNL A   1      43.741  26.796  29.856  1.00  0.00     0.049 A 
ATOM     57  C   UNL A   1      41.753  30.579  33.830  1.00  0.00     0.074 A 
ATOM     58  C   UNL A   1      44.798  27.684  29.777  1.00  0.00     0.029 A 
ATOM     59  N   UNL A   1      43.349  26.795  31.197  1.00  0.00    -0.354 N 
ATOM     60  N   UNL A   1      42.155  29.508  33.188  1.00  0.00    -0.248 NA
ATOM     61  C   UNL A   1      42.431  30.722  35.116  1.00  0.00     0.031 C 
ATOM     62  C   UNL A   1      44.928  28.328  31.041  1.00  0.00     0.029 A 
ATOM     63  C   UNL A   1      44.022  27.754  31.922  1.00  0.00     0.049 A 
ATOM     64  H   UNL A   1      42.676  26.184  31.577  1.00  0.00     0.167 HD
ATOM     65  C   UNL A   1      43.162  28.899  33.870  1.00  0.00     0.074 A 
ATOM     66  C   UNL A   1      43.260  29.658  35.105  1.00  0.00     0.031 C 
ATOM     67  C   UNL A   1      43.867  27.842  33.370  1.00  0.00     0.037 A 
BRANCH  54  68
ATOM     68  C   UNL A   1      43.627  25.291  27.697  1.00  0.00     0.058 A 
ATOM     69  C   UNL A   1      44.389  24.118  27.920  1.00  0.00     0.135 A 
ATOM     70  C   UNL A   1      43.655  25.746  26.357  1.00  0.00     0.135 A 
ATOM     71  F   UNL A   1      44.465  23.570  29.142  1.00  0.00    -0.206 F 
ATOM     72  C   UNL A   1      45.111  23.458  26.912  1.00  0.00     0.059 A 
ATOM     73  C   UNL A   1      44.321  25.070  25.321  1.00  0.00     0.059 A 
ATOM     74  F   UNL A   1      43.084  26.900  25.993  1.00  0.00    -0.206 F 
ATOM     75  C   UNL A   1      45.066  23.936  25.609  1.00  0.00     0.060 A 
BRANCH  75  76
ATOM     76  S   UNL A   1      45.956  23.059  24.300  1.00  0.00     0.124 S 
ATOM     77  O   UNL A   1      46.500  21.910  25.014  1.00  0.00    -0.237 OA
ATOM     78  O   UNL A   1      44.899  22.766  23.337  1.00  0.00    -0.237 OA
ATOM     79  O   UNL A   1      46.943  24.037  23.848  1.00  0.00    -0.744 OA
ENDBRANCH  75  76
ENDBRANCH  54  68
BRANCH  55  80
ATOM     80  C   UNL A   1      39.551  32.215  33.750  1.00  0.00     0.058 A 
ATOM     81  C   UNL A   1      39.377  33.552  33.335  1.00  0.00     0.135 A 
ATOM     82  C   UNL A   1      38.388  31.451  33.950  1.00  0.00     0.135 A 
ATOM     83  F   UNL A   1      40.449  34.351  33.195  1.00  0.00    -0.206 F 
ATOM     84  C   UNL A   1      38.156  34.013  32.852  1.00  0.00     0.059 A 
ATOM     85  C   UNL A   1      37.148  31.896  33.474  1.00  0.00     0.059 A 
ATOM     86  F   UNL A   1      38.484  30.173  34.344  1.00  0.00    -0.206 F 
ATOM     87  C   UNL A   1      37.070  33.140  32.842  1.00  0.00     0.060 A 
BRANCH  87  88
ATOM     88  S   UNL A   1      35.688  33.526  31.731  1.00  0.00     0.124 S 
ATOM     89  O   UNL A   1      35.296  34.854  32.182  1.00  0.00    -0.237 OA
ATOM     90  O   UNL A   1      36.325  33.456  30.417  1.00  0.00    -0.237 OA
ATOM     91  O   UNL A   1      34.739  32.453  32.009  1.00  0.00    -0.744 OA
ENDBRANCH  87  88
ENDBRANCH  55  80
BRANCH  67  92
ATOM     92  C   UNL A   1      44.524  26.787  34.222  1.00  0.00     0.058 A 
ATOM     93  C   UNL A   1      43.800  25.732  34.801  1.00  0.00     0.135 A 
ATOM     94  C   UNL A   1      45.935  26.666  34.273  1.00  0.00     0.135 A 
ATOM     95  F   UNL A   1      42.462  25.680  34.732  1.00  0.00    -0.206 F 
ATOM     96  C   UNL A   1      44.425  24.657  35.428  1.00  0.00     0.059 A 
ATOM     97  C   UNL A   1      46.578  25.574  34.847  1.00  0.00     0.059 A 
ATOM     98  F   UNL A   1      46.744  27.591  33.737  1.00  0.00    -0.206 F 
ATOM     99  C   UNL A   1      45.813  24.584  35.443  1.00  0.00     0.060 A 
BRANCH  99 100
ATOM    100  S   UNL A   1      46.611  23.164  36.205  1.00  0.00     0.124 S 
ATOM    101  O   UNL A   1      45.481  22.253  36.362  1.00  0.00    -0.237 OA
ATOM    102  O   UNL A   1      47.599  22.776  35.202  1.00  0.00    -0.237 OA
ATOM    103  O   UNL A   1      47.163  23.708  37.440  1.00  0.00    -0.744 OA
ENDBRANCH  99 100
ENDBRANCH  67  92
ENDBRANCH  41  42
ENDBRANCH  34  36
ENDBRANCH  33  34
ENDBRANCH  32  33
ENDBRANCH  31  32
ENDBRANCH  30  31
ENDBRANCH  29  30
ENDBRANCH   1  29
TORSDOF 24
ENDMDL
MODEL 3
REMARK VINA RESULT:     -10.5      3.468      9.455
REMARK SMILES Cc1cc(C(=O)OCCOCCOCCOCCOC(=O)c2ccc(-c3c4nc(c(-c5c(F)cc(S(=O)(=O)[O-])cc5F)c5ccc([nH]5)c(-c5c(F)cc(S(=O)(=O)[O-])cc5F)c5nc(c(-c6c(F)cc(S(=O)(=O)[O-])cc6F)c6ccc3[nH]6)C=C5)C=C4)cc2)ccc1NC(=O)N1C[C@@H](C)[C@H](C)C1
REMARK SMILES IDX 14 1 13 2 12 3 11 4 10 5 9 6 8 7 7 8 5 9 6 10 4 11 1 12 2 13
REMARK SMILES IDX 3 14 90 15 89 16 88 17 91 18 92 19 93 21 94 22 95 23 100 24
REMARK SMILES IDX 96 25 98 26 97 27 99 28 15 29 16 30 17 31 18 32 19 33 20 34
REMARK SMILES IDX 21 35 22 36 23 37 87 38 24 39 86 40 25 41 26 42 27 43 80 44
REMARK SMILES IDX 28 45 85 46 79 47 81 48 29 49 84 50 78 51 77 52 30 54 64 55
REMARK SMILES IDX 43 56 63 57 44 58 47 59 62 60 82 61 45 62 46 63 61 65 83 66
REMARK SMILES IDX 48 67 31 68 32 69 41 70 33 71 34 72 40 73 42 74 35 75 36 76
REMARK SMILES IDX 37 77 38 78 39 79 65 80 66 81 75 82 67 83 68 84 74 85 76 86
REMARK SMILES IDX 69 87 70 88 71 89 72 90 73 91 49 92 50 93 59 94 51 95 52 96
REMARK SMILES IDX 58 97 60 98 53 99 54 100 55 101 56 102 57 103
REMARK H PARENT 91 20 81 53 47 64
REMARK Flexibility Score: inf
ROOT
ATOM      1  C   UNL A   1      34.663  24.539  25.739  1.00  0.00     0.188 C 
ENDROOT
BRANCH   1   2
ATOM      2  O   UNL A   1      33.530  23.871  26.312  1.00  0.00    -0.377 OA
BRANCH   2   3
ATOM      3  C   UNL A   1      33.696  23.203  27.554  1.00  0.00     0.188 C 
BRANCH   3   4
ATOM      4  C   UNL A   1      34.423  21.852  27.552  1.00  0.00     0.188 C 
BRANCH   4   5
ATOM      5  O   UNL A   1      34.142  20.924  26.513  1.00  0.00    -0.376 OA
BRANCH   5   6
ATOM      6  C   UNL A   1      32.760  20.798  26.168  1.00  0.00     0.202 C 
BRANCH   6   7
ATOM      7  C   UNL A   1      32.449  20.370  24.732  1.00  0.00     0.261 C 
BRANCH   7   8
ATOM      8  O   UNL A   1      31.794  21.452  24.074  1.00  0.00    -0.460 OA
BRANCH   8   9
ATOM      9  C   UNL A   1      32.097  21.610  22.773  1.00  0.00     0.338 C 
ATOM     10  O   UNL A   1      32.153  20.757  21.909  1.00  0.00    -0.246 OA
BRANCH   9  11
ATOM     11  C   UNL A   1      31.997  23.060  22.509  1.00  0.00     0.060 A 
ATOM     12  C   UNL A   1      29.859  25.759  24.018  1.00  0.00     0.046 C 
ATOM     13  C   UNL A   1      30.868  25.129  23.096  1.00  0.00    -0.027 A 
ATOM     14  C   UNL A   1      30.943  23.730  23.127  1.00  0.00     0.021 A 
ATOM     15  C   UNL A   1      31.832  25.846  22.359  1.00  0.00     0.045 A 
ATOM     16  C   UNL A   1      32.979  25.180  21.937  1.00  0.00     0.027 A 
ATOM     17  C   UNL A   1      33.042  23.791  21.947  1.00  0.00     0.018 A 
BRANCH  15  18
ATOM     18  N   UNL A   1      31.612  27.199  22.065  1.00  0.00    -0.308 N 
ATOM     19  C   UNL A   1      31.558  28.330  22.810  1.00  0.00     0.321 C 
ATOM     20  H   UNL A   1      31.466  27.365  21.106  1.00  0.00     0.171 HD
ATOM     21  O   UNL A   1      31.090  29.330  22.253  1.00  0.00    -0.248 OA
ATOM     22  N   UNL A   1      31.991  28.374  24.103  1.00  0.00    -0.324 N 
ATOM     23  C   UNL A   1      31.412  29.356  25.003  1.00  0.00     0.125 C 
ATOM     24  C   UNL A   1      33.307  27.951  24.596  1.00  0.00     0.125 C 
ATOM     25  C   UNL A   1      32.557  29.793  25.910  1.00  0.00     0.010 C 
ATOM     26  C   UNL A   1      33.391  28.510  26.023  1.00  0.00     0.010 C 
ATOM     27  C   UNL A   1      32.061  30.343  27.236  1.00  0.00     0.010 C 
ATOM     28  C   UNL A   1      34.820  28.734  26.499  1.00  0.00     0.010 C 
ENDBRANCH  15  18
ENDBRANCH   9  11
ENDBRANCH   8   9
ENDBRANCH   7   8
ENDBRANCH   6   7
ENDBRANCH   5   6
ENDBRANCH   4   5
ENDBRANCH   3   4
ENDBRANCH   2   3
ENDBRANCH   1   2
BRANCH   1  29
ATOM     29  C   UNL A   1      36.038  23.892  25.889  1.00  0.00     0.188 C 
BRANCH  29  30
ATOM     30  O   UNL A   1      36.483  23.509  24.580  1.00  0.00    -0.376 OA
BRANCH  30  31
ATOM     31  C   UNL A   1      36.686  22.117  24.385  1.00  0.00     0.202 C 
BRANCH  31  32
ATOM     32  C   UNL A   1      37.557  21.455  25.456  1.00  0.00     0.261 C 
BRANCH  32  33
ATOM     33  O   UNL A   1      38.928  21.896  25.370  1.00  0.00    -0.460 OA
BRANCH  33  34
ATOM     34  C   UNL A   1      39.531  22.167  26.563  1.00  0.00     0.338 C 
ATOM     35  O   UNL A   1      39.985  21.310  27.301  1.00  0.00    -0.246 OA
BRANCH  34  36
ATOM     36  C   UNL A   1      39.686  23.631  26.762  1.00  0.00     0.060 A 
ATOM     37  C   UNL A   1      40.226  24.456  25.767  1.00  0.00     0.016 A 
ATOM     38  C   UNL A   1      39.366  24.175  27.998  1.00  0.00     0.016 A 
ATOM     39  C   UNL A   1      40.577  25.790  26.060  1.00  0.00     0.010 A 
ATOM     40  C   UNL A   1      39.758  25.466  28.291  1.00  0.00     0.010 A 
ATOM     41  C   UNL A   1      40.407  26.287  27.355  1.00  0.00    -0.014 A 
BRANCH  41  42
ATOM     42  C   UNL A   1      41.005  27.526  27.909  1.00  0.00     0.031 A 
ATOM     43  C   UNL A   1      40.151  28.737  28.188  1.00  0.00     0.074 A 
ATOM     44  C   UNL A   1      42.201  27.416  28.550  1.00  0.00     0.049 A 
ATOM     45  N   UNL A   1      40.569  29.814  28.770  1.00  0.00    -0.248 NA
ATOM     46  C   UNL A   1      38.730  28.849  27.840  1.00  0.00     0.031 C 
ATOM     47  C   UNL A   1      42.652  28.211  29.695  1.00  0.00     0.029 A 
ATOM     48  N   UNL A   1      43.277  26.552  28.345  1.00  0.00    -0.354 N 
ATOM     49  C   UNL A   1      39.475  30.526  29.216  1.00  0.00     0.074 A 
ATOM     50  C   UNL A   1      38.364  29.958  28.497  1.00  0.00     0.031 C 
ATOM     51  C   UNL A   1      43.914  27.899  30.013  1.00  0.00     0.029 A 
ATOM     52  C   UNL A   1      44.423  27.123  28.908  1.00  0.00     0.049 A 
ATOM     53  H   UNL A   1      43.236  25.685  27.881  1.00  0.00     0.167 HD
ATOM     54  C   UNL A   1      39.621  31.402  30.259  1.00  0.00     0.037 A 
ATOM     55  C   UNL A   1      45.527  27.498  28.199  1.00  0.00     0.037 A 
ATOM     56  C   UNL A   1      41.041  31.618  30.593  1.00  0.00     0.049 A 
ATOM     57  C   UNL A   1      45.708  29.004  28.258  1.00  0.00     0.074 A 
ATOM     58  C   UNL A   1      41.785  31.545  31.756  1.00  0.00     0.029 A 
ATOM     59  N   UNL A   1      41.965  31.845  29.568  1.00  0.00    -0.354 N 
ATOM     60  N   UNL A   1      44.714  29.814  28.535  1.00  0.00    -0.248 NA
ATOM     61  C   UNL A   1      46.972  29.725  28.134  1.00  0.00     0.031 C 
ATOM     62  C   UNL A   1      43.164  31.570  31.401  1.00  0.00     0.029 A 
ATOM     63  C   UNL A   1      43.261  31.769  30.030  1.00  0.00     0.049 A 
ATOM     64  H   UNL A   1      41.720  32.037  28.634  1.00  0.00     0.167 HD
ATOM     65  C   UNL A   1      45.176  31.080  28.724  1.00  0.00     0.074 A 
ATOM     66  C   UNL A   1      46.589  30.991  28.400  1.00  0.00     0.031 C 
ATOM     67  C   UNL A   1      44.384  32.103  29.161  1.00  0.00     0.037 A 
BRANCH  54  68
ATOM     68  C   UNL A   1      38.485  31.938  31.140  1.00  0.00     0.058 A 
ATOM     69  C   UNL A   1      37.726  33.064  30.735  1.00  0.00     0.135 A 
ATOM     70  C   UNL A   1      38.168  31.471  32.437  1.00  0.00     0.135 A 
ATOM     71  F   UNL A   1      37.917  33.626  29.533  1.00  0.00    -0.206 F 
ATOM     72  C   UNL A   1      36.747  33.670  31.540  1.00  0.00     0.059 A 
ATOM     73  C   UNL A   1      37.153  32.023  33.236  1.00  0.00     0.059 A 
ATOM     74  F   UNL A   1      38.865  30.488  33.021  1.00  0.00    -0.206 F 
ATOM     75  C   UNL A   1      36.458  33.137  32.790  1.00  0.00     0.060 A 
BRANCH  75  76
ATOM     76  S   UNL A   1      35.164  33.887  33.808  1.00  0.00     0.124 S 
ATOM     77  O   UNL A   1      33.953  33.292  33.254  1.00  0.00    -0.237 OA
ATOM     78  O   UNL A   1      35.526  33.453  35.154  1.00  0.00    -0.237 OA
ATOM     79  O   UNL A   1      35.325  35.318  33.561  1.00  0.00    -0.744 OA
ENDBRANCH  75  76
ENDBRANCH  54  68
BRANCH  55  80
ATOM     80  C   UNL A   1      45.962  26.487  27.192  1.00  0.00     0.058 A 
ATOM     81  C   UNL A   1      46.341  25.249  27.753  1.00  0.00     0.135 A 
ATOM     82  C   UNL A   1      45.363  26.457  25.921  1.00  0.00     0.135 A 
ATOM     83  F   UNL A   1      46.981  25.222  28.935  1.00  0.00    -0.206 F 
ATOM     84  C   UNL A   1      45.883  24.043  27.233  1.00  0.00     0.059 A 
ATOM     85  C   UNL A   1      44.896  25.254  25.378  1.00  0.00     0.059 A 
ATOM     86  F   UNL A   1      44.978  27.600  25.333  1.00  0.00    -0.206 F 
ATOM     87  C   UNL A   1      45.081  24.068  26.094  1.00  0.00     0.060 A 
BRANCH  87  88
ATOM     88  S   UNL A   1      44.046  22.615  25.758  1.00  0.00     0.124 S 
ATOM     89  O   UNL A   1      45.035  21.548  25.686  1.00  0.00    -0.237 OA
ATOM     90  O   UNL A   1      43.164  22.595  26.922  1.00  0.00    -0.237 OA
ATOM     91  O   UNL A   1      43.394  22.966  24.501  1.00  0.00    -0.744 OA
ENDBRANCH  87  88
ENDBRANCH  55  80
BRANCH  67  92
ATOM     92  C   UNL A   1      44.623  33.554  28.833  1.00  0.00     0.058 A 
ATOM     93  C   UNL A   1      44.245  34.118  27.604  1.00  0.00     0.135 A 
ATOM     94  C   UNL A   1      45.013  34.474  29.839  1.00  0.00     0.135 A 
ATOM     95  F   UNL A   1      43.763  33.363  26.606  1.00  0.00    -0.206 F 
ATOM     96  C   UNL A   1      44.291  35.490  27.370  1.00  0.00     0.059 A 
ATOM     97  C   UNL A   1      45.015  35.851  29.641  1.00  0.00     0.059 A 
ATOM     98  F   UNL A   1      45.376  34.070  31.064  1.00  0.00    -0.206 F 
ATOM     99  C   UNL A   1      44.673  36.349  28.394  1.00  0.00     0.060 A 
BRANCH  99 100
ATOM    100  S   UNL A   1      44.676  38.122  28.098  1.00  0.00     0.124 S 
ATOM    101  O   UNL A   1      43.287  38.462  28.387  1.00  0.00    -0.237 OA
ATOM    102  O   UNL A   1      45.657  38.606  29.067  1.00  0.00    -0.237 OA
ATOM    103  O   UNL A   1      45.079  38.233  26.701  1.00  0.00    -0.744 OA
ENDBRANCH  99 100
ENDBRANCH  67  92
ENDBRANCH  41  42
ENDBRANCH  34  36
ENDBRANCH  33  34
ENDBRANCH  32  33
ENDBRANCH  31  32
ENDBRANCH  30  31
ENDBRANCH  29  30
ENDBRANCH   1  29
TORSDOF 24
ENDMDL
