MODEL 1
REMARK VINA RESULT:      -9.4      0.000      0.000
REMARK SMILES Cc1ccc([C@@]23C[C@@H]4C[C@@H](C[C@@](C(=O)N5CCC(C(=O)OCCOCCOCCOCCOC(=O)c6ccc(-c7c8nc(c(-c9c(F)cc(S(=O)(=O)[O-])cc9F)c9ccc([nH]9)c(-c9c(F)cc(S(=O)(=O)[O-])cc9F)c9nc(c(-c%10c(F)cc(S(=O)(=O)[O-])cc%10F)c%10ccc7[nH]%10)C=C9)C=C8)cc6)CC5)(C4)C2)C3)cc1
REMARK SMILES IDX 28 1 27 2 26 3 25 4 24 5 23 6 22 7 21 8 19 9 20 10 18 11
REMARK SMILES IDX 13 12 14 13 15 14 16 15 103 16 17 17 102 18 12 19 6 20 7 21
REMARK SMILES IDX 105 22 106 23 8 24 10 25 9 26 104 27 11 28 5 29 1 30 2 31
REMARK SMILES IDX 3 32 108 33 4 34 107 35 29 36 30 37 31 38 32 39 33 40 34 41
REMARK SMILES IDX 35 42 36 43 37 44 101 45 38 46 100 47 39 48 40 49 41 50
REMARK SMILES IDX 94 51 42 52 99 53 93 54 95 55 43 56 98 57 92 58 91 59 44 61
REMARK SMILES IDX 78 62 57 63 77 64 58 65 61 66 76 67 96 68 59 69 60 70 75 72
REMARK SMILES IDX 97 73 62 74 45 75 46 76 55 77 47 78 48 79 54 80 56 81 49 82
REMARK SMILES IDX 50 83 51 84 52 85 53 86 79 87 80 88 89 89 81 90 82 91 88 92
REMARK SMILES IDX 90 93 83 94 84 95 85 96 86 97 87 98 63 99 64 100 73 101
REMARK SMILES IDX 65 102 66 103 72 104 74 105 67 106 68 107 69 108 70 109
REMARK SMILES IDX 71 110
REMARK H PARENT 95 60 61 71
REMARK Flexibility Score: inf
ROOT
ATOM      1  C   UNL A   1      44.288  25.727  28.020  1.00  0.00     0.188 C 
ENDROOT
BRANCH   1   2
ATOM      2  O   UNL A   1      43.444  24.914  28.798  1.00  0.00    -0.377 OA
BRANCH   2   3
ATOM      3  C   UNL A   1      42.267  24.397  28.229  1.00  0.00     0.188 C 
BRANCH   3   4
ATOM      4  C   UNL A   1      41.993  22.888  28.329  1.00  0.00     0.188 C 
BRANCH   4   5
ATOM      5  O   UNL A   1      40.796  22.342  27.794  1.00  0.00    -0.376 OA
BRANCH   5   6
ATOM      6  C   UNL A   1      40.941  21.566  26.637  1.00  0.00     0.202 C 
BRANCH   6   7
ATOM      7  C   UNL A   1      39.656  20.983  26.123  1.00  0.00     0.261 C 
BRANCH   7   8
ATOM      8  O   UNL A   1      38.552  21.856  26.086  1.00  0.00    -0.463 OA
BRANCH   8   9
ATOM      9  C   UNL A   1      37.515  21.461  25.379  1.00  0.00     0.309 C 
ATOM     10  O   UNL A   1      37.416  20.431  24.741  1.00  0.00    -0.252 OA
BRANCH   9  11
ATOM     11  C   UNL A   1      36.442  22.466  25.566  1.00  0.00     0.103 C 
ATOM     12  C   UNL A   1      32.652  23.788  25.125  1.00  0.00     0.228 C 
ATOM     13  O   UNL A   1      31.833  22.976  25.547  1.00  0.00    -0.274 OA
ATOM     14  N   UNL A   1      33.991  23.784  25.533  1.00  0.00    -0.342 N 
ATOM     15  C   UNL A   1      34.362  22.988  26.692  1.00  0.00     0.120 C 
ATOM     16  C   UNL A   1      35.141  24.376  24.823  1.00  0.00     0.120 C 
ATOM     17  C   UNL A   1      35.195  21.834  26.199  1.00  0.00     0.037 C 
ATOM     18  C   UNL A   1      36.027  23.265  24.328  1.00  0.00     0.037 C 
BRANCH  12  19
ATOM     19  C   UNL A   1      32.219  24.982  24.274  1.00  0.00     0.051 C 
ATOM     20  C   UNL A   1      32.314  27.531  24.565  1.00  0.00    -0.003 C 
ATOM     21  C   UNL A   1      33.148  27.526  23.250  1.00  0.00     0.015 C 
ATOM     22  C   UNL A   1      32.456  26.174  25.221  1.00  0.00     0.028 C 
ATOM     23  C   UNL A   1      30.800  27.605  24.243  1.00  0.00     0.015 C 
ATOM     24  C   UNL A   1      32.682  26.427  22.276  1.00  0.00    -0.009 C 
ATOM     25  C   UNL A   1      30.387  26.433  23.311  1.00  0.00    -0.009 C 
ATOM     26  C   UNL A   1      31.179  26.587  22.001  1.00  0.00     0.007 C 
ATOM     27  C   UNL A   1      32.918  25.046  22.898  1.00  0.00     0.020 C 
ATOM     28  C   UNL A   1      30.707  25.049  23.951  1.00  0.00     0.020 C 
BRANCH  20  29
ATOM     29  C   UNL A   1      32.822  28.634  25.514  1.00  0.00    -0.042 A 
ATOM     30  C   UNL A   1      34.320  31.634  28.271  1.00  0.00     0.044 C 
ATOM     31  C   UNL A   1      33.804  30.584  27.336  1.00  0.00    -0.051 A 
ATOM     32  C   UNL A   1      32.507  30.679  26.846  1.00  0.00     0.004 A 
ATOM     33  C   UNL A   1      34.600  29.508  26.934  1.00  0.00     0.004 A 
ATOM     34  C   UNL A   1      32.030  29.726  25.946  1.00  0.00     0.004 A 
ATOM     35  C   UNL A   1      34.115  28.546  26.040  1.00  0.00     0.004 A 
ENDBRANCH  20  29
ENDBRANCH  12  19
ENDBRANCH   9  11
ENDBRANCH   8   9
ENDBRANCH   7   8
ENDBRANCH   6   7
ENDBRANCH   5   6
ENDBRANCH   4   5
ENDBRANCH   3   4
ENDBRANCH   2   3
ENDBRANCH   1   2
BRANCH   1  36
ATOM     36  C   UNL A   1      43.851  26.258  26.619  1.00  0.00     0.188 C 
BRANCH  36  37
ATOM     37  O   UNL A   1      44.716  25.983  25.550  1.00  0.00    -0.376 OA
BRANCH  37  38
ATOM     38  C   UNL A   1      44.879  24.583  25.468  1.00  0.00     0.202 C 
BRANCH  38  39
ATOM     39  C   UNL A   1      46.359  24.012  25.478  1.00  0.00     0.261 C 
BRANCH  39  40
ATOM     40  O   UNL A   1      47.644  24.728  26.115  1.00  0.00    -0.460 OA
BRANCH  40  41
ATOM     41  C   UNL A   1      48.721  25.312  26.681  1.00  0.00     0.338 C 
ATOM     42  O   UNL A   1      49.359  24.620  27.463  1.00  0.00    -0.246 OA
BRANCH  41  43
ATOM     43  C   UNL A   1      49.345  26.744  26.743  1.00  0.00     0.060 A 
ATOM     44  C   UNL A   1      50.261  26.887  27.812  1.00  0.00     0.016 A 
ATOM     45  C   UNL A   1      48.616  27.881  26.598  1.00  0.00     0.016 A 
ATOM     46  C   UNL A   1      49.854  27.493  29.020  1.00  0.00     0.010 A 
ATOM     47  C   UNL A   1      48.112  28.410  27.775  1.00  0.00     0.010 A 
ATOM     48  C   UNL A   1      48.598  28.057  29.043  1.00  0.00    -0.014 A 
BRANCH  48  49
ATOM     49  C   UNL A   1      47.677  28.377  30.185  1.00  0.00     0.031 A 
ATOM     50  C   UNL A   1      46.791  27.091  30.539  1.00  0.00     0.074 A 
ATOM     51  C   UNL A   1      48.050  29.506  30.939  1.00  0.00     0.049 A 
ATOM     52  N   UNL A   1      45.918  26.956  31.474  1.00  0.00    -0.248 NA
ATOM     53  C   UNL A   1      46.988  25.741  29.940  1.00  0.00     0.031 C 
ATOM     54  C   UNL A   1      47.827  30.017  32.332  1.00  0.00     0.029 A 
ATOM     55  N   UNL A   1      48.774  30.625  30.515  1.00  0.00    -0.354 N 
ATOM     56  C   UNL A   1      45.853  25.607  31.914  1.00  0.00     0.074 A 
ATOM     57  C   UNL A   1      46.537  24.891  30.878  1.00  0.00     0.031 C 
ATOM     58  C   UNL A   1      47.936  31.338  32.502  1.00  0.00     0.029 A 
ATOM     59  C   UNL A   1      48.262  31.777  31.214  1.00  0.00     0.049 A 
ATOM     60  H   UNL A   1      49.505  30.627  29.855  1.00  0.00     0.167 HD
ATOM     61  C   UNL A   1      45.340  25.307  33.170  1.00  0.00     0.037 A 
ATOM     62  C   UNL A   1      47.444  32.618  30.559  1.00  0.00     0.037 A 
ATOM     63  C   UNL A   1      44.807  26.565  33.796  1.00  0.00     0.049 A 
ATOM     64  C   UNL A   1      45.921  32.024  30.846  1.00  0.00     0.074 A 
ATOM     65  C   UNL A   1      44.901  27.218  35.018  1.00  0.00     0.029 A 
ATOM     66  N   UNL A   1      44.241  27.524  32.959  1.00  0.00    -0.354 N 
ATOM     67  N   UNL A   1      45.593  30.944  31.582  1.00  0.00    -0.248 NA
ATOM     68  C   UNL A   1      44.686  32.719  30.503  1.00  0.00     0.031 C 
ATOM     69  C   UNL A   1      44.566  28.613  34.804  1.00  0.00     0.029 A 
ATOM     70  C   UNL A   1      44.251  28.814  33.460  1.00  0.00     0.049 A 
ATOM     71  H   UNL A   1      43.861  27.300  32.078  1.00  0.00     0.167 HD
ATOM     72  C   UNL A   1      44.233  30.791  31.822  1.00  0.00     0.074 A 
ATOM     73  C   UNL A   1      43.727  31.912  31.017  1.00  0.00     0.031 C 
ATOM     74  C   UNL A   1      43.575  29.843  32.638  1.00  0.00     0.037 A 
BRANCH  61  75
ATOM     75  C   UNL A   1      45.423  23.957  33.997  1.00  0.00     0.058 A 
ATOM     76  C   UNL A   1      46.695  23.454  34.390  1.00  0.00     0.135 A 
ATOM     77  C   UNL A   1      44.366  23.092  34.395  1.00  0.00     0.135 A 
ATOM     78  F   UNL A   1      47.817  24.138  34.130  1.00  0.00    -0.206 F 
ATOM     79  C   UNL A   1      46.910  22.252  35.092  1.00  0.00     0.059 A 
ATOM     80  C   UNL A   1      44.556  21.889  35.146  1.00  0.00     0.059 A 
ATOM     81  F   UNL A   1      43.093  23.360  34.071  1.00  0.00    -0.206 F 
ATOM     82  C   UNL A   1      45.838  21.476  35.493  1.00  0.00     0.060 A 
BRANCH  82  83
ATOM     83  S   UNL A   1      46.179  20.011  36.517  1.00  0.00     0.124 S 
ATOM     84  O   UNL A   1      47.627  19.873  36.402  1.00  0.00    -0.237 OA
ATOM     85  O   UNL A   1      45.694  20.428  37.830  1.00  0.00    -0.237 OA
ATOM     86  O   UNL A   1      45.400  18.952  35.881  1.00  0.00    -0.744 OA
ENDBRANCH  82  83
ENDBRANCH  61  75
BRANCH  62  87
ATOM     87  C   UNL A   1      48.516  33.061  29.497  1.00  0.00     0.058 A 
ATOM     88  C   UNL A   1      48.148  32.785  28.115  1.00  0.00     0.135 A 
ATOM     89  C   UNL A   1      49.305  34.227  29.614  1.00  0.00     0.135 A 
ATOM     90  F   UNL A   1      47.329  31.750  27.842  1.00  0.00    -0.206 F 
ATOM     91  C   UNL A   1      48.393  33.657  27.027  1.00  0.00     0.059 A 
ATOM     92  C   UNL A   1      49.607  35.096  28.499  1.00  0.00     0.059 A 
ATOM     93  F   UNL A   1      49.640  34.642  30.846  1.00  0.00    -0.206 F 
ATOM     94  C   UNL A   1      49.136  34.818  27.206  1.00  0.00     0.060 A 
BRANCH  94  95
ATOM     95  S   UNL A   1      49.446  35.809  25.650  1.00  0.00     0.124 S 
ATOM     96  O   UNL A   1      50.908  35.800  25.620  1.00  0.00    -0.237 OA
ATOM     97  O   UNL A   1      48.818  34.984  24.613  1.00  0.00    -0.237 OA
ATOM     98  O   UNL A   1      48.904  37.151  25.827  1.00  0.00    -0.744 OA
ENDBRANCH  94  95
ENDBRANCH  62  87
BRANCH  74  99
ATOM     99  C   UNL A   1      42.037  29.643  32.662  1.00  0.00     0.058 A 
ATOM    100  C   UNL A   1      41.230  30.153  33.669  1.00  0.00     0.135 A 
ATOM    101  C   UNL A   1      41.311  28.910  31.663  1.00  0.00     0.135 A 
ATOM    102  F   UNL A   1      41.749  30.494  34.856  1.00  0.00    -0.206 F 
ATOM    103  C   UNL A   1      39.845  30.230  33.544  1.00  0.00     0.059 A 
ATOM    104  C   UNL A   1      39.931  28.910  31.547  1.00  0.00     0.059 A 
ATOM    105  F   UNL A   1      41.878  28.090  30.772  1.00  0.00    -0.206 F 
ATOM    106  C   UNL A   1      39.205  29.628  32.465  1.00  0.00     0.060 A 
BRANCH 106 107
ATOM    107  S   UNL A   1      37.417  29.638  32.392  1.00  0.00     0.124 S 
ATOM    108  O   UNL A   1      37.082  28.509  33.253  1.00  0.00    -0.237 OA
ATOM    109  O   UNL A   1      37.110  30.961  32.928  1.00  0.00    -0.237 OA
ATOM    110  O   UNL A   1      37.124  29.450  30.975  1.00  0.00    -0.744 OA
ENDBRANCH 106 107
ENDBRANCH  74  99
ENDBRANCH  48  49
ENDBRANCH  41  43
ENDBRANCH  40  41
ENDBRANCH  39  40
ENDBRANCH  38  39
ENDBRANCH  37  38
ENDBRANCH  36  37
ENDBRANCH   1  36
TORSDOF 25
ENDMDL
MODEL 2
REMARK VINA RESULT:      -8.9      6.635     11.757
REMARK SMILES Cc1ccc([C@@]23C[C@@H]4C[C@@H](C[C@@](C(=O)N5CCC(C(=O)OCCOCCOCCOCCOC(=O)c6ccc(-c7c8nc(c(-c9c(F)cc(S(=O)(=O)[O-])cc9F)c9ccc([nH]9)c(-c9c(F)cc(S(=O)(=O)[O-])cc9F)c9nc(c(-c%10c(F)cc(S(=O)(=O)[O-])cc%10F)c%10ccc7[nH]%10)C=C9)C=C8)cc6)CC5)(C4)C2)C3)cc1
REMARK SMILES IDX 28 1 27 2 26 3 25 4 24 5 23 6 22 7 21 8 19 9 20 10 18 11
REMARK SMILES IDX 13 12 14 13 15 14 16 15 103 16 17 17 102 18 12 19 6 20 7 21
REMARK SMILES IDX 105 22 106 23 8 24 10 25 9 26 104 27 11 28 5 29 1 30 2 31
REMARK SMILES IDX 3 32 108 33 4 34 107 35 29 36 30 37 31 38 32 39 33 40 34 41
REMARK SMILES IDX 35 42 36 43 37 44 101 45 38 46 100 47 39 48 40 49 41 50
REMARK SMILES IDX 94 51 42 52 99 53 93 54 95 55 43 56 98 57 92 58 91 59 44 61
REMARK SMILES IDX 78 62 57 63 77 64 58 65 61 66 76 67 96 68 59 69 60 70 75 72
REMARK SMILES IDX 97 73 62 74 45 75 46 76 55 77 47 78 48 79 54 80 56 81 49 82
REMARK SMILES IDX 50 83 51 84 52 85 53 86 79 87 80 88 89 89 81 90 82 91 88 92
REMARK SMILES IDX 90 93 83 94 84 95 85 96 86 97 87 98 63 99 64 100 73 101
REMARK SMILES IDX 65 102 66 103 72 104 74 105 67 106 68 107 69 108 70 109
REMARK SMILES IDX 71 110
REMARK H PARENT 95 60 61 71
REMARK Flexibility Score: inf
ROOT
ATOM      1  C   UNL A   1      49.524  36.434  35.288  1.00  0.00     0.188 C 
ENDROOT
BRANCH   1   2
ATOM      2  O   UNL A   1      48.570  35.401  35.336  1.00  0.00    -0.377 OA
BRANCH   2   3
ATOM      3  C   UNL A   1      47.943  35.097  36.557  1.00  0.00     0.188 C 
BRANCH   3   4
ATOM      4  C   UNL A   1      46.523  34.512  36.539  1.00  0.00     0.188 C 
BRANCH   4   5
ATOM      5  O   UNL A   1      46.327  33.113  36.399  1.00  0.00    -0.376 OA
BRANCH   5   6
ATOM      6  C   UNL A   1      45.307  32.720  35.523  1.00  0.00     0.202 C 
BRANCH   6   7
ATOM      7  C   UNL A   1      44.296  31.792  36.132  1.00  0.00     0.261 C 
BRANCH   7   8
ATOM      8  O   UNL A   1      43.109  31.604  35.399  1.00  0.00    -0.463 OA
BRANCH   8   9
ATOM      9  C   UNL A   1      42.138  30.958  36.008  1.00  0.00     0.309 C 
ATOM     10  O   UNL A   1      42.204  30.380  37.076  1.00  0.00    -0.252 OA
BRANCH   9  11
ATOM     11  C   UNL A   1      40.911  31.130  35.195  1.00  0.00     0.103 C 
ATOM     12  C   UNL A   1      37.967  29.737  32.809  1.00  0.00     0.228 C 
ATOM     13  O   UNL A   1      37.382  28.782  33.314  1.00  0.00    -0.274 OA
ATOM     14  N   UNL A   1      38.704  30.652  33.568  1.00  0.00    -0.342 N 
ATOM     15  C   UNL A   1      38.545  30.644  35.014  1.00  0.00     0.120 C 
ATOM     16  C   UNL A   1      39.776  31.548  33.091  1.00  0.00     0.120 C 
ATOM     17  C   UNL A   1      39.829  30.123  35.606  1.00  0.00     0.037 C 
ATOM     18  C   UNL A   1      41.084  31.089  33.675  1.00  0.00     0.037 C 
BRANCH  12  19
ATOM     19  C   UNL A   1      37.767  30.101  31.337  1.00  0.00     0.051 C 
ATOM     20  C   UNL A   1      36.377  31.862  30.091  1.00  0.00    -0.003 C 
ATOM     21  C   UNL A   1      37.739  32.350  29.514  1.00  0.00     0.015 C 
ATOM     22  C   UNL A   1      36.643  31.154  31.402  1.00  0.00     0.028 C 
ATOM     23  C   UNL A   1      35.786  30.739  29.202  1.00  0.00     0.015 C 
ATOM     24  C   UNL A   1      38.718  31.182  29.283  1.00  0.00    -0.009 C 
ATOM     25  C   UNL A   1      36.798  29.569  29.065  1.00  0.00    -0.009 C 
ATOM     26  C   UNL A   1      38.057  30.128  28.381  1.00  0.00     0.007 C 
ATOM     27  C   UNL A   1      39.069  30.525  30.623  1.00  0.00     0.020 C 
ATOM     28  C   UNL A   1      37.181  28.975  30.452  1.00  0.00     0.020 C 
BRANCH  20  29
ATOM     29  C   UNL A   1      35.436  33.062  30.320  1.00  0.00    -0.042 A 
ATOM     30  C   UNL A   1      32.718  36.361  31.074  1.00  0.00     0.044 C 
ATOM     31  C   UNL A   1      33.641  35.209  30.822  1.00  0.00    -0.051 A 
ATOM     32  C   UNL A   1      33.949  34.850  29.515  1.00  0.00     0.004 A 
ATOM     33  C   UNL A   1      34.211  34.485  31.873  1.00  0.00     0.004 A 
ATOM     34  C   UNL A   1      34.836  33.801  29.271  1.00  0.00     0.004 A 
ATOM     35  C   UNL A   1      35.091  33.426  31.625  1.00  0.00     0.004 A 
ENDBRANCH  20  29
ENDBRANCH  12  19
ENDBRANCH   9  11
ENDBRANCH   8   9
ENDBRANCH   7   8
ENDBRANCH   6   7
ENDBRANCH   5   6
ENDBRANCH   4   5
ENDBRANCH   3   4
ENDBRANCH   2   3
ENDBRANCH   1   2
BRANCH   1  36
ATOM     36  C   UNL A   1      49.377  37.728  36.147  1.00  0.00     0.188 C 
BRANCH  36  37
ATOM     37  O   UNL A   1      49.569  38.946  35.480  1.00  0.00    -0.376 OA
BRANCH  37  38
ATOM     38  C   UNL A   1      48.649  39.880  36.003  1.00  0.00     0.202 C 
BRANCH  38  39
ATOM     39  C   UNL A   1      47.161  39.837  35.455  1.00  0.00     0.261 C 
BRANCH  39  40
ATOM     40  O   UNL A   1      46.354  41.065  34.814  1.00  0.00    -0.460 OA
BRANCH  40  41
ATOM     41  C   UNL A   1      45.684  42.119  34.302  1.00  0.00     0.338 C 
ATOM     42  O   UNL A   1      44.986  42.746  35.089  1.00  0.00    -0.246 OA
BRANCH  41  43
ATOM     43  C   UNL A   1      45.407  42.719  32.886  1.00  0.00     0.060 A 
ATOM     44  C   UNL A   1      44.024  42.832  32.608  1.00  0.00     0.016 A 
ATOM     45  C   UNL A   1      46.077  42.334  31.769  1.00  0.00     0.016 A 
ATOM     46  C   UNL A   1      43.373  41.849  31.833  1.00  0.00     0.010 A 
ATOM     47  C   UNL A   1      45.501  41.284  31.072  1.00  0.00     0.010 A 
ATOM     48  C   UNL A   1      44.168  40.887  31.251  1.00  0.00    -0.014 A 
BRANCH  48  49
ATOM     49  C   UNL A   1      43.848  39.504  30.759  1.00  0.00     0.031 A 
ATOM     50  C   UNL A   1      43.850  38.481  31.989  1.00  0.00     0.074 A 
ATOM     51  C   UNL A   1      43.234  39.461  29.492  1.00  0.00     0.049 A 
ATOM     52  N   UNL A   1      43.586  37.221  31.981  1.00  0.00    -0.248 NA
ATOM     53  C   UNL A   1      43.971  38.882  33.420  1.00  0.00     0.031 C 
ATOM     54  C   UNL A   1      42.346  38.518  28.737  1.00  0.00     0.029 A 
ATOM     55  N   UNL A   1      43.352  40.381  28.445  1.00  0.00    -0.354 N 
ATOM     56  C   UNL A   1      43.032  36.812  33.223  1.00  0.00     0.074 A 
ATOM     57  C   UNL A   1      43.334  37.910  34.094  1.00  0.00     0.031 C 
ATOM     58  C   UNL A   1      42.382  38.611  27.404  1.00  0.00     0.029 A 
ATOM     59  C   UNL A   1      43.297  39.650  27.204  1.00  0.00     0.049 A 
ATOM     60  H   UNL A   1      43.455  41.355  28.538  1.00  0.00     0.167 HD
ATOM     61  C   UNL A   1      42.276  35.649  33.301  1.00  0.00     0.037 A 
ATOM     62  C   UNL A   1      44.442  39.425  26.537  1.00  0.00     0.037 A 
ATOM     63  C   UNL A   1      42.310  34.952  31.970  1.00  0.00     0.049 A 
ATOM     64  C   UNL A   1      44.989  37.973  27.128  1.00  0.00     0.074 A 
ATOM     65  C   UNL A   1      41.400  34.376  31.094  1.00  0.00     0.029 A 
ATOM     66  N   UNL A   1      43.475  35.045  31.212  1.00  0.00    -0.354 N 
ATOM     67  N   UNL A   1      44.400  37.200  28.062  1.00  0.00    -0.248 NA
ATOM     68  C   UNL A   1      46.100  37.217  26.564  1.00  0.00     0.031 C 
ATOM     69  C   UNL A   1      42.013  34.333  29.780  1.00  0.00     0.029 A 
ATOM     70  C   UNL A   1      43.300  34.865  29.851  1.00  0.00     0.049 A 
ATOM     71  H   UNL A   1      44.356  35.225  31.614  1.00  0.00     0.167 HD
ATOM     72  C   UNL A   1      44.967  35.943  28.223  1.00  0.00     0.074 A 
ATOM     73  C   UNL A   1      46.101  36.079  27.297  1.00  0.00     0.031 C 
ATOM     74  C   UNL A   1      44.530  34.865  29.025  1.00  0.00     0.037 A 
BRANCH  61  75
ATOM     75  C   UNL A   1      41.328  35.138  34.464  1.00  0.00     0.058 A 
ATOM     76  C   UNL A   1      41.880  34.864  35.747  1.00  0.00     0.135 A 
ATOM     77  C   UNL A   1      39.936  34.848  34.414  1.00  0.00     0.135 A 
ATOM     78  F   UNL A   1      43.173  35.094  36.005  1.00  0.00    -0.206 F 
ATOM     79  C   UNL A   1      41.158  34.370  36.852  1.00  0.00     0.059 A 
ATOM     80  C   UNL A   1      39.173  34.388  35.534  1.00  0.00     0.059 A 
ATOM     81  F   UNL A   1      39.241  34.987  33.276  1.00  0.00    -0.206 F 
ATOM     82  C   UNL A   1      39.796  34.153  36.755  1.00  0.00     0.060 A 
BRANCH  82  83
ATOM     83  S   UNL A   1      38.902  33.649  38.258  1.00  0.00     0.124 S 
ATOM     84  O   UNL A   1      39.564  32.400  38.619  1.00  0.00    -0.237 OA
ATOM     85  O   UNL A   1      39.150  34.771  39.159  1.00  0.00    -0.237 OA
ATOM     86  O   UNL A   1      37.517  33.515  37.812  1.00  0.00    -0.744 OA
ENDBRANCH  82  83
ENDBRANCH  61  75
BRANCH  62  87
ATOM     87  C   UNL A   1      44.747  40.942  26.259  1.00  0.00     0.058 A 
ATOM     88  C   UNL A   1      46.124  41.340  26.518  1.00  0.00     0.135 A 
ATOM     89  C   UNL A   1      44.170  41.680  25.201  1.00  0.00     0.135 A 
ATOM     90  F   UNL A   1      46.841  40.675  27.445  1.00  0.00    -0.206 F 
ATOM     91  C   UNL A   1      46.870  42.231  25.709  1.00  0.00     0.059 A 
ATOM     92  C   UNL A   1      44.908  42.634  24.404  1.00  0.00     0.059 A 
ATOM     93  F   UNL A   1      42.930  41.352  24.805  1.00  0.00    -0.206 F 
ATOM     94  C   UNL A   1      46.266  42.897  24.649  1.00  0.00     0.060 A 
BRANCH  94  95
ATOM     95  S   UNL A   1      47.366  44.107  23.742  1.00  0.00     0.124 S 
ATOM     96  O   UNL A   1      47.711  43.317  22.562  1.00  0.00    -0.237 OA
ATOM     97  O   UNL A   1      46.457  45.226  23.472  1.00  0.00    -0.237 OA
ATOM     98  O   UNL A   1      48.529  44.403  24.570  1.00  0.00    -0.744 OA
ENDBRANCH  94  95
ENDBRANCH  62  87
BRANCH  74  99
ATOM     99  C   UNL A   1      45.364  33.582  29.281  1.00  0.00     0.058 A 
ATOM    100  C   UNL A   1      46.448  33.553  30.147  1.00  0.00     0.135 A 
ATOM    101  C   UNL A   1      45.105  32.321  28.647  1.00  0.00     0.135 A 
ATOM    102  F   UNL A   1      47.075  34.684  30.499  1.00  0.00    -0.206 F 
ATOM    103  C   UNL A   1      47.006  32.359  30.599  1.00  0.00     0.059 A 
ATOM    104  C   UNL A   1      45.688  31.124  29.027  1.00  0.00     0.059 A 
ATOM    105  F   UNL A   1      44.321  32.166  27.574  1.00  0.00    -0.206 F 
ATOM    106  C   UNL A   1      46.601  31.146  30.052  1.00  0.00     0.060 A 
BRANCH 106 107
ATOM    107  S   UNL A   1      47.419  29.639  30.566  1.00  0.00     0.124 S 
ATOM    108  O   UNL A   1      48.615  29.656  29.731  1.00  0.00    -0.237 OA
ATOM    109  O   UNL A   1      47.629  29.891  31.987  1.00  0.00    -0.237 OA
ATOM    110  O   UNL A   1      46.452  28.593  30.248  1.00  0.00    -0.744 OA
ENDBRANCH 106 107
ENDBRANCH  74  99
ENDBRANCH  48  49
ENDBRANCH  41  43
ENDBRANCH  40  41
ENDBRANCH  39  40
ENDBRANCH  38  39
ENDBRANCH  37  38
ENDBRANCH  36  37
ENDBRANCH   1  36
TORSDOF 25
ENDMDL
MODEL 3
REMARK VINA RESULT:      -8.7      5.609     12.159
REMARK SMILES Cc1ccc([C@@]23C[C@@H]4C[C@@H](C[C@@](C(=O)N5CCC(C(=O)OCCOCCOCCOCCOC(=O)c6ccc(-c7c8nc(c(-c9c(F)cc(S(=O)(=O)[O-])cc9F)c9ccc([nH]9)c(-c9c(F)cc(S(=O)(=O)[O-])cc9F)c9nc(c(-c%10c(F)cc(S(=O)(=O)[O-])cc%10F)c%10ccc7[nH]%10)C=C9)C=C8)cc6)CC5)(C4)C2)C3)cc1
REMARK SMILES IDX 28 1 27 2 26 3 25 4 24 5 23 6 22 7 21 8 19 9 20 10 18 11
REMARK SMILES IDX 13 12 14 13 15 14 16 15 103 16 17 17 102 18 12 19 6 20 7 21
REMARK SMILES IDX 105 22 106 23 8 24 10 25 9 26 104 27 11 28 5 29 1 30 2 31
REMARK SMILES IDX 3 32 108 33 4 34 107 35 29 36 30 37 31 38 32 39 33 40 34 41
REMARK SMILES IDX 35 42 36 43 37 44 101 45 38 46 100 47 39 48 40 49 41 50
REMARK SMILES IDX 94 51 42 52 99 53 93 54 95 55 43 56 98 57 92 58 91 59 44 61
REMARK SMILES IDX 78 62 57 63 77 64 58 65 61 66 76 67 96 68 59 69 60 70 75 72
REMARK SMILES IDX 97 73 62 74 45 75 46 76 55 77 47 78 48 79 54 80 56 81 49 82
REMARK SMILES IDX 50 83 51 84 52 85 53 86 79 87 80 88 89 89 81 90 82 91 88 92
REMARK SMILES IDX 90 93 83 94 84 95 85 96 86 97 87 98 63 99 64 100 73 101
REMARK SMILES IDX 65 102 66 103 72 104 74 105 67 106 68 107 69 108 70 109
REMARK SMILES IDX 71 110
REMARK H PARENT 95 60 61 71
REMARK Flexibility Score: inf
ROOT
ATOM      1  C   UNL A   1      35.321  35.132  33.127  1.00  0.00     0.188 C 
ENDROOT
BRANCH   1   2
ATOM      2  O   UNL A   1      34.583  36.205  32.595  1.00  0.00    -0.377 OA
BRANCH   2   3
ATOM      3  C   UNL A   1      33.182  36.108  32.519  1.00  0.00     0.188 C 
BRANCH   3   4
ATOM      4  C   UNL A   1      32.519  35.984  31.139  1.00  0.00     0.188 C 
BRANCH   4   5
ATOM      5  O   UNL A   1      32.877  34.924  30.265  1.00  0.00    -0.376 OA
BRANCH   5   6
ATOM      6  C   UNL A   1      33.310  35.302  28.988  1.00  0.00     0.202 C 
BRANCH   6   7
ATOM      7  C   UNL A   1      33.778  34.159  28.133  1.00  0.00     0.261 C 
BRANCH   7   8
ATOM      8  O   UNL A   1      34.259  33.029  28.822  1.00  0.00    -0.463 OA
BRANCH   8   9
ATOM      9  C   UNL A   1      34.100  31.867  28.227  1.00  0.00     0.309 C 
ATOM     10  O   UNL A   1      33.258  31.581  27.397  1.00  0.00    -0.252 OA
BRANCH   9  11
ATOM     11  C   UNL A   1      35.193  30.979  28.687  1.00  0.00     0.103 C 
ATOM     12  C   UNL A   1      39.091  30.014  29.106  1.00  0.00     0.228 C 
ATOM     13  O   UNL A   1      39.732  30.917  29.639  1.00  0.00    -0.274 OA
ATOM     14  N   UNL A   1      37.702  29.904  29.232  1.00  0.00    -0.342 N 
ATOM     15  C   UNL A   1      37.030  30.705  30.242  1.00  0.00     0.120 C 
ATOM     16  C   UNL A   1      36.781  29.176  28.337  1.00  0.00     0.120 C 
ATOM     17  C   UNL A   1      36.221  31.753  29.523  1.00  0.00     0.037 C 
ATOM     18  C   UNL A   1      35.925  30.176  27.609  1.00  0.00     0.037 C 
BRANCH  12  19
ATOM     19  C   UNL A   1      39.794  28.835  28.432  1.00  0.00     0.051 C 
ATOM     20  C   UNL A   1      42.108  27.747  28.661  1.00  0.00    -0.003 C 
ATOM     21  C   UNL A   1      41.324  26.445  29.004  1.00  0.00     0.015 C 
ATOM     22  C   UNL A   1      41.226  28.931  28.994  1.00  0.00     0.028 C 
ATOM     23  C   UNL A   1      42.298  27.873  27.129  1.00  0.00     0.015 C 
ATOM     24  C   UNL A   1      40.002  26.344  28.219  1.00  0.00    -0.009 C 
ATOM     25  C   UNL A   1      40.924  27.829  26.408  1.00  0.00    -0.009 C 
ATOM     26  C   UNL A   1      40.288  26.462  26.715  1.00  0.00     0.007 C 
ATOM     27  C   UNL A   1      39.066  27.487  28.629  1.00  0.00     0.020 C 
ATOM     28  C   UNL A   1      39.978  28.964  26.901  1.00  0.00     0.020 C 
BRANCH  20  29
ATOM     29  C   UNL A   1      43.414  27.814  29.478  1.00  0.00    -0.042 A 
ATOM     30  C   UNL A   1      47.156  27.915  31.674  1.00  0.00     0.044 C 
ATOM     31  C   UNL A   1      45.871  27.861  30.908  1.00  0.00    -0.051 A 
ATOM     32  C   UNL A   1      44.671  27.709  31.591  1.00  0.00     0.004 A 
ATOM     33  C   UNL A   1      45.846  27.968  29.514  1.00  0.00     0.004 A 
ATOM     34  C   UNL A   1      43.465  27.695  30.888  1.00  0.00     0.004 A 
ATOM     35  C   UNL A   1      44.636  27.940  28.811  1.00  0.00     0.004 A 
ENDBRANCH  20  29
ENDBRANCH  12  19
ENDBRANCH   9  11
ENDBRANCH   8   9
ENDBRANCH   7   8
ENDBRANCH   6   7
ENDBRANCH   5   6
ENDBRANCH   4   5
ENDBRANCH   3   4
ENDBRANCH   2   3
ENDBRANCH   1   2
BRANCH   1  36
ATOM     36  C   UNL A   1      36.019  34.081  32.210  1.00  0.00     0.188 C 
BRANCH  36  37
ATOM     37  O   UNL A   1      37.399  33.911  32.392  1.00  0.00    -0.376 OA
BRANCH  37  38
ATOM     38  C   UNL A   1      37.597  33.223  33.609  1.00  0.00     0.202 C 
BRANCH  38  39
ATOM     39  C   UNL A   1      38.797  32.188  33.684  1.00  0.00     0.261 C 
BRANCH  39  40
ATOM     40  O   UNL A   1      40.141  32.236  32.811  1.00  0.00    -0.460 OA
BRANCH  40  41
ATOM     41  C   UNL A   1      41.259  32.303  32.059  1.00  0.00     0.338 C 
ATOM     42  O   UNL A   1      41.360  33.283  31.331  1.00  0.00    -0.246 OA
BRANCH  41  43
ATOM     43  C   UNL A   1      42.466  31.371  31.717  1.00  0.00     0.060 A 
ATOM     44  C   UNL A   1      43.529  31.503  32.642  1.00  0.00     0.016 A 
ATOM     45  C   UNL A   1      42.959  31.218  30.460  1.00  0.00     0.016 A 
ATOM     46  C   UNL A   1      44.641  32.316  32.335  1.00  0.00     0.010 A 
ATOM     47  C   UNL A   1      43.970  32.100  30.115  1.00  0.00     0.010 A 
ATOM     48  C   UNL A   1      44.702  32.833  31.061  1.00  0.00    -0.014 A 
BRANCH  48  49
ATOM     49  C   UNL A   1      45.431  34.025  30.510  1.00  0.00     0.031 A 
ATOM     50  C   UNL A   1      44.676  35.367  30.949  1.00  0.00     0.074 A 
ATOM     51  C   UNL A   1      46.760  33.771  30.121  1.00  0.00     0.049 A 
ATOM     52  N   UNL A   1      45.011  36.587  30.708  1.00  0.00    -0.248 NA
ATOM     53  C   UNL A   1      43.535  35.418  31.906  1.00  0.00     0.031 C 
ATOM     54  C   UNL A   1      48.022  34.563  29.946  1.00  0.00     0.029 A 
ATOM     55  N   UNL A   1      47.313  32.564  29.680  1.00  0.00    -0.354 N 
ATOM     56  C   UNL A   1      44.565  37.448  31.746  1.00  0.00     0.074 A 
ATOM     57  C   UNL A   1      43.613  36.642  32.454  1.00  0.00     0.031 C 
ATOM     58  C   UNL A   1      48.928  34.054  29.106  1.00  0.00     0.029 A 
ATOM     59  C   UNL A   1      48.312  32.869  28.687  1.00  0.00     0.049 A 
ATOM     60  H   UNL A   1      47.064  31.664  29.992  1.00  0.00     0.167 HD
ATOM     61  C   UNL A   1      45.170  38.684  31.935  1.00  0.00     0.037 A 
ATOM     62  C   UNL A   1      48.010  32.685  27.391  1.00  0.00     0.037 A 
ATOM     63  C   UNL A   1      46.167  38.915  30.834  1.00  0.00     0.049 A 
ATOM     64  C   UNL A   1      47.376  34.139  26.901  1.00  0.00     0.074 A 
ATOM     65  C   UNL A   1      47.487  39.329  30.721  1.00  0.00     0.029 A 
ATOM     66  N   UNL A   1      45.880  38.402  29.572  1.00  0.00    -0.354 N 
ATOM     67  N   UNL A   1      47.215  35.250  27.646  1.00  0.00    -0.248 NA
ATOM     68  C   UNL A   1      47.086  34.488  25.516  1.00  0.00     0.031 C 
ATOM     69  C   UNL A   1      47.994  38.859  29.445  1.00  0.00     0.029 A 
ATOM     70  C   UNL A   1      46.984  38.174  28.770  1.00  0.00     0.049 A 
ATOM     71  H   UNL A   1      44.960  38.214  29.273  1.00  0.00     0.167 HD
ATOM     72  C   UNL A   1      46.849  36.384  26.933  1.00  0.00     0.074 A 
ATOM     73  C   UNL A   1      46.697  35.783  25.601  1.00  0.00     0.031 C 
ATOM     74  C   UNL A   1      46.710  37.715  27.388  1.00  0.00     0.037 A 
BRANCH  61  75
ATOM     75  C   UNL A   1      45.068  39.680  33.163  1.00  0.00     0.058 A 
ATOM     76  C   UNL A   1      46.014  39.586  34.222  1.00  0.00     0.135 A 
ATOM     77  C   UNL A   1      44.093  40.686  33.414  1.00  0.00     0.135 A 
ATOM     78  F   UNL A   1      47.029  38.714  34.164  1.00  0.00    -0.206 F 
ATOM     79  C   UNL A   1      46.012  40.382  35.385  1.00  0.00     0.059 A 
ATOM     80  C   UNL A   1      44.095  41.535  34.565  1.00  0.00     0.059 A 
ATOM     81  F   UNL A   1      43.080  40.894  32.561  1.00  0.00    -0.206 F 
ATOM     82  C   UNL A   1      45.065  41.376  35.549  1.00  0.00     0.060 A 
BRANCH  82  83
ATOM     83  S   UNL A   1      45.206  42.458  37.006  1.00  0.00     0.124 S 
ATOM     84  O   UNL A   1      46.186  41.757  37.829  1.00  0.00    -0.237 OA
ATOM     85  O   UNL A   1      45.667  43.713  36.418  1.00  0.00    -0.237 OA
ATOM     86  O   UNL A   1      43.849  42.494  37.546  1.00  0.00    -0.744 OA
ENDBRANCH  82  83
ENDBRANCH  61  75
BRANCH  62  87
ATOM     87  C   UNL A   1      47.821  31.129  27.508  1.00  0.00     0.058 A 
ATOM     88  C   UNL A   1      46.605  30.619  26.888  1.00  0.00     0.135 A 
ATOM     89  C   UNL A   1      48.883  30.199  27.439  1.00  0.00     0.135 A 
ATOM     90  F   UNL A   1      45.523  31.416  26.800  1.00  0.00    -0.206 F 
ATOM     91  C   UNL A   1      46.523  29.414  26.149  1.00  0.00     0.059 A 
ATOM     92  C   UNL A   1      48.792  28.941  26.734  1.00  0.00     0.059 A 
ATOM     93  F   UNL A   1      50.085  30.579  27.899  1.00  0.00    -0.206 F 
ATOM     94  C   UNL A   1      47.614  28.556  26.073  1.00  0.00     0.060 A 
BRANCH  94  95
ATOM     95  S   UNL A   1      47.308  26.965  25.137  1.00  0.00     0.124 S 
ATOM     96  O   UNL A   1      45.893  27.122  24.806  1.00  0.00    -0.237 OA
ATOM     97  O   UNL A   1      48.212  27.090  23.989  1.00  0.00    -0.237 OA
ATOM     98  O   UNL A   1      47.547  25.837  26.030  1.00  0.00    -0.744 OA
ENDBRANCH  94  95
ENDBRANCH  62  87
BRANCH  74  99
ATOM     99  C   UNL A   1      46.093  38.859  26.542  1.00  0.00     0.058 A 
ATOM    100  C   UNL A   1      44.771  39.260  26.673  1.00  0.00     0.135 A 
ATOM    101  C   UNL A   1      46.819  39.597  25.546  1.00  0.00     0.135 A 
ATOM    102  F   UNL A   1      43.861  38.449  27.229  1.00  0.00    -0.206 F 
ATOM    103  C   UNL A   1      44.302  40.458  26.139  1.00  0.00     0.059 A 
ATOM    104  C   UNL A   1      46.357  40.757  24.947  1.00  0.00     0.059 A 
ATOM    105  F   UNL A   1      47.993  39.214  25.035  1.00  0.00    -0.206 F 
ATOM    106  C   UNL A   1      45.111  41.214  25.298  1.00  0.00     0.060 A 
BRANCH 106 107
ATOM    107  S   UNL A   1      44.442  42.687  24.531  1.00  0.00     0.124 S 
ATOM    108  O   UNL A   1      45.218  43.735  25.184  1.00  0.00    -0.237 OA
ATOM    109  O   UNL A   1      44.748  42.449  23.125  1.00  0.00    -0.237 OA
ATOM    110  O   UNL A   1      43.026  42.649  24.882  1.00  0.00    -0.744 OA
ENDBRANCH 106 107
ENDBRANCH  74  99
ENDBRANCH  48  49
ENDBRANCH  41  43
ENDBRANCH  40  41
ENDBRANCH  39  40
ENDBRANCH  38  39
ENDBRANCH  37  38
ENDBRANCH  36  37
ENDBRANCH   1  36
TORSDOF 25
ENDMDL
