MODEL 1
REMARK VINA RESULT:     -10.4      0.000      0.000
REMARK SMILES O=C(CCC[N@@H+]1CCC[C@]2(CCC(=O)N(CCc3ccccc3)C2)C1)OCCOCCOCCOCCOC(=O)c1ccc(-c2c3nc(c(-c4c(F)cc(S(=O)(=O)[O-])cc4F)c4ccc([nH]4)c(-c4c(F)cc(S(=O)(=O)[O-])cc4F)c4nc(c(-c5c(F)cc(S(=O)(=O)[O-])cc5F)c5ccc2[nH]5)C=C4)C=C3)cc1
REMARK SMILES IDX 30 1 29 2 28 3 27 4 26 5 2 6 1 7 3 8 4 9 5 10 6 11 7 12
REMARK SMILES IDX 25 13 8 15 10 16 9 17 11 18 24 19 12 20 15 21 13 22 14 23
REMARK SMILES IDX 16 24 17 25 18 26 19 27 23 28 20 29 22 30 21 31 31 32 32 33
REMARK SMILES IDX 33 34 34 35 35 36 36 37 37 38 38 39 39 40 40 41 41 42 42 43
REMARK SMILES IDX 106 44 43 45 105 46 44 47 45 48 46 49 99 50 47 51 104 52
REMARK SMILES IDX 98 53 100 54 48 55 103 56 97 57 96 58 49 60 83 61 62 62
REMARK SMILES IDX 82 63 63 64 66 65 81 66 101 67 64 68 65 69 80 71 102 72
REMARK SMILES IDX 67 73 50 74 51 75 60 76 52 77 53 78 59 79 61 80 54 81 55 82
REMARK SMILES IDX 56 83 57 84 58 85 84 86 85 87 94 88 86 89 87 90 93 91 95 92
REMARK SMILES IDX 88 93 89 94 90 95 91 96 92 97 68 98 69 99 78 100 70 101
REMARK SMILES IDX 71 102 77 103 79 104 72 105 73 106 74 107 75 108 76 109
REMARK H PARENT 6 14 100 59 66 70
REMARK Flexibility Score: inf
ROOT
ATOM      1  C   UNL A   1      40.255  22.060  26.513  1.00  0.00     0.188 C 
ENDROOT
BRANCH   1   2
ATOM      2  O   UNL A   1      38.936  22.446  26.147  1.00  0.00    -0.376 OA
BRANCH   2   3
ATOM      3  C   UNL A   1      38.182  21.456  25.460  1.00  0.00     0.202 C 
BRANCH   3   4
ATOM      4  C   UNL A   1      36.785  21.851  24.975  1.00  0.00     0.261 C 
BRANCH   4   5
ATOM      5  O   UNL A   1      35.680  21.141  25.561  1.00  0.00    -0.463 OA
BRANCH   5   6
ATOM      6  C   UNL A   1      35.341  19.944  25.052  1.00  0.00     0.306 C 
ATOM      7  O   UNL A   1      36.199  19.154  24.669  1.00  0.00    -0.252 OA
BRANCH   6   8
ATOM      8  C   UNL A   1      33.857  19.615  25.022  1.00  0.00     0.128 C 
BRANCH   8   9
ATOM      9  C   UNL A   1      32.873  20.304  24.043  1.00  0.00     0.073 C 
BRANCH   9  10
ATOM     10  C   UNL A   1      32.442  21.801  24.107  1.00  0.00     0.262 C 
BRANCH  10  11
ATOM     11  N   UNL A   1      31.778  22.444  22.944  1.00  0.00    -0.334 N 
ATOM     12  C   UNL A   1      32.604  22.913  21.820  1.00  0.00     0.262 C 
ATOM     13  C   UNL A   1      30.925  23.590  23.334  1.00  0.00     0.271 C 
ATOM     14  H   UNL A   1      31.252  21.641  22.600  1.00  0.00     0.348 HD
ATOM     15  C   UNL A   1      33.431  24.187  22.064  1.00  0.00     0.062 C 
ATOM     16  C   UNL A   1      31.647  24.918  23.745  1.00  0.00     0.038 C 
ATOM     17  C   UNL A   1      32.607  25.347  22.612  1.00  0.00     0.020 C 
ATOM     18  C   UNL A   1      32.434  24.725  25.084  1.00  0.00     0.024 C 
ATOM     19  C   UNL A   1      30.532  26.000  23.905  1.00  0.00     0.132 C 
ATOM     20  C   UNL A   1      32.693  26.006  25.866  1.00  0.00     0.101 C 
ATOM     21  N   UNL A   1      30.935  27.132  24.714  1.00  0.00    -0.342 N 
ATOM     22  C   UNL A   1      31.369  26.719  25.974  1.00  0.00     0.222 C 
ATOM     23  O   UNL A   1      30.625  26.599  26.941  1.00  0.00    -0.275 OA
BRANCH  21  24
ATOM     24  C   UNL A   1      31.534  28.310  24.070  1.00  0.00     0.124 C 
BRANCH  24  25
ATOM     25  C   UNL A   1      30.929  29.656  24.520  1.00  0.00     0.057 C 
BRANCH  25  26
ATOM     26  C   UNL A   1      29.811  30.201  23.662  1.00  0.00    -0.046 A 
ATOM     27  C   UNL A   1      29.478  29.539  22.473  1.00  0.00     0.004 A 
ATOM     28  C   UNL A   1      29.090  31.351  24.008  1.00  0.00     0.004 A 
ATOM     29  C   UNL A   1      28.389  29.956  21.708  1.00  0.00     0.000 A 
ATOM     30  C   UNL A   1      27.973  31.740  23.268  1.00  0.00     0.000 A 
ATOM     31  C   UNL A   1      27.616  31.035  22.124  1.00  0.00     0.000 A 
ENDBRANCH  25  26
ENDBRANCH  24  25
ENDBRANCH  21  24
ENDBRANCH  10  11
ENDBRANCH   9  10
ENDBRANCH   8   9
ENDBRANCH   6   8
ENDBRANCH   5   6
ENDBRANCH   4   5
ENDBRANCH   3   4
ENDBRANCH   2   3
ENDBRANCH   1   2
BRANCH   1  32
ATOM     32  C   UNL A   1      40.489  20.576  26.856  1.00  0.00     0.188 C 
BRANCH  32  33
ATOM     33  O   UNL A   1      41.083  19.826  25.802  1.00  0.00    -0.377 OA
BRANCH  33  34
ATOM     34  C   UNL A   1      42.274  19.127  26.170  1.00  0.00     0.188 C 
BRANCH  34  35
ATOM     35  C   UNL A   1      43.626  19.607  25.570  1.00  0.00     0.188 C 
BRANCH  35  36
ATOM     36  O   UNL A   1      43.745  20.838  24.885  1.00  0.00    -0.376 OA
BRANCH  36  37
ATOM     37  C   UNL A   1      43.633  22.086  25.537  1.00  0.00     0.202 C 
BRANCH  37  38
ATOM     38  C   UNL A   1      44.844  22.870  26.079  1.00  0.00     0.261 C 
BRANCH  38  39
ATOM     39  O   UNL A   1      44.544  24.012  26.894  1.00  0.00    -0.460 OA
BRANCH  39  40
ATOM     40  C   UNL A   1      44.140  25.116  26.208  1.00  0.00     0.338 C 
ATOM     41  O   UNL A   1      44.317  25.334  25.028  1.00  0.00    -0.246 OA
BRANCH  40  42
ATOM     42  C   UNL A   1      43.208  25.929  27.039  1.00  0.00     0.060 A 
ATOM     43  C   UNL A   1      43.359  27.324  26.988  1.00  0.00     0.016 A 
ATOM     44  C   UNL A   1      42.244  25.362  27.874  1.00  0.00     0.016 A 
ATOM     45  C   UNL A   1      42.625  28.148  27.837  1.00  0.00     0.010 A 
ATOM     46  C   UNL A   1      41.518  26.191  28.744  1.00  0.00     0.010 A 
ATOM     47  C   UNL A   1      41.761  27.578  28.778  1.00  0.00    -0.014 A 
BRANCH  47  48
ATOM     48  C   UNL A   1      41.397  28.387  29.974  1.00  0.00     0.031 A 
ATOM     49  C   UNL A   1      42.259  28.233  31.207  1.00  0.00     0.074 A 
ATOM     50  C   UNL A   1      40.405  29.296  29.958  1.00  0.00     0.049 A 
ATOM     51  N   UNL A   1      42.174  28.832  32.366  1.00  0.00    -0.248 NA
ATOM     52  C   UNL A   1      43.367  27.268  31.113  1.00  0.00     0.031 C 
ATOM     53  C   UNL A   1      39.538  29.589  28.819  1.00  0.00     0.029 A 
ATOM     54  N   UNL A   1      39.965  30.150  30.943  1.00  0.00    -0.354 N 
ATOM     55  C   UNL A   1      43.205  28.306  33.140  1.00  0.00     0.074 A 
ATOM     56  C   UNL A   1      43.879  27.314  32.333  1.00  0.00     0.031 C 
ATOM     57  C   UNL A   1      38.667  30.553  29.171  1.00  0.00     0.029 A 
ATOM     58  C   UNL A   1      38.896  30.929  30.566  1.00  0.00     0.049 A 
ATOM     59  H   UNL A   1      40.378  30.199  31.834  1.00  0.00     0.167 HD
ATOM     60  C   UNL A   1      43.570  28.624  34.404  1.00  0.00     0.037 A 
ATOM     61  C   UNL A   1      38.181  31.829  31.271  1.00  0.00     0.037 A 
ATOM     62  C   UNL A   1      42.908  29.619  35.204  1.00  0.00     0.049 A 
ATOM     63  C   UNL A   1      38.564  32.122  32.704  1.00  0.00     0.074 A 
ATOM     64  C   UNL A   1      43.211  30.030  36.490  1.00  0.00     0.029 A 
ATOM     65  N   UNL A   1      41.804  30.355  34.799  1.00  0.00    -0.354 N 
ATOM     66  N   UNL A   1      39.551  31.628  33.416  1.00  0.00    -0.248 NA
ATOM     67  C   UNL A   1      37.740  33.103  33.427  1.00  0.00     0.031 C 
ATOM     68  C   UNL A   1      42.252  30.968  36.886  1.00  0.00     0.029 A 
ATOM     69  C   UNL A   1      41.398  31.198  35.819  1.00  0.00     0.049 A 
ATOM     70  H   UNL A   1      41.373  30.288  33.917  1.00  0.00     0.167 HD
ATOM     71  C   UNL A   1      39.492  32.272  34.651  1.00  0.00     0.074 A 
ATOM     72  C   UNL A   1      38.377  33.192  34.585  1.00  0.00     0.031 C 
ATOM     73  C   UNL A   1      40.294  32.123  35.737  1.00  0.00     0.037 A 
BRANCH  60  74
ATOM     74  C   UNL A   1      44.714  27.858  35.015  1.00  0.00     0.058 A 
ATOM     75  C   UNL A   1      46.052  28.253  34.848  1.00  0.00     0.135 A 
ATOM     76  C   UNL A   1      44.462  26.718  35.796  1.00  0.00     0.135 A 
ATOM     77  F   UNL A   1      46.353  29.321  34.092  1.00  0.00    -0.206 F 
ATOM     78  C   UNL A   1      47.099  27.528  35.409  1.00  0.00     0.059 A 
ATOM     79  C   UNL A   1      45.492  25.998  36.394  1.00  0.00     0.059 A 
ATOM     80  F   UNL A   1      43.203  26.292  35.983  1.00  0.00    -0.206 F 
ATOM     81  C   UNL A   1      46.809  26.402  36.181  1.00  0.00     0.060 A 
BRANCH  81  82
ATOM     82  S   UNL A   1      48.177  25.474  36.904  1.00  0.00     0.124 S 
ATOM     83  O   UNL A   1      49.330  26.188  36.364  1.00  0.00    -0.237 OA
ATOM     84  O   UNL A   1      47.943  25.639  38.334  1.00  0.00    -0.237 OA
ATOM     85  O   UNL A   1      47.981  24.122  36.390  1.00  0.00    -0.744 OA
ENDBRANCH  81  82
ENDBRANCH  60  74
BRANCH  61  86
ATOM     86  C   UNL A   1      37.026  32.532  30.643  1.00  0.00     0.058 A 
ATOM     87  C   UNL A   1      35.704  32.142  30.910  1.00  0.00     0.135 A 
ATOM     88  C   UNL A   1      37.221  33.589  29.739  1.00  0.00     0.135 A 
ATOM     89  F   UNL A   1      35.462  31.132  31.759  1.00  0.00    -0.206 F 
ATOM     90  C   UNL A   1      34.620  32.749  30.280  1.00  0.00     0.059 A 
ATOM     91  C   UNL A   1      36.152  34.232  29.120  1.00  0.00     0.059 A 
ATOM     92  F   UNL A   1      38.463  34.012  29.457  1.00  0.00    -0.206 F 
ATOM     93  C   UNL A   1      34.856  33.790  29.382  1.00  0.00     0.060 A 
BRANCH  93  94
ATOM     94  S   UNL A   1      33.448  34.572  28.561  1.00  0.00     0.124 S 
ATOM     95  O   UNL A   1      34.104  35.654  27.835  1.00  0.00    -0.237 OA
ATOM     96  O   UNL A   1      32.923  33.488  27.739  1.00  0.00    -0.237 OA
ATOM     97  O   UNL A   1      32.603  34.984  29.678  1.00  0.00    -0.744 OA
ENDBRANCH  93  94
ENDBRANCH  61  86
BRANCH  73  98
ATOM     98  C   UNL A   1      40.042  33.018  36.923  1.00  0.00     0.058 A 
ATOM     99  C   UNL A   1      39.062  32.732  37.886  1.00  0.00     0.135 A 
ATOM    100  C   UNL A   1      40.830  34.166  37.118  1.00  0.00     0.135 A 
ATOM    101  F   UNL A   1      38.282  31.647  37.755  1.00  0.00    -0.206 F 
ATOM    102  C   UNL A   1      38.842  33.573  38.973  1.00  0.00     0.059 A 
ATOM    103  C   UNL A   1      40.652  35.002  38.216  1.00  0.00     0.059 A 
ATOM    104  F   UNL A   1      41.797  34.481  36.239  1.00  0.00    -0.206 F 
ATOM    105  C   UNL A   1      39.641  34.708  39.128  1.00  0.00     0.060 A 
BRANCH 105 106
ATOM    106  S   UNL A   1      39.346  35.791  40.542  1.00  0.00     0.124 S 
ATOM    107  O   UNL A   1      38.181  35.163  41.156  1.00  0.00    -0.237 OA
ATOM    108  O   UNL A   1      40.596  35.676  41.288  1.00  0.00    -0.237 OA
ATOM    109  O   UNL A   1      39.107  37.095  39.929  1.00  0.00    -0.744 OA
ENDBRANCH 105 106
ENDBRANCH  73  98
ENDBRANCH  47  48
ENDBRANCH  40  42
ENDBRANCH  39  40
ENDBRANCH  38  39
ENDBRANCH  37  38
ENDBRANCH  36  37
ENDBRANCH  35  36
ENDBRANCH  34  35
ENDBRANCH  33  34
ENDBRANCH  32  33
ENDBRANCH   1  32
TORSDOF 29
ENDMDL
MODEL 2
REMARK VINA RESULT:     -10.1      1.130      7.799
REMARK SMILES O=C(CCC[N@@H+]1CCC[C@]2(CCC(=O)N(CCc3ccccc3)C2)C1)OCCOCCOCCOCCOC(=O)c1ccc(-c2c3nc(c(-c4c(F)cc(S(=O)(=O)[O-])cc4F)c4ccc([nH]4)c(-c4c(F)cc(S(=O)(=O)[O-])cc4F)c4nc(c(-c5c(F)cc(S(=O)(=O)[O-])cc5F)c5ccc2[nH]5)C=C4)C=C3)cc1
REMARK SMILES IDX 30 1 29 2 28 3 27 4 26 5 2 6 1 7 3 8 4 9 5 10 6 11 7 12
REMARK SMILES IDX 25 13 8 15 10 16 9 17 11 18 24 19 12 20 15 21 13 22 14 23
REMARK SMILES IDX 16 24 17 25 18 26 19 27 23 28 20 29 22 30 21 31 31 32 32 33
REMARK SMILES IDX 33 34 34 35 35 36 36 37 37 38 38 39 39 40 40 41 41 42 42 43
REMARK SMILES IDX 106 44 43 45 105 46 44 47 45 48 46 49 99 50 47 51 104 52
REMARK SMILES IDX 98 53 100 54 48 55 103 56 97 57 96 58 49 60 83 61 62 62
REMARK SMILES IDX 82 63 63 64 66 65 81 66 101 67 64 68 65 69 80 71 102 72
REMARK SMILES IDX 67 73 50 74 51 75 60 76 52 77 53 78 59 79 61 80 54 81 55 82
REMARK SMILES IDX 56 83 57 84 58 85 84 86 85 87 94 88 86 89 87 90 93 91 95 92
REMARK SMILES IDX 88 93 89 94 90 95 91 96 92 97 68 98 69 99 78 100 70 101
REMARK SMILES IDX 71 102 77 103 79 104 72 105 73 106 74 107 75 108 76 109
REMARK H PARENT 6 14 100 59 66 70
REMARK Flexibility Score: inf
ROOT
ATOM      1  C   UNL A   1      40.091  21.581  26.024  1.00  0.00     0.188 C 
ENDROOT
BRANCH   1   2
ATOM      2  O   UNL A   1      38.694  21.835  25.927  1.00  0.00    -0.376 OA
BRANCH   2   3
ATOM      3  C   UNL A   1      37.924  20.786  25.356  1.00  0.00     0.202 C 
BRANCH   3   4
ATOM      4  C   UNL A   1      36.609  21.174  24.676  1.00  0.00     0.261 C 
BRANCH   4   5
ATOM      5  O   UNL A   1      35.401  20.716  25.309  1.00  0.00    -0.463 OA
BRANCH   5   6
ATOM      6  C   UNL A   1      34.882  19.536  24.928  1.00  0.00     0.306 C 
ATOM      7  O   UNL A   1      35.609  18.601  24.603  1.00  0.00    -0.252 OA
BRANCH   6   8
ATOM      8  C   UNL A   1      33.367  19.417  24.967  1.00  0.00     0.128 C 
BRANCH   8   9
ATOM      9  C   UNL A   1      32.445  20.245  24.037  1.00  0.00     0.073 C 
BRANCH   9  10
ATOM     10  C   UNL A   1      32.326  21.800  24.042  1.00  0.00     0.262 C 
BRANCH  10  11
ATOM     11  N   UNL A   1      32.724  22.583  25.240  1.00  0.00    -0.334 N 
ATOM     12  C   UNL A   1      31.700  22.935  26.235  1.00  0.00     0.262 C 
ATOM     13  C   UNL A   1      33.414  23.846  24.893  1.00  0.00     0.271 C 
ATOM     14  H   UNL A   1      33.332  21.893  25.683  1.00  0.00     0.348 HD
ATOM     15  C   UNL A   1      30.707  24.040  25.832  1.00  0.00     0.062 C 
ATOM     16  C   UNL A   1      32.536  25.017  24.335  1.00  0.00     0.038 C 
ATOM     17  C   UNL A   1      31.386  25.308  25.325  1.00  0.00     0.020 C 
ATOM     18  C   UNL A   1      31.963  24.650  22.925  1.00  0.00     0.024 C 
ATOM     19  C   UNL A   1      33.465  26.269  24.250  1.00  0.00     0.132 C 
ATOM     20  C   UNL A   1      31.592  25.843  22.054  1.00  0.00     0.101 C 
ATOM     21  N   UNL A   1      32.980  27.290  23.343  1.00  0.00    -0.342 N 
ATOM     22  C   UNL A   1      32.780  26.770  22.065  1.00  0.00     0.222 C 
ATOM     23  O   UNL A   1      33.647  26.752  21.197  1.00  0.00    -0.275 OA
BRANCH  21  24
ATOM     24  C   UNL A   1      32.118  28.366  23.853  1.00  0.00     0.124 C 
BRANCH  24  25
ATOM     25  C   UNL A   1      30.608  28.067  23.759  1.00  0.00     0.057 C 
BRANCH  25  26
ATOM     26  C   UNL A   1      29.721  29.238  23.404  1.00  0.00    -0.046 A 
ATOM     27  C   UNL A   1      29.840  30.430  24.129  1.00  0.00     0.004 A 
ATOM     28  C   UNL A   1      28.774  29.177  22.373  1.00  0.00     0.004 A 
ATOM     29  C   UNL A   1      29.109  31.560  23.765  1.00  0.00     0.000 A 
ATOM     30  C   UNL A   1      28.077  30.321  21.979  1.00  0.00     0.000 A 
ATOM     31  C   UNL A   1      28.253  31.515  22.669  1.00  0.00     0.000 A 
ENDBRANCH  25  26
ENDBRANCH  24  25
ENDBRANCH  21  24
ENDBRANCH  10  11
ENDBRANCH   9  10
ENDBRANCH   8   9
ENDBRANCH   6   8
ENDBRANCH   5   6
ENDBRANCH   4   5
ENDBRANCH   3   4
ENDBRANCH   2   3
ENDBRANCH   1   2
BRANCH   1  32
ATOM     32  C   UNL A   1      40.524  20.170  26.468  1.00  0.00     0.188 C 
BRANCH  32  33
ATOM     33  O   UNL A   1      41.328  19.486  25.514  1.00  0.00    -0.377 OA
BRANCH  33  34
ATOM     34  C   UNL A   1      42.664  19.219  25.945  1.00  0.00     0.188 C 
BRANCH  34  35
ATOM     35  C   UNL A   1      43.794  20.180  25.480  1.00  0.00     0.188 C 
BRANCH  35  36
ATOM     36  O   UNL A   1      43.526  21.501  25.058  1.00  0.00    -0.376 OA
BRANCH  36  37
ATOM     37  C   UNL A   1      43.471  22.592  25.955  1.00  0.00     0.202 C 
BRANCH  37  38
ATOM     38  C   UNL A   1      44.717  23.374  26.414  1.00  0.00     0.261 C 
BRANCH  38  39
ATOM     39  O   UNL A   1      44.470  24.603  27.111  1.00  0.00    -0.460 OA
BRANCH  39  40
ATOM     40  C   UNL A   1      43.795  25.544  26.396  1.00  0.00     0.338 C 
ATOM     41  O   UNL A   1      43.667  25.575  25.190  1.00  0.00    -0.246 OA
BRANCH  40  42
ATOM     42  C   UNL A   1      42.996  26.411  27.306  1.00  0.00     0.060 A 
ATOM     43  C   UNL A   1      43.301  27.782  27.312  1.00  0.00     0.016 A 
ATOM     44  C   UNL A   1      42.010  25.913  28.158  1.00  0.00     0.016 A 
ATOM     45  C   UNL A   1      42.700  28.638  28.231  1.00  0.00     0.010 A 
ATOM     46  C   UNL A   1      41.418  26.771  29.099  1.00  0.00     0.010 A 
ATOM     47  C   UNL A   1      41.818  28.120  29.185  1.00  0.00    -0.014 A 
BRANCH  47  48
ATOM     48  C   UNL A   1      41.597  28.903  30.433  1.00  0.00     0.031 A 
ATOM     49  C   UNL A   1      40.411  29.840  30.464  1.00  0.00     0.074 A 
ATOM     50  C   UNL A   1      42.348  28.733  31.536  1.00  0.00     0.049 A 
ATOM     51  N   UNL A   1      39.983  30.614  31.427  1.00  0.00    -0.248 NA
ATOM     52  C   UNL A   1      39.599  29.910  29.236  1.00  0.00     0.031 C 
ATOM     53  C   UNL A   1      43.480  27.819  31.661  1.00  0.00     0.029 A 
ATOM     54  N   UNL A   1      42.260  29.330  32.772  1.00  0.00    -0.354 N 
ATOM     55  C   UNL A   1      38.867  31.271  30.916  1.00  0.00     0.074 A 
ATOM     56  C   UNL A   1      38.704  30.833  29.548  1.00  0.00     0.031 C 
ATOM     57  C   UNL A   1      43.986  27.919  32.905  1.00  0.00     0.029 A 
ATOM     58  C   UNL A   1      43.229  28.921  33.657  1.00  0.00     0.049 A 
ATOM     59  H   UNL A   1      41.567  29.990  33.001  1.00  0.00     0.167 HD
ATOM     60  C   UNL A   1      38.040  32.151  31.529  1.00  0.00     0.037 A 
ATOM     61  C   UNL A   1      43.481  29.319  34.921  1.00  0.00     0.037 A 
ATOM     62  C   UNL A   1      38.194  32.579  32.894  1.00  0.00     0.049 A 
ATOM     63  C   UNL A   1      42.586  30.353  35.565  1.00  0.00     0.074 A 
ATOM     64  C   UNL A   1      37.400  33.453  33.615  1.00  0.00     0.029 A 
ATOM     65  N   UNL A   1      39.213  32.172  33.742  1.00  0.00    -0.354 N 
ATOM     66  N   UNL A   1      41.525  30.952  35.075  1.00  0.00    -0.248 NA
ATOM     67  C   UNL A   1      42.917  30.757  36.939  1.00  0.00     0.031 C 
ATOM     68  C   UNL A   1      37.975  33.623  34.879  1.00  0.00     0.029 A 
ATOM     69  C   UNL A   1      39.084  32.796  34.970  1.00  0.00     0.049 A 
ATOM     70  H   UNL A   1      39.923  31.532  33.505  1.00  0.00     0.167 HD
ATOM     71  C   UNL A   1      41.039  31.767  36.096  1.00  0.00     0.074 A 
ATOM     72  C   UNL A   1      41.920  31.579  37.230  1.00  0.00     0.031 C 
ATOM     73  C   UNL A   1      39.959  32.589  36.099  1.00  0.00     0.037 A 
BRANCH  60  74
ATOM     74  C   UNL A   1      36.920  32.742  30.715  1.00  0.00     0.058 A 
ATOM     75  C   UNL A   1      37.134  33.773  29.785  1.00  0.00     0.135 A 
ATOM     76  C   UNL A   1      35.611  32.253  30.857  1.00  0.00     0.135 A 
ATOM     77  F   UNL A   1      38.360  34.296  29.624  1.00  0.00    -0.206 F 
ATOM     78  C   UNL A   1      36.086  34.317  29.048  1.00  0.00     0.059 A 
ATOM     79  C   UNL A   1      34.554  32.759  30.106  1.00  0.00     0.059 A 
ATOM     80  F   UNL A   1      35.348  31.273  31.736  1.00  0.00    -0.206 F 
ATOM     81  C   UNL A   1      34.799  33.802  29.215  1.00  0.00     0.060 A 
BRANCH  81  82
ATOM     82  S   UNL A   1      33.451  34.516  28.251  1.00  0.00     0.124 S 
ATOM     83  O   UNL A   1      32.812  33.318  27.715  1.00  0.00    -0.237 OA
ATOM     84  O   UNL A   1      32.693  35.238  29.266  1.00  0.00    -0.237 OA
ATOM     85  O   UNL A   1      34.138  35.351  27.271  1.00  0.00    -0.744 OA
ENDBRANCH  81  82
ENDBRANCH  60  74
BRANCH  61  86
ATOM     86  C   UNL A   1      44.630  28.742  35.677  1.00  0.00     0.058 A 
ATOM     87  C   UNL A   1      45.906  29.323  35.615  1.00  0.00     0.135 A 
ATOM     88  C   UNL A   1      44.482  27.582  36.453  1.00  0.00     0.135 A 
ATOM     89  F   UNL A   1      46.104  30.428  34.881  1.00  0.00    -0.206 F 
ATOM     90  C   UNL A   1      47.000  28.758  36.266  1.00  0.00     0.059 A 
ATOM     91  C   UNL A   1      45.553  27.015  37.137  1.00  0.00     0.059 A 
ATOM     92  F   UNL A   1      43.280  26.993  36.558  1.00  0.00    -0.206 F 
ATOM     93  C   UNL A   1      46.814  27.599  37.020  1.00  0.00     0.060 A 
BRANCH  93  94
ATOM     94  S   UNL A   1      48.236  26.863  37.858  1.00  0.00     0.124 S 
ATOM     95  O   UNL A   1      48.711  25.924  36.848  1.00  0.00    -0.237 OA
ATOM     96  O   UNL A   1      49.093  28.020  38.095  1.00  0.00    -0.237 OA
ATOM     97  O   UNL A   1      47.643  26.262  39.049  1.00  0.00    -0.744 OA
ENDBRANCH  93  94
ENDBRANCH  61  86
BRANCH  73  98
ATOM     98  C   UNL A   1      39.620  33.299  37.384  1.00  0.00     0.058 A 
ATOM     99  C   UNL A   1      38.688  32.790  38.301  1.00  0.00     0.135 A 
ATOM    100  C   UNL A   1      40.276  34.497  37.720  1.00  0.00     0.135 A 
ATOM    101  F   UNL A   1      38.033  31.648  38.036  1.00  0.00    -0.206 F 
ATOM    102  C   UNL A   1      38.385  33.463  39.482  1.00  0.00     0.059 A 
ATOM    103  C   UNL A   1      40.016  35.168  38.911  1.00  0.00     0.059 A 
ATOM    104  F   UNL A   1      41.192  35.023  36.891  1.00  0.00    -0.206 F 
ATOM    105  C   UNL A   1      39.053  34.653  39.777  1.00  0.00     0.060 A 
BRANCH 105 106
ATOM    106  S   UNL A   1      38.653  35.516  41.312  1.00  0.00     0.124 S 
ATOM    107  O   UNL A   1      38.653  36.908  40.874  1.00  0.00    -0.237 OA
ATOM    108  O   UNL A   1      37.347  34.958  41.651  1.00  0.00    -0.237 OA
ATOM    109  O   UNL A   1      39.742  35.139  42.208  1.00  0.00    -0.744 OA
ENDBRANCH 105 106
ENDBRANCH  73  98
ENDBRANCH  47  48
ENDBRANCH  40  42
ENDBRANCH  39  40
ENDBRANCH  38  39
ENDBRANCH  37  38
ENDBRANCH  36  37
ENDBRANCH  35  36
ENDBRANCH  34  35
ENDBRANCH  33  34
ENDBRANCH  32  33
ENDBRANCH   1  32
TORSDOF 29
ENDMDL
MODEL 3
REMARK VINA RESULT:      -9.1      1.879      2.737
REMARK SMILES O=C(CCC[N@@H+]1CCC[C@]2(CCC(=O)N(CCc3ccccc3)C2)C1)OCCOCCOCCOCCOC(=O)c1ccc(-c2c3nc(c(-c4c(F)cc(S(=O)(=O)[O-])cc4F)c4ccc([nH]4)c(-c4c(F)cc(S(=O)(=O)[O-])cc4F)c4nc(c(-c5c(F)cc(S(=O)(=O)[O-])cc5F)c5ccc2[nH]5)C=C4)C=C3)cc1
REMARK SMILES IDX 30 1 29 2 28 3 27 4 26 5 2 6 1 7 3 8 4 9 5 10 6 11 7 12
REMARK SMILES IDX 25 13 8 15 10 16 9 17 11 18 24 19 12 20 15 21 13 22 14 23
REMARK SMILES IDX 16 24 17 25 18 26 19 27 23 28 20 29 22 30 21 31 31 32 32 33
REMARK SMILES IDX 33 34 34 35 35 36 36 37 37 38 38 39 39 40 40 41 41 42 42 43
REMARK SMILES IDX 106 44 43 45 105 46 44 47 45 48 46 49 99 50 47 51 104 52
REMARK SMILES IDX 98 53 100 54 48 55 103 56 97 57 96 58 49 60 83 61 62 62
REMARK SMILES IDX 82 63 63 64 66 65 81 66 101 67 64 68 65 69 80 71 102 72
REMARK SMILES IDX 67 73 50 74 51 75 60 76 52 77 53 78 59 79 61 80 54 81 55 82
REMARK SMILES IDX 56 83 57 84 58 85 84 86 85 87 94 88 86 89 87 90 93 91 95 92
REMARK SMILES IDX 88 93 89 94 90 95 91 96 92 97 68 98 69 99 78 100 70 101
REMARK SMILES IDX 71 102 77 103 79 104 72 105 73 106 74 107 75 108 76 109
REMARK H PARENT 6 14 100 59 66 70
REMARK Flexibility Score: inf
ROOT
ATOM      1  C   UNL A   1      39.396  21.760  25.907  1.00  0.00     0.188 C 
ENDROOT
BRANCH   1   2
ATOM      2  O   UNL A   1      38.081  21.268  25.680  1.00  0.00    -0.376 OA
BRANCH   2   3
ATOM      3  C   UNL A   1      37.995  19.885  25.363  1.00  0.00     0.202 C 
BRANCH   3   4
ATOM      4  C   UNL A   1      36.867  19.450  24.425  1.00  0.00     0.261 C 
BRANCH   4   5
ATOM      5  O   UNL A   1      35.534  19.495  24.965  1.00  0.00    -0.463 OA
BRANCH   5   6
ATOM      6  C   UNL A   1      34.658  18.544  24.596  1.00  0.00     0.306 C 
ATOM      7  O   UNL A   1      34.988  17.362  24.556  1.00  0.00    -0.252 OA
BRANCH   6   8
ATOM      8  C   UNL A   1      33.245  19.008  24.282  1.00  0.00     0.128 C 
BRANCH   8   9
ATOM      9  C   UNL A   1      32.621  20.269  24.930  1.00  0.00     0.073 C 
BRANCH   9  10
ATOM     10  C   UNL A   1      32.848  21.734  24.448  1.00  0.00     0.262 C 
BRANCH  10  11
ATOM     11  N   UNL A   1      33.592  22.700  25.297  1.00  0.00    -0.334 N 
ATOM     12  C   UNL A   1      33.161  22.909  26.688  1.00  0.00     0.262 C 
ATOM     13  C   UNL A   1      33.681  24.047  24.687  1.00  0.00     0.271 C 
ATOM     14  H   UNL A   1      34.487  22.212  25.343  1.00  0.00     0.348 HD
ATOM     15  C   UNL A   1      31.866  23.716  26.888  1.00  0.00     0.062 C 
ATOM     16  C   UNL A   1      32.387  24.929  24.697  1.00  0.00     0.038 C 
ATOM     17  C   UNL A   1      31.864  25.049  26.146  1.00  0.00     0.020 C 
ATOM     18  C   UNL A   1      31.290  24.307  23.770  1.00  0.00     0.024 C 
ATOM     19  C   UNL A   1      32.809  26.344  24.188  1.00  0.00     0.132 C 
ATOM     20  C   UNL A   1      30.253  25.294  23.253  1.00  0.00     0.101 C 
ATOM     21  N   UNL A   1      31.701  27.136  23.693  1.00  0.00    -0.342 N 
ATOM     22  C   UNL A   1      31.017  26.461  22.682  1.00  0.00     0.222 C 
ATOM     23  O   UNL A   1      31.301  26.554  21.492  1.00  0.00    -0.275 OA
BRANCH  21  24
ATOM     24  C   UNL A   1      30.982  28.034  24.607  1.00  0.00     0.124 C 
BRANCH  24  25
ATOM     25  C   UNL A   1      31.021  29.521  24.198  1.00  0.00     0.057 C 
BRANCH  25  26
ATOM     26  C   UNL A   1      29.778  30.054  23.522  1.00  0.00    -0.046 A 
ATOM     27  C   UNL A   1      29.130  31.170  24.067  1.00  0.00     0.004 A 
ATOM     28  C   UNL A   1      29.243  29.472  22.366  1.00  0.00     0.004 A 
ATOM     29  C   UNL A   1      28.040  31.748  23.416  1.00  0.00     0.000 A 
ATOM     30  C   UNL A   1      28.183  30.078  21.689  1.00  0.00     0.000 A 
ATOM     31  C   UNL A   1      27.589  31.222  22.209  1.00  0.00     0.000 A 
ENDBRANCH  25  26
ENDBRANCH  24  25
ENDBRANCH  21  24
ENDBRANCH  10  11
ENDBRANCH   9  10
ENDBRANCH   8   9
ENDBRANCH   6   8
ENDBRANCH   5   6
ENDBRANCH   4   5
ENDBRANCH   3   4
ENDBRANCH   2   3
ENDBRANCH   1   2
BRANCH   1  32
ATOM     32  C   UNL A   1      40.393  20.817  26.607  1.00  0.00     0.188 C 
BRANCH  32  33
ATOM     33  O   UNL A   1      41.355  20.241  25.731  1.00  0.00    -0.377 OA
BRANCH  33  34
ATOM     34  C   UNL A   1      42.693  20.247  26.233  1.00  0.00     0.188 C 
BRANCH  34  35
ATOM     35  C   UNL A   1      43.746  21.138  25.514  1.00  0.00     0.188 C 
BRANCH  35  36
ATOM     36  O   UNL A   1      43.372  22.129  24.577  1.00  0.00    -0.376 OA
BRANCH  36  37
ATOM     37  C   UNL A   1      43.128  23.471  24.944  1.00  0.00     0.202 C 
BRANCH  37  38
ATOM     38  C   UNL A   1      44.222  24.415  25.479  1.00  0.00     0.261 C 
BRANCH  38  39
ATOM     39  O   UNL A   1      43.921  25.101  26.703  1.00  0.00    -0.460 OA
BRANCH  39  40
ATOM     40  C   UNL A   1      44.438  24.529  27.825  1.00  0.00     0.338 C 
ATOM     41  O   UNL A   1      44.990  23.451  27.892  1.00  0.00    -0.246 OA
BRANCH  40  42
ATOM     42  C   UNL A   1      44.474  25.516  28.939  1.00  0.00     0.060 A 
ATOM     43  C   UNL A   1      44.040  25.072  30.199  1.00  0.00     0.016 A 
ATOM     44  C   UNL A   1      44.879  26.841  28.767  1.00  0.00     0.016 A 
ATOM     45  C   UNL A   1      43.911  25.967  31.259  1.00  0.00     0.010 A 
ATOM     46  C   UNL A   1      44.729  27.746  29.830  1.00  0.00     0.010 A 
ATOM     47  C   UNL A   1      44.175  27.325  31.055  1.00  0.00    -0.014 A 
BRANCH  47  48
ATOM     48  C   UNL A   1      43.562  28.307  31.992  1.00  0.00     0.031 A 
ATOM     49  C   UNL A   1      44.270  28.550  33.305  1.00  0.00     0.074 A 
ATOM     50  C   UNL A   1      42.475  29.032  31.671  1.00  0.00     0.049 A 
ATOM     51  N   UNL A   1      43.963  29.363  34.282  1.00  0.00    -0.248 NA
ATOM     52  C   UNL A   1      45.494  27.764  33.544  1.00  0.00     0.031 C 
ATOM     53  C   UNL A   1      41.733  28.941  30.416  1.00  0.00     0.029 A 
ATOM     54  N   UNL A   1      41.809  30.000  32.386  1.00  0.00    -0.354 N 
ATOM     55  C   UNL A   1      44.943  29.174  35.253  1.00  0.00     0.074 A 
ATOM     56  C   UNL A   1      45.834  28.146  34.764  1.00  0.00     0.031 C 
ATOM     57  C   UNL A   1      40.710  29.816  30.451  1.00  0.00     0.029 A 
ATOM     58  C   UNL A   1      40.709  30.511  31.738  1.00  0.00     0.049 A 
ATOM     59  H   UNL A   1      42.094  30.299  33.279  1.00  0.00     0.167 HD
ATOM     60  C   UNL A   1      45.100  29.806  36.440  1.00  0.00     0.037 A 
ATOM     61  C   UNL A   1      39.802  31.423  32.145  1.00  0.00     0.037 A 
ATOM     62  C   UNL A   1      44.222  30.838  36.922  1.00  0.00     0.049 A 
ATOM     63  C   UNL A   1      39.959  32.068  33.503  1.00  0.00     0.074 A 
ATOM     64  C   UNL A   1      44.303  31.554  38.104  1.00  0.00     0.029 A 
ATOM     65  N   UNL A   1      43.096  31.296  36.254  1.00  0.00    -0.354 N 
ATOM     66  N   UNL A   1      40.900  31.892  34.402  1.00  0.00    -0.248 NA
ATOM     67  C   UNL A   1      38.933  33.046  33.897  1.00  0.00     0.031 C 
ATOM     68  C   UNL A   1      43.192  32.401  38.178  1.00  0.00     0.029 A 
ATOM     69  C   UNL A   1      42.460  32.267  37.009  1.00  0.00     0.049 A 
ATOM     70  H   UNL A   1      42.794  30.979  35.372  1.00  0.00     0.167 HD
ATOM     71  C   UNL A   1      40.602  32.769  35.445  1.00  0.00     0.074 A 
ATOM     72  C   UNL A   1      39.398  33.475  35.061  1.00  0.00     0.031 C 
ATOM     73  C   UNL A   1      41.269  32.976  36.609  1.00  0.00     0.037 A 
BRANCH  60  74
ATOM     74  C   UNL A   1      46.242  29.369  37.319  1.00  0.00     0.058 A 
ATOM     75  C   UNL A   1      47.507  29.978  37.260  1.00  0.00     0.135 A 
ATOM     76  C   UNL A   1      46.060  28.332  38.249  1.00  0.00     0.135 A 
ATOM     77  F   UNL A   1      47.746  30.958  36.373  1.00  0.00    -0.206 F 
ATOM     78  C   UNL A   1      48.556  29.555  38.071  1.00  0.00     0.059 A 
ATOM     79  C   UNL A   1      47.085  27.916  39.092  1.00  0.00     0.059 A 
ATOM     80  F   UNL A   1      44.874  27.710  38.344  1.00  0.00    -0.206 F 
ATOM     81  C   UNL A   1      48.335  28.524  38.985  1.00  0.00     0.060 A 
BRANCH  81  82
ATOM     82  S   UNL A   1      49.705  27.988  40.030  1.00  0.00     0.124 S 
ATOM     83  O   UNL A   1      49.819  29.110  40.957  1.00  0.00    -0.237 OA
ATOM     84  O   UNL A   1      49.193  26.746  40.599  1.00  0.00    -0.237 OA
ATOM     85  O   UNL A   1      50.812  27.836  39.091  1.00  0.00    -0.744 OA
ENDBRANCH  81  82
ENDBRANCH  60  74
BRANCH  61  86
ATOM     86  C   UNL A   1      38.659  31.794  31.262  1.00  0.00     0.058 A 
ATOM     87  C   UNL A   1      38.794  32.783  30.276  1.00  0.00     0.135 A 
ATOM     88  C   UNL A   1      37.401  31.189  31.407  1.00  0.00     0.135 A 
ATOM     89  F   UNL A   1      39.973  33.399  30.101  1.00  0.00    -0.206 F 
ATOM     90  C   UNL A   1      37.717  33.183  29.488  1.00  0.00     0.059 A 
ATOM     91  C   UNL A   1      36.317  31.549  30.611  1.00  0.00     0.059 A 
ATOM     92  F   UNL A   1      37.219  30.227  32.326  1.00  0.00    -0.206 F 
ATOM     93  C   UNL A   1      36.480  32.563  29.668  1.00  0.00     0.060 A 
BRANCH  93  94
ATOM     94  S   UNL A   1      35.083  33.088  28.649  1.00  0.00     0.124 S 
ATOM     95  O   UNL A   1      33.963  32.850  29.553  1.00  0.00    -0.237 OA
ATOM     96  O   UNL A   1      35.396  34.489  28.386  1.00  0.00    -0.237 OA
ATOM     97  O   UNL A   1      35.162  32.196  27.496  1.00  0.00    -0.744 OA
ENDBRANCH  93  94
ENDBRANCH  61  86
BRANCH  73  98
ATOM     98  C   UNL A   1      40.758  34.056  37.528  1.00  0.00     0.058 A 
ATOM     99  C   UNL A   1      39.745  33.822  38.471  1.00  0.00     0.135 A 
ATOM    100  C   UNL A   1      41.326  35.341  37.488  1.00  0.00     0.135 A 
ATOM    101  F   UNL A   1      39.167  32.613  38.557  1.00  0.00    -0.206 F 
ATOM    102  C   UNL A   1      39.282  34.833  39.309  1.00  0.00     0.059 A 
ATOM    103  C   UNL A   1      40.904  36.357  38.341  1.00  0.00     0.059 A 
ATOM    104  F   UNL A   1      42.313  35.619  36.620  1.00  0.00    -0.206 F 
ATOM    105  C   UNL A   1      39.867  36.098  39.234  1.00  0.00     0.060 A 
BRANCH 105 106
ATOM    106  S   UNL A   1      39.260  37.402  40.327  1.00  0.00     0.124 S 
ATOM    107  O   UNL A   1      38.437  38.189  39.415  1.00  0.00    -0.237 OA
ATOM    108  O   UNL A   1      38.534  36.644  41.342  1.00  0.00    -0.237 OA
ATOM    109  O   UNL A   1      40.481  38.053  40.792  1.00  0.00    -0.744 OA
ENDBRANCH 105 106
ENDBRANCH  73  98
ENDBRANCH  47  48
ENDBRANCH  40  42
ENDBRANCH  39  40
ENDBRANCH  38  39
ENDBRANCH  37  38
ENDBRANCH  36  37
ENDBRANCH  35  36
ENDBRANCH  34  35
ENDBRANCH  33  34
ENDBRANCH  32  33
ENDBRANCH   1  32
TORSDOF 29
ENDMDL
