MODEL 1
REMARK VINA RESULT:      -9.8      0.000      0.000
REMARK SMILES Cc1ccc(NC(=O)c2ccccc2NC(=O)[C@H]2CCCC[C@H]2C(=O)OCCOCCOCCOCCOC(=O)c2ccc(-c3c4nc(c(-c5c(F)cc(S(=O)(=O)[O-])cc5F)c5ccc([nH]5)c(-c5c(F)cc(S(=O)(=O)[O-])cc5F)c5nc(c(-c6c(F)cc(S(=O)(=O)[O-])cc6F)c6ccc3[nH]6)C=C5)C=C4)cc2)cc1
REMARK SMILES IDX 31 1 30 2 29 3 28 4 27 5 26 6 24 7 25 8 23 9 18 10 19 11
REMARK SMILES IDX 20 12 22 13 21 14 16 15 15 16 17 18 14 19 9 20 10 21 11 22
REMARK SMILES IDX 13 23 12 24 7 25 6 26 8 28 5 29 1 30 2 31 3 32 108 33 4 34
REMARK SMILES IDX 107 35 32 36 33 37 34 38 35 39 36 40 37 41 38 42 39 43 40 44
REMARK SMILES IDX 41 45 42 46 106 47 43 48 105 49 44 50 45 51 46 52 99 53
REMARK SMILES IDX 47 54 104 55 98 56 100 57 48 58 103 59 97 60 96 61 49 63
REMARK SMILES IDX 83 64 62 65 82 66 63 67 66 68 81 69 101 70 64 71 65 72 80 74
REMARK SMILES IDX 102 75 67 76 50 77 51 78 60 79 52 80 53 81 59 82 61 83 54 84
REMARK SMILES IDX 55 85 56 86 57 87 58 88 84 89 85 90 94 91 86 92 87 93 93 94
REMARK SMILES IDX 95 95 88 96 89 97 90 98 91 99 92 100 68 101 69 102 78 103
REMARK SMILES IDX 70 104 71 105 77 106 79 107 72 108 73 109 74 110 75 111
REMARK SMILES IDX 76 112
REMARK H PARENT 15 17 6 27 100 62 66 73
REMARK Flexibility Score: inf
ROOT
ATOM      1  C   UNL A   1      39.168  21.761  26.055  1.00  0.00     0.188 C 
ENDROOT
BRANCH   1   2
ATOM      2  C   UNL A   1      38.135  22.658  25.364  1.00  0.00     0.188 C 
BRANCH   2   3
ATOM      3  O   UNL A   1      37.589  23.778  26.011  1.00  0.00    -0.376 OA
BRANCH   3   4
ATOM      4  C   UNL A   1      36.180  23.889  26.083  1.00  0.00     0.202 C 
BRANCH   4   5
ATOM      5  C   UNL A   1      35.333  22.853  26.796  1.00  0.00     0.261 C 
BRANCH   5   6
ATOM      6  O   UNL A   1      34.505  22.139  25.859  1.00  0.00    -0.463 OA
BRANCH   6   7
ATOM      7  C   UNL A   1      33.927  21.036  26.345  1.00  0.00     0.309 C 
ATOM      8  O   UNL A   1      33.576  20.879  27.513  1.00  0.00    -0.252 OA
BRANCH   7   9
ATOM      9  C   UNL A   1      33.785  19.923  25.345  1.00  0.00     0.111 C 
ATOM     10  C   UNL A   1      32.458  19.733  24.563  1.00  0.00     0.093 C 
ATOM     11  C   UNL A   1      32.398  18.223  24.234  1.00  0.00     0.014 C 
ATOM     12  C   UNL A   1      33.702  17.685  23.606  1.00  0.00     0.001 C 
ATOM     13  C   UNL A   1      35.063  19.543  24.616  1.00  0.00     0.016 C 
ATOM     14  C   UNL A   1      34.989  18.040  24.356  1.00  0.00     0.001 C 
BRANCH  10  15
ATOM     15  C   UNL A   1      32.158  20.510  23.255  1.00  0.00     0.228 C 
ATOM     16  N   UNL A   1      31.785  21.850  23.176  1.00  0.00    -0.325 N 
ATOM     17  H   UNL A   1      31.471  22.076  22.270  1.00  0.00     0.169 HD
ATOM     18  O   UNL A   1      32.128  19.882  22.187  1.00  0.00    -0.274 OA
BRANCH  16  19
ATOM     19  C   UNL A   1      31.728  22.998  24.040  1.00  0.00     0.054 A 
ATOM     20  C   UNL A   1      32.519  24.181  23.836  1.00  0.00     0.063 A 
ATOM     21  C   UNL A   1      32.634  25.123  24.901  1.00  0.00     0.016 A 
ATOM     22  C   UNL A   1      31.973  24.968  26.109  1.00  0.00     0.001 A 
ATOM     23  C   UNL A   1      30.961  22.969  25.214  1.00  0.00     0.027 A 
ATOM     24  C   UNL A   1      31.105  23.907  26.247  1.00  0.00     0.002 A 
BRANCH  20  25
ATOM     25  C   UNL A   1      33.350  24.639  22.660  1.00  0.00     0.257 C 
ATOM     26  N   UNL A   1      33.309  25.887  22.101  1.00  0.00    -0.322 N 
ATOM     27  H   UNL A   1      33.654  25.938  21.180  1.00  0.00     0.170 HD
ATOM     28  O   UNL A   1      34.181  23.863  22.181  1.00  0.00    -0.269 OA
BRANCH  26  29
ATOM     29  C   UNL A   1      32.860  27.093  22.621  1.00  0.00     0.041 A 
ATOM     30  C   UNL A   1      31.230  30.235  24.997  1.00  0.00     0.044 C 
ATOM     31  C   UNL A   1      31.798  29.202  24.078  1.00  0.00    -0.051 A 
ATOM     32  C   UNL A   1      33.181  29.014  24.028  1.00  0.00     0.005 A 
ATOM     33  C   UNL A   1      30.963  28.408  23.283  1.00  0.00     0.005 A 
ATOM     34  C   UNL A   1      33.714  27.972  23.282  1.00  0.00     0.026 A 
ATOM     35  C   UNL A   1      31.500  27.369  22.529  1.00  0.00     0.026 A 
ENDBRANCH  26  29
ENDBRANCH  20  25
ENDBRANCH  16  19
ENDBRANCH  10  15
ENDBRANCH   7   9
ENDBRANCH   6   7
ENDBRANCH   5   6
ENDBRANCH   4   5
ENDBRANCH   3   4
ENDBRANCH   2   3
ENDBRANCH   1   2
BRANCH   1  36
ATOM     36  O   UNL A   1      40.318  22.318  26.661  1.00  0.00    -0.377 OA
BRANCH  36  37
ATOM     37  C   UNL A   1      41.461  21.484  26.870  1.00  0.00     0.188 C 
BRANCH  37  38
ATOM     38  C   UNL A   1      41.285  19.985  26.975  1.00  0.00     0.188 C 
BRANCH  38  39
ATOM     39  O   UNL A   1      41.662  19.378  25.742  1.00  0.00    -0.376 OA
BRANCH  39  40
ATOM     40  C   UNL A   1      42.968  18.824  25.757  1.00  0.00     0.202 C 
BRANCH  40  41
ATOM     41  C   UNL A   1      43.958  19.581  24.869  1.00  0.00     0.261 C 
BRANCH  41  42
ATOM     42  O   UNL A   1      44.273  20.849  25.479  1.00  0.00    -0.460 OA
BRANCH  42  43
ATOM     43  C   UNL A   1      44.700  21.815  24.607  1.00  0.00     0.338 C 
ATOM     44  O   UNL A   1      44.413  21.825  23.436  1.00  0.00    -0.246 OA
BRANCH  43  45
ATOM     45  C   UNL A   1      45.486  22.866  25.329  1.00  0.00     0.060 A 
ATOM     46  C   UNL A   1      45.662  22.821  26.720  1.00  0.00     0.016 A 
ATOM     47  C   UNL A   1      45.934  23.978  24.634  1.00  0.00     0.016 A 
ATOM     48  C   UNL A   1      46.141  23.949  27.421  1.00  0.00     0.010 A 
ATOM     49  C   UNL A   1      46.333  25.102  25.334  1.00  0.00     0.010 A 
ATOM     50  C   UNL A   1      46.414  25.127  26.736  1.00  0.00    -0.014 A 
BRANCH  50  51
ATOM     51  C   UNL A   1      46.694  26.459  27.326  1.00  0.00     0.031 A 
ATOM     52  C   UNL A   1      45.531  27.276  27.813  1.00  0.00     0.074 A 
ATOM     53  C   UNL A   1      47.946  26.744  27.782  1.00  0.00     0.049 A 
ATOM     54  N   UNL A   1      45.633  28.332  28.541  1.00  0.00    -0.248 NA
ATOM     55  C   UNL A   1      44.126  26.916  27.599  1.00  0.00     0.031 C 
ATOM     56  C   UNL A   1      48.319  27.646  28.882  1.00  0.00     0.029 A 
ATOM     57  N   UNL A   1      49.187  26.261  27.363  1.00  0.00    -0.354 N 
ATOM     58  C   UNL A   1      44.426  28.572  29.165  1.00  0.00     0.074 A 
ATOM     59  C   UNL A   1      43.497  27.709  28.480  1.00  0.00     0.031 C 
ATOM     60  C   UNL A   1      49.650  27.785  28.961  1.00  0.00     0.029 A 
ATOM     61  C   UNL A   1      50.172  27.194  27.755  1.00  0.00     0.049 A 
ATOM     62  H   UNL A   1      49.347  25.418  26.879  1.00  0.00     0.167 HD
ATOM     63  C   UNL A   1      44.417  29.389  30.264  1.00  0.00     0.037 A 
ATOM     64  C   UNL A   1      50.801  27.928  26.788  1.00  0.00     0.037 A 
ATOM     65  C   UNL A   1      45.700  30.108  30.385  1.00  0.00     0.049 A 
ATOM     66  C   UNL A   1      50.359  29.375  26.869  1.00  0.00     0.074 A 
ATOM     67  C   UNL A   1      46.665  30.276  31.363  1.00  0.00     0.029 A 
ATOM     68  N   UNL A   1      46.230  30.695  29.235  1.00  0.00    -0.354 N 
ATOM     69  N   UNL A   1      49.169  29.744  27.280  1.00  0.00    -0.248 NA
ATOM     70  C   UNL A   1      51.279  30.503  26.744  1.00  0.00     0.031 C 
ATOM     71  C   UNL A   1      47.839  30.800  30.733  1.00  0.00     0.029 A 
ATOM     72  C   UNL A   1      47.551  31.040  29.396  1.00  0.00     0.049 A 
ATOM     73  H   UNL A   1      45.718  30.845  28.407  1.00  0.00     0.167 HD
ATOM     74  C   UNL A   1      49.202  31.069  27.611  1.00  0.00     0.074 A 
ATOM     75  C   UNL A   1      50.524  31.517  27.203  1.00  0.00     0.031 C 
ATOM     76  C   UNL A   1      48.245  31.733  28.322  1.00  0.00     0.037 A 
BRANCH  63  77
ATOM     77  C   UNL A   1      43.309  29.487  31.313  1.00  0.00     0.058 A 
ATOM     78  C   UNL A   1      42.755  30.744  31.653  1.00  0.00     0.135 A 
ATOM     79  C   UNL A   1      42.812  28.413  32.088  1.00  0.00     0.135 A 
ATOM     80  F   UNL A   1      43.141  31.865  31.027  1.00  0.00    -0.206 F 
ATOM     81  C   UNL A   1      41.788  30.920  32.652  1.00  0.00     0.059 A 
ATOM     82  C   UNL A   1      41.808  28.558  33.061  1.00  0.00     0.059 A 
ATOM     83  F   UNL A   1      43.308  27.175  31.975  1.00  0.00    -0.206 F 
ATOM     84  C   UNL A   1      41.305  29.820  33.344  1.00  0.00     0.060 A 
BRANCH  84  85
ATOM     85  S   UNL A   1      40.015  30.062  34.586  1.00  0.00     0.124 S 
ATOM     86  O   UNL A   1      39.887  31.516  34.614  1.00  0.00    -0.237 OA
ATOM     87  O   UNL A   1      38.887  29.338  34.009  1.00  0.00    -0.237 OA
ATOM     88  O   UNL A   1      40.583  29.465  35.791  1.00  0.00    -0.744 OA
ENDBRANCH  84  85
ENDBRANCH  63  77
BRANCH  64  89
ATOM     89  C   UNL A   1      51.160  27.043  25.635  1.00  0.00     0.058 A 
ATOM     90  C   UNL A   1      50.392  27.303  24.477  1.00  0.00     0.135 A 
ATOM     91  C   UNL A   1      52.470  26.574  25.433  1.00  0.00     0.135 A 
ATOM     92  F   UNL A   1      49.124  27.728  24.602  1.00  0.00    -0.206 F 
ATOM     93  C   UNL A   1      50.970  27.374  23.217  1.00  0.00     0.059 A 
ATOM     94  C   UNL A   1      53.053  26.581  24.155  1.00  0.00     0.059 A 
ATOM     95  F   UNL A   1      53.257  26.293  26.481  1.00  0.00    -0.206 F 
ATOM     96  C   UNL A   1      52.321  27.083  23.080  1.00  0.00     0.060 A 
BRANCH  96  97
ATOM     97  S   UNL A   1      53.113  27.558  21.523  1.00  0.00     0.124 S 
ATOM     98  O   UNL A   1      53.958  28.668  21.952  1.00  0.00    -0.237 OA
ATOM     99  O   UNL A   1      53.802  26.316  21.177  1.00  0.00    -0.237 OA
ATOM    100  O   UNL A   1      51.985  27.917  20.672  1.00  0.00    -0.744 OA
ENDBRANCH  96  97
ENDBRANCH  64  89
BRANCH  76 101
ATOM    101  C   UNL A   1      47.826  33.143  27.975  1.00  0.00     0.058 A 
ATOM    102  C   UNL A   1      46.877  33.434  26.979  1.00  0.00     0.135 A 
ATOM    103  C   UNL A   1      48.203  34.236  28.797  1.00  0.00     0.135 A 
ATOM    104  F   UNL A   1      46.355  32.481  26.196  1.00  0.00    -0.206 F 
ATOM    105  C   UNL A   1      46.387  34.717  26.772  1.00  0.00     0.059 A 
ATOM    106  C   UNL A   1      47.675  35.512  28.648  1.00  0.00     0.059 A 
ATOM    107  F   UNL A   1      49.081  34.101  29.802  1.00  0.00    -0.206 F 
ATOM    108  C   UNL A   1      46.793  35.749  27.609  1.00  0.00     0.060 A 
BRANCH 108 109
ATOM    109  S   UNL A   1      46.147  37.399  27.322  1.00  0.00     0.124 S 
ATOM    110  O   UNL A   1      46.450  37.578  25.905  1.00  0.00    -0.237 OA
ATOM    111  O   UNL A   1      44.733  37.247  27.652  1.00  0.00    -0.237 OA
ATOM    112  O   UNL A   1      46.914  38.231  28.243  1.00  0.00    -0.744 OA
ENDBRANCH 108 109
ENDBRANCH  76 101
ENDBRANCH  50  51
ENDBRANCH  43  45
ENDBRANCH  42  43
ENDBRANCH  41  42
ENDBRANCH  40  41
ENDBRANCH  39  40
ENDBRANCH  38  39
ENDBRANCH  37  38
ENDBRANCH  36  37
ENDBRANCH   1  36
TORSDOF 27
ENDMDL
MODEL 2
REMARK VINA RESULT:      -9.6      3.595      7.802
REMARK SMILES Cc1ccc(NC(=O)c2ccccc2NC(=O)[C@H]2CCCC[C@H]2C(=O)OCCOCCOCCOCCOC(=O)c2ccc(-c3c4nc(c(-c5c(F)cc(S(=O)(=O)[O-])cc5F)c5ccc([nH]5)c(-c5c(F)cc(S(=O)(=O)[O-])cc5F)c5nc(c(-c6c(F)cc(S(=O)(=O)[O-])cc6F)c6ccc3[nH]6)C=C5)C=C4)cc2)cc1
REMARK SMILES IDX 31 1 30 2 29 3 28 4 27 5 26 6 24 7 25 8 23 9 18 10 19 11
REMARK SMILES IDX 20 12 22 13 21 14 16 15 15 16 17 18 14 19 9 20 10 21 11 22
REMARK SMILES IDX 13 23 12 24 7 25 6 26 8 28 5 29 1 30 2 31 3 32 108 33 4 34
REMARK SMILES IDX 107 35 32 36 33 37 34 38 35 39 36 40 37 41 38 42 39 43 40 44
REMARK SMILES IDX 41 45 42 46 106 47 43 48 105 49 44 50 45 51 46 52 99 53
REMARK SMILES IDX 47 54 104 55 98 56 100 57 48 58 103 59 97 60 96 61 49 63
REMARK SMILES IDX 83 64 62 65 82 66 63 67 66 68 81 69 101 70 64 71 65 72 80 74
REMARK SMILES IDX 102 75 67 76 50 77 51 78 60 79 52 80 53 81 59 82 61 83 54 84
REMARK SMILES IDX 55 85 56 86 57 87 58 88 84 89 85 90 94 91 86 92 87 93 93 94
REMARK SMILES IDX 95 95 88 96 89 97 90 98 91 99 92 100 68 101 69 102 78 103
REMARK SMILES IDX 70 104 71 105 77 106 79 107 72 108 73 109 74 110 75 111
REMARK SMILES IDX 76 112
REMARK H PARENT 15 17 6 27 100 62 66 73
REMARK Flexibility Score: inf
ROOT
ATOM      1  C   UNL A   1      38.630  21.488  25.711  1.00  0.00     0.188 C 
ENDROOT
BRANCH   1   2
ATOM      2  C   UNL A   1      37.754  22.485  24.945  1.00  0.00     0.188 C 
BRANCH   2   3
ATOM      3  O   UNL A   1      37.394  23.722  25.503  1.00  0.00    -0.376 OA
BRANCH   3   4
ATOM      4  C   UNL A   1      36.020  23.988  25.711  1.00  0.00     0.202 C 
BRANCH   4   5
ATOM      5  C   UNL A   1      35.178  23.149  26.653  1.00  0.00     0.261 C 
BRANCH   5   6
ATOM      6  O   UNL A   1      34.194  22.394  25.922  1.00  0.00    -0.463 OA
BRANCH   6   7
ATOM      7  C   UNL A   1      33.879  21.211  26.461  1.00  0.00     0.309 C 
ATOM      8  O   UNL A   1      33.749  20.996  27.664  1.00  0.00    -0.252 OA
BRANCH   7   9
ATOM      9  C   UNL A   1      33.751  20.095  25.463  1.00  0.00     0.111 C 
ATOM     10  C   UNL A   1      32.441  19.910  24.653  1.00  0.00     0.093 C 
ATOM     11  C   UNL A   1      32.378  18.400  24.329  1.00  0.00     0.014 C 
ATOM     12  C   UNL A   1      33.691  17.850  23.732  1.00  0.00     0.001 C 
ATOM     13  C   UNL A   1      35.042  19.703  24.764  1.00  0.00     0.016 C 
ATOM     14  C   UNL A   1      34.963  18.200  24.509  1.00  0.00     0.001 C 
BRANCH  10  15
ATOM     15  C   UNL A   1      32.174  20.683  23.334  1.00  0.00     0.228 C 
ATOM     16  N   UNL A   1      31.808  22.024  23.242  1.00  0.00    -0.325 N 
ATOM     17  H   UNL A   1      31.516  22.247  22.328  1.00  0.00     0.169 HD
ATOM     18  O   UNL A   1      32.169  20.052  22.268  1.00  0.00    -0.274 OA
BRANCH  16  19
ATOM     19  C   UNL A   1      31.731  23.175  24.101  1.00  0.00     0.054 A 
ATOM     20  C   UNL A   1      32.555  24.342  23.932  1.00  0.00     0.063 A 
ATOM     21  C   UNL A   1      32.638  25.284  24.999  1.00  0.00     0.016 A 
ATOM     22  C   UNL A   1      31.918  25.146  26.175  1.00  0.00     0.001 A 
ATOM     23  C   UNL A   1      30.909  23.165  25.236  1.00  0.00     0.027 A 
ATOM     24  C   UNL A   1      31.023  24.103  26.274  1.00  0.00     0.002 A 
BRANCH  20  25
ATOM     25  C   UNL A   1      33.450  24.780  22.796  1.00  0.00     0.257 C 
ATOM     26  N   UNL A   1      33.241  25.875  22.003  1.00  0.00    -0.322 N 
ATOM     27  H   UNL A   1      33.710  25.852  21.137  1.00  0.00     0.170 HD
ATOM     28  O   UNL A   1      34.489  24.150  22.581  1.00  0.00    -0.269 OA
BRANCH  26  29
ATOM     29  C   UNL A   1      32.477  27.013  22.219  1.00  0.00     0.041 A 
ATOM     30  C   UNL A   1      29.924  30.065  23.751  1.00  0.00     0.044 C 
ATOM     31  C   UNL A   1      30.809  29.042  23.115  1.00  0.00    -0.051 A 
ATOM     32  C   UNL A   1      32.196  29.191  23.194  1.00  0.00     0.005 A 
ATOM     33  C   UNL A   1      30.270  27.928  22.461  1.00  0.00     0.005 A 
ATOM     34  C   UNL A   1      33.031  28.185  22.726  1.00  0.00     0.026 A 
ATOM     35  C   UNL A   1      31.109  26.925  21.985  1.00  0.00     0.026 A 
ENDBRANCH  26  29
ENDBRANCH  20  25
ENDBRANCH  16  19
ENDBRANCH  10  15
ENDBRANCH   7   9
ENDBRANCH   6   7
ENDBRANCH   5   6
ENDBRANCH   4   5
ENDBRANCH   3   4
ENDBRANCH   2   3
ENDBRANCH   1   2
BRANCH   1  36
ATOM     36  O   UNL A   1      39.697  21.938  26.522  1.00  0.00    -0.377 OA
BRANCH  36  37
ATOM     37  C   UNL A   1      40.840  21.095  26.691  1.00  0.00     0.188 C 
BRANCH  37  38
ATOM     38  C   UNL A   1      40.738  19.621  26.362  1.00  0.00     0.188 C 
BRANCH  38  39
ATOM     39  O   UNL A   1      41.688  19.297  25.349  1.00  0.00    -0.376 OA
BRANCH  39  40
ATOM     40  C   UNL A   1      42.848  18.648  25.845  1.00  0.00     0.202 C 
BRANCH  40  41
ATOM     41  C   UNL A   1      44.151  19.258  25.325  1.00  0.00     0.261 C 
BRANCH  41  42
ATOM     42  O   UNL A   1      44.261  20.618  25.790  1.00  0.00    -0.460 OA
BRANCH  42  43
ATOM     43  C   UNL A   1      44.635  21.524  24.832  1.00  0.00     0.338 C 
ATOM     44  O   UNL A   1      44.652  21.274  23.654  1.00  0.00    -0.246 OA
BRANCH  43  45
ATOM     45  C   UNL A   1      44.932  22.854  25.454  1.00  0.00     0.060 A 
ATOM     46  C   UNL A   1      45.281  23.965  24.674  1.00  0.00     0.016 A 
ATOM     47  C   UNL A   1      44.998  22.959  26.835  1.00  0.00     0.016 A 
ATOM     48  C   UNL A   1      45.840  25.117  25.271  1.00  0.00     0.010 A 
ATOM     49  C   UNL A   1      45.612  24.060  27.404  1.00  0.00     0.010 A 
ATOM     50  C   UNL A   1      46.075  25.144  26.640  1.00  0.00    -0.014 A 
BRANCH  50  51
ATOM     51  C   UNL A   1      46.856  26.155  27.393  1.00  0.00     0.031 A 
ATOM     52  C   UNL A   1      48.320  25.898  27.612  1.00  0.00     0.074 A 
ATOM     53  C   UNL A   1      46.378  27.425  27.510  1.00  0.00     0.049 A 
ATOM     54  N   UNL A   1      49.160  26.774  28.040  1.00  0.00    -0.248 NA
ATOM     55  C   UNL A   1      48.995  24.642  27.273  1.00  0.00     0.031 C 
ATOM     56  C   UNL A   1      47.151  28.671  27.630  1.00  0.00     0.029 A 
ATOM     57  N   UNL A   1      45.063  27.893  27.526  1.00  0.00    -0.354 N 
ATOM     58  C   UNL A   1      50.439  26.375  27.713  1.00  0.00     0.074 A 
ATOM     59  C   UNL A   1      50.288  25.000  27.309  1.00  0.00     0.031 C 
ATOM     60  C   UNL A   1      46.346  29.717  27.863  1.00  0.00     0.029 A 
ATOM     61  C   UNL A   1      45.056  29.152  28.166  1.00  0.00     0.049 A 
ATOM     62  H   UNL A   1      44.278  27.426  27.158  1.00  0.00     0.167 HD
ATOM     63  C   UNL A   1      51.433  27.317  27.718  1.00  0.00     0.037 A 
ATOM     64  C   UNL A   1      44.477  29.257  29.400  1.00  0.00     0.037 A 
ATOM     65  C   UNL A   1      50.973  28.552  28.384  1.00  0.00     0.049 A 
ATOM     66  C   UNL A   1      45.544  29.480  30.452  1.00  0.00     0.074 A 
ATOM     67  C   UNL A   1      50.908  29.897  28.064  1.00  0.00     0.029 A 
ATOM     68  N   UNL A   1      50.292  28.424  29.596  1.00  0.00    -0.354 N 
ATOM     69  N   UNL A   1      46.764  29.006  30.356  1.00  0.00    -0.248 NA
ATOM     70  C   UNL A   1      45.406  30.443  31.543  1.00  0.00     0.031 C 
ATOM     71  C   UNL A   1      50.028  30.528  29.001  1.00  0.00     0.029 A 
ATOM     72  C   UNL A   1      49.639  29.584  29.943  1.00  0.00     0.049 A 
ATOM     73  H   UNL A   1      50.281  27.603  30.137  1.00  0.00     0.167 HD
ATOM     74  C   UNL A   1      47.575  29.681  31.224  1.00  0.00     0.074 A 
ATOM     75  C   UNL A   1      46.673  30.526  31.989  1.00  0.00     0.031 C 
ATOM     76  C   UNL A   1      48.939  29.657  31.215  1.00  0.00     0.037 A 
BRANCH  63  77
ATOM     77  C   UNL A   1      52.798  27.202  27.040  1.00  0.00     0.058 A 
ATOM     78  C   UNL A   1      52.888  26.915  25.657  1.00  0.00     0.135 A 
ATOM     79  C   UNL A   1      54.051  27.265  27.695  1.00  0.00     0.135 A 
ATOM     80  F   UNL A   1      51.788  26.798  24.900  1.00  0.00    -0.206 F 
ATOM     81  C   UNL A   1      54.102  26.727  24.982  1.00  0.00     0.059 A 
ATOM     82  C   UNL A   1      55.281  27.128  27.030  1.00  0.00     0.059 A 
ATOM     83  F   UNL A   1      54.144  27.416  29.022  1.00  0.00    -0.206 F 
ATOM     84  C   UNL A   1      55.299  26.850  25.671  1.00  0.00     0.060 A 
BRANCH  84  85
ATOM     85  S   UNL A   1      56.853  26.662  24.769  1.00  0.00     0.124 S 
ATOM     86  O   UNL A   1      57.627  27.801  25.253  1.00  0.00    -0.237 OA
ATOM     87  O   UNL A   1      57.313  25.349  25.210  1.00  0.00    -0.237 OA
ATOM     88  O   UNL A   1      56.447  26.736  23.368  1.00  0.00    -0.744 OA
ENDBRANCH  84  85
ENDBRANCH  63  77
BRANCH  64  89
ATOM     89  C   UNL A   1      43.180  28.509  29.416  1.00  0.00     0.058 A 
ATOM     90  C   UNL A   1      42.251  28.992  28.466  1.00  0.00     0.135 A 
ATOM     91  C   UNL A   1      43.112  27.140  29.729  1.00  0.00     0.135 A 
ATOM     92  F   UNL A   1      42.247  30.295  28.142  1.00  0.00    -0.206 F 
ATOM     93  C   UNL A   1      41.505  28.131  27.671  1.00  0.00     0.059 A 
ATOM     94  C   UNL A   1      42.317  26.263  28.974  1.00  0.00     0.059 A 
ATOM     95  F   UNL A   1      43.952  26.610  30.629  1.00  0.00    -0.206 F 
ATOM     96  C   UNL A   1      41.604  26.763  27.885  1.00  0.00     0.060 A 
BRANCH  96  97
ATOM     97  S   UNL A   1      40.936  25.677  26.600  1.00  0.00     0.124 S 
ATOM     98  O   UNL A   1      41.169  26.470  25.397  1.00  0.00    -0.237 OA
ATOM     99  O   UNL A   1      41.782  24.498  26.773  1.00  0.00    -0.237 OA
ATOM    100  O   UNL A   1      39.540  25.519  26.990  1.00  0.00    -0.744 OA
ENDBRANCH  96  97
ENDBRANCH  64  89
BRANCH  76 101
ATOM    101  C   UNL A   1      49.745  29.621  32.493  1.00  0.00     0.058 A 
ATOM    102  C   UNL A   1      49.980  28.438  33.215  1.00  0.00     0.135 A 
ATOM    103  C   UNL A   1      50.500  30.749  32.907  1.00  0.00     0.135 A 
ATOM    104  F   UNL A   1      49.415  27.273  32.873  1.00  0.00    -0.206 F 
ATOM    105  C   UNL A   1      50.846  28.388  34.301  1.00  0.00     0.059 A 
ATOM    106  C   UNL A   1      51.419  30.703  33.949  1.00  0.00     0.059 A 
ATOM    107  F   UNL A   1      50.397  31.938  32.295  1.00  0.00    -0.206 F 
ATOM    108  C   UNL A   1      51.558  29.525  34.661  1.00  0.00     0.060 A 
BRANCH 108 109
ATOM    109  S   UNL A   1      52.671  29.439  36.067  1.00  0.00     0.124 S 
ATOM    110  O   UNL A   1      53.116  30.827  36.159  1.00  0.00    -0.237 OA
ATOM    111  O   UNL A   1      51.791  28.986  37.140  1.00  0.00    -0.237 OA
ATOM    112  O   UNL A   1      53.682  28.477  35.644  1.00  0.00    -0.744 OA
ENDBRANCH 108 109
ENDBRANCH  76 101
ENDBRANCH  50  51
ENDBRANCH  43  45
ENDBRANCH  42  43
ENDBRANCH  41  42
ENDBRANCH  40  41
ENDBRANCH  39  40
ENDBRANCH  38  39
ENDBRANCH  37  38
ENDBRANCH  36  37
ENDBRANCH   1  36
TORSDOF 27
ENDMDL
MODEL 3
REMARK VINA RESULT:      -9.2      3.828      8.798
REMARK SMILES Cc1ccc(NC(=O)c2ccccc2NC(=O)[C@H]2CCCC[C@H]2C(=O)OCCOCCOCCOCCOC(=O)c2ccc(-c3c4nc(c(-c5c(F)cc(S(=O)(=O)[O-])cc5F)c5ccc([nH]5)c(-c5c(F)cc(S(=O)(=O)[O-])cc5F)c5nc(c(-c6c(F)cc(S(=O)(=O)[O-])cc6F)c6ccc3[nH]6)C=C5)C=C4)cc2)cc1
REMARK SMILES IDX 31 1 30 2 29 3 28 4 27 5 26 6 24 7 25 8 23 9 18 10 19 11
REMARK SMILES IDX 20 12 22 13 21 14 16 15 15 16 17 18 14 19 9 20 10 21 11 22
REMARK SMILES IDX 13 23 12 24 7 25 6 26 8 28 5 29 1 30 2 31 3 32 108 33 4 34
REMARK SMILES IDX 107 35 32 36 33 37 34 38 35 39 36 40 37 41 38 42 39 43 40 44
REMARK SMILES IDX 41 45 42 46 106 47 43 48 105 49 44 50 45 51 46 52 99 53
REMARK SMILES IDX 47 54 104 55 98 56 100 57 48 58 103 59 97 60 96 61 49 63
REMARK SMILES IDX 83 64 62 65 82 66 63 67 66 68 81 69 101 70 64 71 65 72 80 74
REMARK SMILES IDX 102 75 67 76 50 77 51 78 60 79 52 80 53 81 59 82 61 83 54 84
REMARK SMILES IDX 55 85 56 86 57 87 58 88 84 89 85 90 94 91 86 92 87 93 93 94
REMARK SMILES IDX 95 95 88 96 89 97 90 98 91 99 92 100 68 101 69 102 78 103
REMARK SMILES IDX 70 104 71 105 77 106 79 107 72 108 73 109 74 110 75 111
REMARK SMILES IDX 76 112
REMARK H PARENT 15 17 6 27 100 62 66 73
REMARK Flexibility Score: inf
ROOT
ATOM      1  C   UNL A   1      38.254  21.527  25.555  1.00  0.00     0.188 C 
ENDROOT
BRANCH   1   2
ATOM      2  C   UNL A   1      37.400  22.378  24.608  1.00  0.00     0.188 C 
BRANCH   2   3
ATOM      3  O   UNL A   1      36.823  23.586  25.031  1.00  0.00    -0.376 OA
BRANCH   3   4
ATOM      4  C   UNL A   1      35.434  23.770  24.829  1.00  0.00     0.202 C 
BRANCH   4   5
ATOM      5  C   UNL A   1      34.897  24.839  23.897  1.00  0.00     0.261 C 
BRANCH   5   6
ATOM      6  O   UNL A   1      33.878  25.619  24.549  1.00  0.00    -0.463 OA
BRANCH   6   7
ATOM      7  C   UNL A   1      33.773  26.881  24.120  1.00  0.00     0.309 C 
ATOM      8  O   UNL A   1      34.061  27.267  22.989  1.00  0.00    -0.252 OA
BRANCH   7   9
ATOM      9  C   UNL A   1      33.324  27.854  25.173  1.00  0.00     0.111 C 
ATOM     10  C   UNL A   1      31.829  27.936  25.580  1.00  0.00     0.093 C 
ATOM     11  C   UNL A   1      31.624  29.390  26.065  1.00  0.00     0.014 C 
ATOM     12  C   UNL A   1      32.688  29.848  27.086  1.00  0.00     0.001 C 
ATOM     13  C   UNL A   1      34.342  28.141  26.264  1.00  0.00     0.016 C 
ATOM     14  C   UNL A   1      34.142  29.597  26.677  1.00  0.00     0.001 C 
BRANCH  10  15
ATOM     15  C   UNL A   1      31.217  26.996  26.651  1.00  0.00     0.228 C 
ATOM     16  N   UNL A   1      30.795  25.686  26.433  1.00  0.00    -0.325 N 
ATOM     17  H   UNL A   1      30.277  25.350  27.200  1.00  0.00     0.169 HD
ATOM     18  O   UNL A   1      30.966  27.458  27.773  1.00  0.00    -0.274 OA
BRANCH  16  19
ATOM     19  C   UNL A   1      30.898  24.685  25.405  1.00  0.00     0.054 A 
ATOM     20  C   UNL A   1      31.618  23.452  25.572  1.00  0.00     0.063 A 
ATOM     21  C   UNL A   1      31.933  22.678  24.417  1.00  0.00     0.016 A 
ATOM     22  C   UNL A   1      31.529  23.041  23.142  1.00  0.00     0.001 A 
ATOM     23  C   UNL A   1      30.381  24.924  24.123  1.00  0.00     0.027 A 
ATOM     24  C   UNL A   1      30.718  24.147  23.004  1.00  0.00     0.002 A 
BRANCH  20  25
ATOM     25  C   UNL A   1      32.192  22.787  26.802  1.00  0.00     0.257 C 
ATOM     26  N   UNL A   1      32.615  21.488  26.872  1.00  0.00    -0.322 N 
ATOM     27  H   UNL A   1      32.661  21.119  27.784  1.00  0.00     0.170 HD
ATOM     28  O   UNL A   1      32.356  23.463  27.821  1.00  0.00    -0.269 OA
BRANCH  26  29
ATOM     29  C   UNL A   1      32.989  20.605  25.869  1.00  0.00     0.041 A 
ATOM     30  C   UNL A   1      34.380  17.307  23.553  1.00  0.00     0.044 C 
ATOM     31  C   UNL A   1      33.897  18.525  24.274  1.00  0.00    -0.051 A 
ATOM     32  C   UNL A   1      32.526  18.704  24.475  1.00  0.00     0.005 A 
ATOM     33  C   UNL A   1      34.798  19.475  24.766  1.00  0.00     0.005 A 
ATOM     34  C   UNL A   1      32.071  19.758  25.256  1.00  0.00     0.026 A 
ATOM     35  C   UNL A   1      34.339  20.536  25.542  1.00  0.00     0.026 A 
ENDBRANCH  26  29
ENDBRANCH  20  25
ENDBRANCH  16  19
ENDBRANCH  10  15
ENDBRANCH   7   9
ENDBRANCH   6   7
ENDBRANCH   5   6
ENDBRANCH   4   5
ENDBRANCH   3   4
ENDBRANCH   2   3
ENDBRANCH   1   2
BRANCH   1  36
ATOM     36  O   UNL A   1      39.361  22.089  26.232  1.00  0.00    -0.377 OA
BRANCH  36  37
ATOM     37  C   UNL A   1      40.513  21.275  26.466  1.00  0.00     0.188 C 
BRANCH  37  38
ATOM     38  C   UNL A   1      40.443  19.786  26.208  1.00  0.00     0.188 C 
BRANCH  38  39
ATOM     39  O   UNL A   1      41.470  19.417  25.291  1.00  0.00    -0.376 OA
BRANCH  39  40
ATOM     40  C   UNL A   1      42.564  18.750  25.900  1.00  0.00     0.202 C 
BRANCH  40  41
ATOM     41  C   UNL A   1      43.925  19.289  25.454  1.00  0.00     0.261 C 
BRANCH  41  42
ATOM     42  O   UNL A   1      44.054  20.663  25.868  1.00  0.00    -0.460 OA
BRANCH  42  43
ATOM     43  C   UNL A   1      44.559  21.505  24.911  1.00  0.00     0.338 C 
ATOM     44  O   UNL A   1      44.675  21.198  23.752  1.00  0.00    -0.246 OA
BRANCH  43  45
ATOM     45  C   UNL A   1      44.858  22.850  25.500  1.00  0.00     0.060 A 
ATOM     46  C   UNL A   1      45.260  23.927  24.697  1.00  0.00     0.016 A 
ATOM     47  C   UNL A   1      44.873  23.001  26.878  1.00  0.00     0.016 A 
ATOM     48  C   UNL A   1      45.818  25.088  25.278  1.00  0.00     0.010 A 
ATOM     49  C   UNL A   1      45.485  24.109  27.434  1.00  0.00     0.010 A 
ATOM     50  C   UNL A   1      46.000  25.157  26.654  1.00  0.00    -0.014 A 
BRANCH  50  51
ATOM     51  C   UNL A   1      46.772  26.178  27.403  1.00  0.00     0.031 A 
ATOM     52  C   UNL A   1      48.241  25.944  27.609  1.00  0.00     0.074 A 
ATOM     53  C   UNL A   1      46.274  27.440  27.527  1.00  0.00     0.049 A 
ATOM     54  N   UNL A   1      49.071  26.832  28.033  1.00  0.00    -0.248 NA
ATOM     55  C   UNL A   1      48.933  24.699  27.261  1.00  0.00     0.031 C 
ATOM     56  C   UNL A   1      47.028  28.697  27.645  1.00  0.00     0.029 A 
ATOM     57  N   UNL A   1      44.952  27.887  27.556  1.00  0.00    -0.354 N 
ATOM     58  C   UNL A   1      50.353  26.453  27.694  1.00  0.00     0.074 A 
ATOM     59  C   UNL A   1      50.220  25.078  27.287  1.00  0.00     0.031 C 
ATOM     60  C   UNL A   1      46.209  29.730  27.887  1.00  0.00     0.029 A 
ATOM     61  C   UNL A   1      44.931  29.144  28.200  1.00  0.00     0.049 A 
ATOM     62  H   UNL A   1      44.171  27.409  27.193  1.00  0.00     0.167 HD
ATOM     63  C   UNL A   1      51.332  27.411  27.693  1.00  0.00     0.037 A 
ATOM     64  C   UNL A   1      44.360  29.237  29.439  1.00  0.00     0.037 A 
ATOM     65  C   UNL A   1      50.858  28.637  28.366  1.00  0.00     0.049 A 
ATOM     66  C   UNL A   1      45.433  29.474  30.483  1.00  0.00     0.074 A 
ATOM     67  C   UNL A   1      50.769  29.982  28.051  1.00  0.00     0.029 A 
ATOM     68  N   UNL A   1      50.189  28.495  29.583  1.00  0.00    -0.354 N 
ATOM     69  N   UNL A   1      46.659  29.019  30.375  1.00  0.00    -0.248 NA
ATOM     70  C   UNL A   1      45.289  30.431  31.578  1.00  0.00     0.031 C 
ATOM     71  C   UNL A   1      49.887  30.596  28.997  1.00  0.00     0.029 A 
ATOM     72  C   UNL A   1      49.521  29.643  29.939  1.00  0.00     0.049 A 
ATOM     73  H   UNL A   1      50.196  27.672  30.123  1.00  0.00     0.167 HD
ATOM     74  C   UNL A   1      47.466  29.704  31.238  1.00  0.00     0.074 A 
ATOM     75  C   UNL A   1      46.558  30.533  32.013  1.00  0.00     0.031 C 
ATOM     76  C   UNL A   1      48.831  29.701  31.218  1.00  0.00     0.037 A 
BRANCH  63  77
ATOM     77  C   UNL A   1      52.693  27.319  27.004  1.00  0.00     0.058 A 
ATOM     78  C   UNL A   1      53.760  26.620  27.616  1.00  0.00     0.135 A 
ATOM     79  C   UNL A   1      53.050  27.965  25.797  1.00  0.00     0.135 A 
ATOM     80  F   UNL A   1      53.590  25.975  28.779  1.00  0.00    -0.206 F 
ATOM     81  C   UNL A   1      55.052  26.551  27.078  1.00  0.00     0.059 A 
ATOM     82  C   UNL A   1      54.325  27.870  25.214  1.00  0.00     0.059 A 
ATOM     83  F   UNL A   1      52.193  28.762  25.145  1.00  0.00    -0.206 F 
ATOM     84  C   UNL A   1      55.326  27.166  25.866  1.00  0.00     0.060 A 
BRANCH  84  85
ATOM     85  S   UNL A   1      56.983  27.014  25.162  1.00  0.00     0.124 S 
ATOM     86  O   UNL A   1      57.651  26.154  26.133  1.00  0.00    -0.237 OA
ATOM     87  O   UNL A   1      56.714  26.410  23.860  1.00  0.00    -0.237 OA
ATOM     88  O   UNL A   1      57.464  28.392  25.116  1.00  0.00    -0.744 OA
ENDBRANCH  84  85
ENDBRANCH  63  77
BRANCH  64  89
ATOM     89  C   UNL A   1      43.076  28.468  29.463  1.00  0.00     0.058 A 
ATOM     90  C   UNL A   1      42.124  28.952  28.537  1.00  0.00     0.135 A 
ATOM     91  C   UNL A   1      43.034  27.093  29.754  1.00  0.00     0.135 A 
ATOM     92  F   UNL A   1      42.095  30.260  28.235  1.00  0.00    -0.206 F 
ATOM     93  C   UNL A   1      41.378  28.093  27.740  1.00  0.00     0.059 A 
ATOM     94  C   UNL A   1      42.240  26.216  28.998  1.00  0.00     0.059 A 
ATOM     95  F   UNL A   1      43.897  26.562  30.632  1.00  0.00    -0.206 F 
ATOM     96  C   UNL A   1      41.501  26.723  27.929  1.00  0.00     0.060 A 
BRANCH  96  97
ATOM     97  S   UNL A   1      40.829  25.648  26.637  1.00  0.00     0.124 S 
ATOM     98  O   UNL A   1      41.684  24.472  26.762  1.00  0.00    -0.237 OA
ATOM     99  O   UNL A   1      39.450  25.498  27.098  1.00  0.00    -0.237 OA
ATOM    100  O   UNL A   1      41.011  26.433  25.423  1.00  0.00    -0.744 OA
ENDBRANCH  96  97
ENDBRANCH  64  89
BRANCH  76 101
ATOM    101  C   UNL A   1      49.648  29.675  32.489  1.00  0.00     0.058 A 
ATOM    102  C   UNL A   1      50.249  30.822  33.035  1.00  0.00     0.135 A 
ATOM    103  C   UNL A   1      49.659  28.526  33.321  1.00  0.00     0.135 A 
ATOM    104  F   UNL A   1      50.224  32.005  32.405  1.00  0.00    -0.206 F 
ATOM    105  C   UNL A   1      50.867  30.818  34.279  1.00  0.00     0.059 A 
ATOM    106  C   UNL A   1      50.214  28.519  34.595  1.00  0.00     0.059 A 
ATOM    107  F   UNL A   1      49.101  27.366  32.942  1.00  0.00    -0.206 F 
ATOM    108  C   UNL A   1      50.847  29.663  35.050  1.00  0.00     0.060 A 
BRANCH 108 109
ATOM    109  S   UNL A   1      51.652  29.680  36.654  1.00  0.00     0.124 S 
ATOM    110  O   UNL A   1      52.182  28.320  36.717  1.00  0.00    -0.237 OA
ATOM    111  O   UNL A   1      52.645  30.738  36.499  1.00  0.00    -0.237 OA
ATOM    112  O   UNL A   1      50.565  29.978  37.579  1.00  0.00    -0.744 OA
ENDBRANCH 108 109
ENDBRANCH  76 101
ENDBRANCH  50  51
ENDBRANCH  43  45
ENDBRANCH  42  43
ENDBRANCH  41  42
ENDBRANCH  40  41
ENDBRANCH  39  40
ENDBRANCH  38  39
ENDBRANCH  37  38
ENDBRANCH  36  37
ENDBRANCH   1  36
TORSDOF 27
ENDMDL
