MODEL 1
REMARK VINA RESULT:      -8.8      0.000      0.000
REMARK SMILES O=C(OCCOCCOCCOCCOC(=O)[C@H]1C[C@H]2CCCC[C@@H]2[N@@H+]1CC[C@@H]1CCCO1)c1ccc(-c2c3nc(c(-c4c(F)cc(S(=O)(=O)[O-])cc4F)c4ccc([nH]4)c(-c4c(F)cc(S(=O)(=O)[O-])cc4F)c4nc(c(-c5c(F)cc(S(=O)(=O)[O-])cc5F)c5ccc2[nH]5)C=C4)C=C3)cc1
REMARK SMILES IDX 9 1 8 2 7 3 6 4 5 5 4 6 3 7 2 8 1 9 34 10 35 11 99 12 36 13
REMARK SMILES IDX 98 14 37 15 38 16 39 17 92 18 40 19 97 20 91 21 93 22 41 23
REMARK SMILES IDX 96 24 90 25 89 26 42 28 76 29 55 30 75 31 56 32 59 33 74 34
REMARK SMILES IDX 94 35 57 36 58 37 73 39 95 40 60 41 43 42 44 43 53 44 45 45
REMARK SMILES IDX 46 46 52 47 54 48 47 49 48 50 49 51 50 52 51 53 77 54 78 55
REMARK SMILES IDX 87 56 79 57 80 58 86 59 88 60 81 61 82 62 83 63 84 64 85 65
REMARK SMILES IDX 61 66 62 67 71 68 63 69 64 70 70 71 72 72 65 73 66 74 67 75
REMARK SMILES IDX 68 76 69 77 10 78 11 79 12 80 13 81 14 82 15 83 16 84 17 85
REMARK SMILES IDX 18 86 19 87 26 88 20 89 25 90 21 92 24 93 22 94 23 95 27 96
REMARK SMILES IDX 28 97 29 98 30 99 33 100 31 101 32 102
REMARK H PARENT 93 27 59 38 26 91
REMARK Flexibility Score: inf
ROOT
ATOM      1  O   UNL A   1      43.725  42.326  25.858  1.00  0.00    -0.377 OA
ENDROOT
BRANCH   1   2
ATOM      2  C   UNL A   1      44.386  41.144  26.282  1.00  0.00     0.188 C 
BRANCH   2   3
ATOM      3  C   UNL A   1      45.896  41.278  26.453  1.00  0.00     0.188 C 
BRANCH   3   4
ATOM      4  O   UNL A   1      46.223  41.322  27.837  1.00  0.00    -0.376 OA
BRANCH   4   5
ATOM      5  C   UNL A   1      45.899  40.199  28.644  1.00  0.00     0.202 C 
BRANCH   5   6
ATOM      6  C   UNL A   1      46.934  39.078  28.637  1.00  0.00     0.261 C 
BRANCH   6   7
ATOM      7  O   UNL A   1      46.798  38.154  27.547  1.00  0.00    -0.460 OA
BRANCH   7   8
ATOM      8  C   UNL A   1      47.598  37.119  27.193  1.00  0.00     0.338 C 
ATOM      9  O   UNL A   1      48.714  37.390  26.746  1.00  0.00    -0.246 OA
BRANCH   8  10
ATOM     10  C   UNL A   1      47.220  35.674  27.274  1.00  0.00     0.060 A 
ATOM     11  C   UNL A   1      46.873  34.863  26.196  1.00  0.00     0.016 A 
ATOM     12  C   UNL A   1      47.329  35.062  28.534  1.00  0.00     0.016 A 
ATOM     13  C   UNL A   1      46.624  33.512  26.334  1.00  0.00     0.010 A 
ATOM     14  C   UNL A   1      47.082  33.694  28.693  1.00  0.00     0.010 A 
ATOM     15  C   UNL A   1      46.722  32.925  27.583  1.00  0.00    -0.014 A 
BRANCH  15  16
ATOM     16  C   UNL A   1      46.264  31.537  27.692  1.00  0.00     0.031 A 
ATOM     17  C   UNL A   1      47.262  30.468  27.392  1.00  0.00     0.074 A 
ATOM     18  C   UNL A   1      45.047  31.276  28.200  1.00  0.00     0.049 A 
ATOM     19  N   UNL A   1      47.086  29.183  27.294  1.00  0.00    -0.248 NA
ATOM     20  C   UNL A   1      48.659  30.904  27.191  1.00  0.00     0.031 C 
ATOM     21  C   UNL A   1      44.102  32.284  28.694  1.00  0.00     0.029 A 
ATOM     22  N   UNL A   1      44.402  30.089  28.406  1.00  0.00    -0.354 N 
ATOM     23  C   UNL A   1      48.330  28.666  26.957  1.00  0.00     0.074 A 
ATOM     24  C   UNL A   1      49.264  29.763  26.901  1.00  0.00     0.031 C 
ATOM     25  C   UNL A   1      42.990  31.670  29.129  1.00  0.00     0.029 A 
ATOM     26  C   UNL A   1      43.113  30.243  28.860  1.00  0.00     0.049 A 
ATOM     27  H   UNL A   1      44.818  29.211  28.246  1.00  0.00     0.167 HD
ATOM     28  C   UNL A   1      48.632  27.378  26.693  1.00  0.00     0.037 A 
ATOM     29  C   UNL A   1      42.130  29.330  28.962  1.00  0.00     0.037 A 
ATOM     30  C   UNL A   1      47.658  26.327  26.785  1.00  0.00     0.049 A 
ATOM     31  C   UNL A   1      42.465  27.920  28.550  1.00  0.00     0.074 A 
ATOM     32  C   UNL A   1      47.811  24.983  26.514  1.00  0.00     0.029 A 
ATOM     33  N   UNL A   1      46.338  26.519  27.178  1.00  0.00    -0.354 N 
ATOM     34  N   UNL A   1      43.624  27.428  28.171  1.00  0.00    -0.248 NA
ATOM     35  C   UNL A   1      41.368  26.947  28.546  1.00  0.00     0.031 C 
ATOM     36  C   UNL A   1      46.564  24.373  26.681  1.00  0.00     0.029 A 
ATOM     37  C   UNL A   1      45.651  25.324  27.116  1.00  0.00     0.049 A 
ATOM     38  H   UNL A   1      45.952  27.379  27.459  1.00  0.00     0.167 HD
ATOM     39  C   UNL A   1      43.398  26.087  27.891  1.00  0.00     0.074 A 
ATOM     40  C   UNL A   1      41.997  25.840  28.175  1.00  0.00     0.031 C 
ATOM     41  C   UNL A   1      44.254  25.143  27.428  1.00  0.00     0.037 A 
BRANCH  28  42
ATOM     42  C   UNL A   1      50.008  27.070  26.189  1.00  0.00     0.058 A 
ATOM     43  C   UNL A   1      50.333  27.071  24.825  1.00  0.00     0.135 A 
ATOM     44  C   UNL A   1      51.031  26.785  27.108  1.00  0.00     0.135 A 
ATOM     45  F   UNL A   1      49.382  27.288  23.902  1.00  0.00    -0.206 F 
ATOM     46  C   UNL A   1      51.629  26.811  24.390  1.00  0.00     0.059 A 
ATOM     47  C   UNL A   1      52.337  26.545  26.697  1.00  0.00     0.059 A 
ATOM     48  F   UNL A   1      50.764  26.738  28.422  1.00  0.00    -0.206 F 
ATOM     49  C   UNL A   1      52.627  26.562  25.336  1.00  0.00     0.060 A 
BRANCH  49  50
ATOM     50  S   UNL A   1      54.314  26.292  24.754  1.00  0.00     0.124 S 
ATOM     51  O   UNL A   1      54.113  26.152  23.318  1.00  0.00    -0.237 OA
ATOM     52  O   UNL A   1      54.989  27.507  25.188  1.00  0.00    -0.237 OA
ATOM     53  O   UNL A   1      54.721  25.068  25.451  1.00  0.00    -0.744 OA
ENDBRANCH  49  50
ENDBRANCH  28  42
BRANCH  29  54
ATOM     54  C   UNL A   1      40.743  29.730  29.337  1.00  0.00     0.058 A 
ATOM     55  C   UNL A   1      40.398  30.029  30.662  1.00  0.00     0.135 A 
ATOM     56  C   UNL A   1      39.715  29.768  28.377  1.00  0.00     0.135 A 
ATOM     57  F   UNL A   1      41.335  30.004  31.622  1.00  0.00    -0.206 F 
ATOM     58  C   UNL A   1      39.083  30.310  31.031  1.00  0.00     0.059 A 
ATOM     59  C   UNL A   1      38.402  30.081  28.714  1.00  0.00     0.059 A 
ATOM     60  F   UNL A   1      39.982  29.501  27.090  1.00  0.00    -0.206 F 
ATOM     61  C   UNL A   1      38.091  30.325  30.048  1.00  0.00     0.060 A 
BRANCH  61  62
ATOM     62  S   UNL A   1      36.385  30.659  30.538  1.00  0.00     0.124 S 
ATOM     63  O   UNL A   1      35.656  30.289  29.332  1.00  0.00    -0.237 OA
ATOM     64  O   UNL A   1      36.215  29.774  31.686  1.00  0.00    -0.237 OA
ATOM     65  O   UNL A   1      36.399  32.085  30.853  1.00  0.00    -0.744 OA
ENDBRANCH  61  62
ENDBRANCH  29  54
BRANCH  41  66
ATOM     66  C   UNL A   1      43.698  23.767  27.223  1.00  0.00     0.058 A 
ATOM     67  C   UNL A   1      43.631  22.845  28.277  1.00  0.00     0.135 A 
ATOM     68  C   UNL A   1      43.141  23.408  25.986  1.00  0.00     0.135 A 
ATOM     69  F   UNL A   1      44.160  23.145  29.474  1.00  0.00    -0.206 F 
ATOM     70  C   UNL A   1      43.035  21.603  28.108  1.00  0.00     0.059 A 
ATOM     71  C   UNL A   1      42.510  22.186  25.805  1.00  0.00     0.059 A 
ATOM     72  F   UNL A   1      43.173  24.267  24.954  1.00  0.00    -0.206 F 
ATOM     73  C   UNL A   1      42.468  21.288  26.871  1.00  0.00     0.060 A 
BRANCH  73  74
ATOM     74  S   UNL A   1      41.635  19.701  26.689  1.00  0.00     0.124 S 
ATOM     75  O   UNL A   1      42.651  18.777  27.181  1.00  0.00    -0.237 OA
ATOM     76  O   UNL A   1      40.461  19.866  27.541  1.00  0.00    -0.237 OA
ATOM     77  O   UNL A   1      41.357  19.625  25.257  1.00  0.00    -0.744 OA
ENDBRANCH  73  74
ENDBRANCH  41  66
ENDBRANCH  15  16
ENDBRANCH   8  10
ENDBRANCH   7   8
ENDBRANCH   6   7
ENDBRANCH   5   6
ENDBRANCH   4   5
ENDBRANCH   3   4
ENDBRANCH   2   3
ENDBRANCH   1   2
BRANCH   1  78
ATOM     78  C   UNL A   1      44.434  43.161  24.948  1.00  0.00     0.188 C 
BRANCH  78  79
ATOM     79  C   UNL A   1      44.397  42.863  23.430  1.00  0.00     0.188 C 
BRANCH  79  80
ATOM     80  O   UNL A   1      43.262  43.372  22.772  1.00  0.00    -0.376 OA
BRANCH  80  81
ATOM     81  C   UNL A   1      43.227  43.361  21.355  1.00  0.00     0.202 C 
BRANCH  81  82
ATOM     82  C   UNL A   1      42.153  42.640  20.501  1.00  0.00     0.261 C 
BRANCH  82  83
ATOM     83  O   UNL A   1      42.075  42.894  19.087  1.00  0.00    -0.459 OA
BRANCH  83  84
ATOM     84  C   UNL A   1      42.118  44.188  18.668  1.00  0.00     0.365 C 
ATOM     85  O   UNL A   1      41.208  44.988  18.852  1.00  0.00    -0.245 OA
BRANCH  84  86
ATOM     86  C   UNL A   1      43.494  44.526  17.985  1.00  0.00     0.295 C 
ATOM     87  C   UNL A   1      43.149  45.243  16.674  1.00  0.00     0.087 C 
ATOM     88  N   UNL A   1      44.292  45.517  18.792  1.00  0.00    -0.320 N 
ATOM     89  C   UNL A   1      43.538  46.692  16.927  1.00  0.00     0.054 C 
ATOM     90  C   UNL A   1      43.734  46.811  18.429  1.00  0.00     0.188 C 
ATOM     91  H   UNL A   1      44.183  45.317  19.786  1.00  0.00     0.349 HD
ATOM     92  C   UNL A   1      42.616  47.800  16.461  1.00  0.00     0.010 C 
ATOM     93  C   UNL A   1      44.443  48.097  18.832  1.00  0.00     0.065 C 
ATOM     94  C   UNL A   1      43.279  49.149  16.780  1.00  0.00     0.001 C 
ATOM     95  C   UNL A   1      43.718  49.312  18.245  1.00  0.00     0.006 C 
BRANCH  88  96
ATOM     96  C   UNL A   1      45.763  45.399  18.834  1.00  0.00     0.265 C 
BRANCH  96  97
ATOM     97  C   UNL A   1      46.658  45.887  19.994  1.00  0.00     0.093 C 
BRANCH  97  98
ATOM     98  C   UNL A   1      47.700  44.959  20.647  1.00  0.00     0.123 C 
ATOM     99  C   UNL A   1      48.965  44.627  19.863  1.00  0.00     0.034 C 
ATOM    100  O   UNL A   1      47.165  43.716  21.083  1.00  0.00    -0.378 OA
ATOM    101  C   UNL A   1      49.244  43.165  20.169  1.00  0.00     0.031 C 
ATOM    102  C   UNL A   1      48.244  42.800  21.238  1.00  0.00     0.160 C 
ENDBRANCH  97  98
ENDBRANCH  96  97
ENDBRANCH  88  96
ENDBRANCH  84  86
ENDBRANCH  83  84
ENDBRANCH  82  83
ENDBRANCH  81  82
ENDBRANCH  80  81
ENDBRANCH  79  80
ENDBRANCH  78  79
ENDBRANCH   1  78
TORSDOF 26
ENDMDL
MODEL 2
REMARK VINA RESULT:      -8.7      6.674     17.948
REMARK SMILES O=C(OCCOCCOCCOCCOC(=O)[C@H]1C[C@H]2CCCC[C@@H]2[N@@H+]1CC[C@@H]1CCCO1)c1ccc(-c2c3nc(c(-c4c(F)cc(S(=O)(=O)[O-])cc4F)c4ccc([nH]4)c(-c4c(F)cc(S(=O)(=O)[O-])cc4F)c4nc(c(-c5c(F)cc(S(=O)(=O)[O-])cc5F)c5ccc2[nH]5)C=C4)C=C3)cc1
REMARK SMILES IDX 9 1 8 2 7 3 6 4 5 5 4 6 3 7 2 8 1 9 34 10 35 11 99 12 36 13
REMARK SMILES IDX 98 14 37 15 38 16 39 17 92 18 40 19 97 20 91 21 93 22 41 23
REMARK SMILES IDX 96 24 90 25 89 26 42 28 76 29 55 30 75 31 56 32 59 33 74 34
REMARK SMILES IDX 94 35 57 36 58 37 73 39 95 40 60 41 43 42 44 43 53 44 45 45
REMARK SMILES IDX 46 46 52 47 54 48 47 49 48 50 49 51 50 52 51 53 77 54 78 55
REMARK SMILES IDX 87 56 79 57 80 58 86 59 88 60 81 61 82 62 83 63 84 64 85 65
REMARK SMILES IDX 61 66 62 67 71 68 63 69 64 70 70 71 72 72 65 73 66 74 67 75
REMARK SMILES IDX 68 76 69 77 10 78 11 79 12 80 13 81 14 82 15 83 16 84 17 85
REMARK SMILES IDX 18 86 19 87 26 88 20 89 25 90 21 92 24 93 22 94 23 95 27 96
REMARK SMILES IDX 28 97 29 98 30 99 33 100 31 101 32 102
REMARK H PARENT 93 27 59 38 26 91
REMARK Flexibility Score: inf
ROOT
ATOM      1  O   UNL A   1      42.314  22.430  27.765  1.00  0.00    -0.377 OA
ENDROOT
BRANCH   1   2
ATOM      2  C   UNL A   1      42.580  23.440  26.805  1.00  0.00     0.188 C 
BRANCH   2   3
ATOM      3  C   UNL A   1      43.033  22.929  25.442  1.00  0.00     0.188 C 
BRANCH   3   4
ATOM      4  O   UNL A   1      43.971  21.872  25.610  1.00  0.00    -0.376 OA
BRANCH   4   5
ATOM      5  C   UNL A   1      45.193  21.933  24.888  1.00  0.00     0.202 C 
BRANCH   5   6
ATOM      6  C   UNL A   1      45.289  23.070  23.876  1.00  0.00     0.261 C 
BRANCH   6   7
ATOM      7  O   UNL A   1      46.221  24.102  24.232  1.00  0.00    -0.460 OA
BRANCH   7   8
ATOM      8  C   UNL A   1      46.611  24.522  25.461  1.00  0.00     0.338 C 
ATOM      9  O   UNL A   1      47.152  23.697  26.199  1.00  0.00    -0.246 OA
BRANCH   8  10
ATOM     10  C   UNL A   1      46.408  25.902  26.001  1.00  0.00     0.060 A 
ATOM     11  C   UNL A   1      45.742  26.939  25.352  1.00  0.00     0.016 A 
ATOM     12  C   UNL A   1      46.835  26.134  27.319  1.00  0.00     0.016 A 
ATOM     13  C   UNL A   1      45.513  28.162  25.950  1.00  0.00     0.010 A 
ATOM     14  C   UNL A   1      46.609  27.365  27.942  1.00  0.00     0.010 A 
ATOM     15  C   UNL A   1      45.950  28.381  27.244  1.00  0.00    -0.014 A 
BRANCH  15  16
ATOM     16  C   UNL A   1      45.842  29.752  27.748  1.00  0.00     0.031 A 
ATOM     17  C   UNL A   1      44.648  30.076  28.584  1.00  0.00     0.074 A 
ATOM     18  C   UNL A   1      46.870  30.604  27.586  1.00  0.00     0.049 A 
ATOM     19  N   UNL A   1      44.253  31.227  29.043  1.00  0.00    -0.248 NA
ATOM     20  C   UNL A   1      43.784  28.942  28.971  1.00  0.00     0.031 C 
ATOM     21  C   UNL A   1      48.148  30.276  26.944  1.00  0.00     0.029 A 
ATOM     22  N   UNL A   1      47.015  31.910  27.963  1.00  0.00    -0.354 N 
ATOM     23  C   UNL A   1      43.066  30.968  29.715  1.00  0.00     0.074 A 
ATOM     24  C   UNL A   1      42.816  29.549  29.640  1.00  0.00     0.031 C 
ATOM     25  C   UNL A   1      48.938  31.360  26.957  1.00  0.00     0.029 A 
ATOM     26  C   UNL A   1      48.189  32.474  27.523  1.00  0.00     0.049 A 
ATOM     27  H   UNL A   1      46.346  32.398  28.495  1.00  0.00     0.167 HD
ATOM     28  C   UNL A   1      42.256  31.866  30.313  1.00  0.00     0.037 A 
ATOM     29  C   UNL A   1      48.564  33.766  27.515  1.00  0.00     0.037 A 
ATOM     30  C   UNL A   1      42.571  33.265  30.370  1.00  0.00     0.049 A 
ATOM     31  C   UNL A   1      47.587  34.762  28.087  1.00  0.00     0.074 A 
ATOM     32  C   UNL A   1      41.830  34.295  30.911  1.00  0.00     0.029 A 
ATOM     33  N   UNL A   1      43.734  33.824  29.854  1.00  0.00    -0.354 N 
ATOM     34  N   UNL A   1      46.432  34.536  28.673  1.00  0.00    -0.248 NA
ATOM     35  C   UNL A   1      47.938  36.181  27.974  1.00  0.00     0.031 C 
ATOM     36  C   UNL A   1      42.517  35.487  30.664  1.00  0.00     0.029 A 
ATOM     37  C   UNL A   1      43.714  35.193  30.025  1.00  0.00     0.049 A 
ATOM     38  H   UNL A   1      44.465  33.319  29.431  1.00  0.00     0.167 HD
ATOM     39  C   UNL A   1      45.922  35.783  29.006  1.00  0.00     0.074 A 
ATOM     40  C   UNL A   1      46.910  36.757  28.582  1.00  0.00     0.031 C 
ATOM     41  C   UNL A   1      44.742  36.108  29.591  1.00  0.00     0.037 A 
BRANCH  28  42
ATOM     42  C   UNL A   1      40.940  31.381  30.838  1.00  0.00     0.058 A 
ATOM     43  C   UNL A   1      39.722  31.659  30.201  1.00  0.00     0.135 A 
ATOM     44  C   UNL A   1      40.907  30.600  32.005  1.00  0.00     0.135 A 
ATOM     45  F   UNL A   1      39.690  32.441  29.111  1.00  0.00    -0.206 F 
ATOM     46  C   UNL A   1      38.517  31.168  30.697  1.00  0.00     0.059 A 
ATOM     47  C   UNL A   1      39.720  30.081  32.505  1.00  0.00     0.059 A 
ATOM     48  F   UNL A   1      42.042  30.336  32.671  1.00  0.00    -0.206 F 
ATOM     49  C   UNL A   1      38.529  30.368  31.843  1.00  0.00     0.060 A 
BRANCH  49  50
ATOM     50  S   UNL A   1      36.964  29.688  32.432  1.00  0.00     0.124 S 
ATOM     51  O   UNL A   1      36.301  29.346  31.181  1.00  0.00    -0.237 OA
ATOM     52  O   UNL A   1      37.402  28.567  33.250  1.00  0.00    -0.237 OA
ATOM     53  O   UNL A   1      36.366  30.805  33.171  1.00  0.00    -0.744 OA
ENDBRANCH  49  50
ENDBRANCH  28  42
BRANCH  29  54
ATOM     54  C   UNL A   1      49.827  34.198  26.851  1.00  0.00     0.058 A 
ATOM     55  C   UNL A   1      51.056  34.179  27.525  1.00  0.00     0.135 A 
ATOM     56  C   UNL A   1      49.820  34.695  25.535  1.00  0.00     0.135 A 
ATOM     57  F   UNL A   1      51.123  33.720  28.784  1.00  0.00    -0.206 F 
ATOM     58  C   UNL A   1      52.221  34.670  26.939  1.00  0.00     0.059 A 
ATOM     59  C   UNL A   1      50.976  35.158  24.915  1.00  0.00     0.059 A 
ATOM     60  F   UNL A   1      48.678  34.733  24.832  1.00  0.00    -0.206 F 
ATOM     61  C   UNL A   1      52.168  35.166  25.634  1.00  0.00     0.060 A 
BRANCH  61  62
ATOM     62  S   UNL A   1      53.674  35.831  24.892  1.00  0.00     0.124 S 
ATOM     63  O   UNL A   1      54.603  34.723  25.075  1.00  0.00    -0.237 OA
ATOM     64  O   UNL A   1      53.252  36.093  23.520  1.00  0.00    -0.237 OA
ATOM     65  O   UNL A   1      53.947  37.021  25.694  1.00  0.00    -0.744 OA
ENDBRANCH  61  62
ENDBRANCH  29  54
BRANCH  41  66
ATOM     66  C   UNL A   1      44.478  37.565  29.819  1.00  0.00     0.058 A 
ATOM     67  C   UNL A   1      43.741  38.323  28.898  1.00  0.00     0.135 A 
ATOM     68  C   UNL A   1      44.885  38.177  31.014  1.00  0.00     0.135 A 
ATOM     69  F   UNL A   1      43.341  37.779  27.738  1.00  0.00    -0.206 F 
ATOM     70  C   UNL A   1      43.423  39.649  29.153  1.00  0.00     0.059 A 
ATOM     71  C   UNL A   1      44.548  39.492  31.304  1.00  0.00     0.059 A 
ATOM     72  F   UNL A   1      45.581  37.482  31.928  1.00  0.00    -0.206 F 
ATOM     73  C   UNL A   1      43.821  40.221  30.363  1.00  0.00     0.060 A 
BRANCH  73  74
ATOM     74  S   UNL A   1      43.338  41.922  30.710  1.00  0.00     0.124 S 
ATOM     75  O   UNL A   1      43.874  42.112  32.053  1.00  0.00    -0.237 OA
ATOM     76  O   UNL A   1      44.012  42.659  29.646  1.00  0.00    -0.237 OA
ATOM     77  O   UNL A   1      41.881  41.887  30.614  1.00  0.00    -0.744 OA
ENDBRANCH  73  74
ENDBRANCH  41  66
ENDBRANCH  15  16
ENDBRANCH   8  10
ENDBRANCH   7   8
ENDBRANCH   6   7
ENDBRANCH   5   6
ENDBRANCH   4   5
ENDBRANCH   3   4
ENDBRANCH   2   3
ENDBRANCH   1   2
BRANCH   1  78
ATOM     78  C   UNL A   1      40.960  22.007  27.888  1.00  0.00     0.188 C 
BRANCH  78  79
ATOM     79  C   UNL A   1      40.316  21.133  26.785  1.00  0.00     0.188 C 
BRANCH  79  80
ATOM     80  O   UNL A   1      39.288  21.775  26.070  1.00  0.00    -0.376 OA
BRANCH  80  81
ATOM     81  C   UNL A   1      38.848  23.053  26.497  1.00  0.00     0.202 C 
BRANCH  81  82
ATOM     82  C   UNL A   1      37.571  23.767  25.988  1.00  0.00     0.261 C 
BRANCH  82  83
ATOM     83  O   UNL A   1      36.316  23.063  25.970  1.00  0.00    -0.459 OA
BRANCH  83  84
ATOM     84  C   UNL A   1      35.906  22.521  24.791  1.00  0.00     0.365 C 
ATOM     85  O   UNL A   1      36.447  22.755  23.717  1.00  0.00    -0.245 OA
BRANCH  84  86
ATOM     86  C   UNL A   1      34.708  21.525  25.002  1.00  0.00     0.295 C 
ATOM     87  C   UNL A   1      34.130  21.846  26.386  1.00  0.00     0.087 C 
ATOM     88  N   UNL A   1      33.589  21.778  24.026  1.00  0.00    -0.320 N 
ATOM     89  C   UNL A   1      32.801  22.525  26.087  1.00  0.00     0.054 C 
ATOM     90  C   UNL A   1      32.842  22.882  24.611  1.00  0.00     0.188 C 
ATOM     91  H   UNL A   1      33.977  22.019  23.114  1.00  0.00     0.349 HD
ATOM     92  C   UNL A   1      32.400  23.752  26.880  1.00  0.00     0.010 C 
ATOM     93  C   UNL A   1      31.477  23.269  24.059  1.00  0.00     0.065 C 
ATOM     94  C   UNL A   1      30.999  24.187  26.425  1.00  0.00     0.001 C 
ATOM     95  C   UNL A   1      30.854  24.383  24.906  1.00  0.00     0.006 C 
BRANCH  88  96
ATOM     96  C   UNL A   1      32.814  20.638  23.499  1.00  0.00     0.265 C 
BRANCH  96  97
ATOM     97  C   UNL A   1      32.155  19.540  24.362  1.00  0.00     0.093 C 
BRANCH  97  98
ATOM     98  C   UNL A   1      32.962  18.336  24.882  1.00  0.00     0.123 C 
ATOM     99  C   UNL A   1      33.988  17.697  23.952  1.00  0.00     0.034 C 
ATOM    100  O   UNL A   1      32.153  17.273  25.371  1.00  0.00    -0.378 OA
ATOM    101  C   UNL A   1      33.880  16.204  24.214  1.00  0.00     0.031 C 
ATOM    102  C   UNL A   1      32.944  16.089  25.392  1.00  0.00     0.160 C 
ENDBRANCH  97  98
ENDBRANCH  96  97
ENDBRANCH  88  96
ENDBRANCH  84  86
ENDBRANCH  83  84
ENDBRANCH  82  83
ENDBRANCH  81  82
ENDBRANCH  80  81
ENDBRANCH  79  80
ENDBRANCH  78  79
ENDBRANCH   1  78
TORSDOF 26
ENDMDL
MODEL 3
REMARK VINA RESULT:      -8.5      1.393      8.456
REMARK SMILES O=C(OCCOCCOCCOCCOC(=O)[C@H]1C[C@H]2CCCC[C@@H]2[N@@H+]1CC[C@@H]1CCCO1)c1ccc(-c2c3nc(c(-c4c(F)cc(S(=O)(=O)[O-])cc4F)c4ccc([nH]4)c(-c4c(F)cc(S(=O)(=O)[O-])cc4F)c4nc(c(-c5c(F)cc(S(=O)(=O)[O-])cc5F)c5ccc2[nH]5)C=C4)C=C3)cc1
REMARK SMILES IDX 9 1 8 2 7 3 6 4 5 5 4 6 3 7 2 8 1 9 34 10 35 11 99 12 36 13
REMARK SMILES IDX 98 14 37 15 38 16 39 17 92 18 40 19 97 20 91 21 93 22 41 23
REMARK SMILES IDX 96 24 90 25 89 26 42 28 76 29 55 30 75 31 56 32 59 33 74 34
REMARK SMILES IDX 94 35 57 36 58 37 73 39 95 40 60 41 43 42 44 43 53 44 45 45
REMARK SMILES IDX 46 46 52 47 54 48 47 49 48 50 49 51 50 52 51 53 77 54 78 55
REMARK SMILES IDX 87 56 79 57 80 58 86 59 88 60 81 61 82 62 83 63 84 64 85 65
REMARK SMILES IDX 61 66 62 67 71 68 63 69 64 70 70 71 72 72 65 73 66 74 67 75
REMARK SMILES IDX 68 76 69 77 10 78 11 79 12 80 13 81 14 82 15 83 16 84 17 85
REMARK SMILES IDX 18 86 19 87 26 88 20 89 25 90 21 92 24 93 22 94 23 95 27 96
REMARK SMILES IDX 28 97 29 98 30 99 33 100 31 101 32 102
REMARK H PARENT 93 27 59 38 26 91
REMARK Flexibility Score: inf
ROOT
ATOM      1  O   UNL A   1      45.229  40.613  28.699  1.00  0.00    -0.377 OA
ENDROOT
BRANCH   1   2
ATOM      2  C   UNL A   1      46.448  40.452  29.407  1.00  0.00     0.188 C 
BRANCH   2   3
ATOM      3  C   UNL A   1      46.294  40.062  30.873  1.00  0.00     0.188 C 
BRANCH   3   4
ATOM      4  O   UNL A   1      47.575  39.843  31.452  1.00  0.00    -0.376 OA
BRANCH   4   5
ATOM      5  C   UNL A   1      47.705  38.827  32.437  1.00  0.00     0.202 C 
BRANCH   5   6
ATOM      6  C   UNL A   1      46.959  37.532  32.132  1.00  0.00     0.261 C 
BRANCH   6   7
ATOM      7  O   UNL A   1      47.698  36.596  31.333  1.00  0.00    -0.460 OA
BRANCH   7   8
ATOM      8  C   UNL A   1      47.535  36.261  30.030  1.00  0.00     0.338 C 
ATOM      9  O   UNL A   1      47.670  37.154  29.191  1.00  0.00    -0.246 OA
BRANCH   8  10
ATOM     10  C   UNL A   1      47.175  34.897  29.532  1.00  0.00     0.060 A 
ATOM     11  C   UNL A   1      46.906  34.560  28.208  1.00  0.00     0.016 A 
ATOM     12  C   UNL A   1      47.215  33.851  30.470  1.00  0.00     0.016 A 
ATOM     13  C   UNL A   1      46.669  33.260  27.807  1.00  0.00     0.010 A 
ATOM     14  C   UNL A   1      46.980  32.529  30.082  1.00  0.00     0.010 A 
ATOM     15  C   UNL A   1      46.699  32.241  28.743  1.00  0.00    -0.014 A 
BRANCH  15  16
ATOM     16  C   UNL A   1      46.257  30.921  28.288  1.00  0.00     0.031 A 
ATOM     17  C   UNL A   1      44.792  30.636  28.355  1.00  0.00     0.074 A 
ATOM     18  C   UNL A   1      47.133  30.094  27.691  1.00  0.00     0.049 A 
ATOM     19  N   UNL A   1      44.161  29.521  28.135  1.00  0.00    -0.248 NA
ATOM     20  C   UNL A   1      43.913  31.771  28.702  1.00  0.00     0.031 C 
ATOM     21  C   UNL A   1      48.542  30.406  27.423  1.00  0.00     0.029 A 
ATOM     22  N   UNL A   1      46.970  28.836  27.183  1.00  0.00    -0.354 N 
ATOM     23  C   UNL A   1      42.823  29.801  28.379  1.00  0.00     0.074 A 
ATOM     24  C   UNL A   1      42.721  31.196  28.729  1.00  0.00     0.031 C 
ATOM     25  C   UNL A   1      49.117  29.356  26.815  1.00  0.00     0.029 A 
ATOM     26  C   UNL A   1      48.143  28.275  26.736  1.00  0.00     0.049 A 
ATOM     27  H   UNL A   1      46.100  28.378  27.141  1.00  0.00     0.167 HD
ATOM     28  C   UNL A   1      41.789  28.935  28.335  1.00  0.00     0.037 A 
ATOM     29  C   UNL A   1      48.399  27.002  26.384  1.00  0.00     0.037 A 
ATOM     30  C   UNL A   1      41.955  27.560  27.960  1.00  0.00     0.049 A 
ATOM     31  C   UNL A   1      47.248  26.031  26.456  1.00  0.00     0.074 A 
ATOM     32  C   UNL A   1      41.006  26.560  27.904  1.00  0.00     0.029 A 
ATOM     33  N   UNL A   1      43.167  26.995  27.580  1.00  0.00    -0.354 N 
ATOM     34  N   UNL A   1      45.988  26.271  26.744  1.00  0.00    -0.248 NA
ATOM     35  C   UNL A   1      47.547  24.620  26.188  1.00  0.00     0.031 C 
ATOM     36  C   UNL A   1      41.659  25.375  27.552  1.00  0.00     0.029 A 
ATOM     37  C   UNL A   1      43.002  25.649  27.329  1.00  0.00     0.049 A 
ATOM     38  H   UNL A   1      44.018  27.484  27.501  1.00  0.00     0.167 HD
ATOM     39  C   UNL A   1      45.342  25.043  26.685  1.00  0.00     0.074 A 
ATOM     40  C   UNL A   1      46.347  24.069  26.303  1.00  0.00     0.031 C 
ATOM     41  C   UNL A   1      44.045  24.734  26.936  1.00  0.00     0.037 A 
BRANCH  28  42
ATOM     42  C   UNL A   1      40.450  29.421  28.796  1.00  0.00     0.058 A 
ATOM     43  C   UNL A   1      39.384  29.654  27.914  1.00  0.00     0.135 A 
ATOM     44  C   UNL A   1      40.229  29.640  30.165  1.00  0.00     0.135 A 
ATOM     45  F   UNL A   1      39.556  29.507  26.591  1.00  0.00    -0.206 F 
ATOM     46  C   UNL A   1      38.141  30.075  28.376  1.00  0.00     0.059 A 
ATOM     47  C   UNL A   1      38.990  30.040  30.651  1.00  0.00     0.059 A 
ATOM     48  F   UNL A   1      41.226  29.466  31.046  1.00  0.00    -0.206 F 
ATOM     49  C   UNL A   1      37.951  30.253  29.749  1.00  0.00     0.060 A 
BRANCH  49  50
ATOM     50  S   UNL A   1      36.313  30.737  30.334  1.00  0.00     0.124 S 
ATOM     51  O   UNL A   1      36.572  32.066  30.872  1.00  0.00    -0.237 OA
ATOM     52  O   UNL A   1      35.521  30.686  29.114  1.00  0.00    -0.237 OA
ATOM     53  O   UNL A   1      35.992  29.711  31.331  1.00  0.00    -0.744 OA
ENDBRANCH  49  50
ENDBRANCH  28  42
BRANCH  29  54
ATOM     54  C   UNL A   1      49.786  26.553  26.070  1.00  0.00     0.058 A 
ATOM     55  C   UNL A   1      50.625  26.013  27.055  1.00  0.00     0.135 A 
ATOM     56  C   UNL A   1      50.322  26.708  24.778  1.00  0.00     0.135 A 
ATOM     57  F   UNL A   1      50.170  25.846  28.306  1.00  0.00    -0.206 F 
ATOM     58  C   UNL A   1      51.951  25.681  26.785  1.00  0.00     0.059 A 
ATOM     59  C   UNL A   1      51.632  26.351  24.476  1.00  0.00     0.059 A 
ATOM     60  F   UNL A   1      49.568  27.211  23.789  1.00  0.00    -0.206 F 
ATOM     61  C   UNL A   1      52.448  25.863  25.492  1.00  0.00     0.060 A 
BRANCH  61  62
ATOM     62  S   UNL A   1      54.176  25.460  25.158  1.00  0.00     0.124 S 
ATOM     63  O   UNL A   1      54.376  26.086  23.858  1.00  0.00    -0.237 OA
ATOM     64  O   UNL A   1      54.862  26.088  26.283  1.00  0.00    -0.237 OA
ATOM     65  O   UNL A   1      54.188  23.999  25.164  1.00  0.00    -0.744 OA
ENDBRANCH  61  62
ENDBRANCH  29  54
BRANCH  41  66
ATOM     66  C   UNL A   1      43.651  23.297  26.784  1.00  0.00     0.058 A 
ATOM     67  C   UNL A   1      43.366  22.499  27.901  1.00  0.00     0.135 A 
ATOM     68  C   UNL A   1      43.465  22.748  25.507  1.00  0.00     0.135 A 
ATOM     69  F   UNL A   1      43.540  22.983  29.142  1.00  0.00    -0.206 F 
ATOM     70  C   UNL A   1      42.916  21.194  27.756  1.00  0.00     0.059 A 
ATOM     71  C   UNL A   1      42.983  21.457  25.338  1.00  0.00     0.059 A 
ATOM     72  F   UNL A   1      43.714  23.482  24.410  1.00  0.00    -0.206 F 
ATOM     73  C   UNL A   1      42.717  20.687  26.470  1.00  0.00     0.060 A 
BRANCH  73  74
ATOM     74  S   UNL A   1      42.064  19.016  26.298  1.00  0.00     0.124 S 
ATOM     75  O   UNL A   1      42.107  18.541  27.677  1.00  0.00    -0.237 OA
ATOM     76  O   UNL A   1      40.733  19.258  25.751  1.00  0.00    -0.237 OA
ATOM     77  O   UNL A   1      43.005  18.376  25.383  1.00  0.00    -0.744 OA
ENDBRANCH  73  74
ENDBRANCH  41  66
ENDBRANCH  15  16
ENDBRANCH   8  10
ENDBRANCH   7   8
ENDBRANCH   6   7
ENDBRANCH   5   6
ENDBRANCH   4   5
ENDBRANCH   3   4
ENDBRANCH   2   3
ENDBRANCH   1   2
BRANCH   1  78
ATOM     78  C   UNL A   1      45.284  41.380  27.501  1.00  0.00     0.188 C 
BRANCH  78  79
ATOM     79  C   UNL A   1      44.888  42.876  27.519  1.00  0.00     0.188 C 
BRANCH  79  80
ATOM     80  O   UNL A   1      44.526  43.389  26.259  1.00  0.00    -0.376 OA
BRANCH  80  81
ATOM     81  C   UNL A   1      44.430  42.502  25.158  1.00  0.00     0.202 C 
BRANCH  81  82
ATOM     82  C   UNL A   1      45.447  42.422  23.992  1.00  0.00     0.261 C 
BRANCH  82  83
ATOM     83  O   UNL A   1      45.345  43.339  22.889  1.00  0.00    -0.459 OA
BRANCH  83  84
ATOM     84  C   UNL A   1      45.177  42.821  21.642  1.00  0.00     0.365 C 
ATOM     85  O   UNL A   1      45.544  41.696  21.324  1.00  0.00    -0.245 OA
BRANCH  84  86
ATOM     86  C   UNL A   1      44.407  43.820  20.703  1.00  0.00     0.295 C 
ATOM     87  C   UNL A   1      44.568  45.207  21.337  1.00  0.00     0.087 C 
ATOM     88  N   UNL A   1      45.047  43.919  19.343  1.00  0.00    -0.320 N 
ATOM     89  C   UNL A   1      45.533  45.932  20.410  1.00  0.00     0.054 C 
ATOM     90  C   UNL A   1      46.144  44.857  19.528  1.00  0.00     0.188 C 
ATOM     91  H   UNL A   1      45.375  42.999  19.050  1.00  0.00     0.349 HD
ATOM     92  C   UNL A   1      46.643  46.773  21.005  1.00  0.00     0.010 C 
ATOM     93  C   UNL A   1      46.881  45.430  18.324  1.00  0.00     0.065 C 
ATOM     94  C   UNL A   1      47.415  47.440  19.856  1.00  0.00     0.001 C 
ATOM     95  C   UNL A   1      47.915  46.467  18.776  1.00  0.00     0.006 C 
BRANCH  88  96
ATOM     96  C   UNL A   1      44.195  44.098  18.151  1.00  0.00     0.265 C 
BRANCH  96  97
ATOM     97  C   UNL A   1      42.857  44.867  18.126  1.00  0.00     0.093 C 
BRANCH  97  98
ATOM     98  C   UNL A   1      42.813  46.394  17.930  1.00  0.00     0.123 C 
ATOM     99  C   UNL A   1      41.603  46.998  17.224  1.00  0.00     0.034 C 
ATOM    100  O   UNL A   1      43.959  46.919  17.272  1.00  0.00    -0.378 OA
ATOM    101  C   UNL A   1      42.169  48.113  16.360  1.00  0.00     0.031 C 
ATOM    102  C   UNL A   1      43.623  48.202  16.754  1.00  0.00     0.160 C 
ENDBRANCH  97  98
ENDBRANCH  96  97
ENDBRANCH  88  96
ENDBRANCH  84  86
ENDBRANCH  83  84
ENDBRANCH  82  83
ENDBRANCH  81  82
ENDBRANCH  80  81
ENDBRANCH  79  80
ENDBRANCH  78  79
ENDBRANCH   1  78
TORSDOF 26
ENDMDL
