MODEL 1
REMARK VINA RESULT:      -9.1      0.000      0.000
REMARK SMILES O=C(C[NH+]1CCOCC1)Nc1nnc(SCC(=O)OCCOCCOCCOCCOC(=O)c2ccc(-c3c4nc(c(-c5c(F)cc(S(=O)(=O)[O-])cc5F)c5ccc([nH]5)c(-c5c(F)cc(S(=O)(=O)[O-])cc5F)c5nc(c(-c6c(F)cc(S(=O)(=O)[O-])cc6F)c6ccc3[nH]6)C=C5)C=C4)cc2)s1
REMARK SMILES IDX 24 1 23 2 22 3 21 4 20 5 19 6 17 7 18 8 16 9 15 10 14 11
REMARK SMILES IDX 11 12 12 13 100 14 13 15 10 16 1 17 2 18 3 20 4 21 5 22 9 23
REMARK SMILES IDX 6 25 8 26 7 27 25 28 26 29 27 30 28 31 29 32 30 33 31 34
REMARK SMILES IDX 32 35 33 36 34 37 35 38 99 39 36 40 98 41 37 42 38 43 39 44
REMARK SMILES IDX 92 45 40 46 97 47 91 48 93 49 41 50 96 51 90 52 89 53 42 55
REMARK SMILES IDX 76 56 55 57 75 58 56 59 59 60 74 61 94 62 57 63 58 64 73 66
REMARK SMILES IDX 95 67 60 68 43 69 44 70 53 71 45 72 46 73 52 74 54 75 47 76
REMARK SMILES IDX 48 77 49 78 50 79 51 80 77 81 78 82 87 83 79 84 80 85 86 86
REMARK SMILES IDX 88 87 81 88 82 89 83 90 84 91 85 92 61 93 62 94 71 95 63 96
REMARK SMILES IDX 64 97 70 98 72 99 65 100 66 101 67 102 68 103 69 104
REMARK H PARENT 10 19 4 24 93 54 59 65
REMARK Flexibility Score: inf
ROOT
ATOM      1  C   UNL A   1      33.833  30.082  27.204  1.00  0.00     0.188 C 
ENDROOT
BRANCH   1   2
ATOM      2  C   UNL A   1      32.348  29.810  26.946  1.00  0.00     0.188 C 
BRANCH   2   3
ATOM      3  O   UNL A   1      31.657  30.463  25.901  1.00  0.00    -0.376 OA
BRANCH   3   4
ATOM      4  C   UNL A   1      31.074  31.729  26.154  1.00  0.00     0.202 C 
BRANCH   4   5
ATOM      5  C   UNL A   1      30.228  32.388  25.041  1.00  0.00     0.261 C 
BRANCH   5   6
ATOM      6  O   UNL A   1      29.354  31.525  24.260  1.00  0.00    -0.463 OA
BRANCH   6   7
ATOM      7  C   UNL A   1      28.763  32.064  23.163  1.00  0.00     0.316 C 
ATOM      8  O   UNL A   1      28.639  33.279  23.002  1.00  0.00    -0.251 OA
BRANCH   7   9
ATOM      9  C   UNL A   1      28.193  31.112  22.114  1.00  0.00     0.200 C 
BRANCH   9  10
ATOM     10  S   UNL A   1      27.573  29.479  22.545  1.00  0.00    -0.082 SA
BRANCH  10  11
ATOM     11  C   UNL A   1      28.934  28.414  22.938  1.00  0.00     0.176 A 
ATOM     12  C   UNL A   1      30.424  26.549  23.136  1.00  0.00     0.213 A 
ATOM     13  N   UNL A   1      30.957  27.537  22.452  1.00  0.00    -0.119 NA
ATOM     14  S   UNL A   1      28.960  26.994  23.922  1.00  0.00    -0.068 S 
ATOM     15  N   UNL A   1      30.086  28.607  22.323  1.00  0.00    -0.130 NA
BRANCH  12  16
ATOM     16  N   UNL A   1      30.915  25.254  23.046  1.00  0.00    -0.296 N 
ATOM     17  O   UNL A   1      32.833  25.399  24.313  1.00  0.00    -0.268 OA
ATOM     18  C   UNL A   1      31.962  24.727  23.760  1.00  0.00     0.281 C 
ATOM     19  H   UNL A   1      30.468  24.654  22.406  1.00  0.00     0.172 HD
BRANCH  18  20
ATOM     20  C   UNL A   1      31.964  23.191  23.958  1.00  0.00     0.364 C 
BRANCH  20  21
ATOM     21  N   UNL A   1      32.850  22.390  23.073  1.00  0.00    -0.323 N 
ATOM     22  C   UNL A   1      32.295  20.992  22.976  1.00  0.00     0.291 C 
ATOM     23  C   UNL A   1      34.236  22.237  23.573  1.00  0.00     0.291 C 
ATOM     24  H   UNL A   1      32.880  22.891  22.186  1.00  0.00     0.348 HD
ATOM     25  C   UNL A   1      32.459  20.148  24.261  1.00  0.00     0.221 C 
ATOM     26  C   UNL A   1      34.378  21.391  24.850  1.00  0.00     0.221 C 
ATOM     27  O   UNL A   1      33.830  20.083  24.676  1.00  0.00    -0.370 OA
ENDBRANCH  20  21
ENDBRANCH  18  20
ENDBRANCH  12  16
ENDBRANCH  10  11
ENDBRANCH   9  10
ENDBRANCH   7   9
ENDBRANCH   6   7
ENDBRANCH   5   6
ENDBRANCH   4   5
ENDBRANCH   3   4
ENDBRANCH   2   3
ENDBRANCH   1   2
BRANCH   1  28
ATOM     28  O   UNL A   1      34.325  31.399  27.215  1.00  0.00    -0.377 OA
BRANCH  28  29
ATOM     29  C   UNL A   1      35.166  31.823  28.277  1.00  0.00     0.188 C 
BRANCH  29  30
ATOM     30  C   UNL A   1      35.938  33.118  28.041  1.00  0.00     0.188 C 
BRANCH  30  31
ATOM     31  O   UNL A   1      36.236  33.979  29.145  1.00  0.00    -0.376 OA
BRANCH  31  32
ATOM     32  C   UNL A   1      35.500  33.893  30.360  1.00  0.00     0.202 C 
BRANCH  32  33
ATOM     33  C   UNL A   1      36.387  33.741  31.587  1.00  0.00     0.261 C 
BRANCH  33  34
ATOM     34  O   UNL A   1      37.532  32.989  31.197  1.00  0.00    -0.460 OA
BRANCH  34  35
ATOM     35  C   UNL A   1      37.584  31.776  31.789  1.00  0.00     0.338 C 
ATOM     36  O   UNL A   1      36.847  31.352  32.666  1.00  0.00    -0.246 OA
BRANCH  35  37
ATOM     37  C   UNL A   1      38.543  30.944  31.042  1.00  0.00     0.060 A 
ATOM     38  C   UNL A   1      39.467  30.210  31.794  1.00  0.00     0.016 A 
ATOM     39  C   UNL A   1      38.537  30.875  29.643  1.00  0.00     0.016 A 
ATOM     40  C   UNL A   1      40.446  29.476  31.150  1.00  0.00     0.010 A 
ATOM     41  C   UNL A   1      39.530  30.150  28.992  1.00  0.00     0.010 A 
ATOM     42  C   UNL A   1      40.519  29.510  29.752  1.00  0.00    -0.014 A 
BRANCH  42  43
ATOM     43  C   UNL A   1      41.792  29.111  29.133  1.00  0.00     0.031 A 
ATOM     44  C   UNL A   1      42.888  30.136  29.085  1.00  0.00     0.074 A 
ATOM     45  C   UNL A   1      41.979  27.843  28.740  1.00  0.00     0.049 A 
ATOM     46  N   UNL A   1      44.121  30.010  28.680  1.00  0.00    -0.248 NA
ATOM     47  C   UNL A   1      42.549  31.488  29.569  1.00  0.00     0.031 C 
ATOM     48  C   UNL A   1      40.971  26.784  28.801  1.00  0.00     0.029 A 
ATOM     49  N   UNL A   1      43.088  27.232  28.226  1.00  0.00    -0.354 N 
ATOM     50  C   UNL A   1      44.704  31.259  28.863  1.00  0.00     0.074 A 
ATOM     51  C   UNL A   1      43.685  32.141  29.380  1.00  0.00     0.031 C 
ATOM     52  C   UNL A   1      41.514  25.645  28.340  1.00  0.00     0.029 A 
ATOM     53  C   UNL A   1      42.892  25.905  27.931  1.00  0.00     0.049 A 
ATOM     54  H   UNL A   1      43.943  27.696  28.082  1.00  0.00     0.167 HD
ATOM     55  C   UNL A   1      45.983  31.627  28.627  1.00  0.00     0.037 A 
ATOM     56  C   UNL A   1      43.739  25.017  27.381  1.00  0.00     0.037 A 
ATOM     57  C   UNL A   1      46.974  30.726  28.100  1.00  0.00     0.049 A 
ATOM     58  C   UNL A   1      45.142  25.466  27.073  1.00  0.00     0.074 A 
ATOM     59  C   UNL A   1      48.303  30.975  27.818  1.00  0.00     0.029 A 
ATOM     60  N   UNL A   1      46.731  29.399  27.766  1.00  0.00    -0.354 N 
ATOM     61  N   UNL A   1      45.694  26.642  27.268  1.00  0.00    -0.248 NA
ATOM     62  C   UNL A   1      46.041  24.470  26.481  1.00  0.00     0.031 C 
ATOM     63  C   UNL A   1      48.849  29.816  27.255  1.00  0.00     0.029 A 
ATOM     64  C   UNL A   1      47.879  28.824  27.250  1.00  0.00     0.049 A 
ATOM     65  H   UNL A   1      45.869  28.937  27.879  1.00  0.00     0.167 HD
ATOM     66  C   UNL A   1      47.011  26.522  26.840  1.00  0.00     0.074 A 
ATOM     67  C   UNL A   1      47.176  25.149  26.401  1.00  0.00     0.031 C 
ATOM     68  C   UNL A   1      47.999  27.455  26.811  1.00  0.00     0.037 A 
BRANCH  55  69
ATOM     69  C   UNL A   1      46.359  33.060  28.892  1.00  0.00     0.058 A 
ATOM     70  C   UNL A   1      46.868  33.482  30.131  1.00  0.00     0.135 A 
ATOM     71  C   UNL A   1      46.215  34.026  27.883  1.00  0.00     0.135 A 
ATOM     72  F   UNL A   1      47.000  32.608  31.142  1.00  0.00    -0.206 F 
ATOM     73  C   UNL A   1      47.200  34.814  30.368  1.00  0.00     0.059 A 
ATOM     74  C   UNL A   1      46.567  35.357  28.087  1.00  0.00     0.059 A 
ATOM     75  F   UNL A   1      45.719  33.682  26.684  1.00  0.00    -0.206 F 
ATOM     76  C   UNL A   1      47.049  35.743  29.337  1.00  0.00     0.060 A 
BRANCH  76  77
ATOM     77  S   UNL A   1      47.497  37.463  29.654  1.00  0.00     0.124 S 
ATOM     78  O   UNL A   1      48.943  37.361  29.828  1.00  0.00    -0.237 OA
ATOM     79  O   UNL A   1      47.052  38.129  28.434  1.00  0.00    -0.237 OA
ATOM     80  O   UNL A   1      46.741  37.796  30.858  1.00  0.00    -0.744 OA
ENDBRANCH  76  77
ENDBRANCH  55  69
BRANCH  56  81
ATOM     81  C   UNL A   1      43.274  23.636  27.086  1.00  0.00     0.058 A 
ATOM     82  C   UNL A   1      42.838  23.267  25.805  1.00  0.00     0.135 A 
ATOM     83  C   UNL A   1      43.280  22.648  28.084  1.00  0.00     0.135 A 
ATOM     84  F   UNL A   1      42.810  24.175  24.818  1.00  0.00    -0.206 F 
ATOM     85  C   UNL A   1      42.410  21.972  25.527  1.00  0.00     0.059 A 
ATOM     86  C   UNL A   1      42.885  21.340  27.822  1.00  0.00     0.059 A 
ATOM     87  F   UNL A   1      43.702  22.944  29.322  1.00  0.00    -0.206 F 
ATOM     88  C   UNL A   1      42.442  21.014  26.542  1.00  0.00     0.060 A 
BRANCH  88  89
ATOM     89  S   UNL A   1      41.934  19.325  26.157  1.00  0.00     0.124 S 
ATOM     90  O   UNL A   1      42.206  18.642  27.417  1.00  0.00    -0.237 OA
ATOM     91  O   UNL A   1      40.526  19.500  25.816  1.00  0.00    -0.237 OA
ATOM     92  O   UNL A   1      42.801  18.959  25.041  1.00  0.00    -0.744 OA
ENDBRANCH  88  89
ENDBRANCH  56  81
BRANCH  68  93
ATOM     93  C   UNL A   1      49.341  27.004  26.302  1.00  0.00     0.058 A 
ATOM     94  C   UNL A   1      49.694  27.118  24.949  1.00  0.00     0.135 A 
ATOM     95  C   UNL A   1      50.293  26.476  27.188  1.00  0.00     0.135 A 
ATOM     96  F   UNL A   1      48.818  27.617  24.061  1.00  0.00    -0.206 F 
ATOM     97  C   UNL A   1      50.926  26.677  24.482  1.00  0.00     0.059 A 
ATOM     98  C   UNL A   1      51.546  26.063  26.749  1.00  0.00     0.059 A 
ATOM     99  F   UNL A   1      50.014  26.363  28.496  1.00  0.00    -0.206 F 
ATOM    100  C   UNL A   1      51.844  26.147  25.389  1.00  0.00     0.060 A 
BRANCH 100 101
ATOM    101  S   UNL A   1      53.438  25.574  24.770  1.00  0.00     0.124 S 
ATOM    102  O   UNL A   1      53.443  24.185  25.216  1.00  0.00    -0.237 OA
ATOM    103  O   UNL A   1      53.306  25.778  23.331  1.00  0.00    -0.237 OA
ATOM    104  O   UNL A   1      54.398  26.451  25.436  1.00  0.00    -0.744 OA
ENDBRANCH 100 101
ENDBRANCH  68  93
ENDBRANCH  42  43
ENDBRANCH  35  37
ENDBRANCH  34  35
ENDBRANCH  33  34
ENDBRANCH  32  33
ENDBRANCH  31  32
ENDBRANCH  30  31
ENDBRANCH  29  30
ENDBRANCH  28  29
ENDBRANCH   1  28
TORSDOF 28
ENDMDL
MODEL 2
REMARK VINA RESULT:      -9.0      1.567      8.916
REMARK SMILES O=C(C[NH+]1CCOCC1)Nc1nnc(SCC(=O)OCCOCCOCCOCCOC(=O)c2ccc(-c3c4nc(c(-c5c(F)cc(S(=O)(=O)[O-])cc5F)c5ccc([nH]5)c(-c5c(F)cc(S(=O)(=O)[O-])cc5F)c5nc(c(-c6c(F)cc(S(=O)(=O)[O-])cc6F)c6ccc3[nH]6)C=C5)C=C4)cc2)s1
REMARK SMILES IDX 24 1 23 2 22 3 21 4 20 5 19 6 17 7 18 8 16 9 15 10 14 11
REMARK SMILES IDX 11 12 12 13 100 14 13 15 10 16 1 17 2 18 3 20 4 21 5 22 9 23
REMARK SMILES IDX 6 25 8 26 7 27 25 28 26 29 27 30 28 31 29 32 30 33 31 34
REMARK SMILES IDX 32 35 33 36 34 37 35 38 99 39 36 40 98 41 37 42 38 43 39 44
REMARK SMILES IDX 92 45 40 46 97 47 91 48 93 49 41 50 96 51 90 52 89 53 42 55
REMARK SMILES IDX 76 56 55 57 75 58 56 59 59 60 74 61 94 62 57 63 58 64 73 66
REMARK SMILES IDX 95 67 60 68 43 69 44 70 53 71 45 72 46 73 52 74 54 75 47 76
REMARK SMILES IDX 48 77 49 78 50 79 51 80 77 81 78 82 87 83 79 84 80 85 86 86
REMARK SMILES IDX 88 87 81 88 82 89 83 90 84 91 85 92 61 93 62 94 71 95 63 96
REMARK SMILES IDX 64 97 70 98 72 99 65 100 66 101 67 102 68 103 69 104
REMARK H PARENT 10 19 4 24 93 54 59 65
REMARK Flexibility Score: inf
ROOT
ATOM      1  C   UNL A   1      33.921  28.768  26.695  1.00  0.00     0.188 C 
ENDROOT
BRANCH   1   2
ATOM      2  C   UNL A   1      32.450  28.347  26.628  1.00  0.00     0.188 C 
BRANCH   2   3
ATOM      3  O   UNL A   1      32.058  27.169  25.955  1.00  0.00    -0.376 OA
BRANCH   3   4
ATOM      4  C   UNL A   1      32.568  25.925  26.400  1.00  0.00     0.202 C 
BRANCH   4   5
ATOM      5  C   UNL A   1      31.580  24.757  26.621  1.00  0.00     0.261 C 
BRANCH   5   6
ATOM      6  O   UNL A   1      31.812  23.529  25.875  1.00  0.00    -0.463 OA
BRANCH   6   7
ATOM      7  C   UNL A   1      33.032  22.946  25.999  1.00  0.00     0.316 C 
ATOM      8  O   UNL A   1      33.329  22.216  26.946  1.00  0.00    -0.251 OA
BRANCH   7   9
ATOM      9  C   UNL A   1      34.085  23.252  24.937  1.00  0.00     0.200 C 
BRANCH   9  10
ATOM     10  S   UNL A   1      33.774  22.994  23.184  1.00  0.00    -0.082 SA
BRANCH  10  11
ATOM     11  C   UNL A   1      33.031  24.448  22.494  1.00  0.00     0.176 A 
ATOM     12  C   UNL A   1      32.040  26.606  22.176  1.00  0.00     0.213 A 
ATOM     13  N   UNL A   1      33.200  26.500  21.566  1.00  0.00    -0.119 NA
ATOM     14  S   UNL A   1      31.453  25.099  22.760  1.00  0.00    -0.068 S 
ATOM     15  N   UNL A   1      33.780  25.257  21.767  1.00  0.00    -0.130 NA
BRANCH  12  16
ATOM     16  N   UNL A   1      31.483  27.843  22.467  1.00  0.00    -0.296 N 
ATOM     17  O   UNL A   1      29.369  27.243  23.160  1.00  0.00    -0.268 OA
ATOM     18  C   UNL A   1      30.280  28.069  23.089  1.00  0.00     0.281 C 
ATOM     19  H   UNL A   1      32.001  28.637  22.201  1.00  0.00     0.172 HD
BRANCH  18  20
ATOM     20  C   UNL A   1      30.126  29.419  23.832  1.00  0.00     0.364 C 
BRANCH  20  21
ATOM     21  N   UNL A   1      30.017  30.648  23.002  1.00  0.00    -0.323 N 
ATOM     22  C   UNL A   1      29.106  31.622  23.703  1.00  0.00     0.291 C 
ATOM     23  C   UNL A   1      29.419  30.430  21.664  1.00  0.00     0.291 C 
ATOM     24  H   UNL A   1      30.972  30.982  22.879  1.00  0.00     0.348 HD
ATOM     25  C   UNL A   1      27.611  31.224  23.689  1.00  0.00     0.221 C 
ATOM     26  C   UNL A   1      27.932  30.038  21.672  1.00  0.00     0.221 C 
ATOM     27  O   UNL A   1      27.137  31.012  22.353  1.00  0.00    -0.370 OA
ENDBRANCH  20  21
ENDBRANCH  18  20
ENDBRANCH  12  16
ENDBRANCH  10  11
ENDBRANCH   9  10
ENDBRANCH   7   9
ENDBRANCH   6   7
ENDBRANCH   5   6
ENDBRANCH   4   5
ENDBRANCH   3   4
ENDBRANCH   2   3
ENDBRANCH   1   2
BRANCH   1  28
ATOM     28  O   UNL A   1      34.276  30.128  26.651  1.00  0.00    -0.377 OA
BRANCH  28  29
ATOM     29  C   UNL A   1      33.766  31.016  27.634  1.00  0.00     0.188 C 
BRANCH  29  30
ATOM     30  C   UNL A   1      34.778  31.541  28.649  1.00  0.00     0.188 C 
BRANCH  30  31
ATOM     31  O   UNL A   1      34.346  32.419  29.694  1.00  0.00    -0.376 OA
BRANCH  31  32
ATOM     32  C   UNL A   1      34.926  32.352  30.992  1.00  0.00     0.202 C 
BRANCH  32  33
ATOM     33  C   UNL A   1      36.441  32.216  30.964  1.00  0.00     0.261 C 
BRANCH  33  34
ATOM     34  O   UNL A   1      36.789  31.128  31.815  1.00  0.00    -0.460 OA
BRANCH  34  35
ATOM     35  C   UNL A   1      37.105  30.009  31.125  1.00  0.00     0.338 C 
ATOM     36  O   UNL A   1      36.340  29.135  30.749  1.00  0.00    -0.246 OA
BRANCH  35  37
ATOM     37  C   UNL A   1      38.509  30.120  30.695  1.00  0.00     0.060 A 
ATOM     38  C   UNL A   1      38.759  30.057  29.320  1.00  0.00     0.016 A 
ATOM     39  C   UNL A   1      39.557  30.290  31.610  1.00  0.00     0.016 A 
ATOM     40  C   UNL A   1      40.063  30.071  28.859  1.00  0.00     0.010 A 
ATOM     41  C   UNL A   1      40.869  30.289  31.150  1.00  0.00     0.010 A 
ATOM     42  C   UNL A   1      41.115  30.112  29.781  1.00  0.00    -0.014 A 
BRANCH  42  43
ATOM     43  C   UNL A   1      42.440  29.680  29.313  1.00  0.00     0.031 A 
ATOM     44  C   UNL A   1      42.566  28.278  28.792  1.00  0.00     0.074 A 
ATOM     45  C   UNL A   1      43.451  30.559  29.256  1.00  0.00     0.049 A 
ATOM     46  N   UNL A   1      43.591  27.689  28.242  1.00  0.00    -0.248 NA
ATOM     47  C   UNL A   1      41.368  27.424  28.898  1.00  0.00     0.031 C 
ATOM     48  C   UNL A   1      43.384  31.951  29.702  1.00  0.00     0.029 A 
ATOM     49  N   UNL A   1      44.725  30.412  28.784  1.00  0.00    -0.354 N 
ATOM     50  C   UNL A   1      43.163  26.403  27.934  1.00  0.00     0.074 A 
ATOM     51  C   UNL A   1      41.799  26.280  28.390  1.00  0.00     0.031 C 
ATOM     52  C   UNL A   1      44.574  32.534  29.479  1.00  0.00     0.029 A 
ATOM     53  C   UNL A   1      45.485  31.549  28.901  1.00  0.00     0.049 A 
ATOM     54  H   UNL A   1      45.064  29.573  28.397  1.00  0.00     0.167 HD
ATOM     55  C   UNL A   1      43.851  25.418  27.314  1.00  0.00     0.037 A 
ATOM     56  C   UNL A   1      46.776  31.752  28.582  1.00  0.00     0.037 A 
ATOM     57  C   UNL A   1      45.215  25.567  26.881  1.00  0.00     0.049 A 
ATOM     58  C   UNL A   1      47.540  30.620  27.947  1.00  0.00     0.074 A 
ATOM     59  C   UNL A   1      46.023  24.647  26.242  1.00  0.00     0.029 A 
ATOM     60  N   UNL A   1      45.975  26.718  27.058  1.00  0.00    -0.354 N 
ATOM     61  N   UNL A   1      47.123  29.414  27.638  1.00  0.00    -0.248 NA
ATOM     62  C   UNL A   1      48.942  30.879  27.605  1.00  0.00     0.031 C 
ATOM     63  C   UNL A   1      47.290  25.220  26.087  1.00  0.00     0.029 A 
ATOM     64  C   UNL A   1      47.253  26.520  26.568  1.00  0.00     0.049 A 
ATOM     65  H   UNL A   1      45.650  27.550  27.472  1.00  0.00     0.167 HD
ATOM     66  C   UNL A   1      48.207  28.773  27.049  1.00  0.00     0.074 A 
ATOM     67  C   UNL A   1      49.289  29.740  27.023  1.00  0.00     0.031 C 
ATOM     68  C   UNL A   1      48.307  27.506  26.572  1.00  0.00     0.037 A 
BRANCH  55  69
ATOM     69  C   UNL A   1      43.158  24.097  27.117  1.00  0.00     0.058 A 
ATOM     70  C   UNL A   1      42.526  23.757  25.909  1.00  0.00     0.135 A 
ATOM     71  C   UNL A   1      43.133  23.150  28.154  1.00  0.00     0.135 A 
ATOM     72  F   UNL A   1      42.492  24.635  24.893  1.00  0.00    -0.206 F 
ATOM     73  C   UNL A   1      41.876  22.537  25.744  1.00  0.00     0.059 A 
ATOM     74  C   UNL A   1      42.515  21.913  28.002  1.00  0.00     0.059 A 
ATOM     75  F   UNL A   1      43.707  23.427  29.335  1.00  0.00    -0.206 F 
ATOM     76  C   UNL A   1      41.880  21.620  26.797  1.00  0.00     0.060 A 
BRANCH  76  77
ATOM     77  S   UNL A   1      41.046  20.035  26.563  1.00  0.00     0.124 S 
ATOM     78  O   UNL A   1      41.908  19.394  25.574  1.00  0.00    -0.237 OA
ATOM     79  O   UNL A   1      41.086  19.463  27.904  1.00  0.00    -0.237 OA
ATOM     80  O   UNL A   1      39.719  20.415  26.086  1.00  0.00    -0.744 OA
ENDBRANCH  76  77
ENDBRANCH  55  69
BRANCH  56  81
ATOM     81  C   UNL A   1      47.412  33.064  28.870  1.00  0.00     0.058 A 
ATOM     82  C   UNL A   1      47.435  34.093  27.917  1.00  0.00     0.135 A 
ATOM     83  C   UNL A   1      47.995  33.321  30.122  1.00  0.00     0.135 A 
ATOM     84  F   UNL A   1      46.896  33.897  26.704  1.00  0.00    -0.206 F 
ATOM     85  C   UNL A   1      48.024  35.324  28.188  1.00  0.00     0.059 A 
ATOM     86  C   UNL A   1      48.563  34.553  30.427  1.00  0.00     0.059 A 
ATOM     87  F   UNL A   1      47.986  32.376  31.075  1.00  0.00    -0.206 F 
ATOM     88  C   UNL A   1      48.582  35.546  29.449  1.00  0.00     0.060 A 
BRANCH  88  89
ATOM     89  S   UNL A   1      49.297  37.164  29.809  1.00  0.00     0.124 S 
ATOM     90  O   UNL A   1      48.191  38.054  29.476  1.00  0.00    -0.237 OA
ATOM     91  O   UNL A   1      49.618  37.046  31.228  1.00  0.00    -0.237 OA
ATOM     92  O   UNL A   1      50.451  37.229  28.917  1.00  0.00    -0.744 OA
ENDBRANCH  88  89
ENDBRANCH  56  81
BRANCH  68  93
ATOM     93  C   UNL A   1      49.627  27.111  25.968  1.00  0.00     0.058 A 
ATOM     94  C   UNL A   1      50.659  26.561  26.744  1.00  0.00     0.135 A 
ATOM     95  C   UNL A   1      49.850  27.264  24.590  1.00  0.00     0.135 A 
ATOM     96  F   UNL A   1      50.496  26.395  28.066  1.00  0.00    -0.206 F 
ATOM     97  C   UNL A   1      51.885  26.222  26.183  1.00  0.00     0.059 A 
ATOM     98  C   UNL A   1      51.055  26.897  24.002  1.00  0.00     0.059 A 
ATOM     99  F   UNL A   1      48.890  27.768  23.800  1.00  0.00    -0.206 F 
ATOM    100  C   UNL A   1      52.075  26.397  24.812  1.00  0.00     0.060 A 
BRANCH 100 101
ATOM    101  S   UNL A   1      53.672  25.958  24.098  1.00  0.00     0.124 S 
ATOM    102  O   UNL A   1      54.540  26.979  24.675  1.00  0.00    -0.237 OA
ATOM    103  O   UNL A   1      53.872  24.601  24.593  1.00  0.00    -0.237 OA
ATOM    104  O   UNL A   1      53.443  26.068  22.660  1.00  0.00    -0.744 OA
ENDBRANCH 100 101
ENDBRANCH  68  93
ENDBRANCH  42  43
ENDBRANCH  35  37
ENDBRANCH  34  35
ENDBRANCH  33  34
ENDBRANCH  32  33
ENDBRANCH  31  32
ENDBRANCH  30  31
ENDBRANCH  29  30
ENDBRANCH  28  29
ENDBRANCH   1  28
TORSDOF 28
ENDMDL
MODEL 3
REMARK VINA RESULT:      -8.4      1.773      4.258
REMARK SMILES O=C(C[NH+]1CCOCC1)Nc1nnc(SCC(=O)OCCOCCOCCOCCOC(=O)c2ccc(-c3c4nc(c(-c5c(F)cc(S(=O)(=O)[O-])cc5F)c5ccc([nH]5)c(-c5c(F)cc(S(=O)(=O)[O-])cc5F)c5nc(c(-c6c(F)cc(S(=O)(=O)[O-])cc6F)c6ccc3[nH]6)C=C5)C=C4)cc2)s1
REMARK SMILES IDX 24 1 23 2 22 3 21 4 20 5 19 6 17 7 18 8 16 9 15 10 14 11
REMARK SMILES IDX 11 12 12 13 100 14 13 15 10 16 1 17 2 18 3 20 4 21 5 22 9 23
REMARK SMILES IDX 6 25 8 26 7 27 25 28 26 29 27 30 28 31 29 32 30 33 31 34
REMARK SMILES IDX 32 35 33 36 34 37 35 38 99 39 36 40 98 41 37 42 38 43 39 44
REMARK SMILES IDX 92 45 40 46 97 47 91 48 93 49 41 50 96 51 90 52 89 53 42 55
REMARK SMILES IDX 76 56 55 57 75 58 56 59 59 60 74 61 94 62 57 63 58 64 73 66
REMARK SMILES IDX 95 67 60 68 43 69 44 70 53 71 45 72 46 73 52 74 54 75 47 76
REMARK SMILES IDX 48 77 49 78 50 79 51 80 77 81 78 82 87 83 79 84 80 85 86 86
REMARK SMILES IDX 88 87 81 88 82 89 83 90 84 91 85 92 61 93 62 94 71 95 63 96
REMARK SMILES IDX 64 97 70 98 72 99 65 100 66 101 67 102 68 103 69 104
REMARK H PARENT 10 19 4 24 93 54 59 65
REMARK Flexibility Score: inf
ROOT
ATOM      1  C   UNL A   1      33.913  28.040  25.955  1.00  0.00     0.188 C 
ENDROOT
BRANCH   1   2
ATOM      2  C   UNL A   1      32.779  27.121  26.419  1.00  0.00     0.188 C 
BRANCH   2   3
ATOM      3  O   UNL A   1      32.666  25.799  25.935  1.00  0.00    -0.376 OA
BRANCH   3   4
ATOM      4  C   UNL A   1      32.151  24.798  26.795  1.00  0.00     0.202 C 
BRANCH   4   5
ATOM      5  C   UNL A   1      31.211  23.725  26.200  1.00  0.00     0.261 C 
BRANCH   5   6
ATOM      6  O   UNL A   1      31.458  22.338  26.566  1.00  0.00    -0.463 OA
BRANCH   6   7
ATOM      7  C   UNL A   1      32.600  22.067  27.248  1.00  0.00     0.316 C 
ATOM      8  O   UNL A   1      32.721  22.278  28.455  1.00  0.00    -0.251 OA
BRANCH   7   9
ATOM      9  C   UNL A   1      33.791  21.520  26.465  1.00  0.00     0.200 C 
BRANCH   9  10
ATOM     10  S   UNL A   1      33.638  20.965  24.760  1.00  0.00    -0.082 SA
BRANCH  10  11
ATOM     11  C   UNL A   1      33.654  22.369  23.678  1.00  0.00     0.176 A 
ATOM     12  C   UNL A   1      33.425  24.557  22.730  1.00  0.00     0.213 A 
ATOM     13  N   UNL A   1      34.683  24.185  22.817  1.00  0.00    -0.119 NA
ATOM     14  S   UNL A   1      32.326  23.271  23.040  1.00  0.00    -0.068 S 
ATOM     15  N   UNL A   1      34.814  22.927  23.383  1.00  0.00    -0.130 NA
BRANCH  12  16
ATOM     16  N   UNL A   1      33.069  25.891  22.596  1.00  0.00    -0.296 N 
ATOM     17  O   UNL A   1      31.776  25.834  20.690  1.00  0.00    -0.268 OA
ATOM     18  C   UNL A   1      32.152  26.406  21.714  1.00  0.00     0.281 C 
ATOM     19  H   UNL A   1      33.519  26.532  23.192  1.00  0.00     0.172 HD
BRANCH  18  20
ATOM     20  C   UNL A   1      31.482  27.745  22.110  1.00  0.00     0.364 C 
BRANCH  20  21
ATOM     21  N   UNL A   1      30.290  27.677  22.996  1.00  0.00    -0.323 N 
ATOM     22  C   UNL A   1      29.209  28.551  22.415  1.00  0.00     0.291 C 
ATOM     23  C   UNL A   1      30.520  28.181  24.370  1.00  0.00     0.291 C 
ATOM     24  H   UNL A   1      30.044  26.688  23.052  1.00  0.00     0.348 HD
ATOM     25  C   UNL A   1      29.478  30.069  22.540  1.00  0.00     0.221 C 
ATOM     26  C   UNL A   1      30.783  29.693  24.472  1.00  0.00     0.221 C 
ATOM     27  O   UNL A   1      29.714  30.451  23.901  1.00  0.00    -0.370 OA
ENDBRANCH  20  21
ENDBRANCH  18  20
ENDBRANCH  12  16
ENDBRANCH  10  11
ENDBRANCH   9  10
ENDBRANCH   7   9
ENDBRANCH   6   7
ENDBRANCH   5   6
ENDBRANCH   4   5
ENDBRANCH   3   4
ENDBRANCH   2   3
ENDBRANCH   1   2
BRANCH   1  28
ATOM     28  O   UNL A   1      33.806  29.434  26.104  1.00  0.00    -0.377 OA
BRANCH  28  29
ATOM     29  C   UNL A   1      33.643  29.989  27.400  1.00  0.00     0.188 C 
BRANCH  29  30
ATOM     30  C   UNL A   1      34.133  31.423  27.579  1.00  0.00     0.188 C 
BRANCH  30  31
ATOM     31  O   UNL A   1      34.130  32.019  28.881  1.00  0.00    -0.376 OA
BRANCH  31  32
ATOM     32  C   UNL A   1      35.340  32.457  29.488  1.00  0.00     0.202 C 
BRANCH  32  33
ATOM     33  C   UNL A   1      35.585  31.833  30.853  1.00  0.00     0.261 C 
BRANCH  33  34
ATOM     34  O   UNL A   1      36.573  30.819  30.689  1.00  0.00    -0.460 OA
BRANCH  34  35
ATOM     35  C   UNL A   1      37.307  30.624  31.806  1.00  0.00     0.338 C 
ATOM     36  O   UNL A   1      36.892  30.378  32.928  1.00  0.00    -0.246 OA
BRANCH  35  37
ATOM     37  C   UNL A   1      38.723  30.531  31.411  1.00  0.00     0.060 A 
ATOM     38  C   UNL A   1      39.057  30.990  30.132  1.00  0.00     0.016 A 
ATOM     39  C   UNL A   1      39.704  30.018  32.270  1.00  0.00     0.016 A 
ATOM     40  C   UNL A   1      40.354  30.853  29.672  1.00  0.00     0.010 A 
ATOM     41  C   UNL A   1      41.005  29.865  31.804  1.00  0.00     0.010 A 
ATOM     42  C   UNL A   1      41.305  30.223  30.482  1.00  0.00    -0.014 A 
BRANCH  42  43
ATOM     43  C   UNL A   1      42.510  29.697  29.824  1.00  0.00     0.031 A 
ATOM     44  C   UNL A   1      43.725  30.579  29.797  1.00  0.00     0.074 A 
ATOM     45  C   UNL A   1      42.532  28.433  29.376  1.00  0.00     0.049 A 
ATOM     46  N   UNL A   1      44.927  30.319  29.364  1.00  0.00    -0.248 NA
ATOM     47  C   UNL A   1      43.564  31.940  30.343  1.00  0.00     0.031 C 
ATOM     48  C   UNL A   1      41.402  27.505  29.412  1.00  0.00     0.029 A 
ATOM     49  N   UNL A   1      43.550  27.711  28.817  1.00  0.00    -0.354 N 
ATOM     50  C   UNL A   1      45.664  31.476  29.587  1.00  0.00     0.074 A 
ATOM     51  C   UNL A   1      44.769  32.454  30.159  1.00  0.00     0.031 C 
ATOM     52  C   UNL A   1      41.792  26.328  28.895  1.00  0.00     0.029 A 
ATOM     53  C   UNL A   1      43.186  26.433  28.471  1.00  0.00     0.049 A 
ATOM     54  H   UNL A   1      44.454  28.072  28.676  1.00  0.00     0.167 HD
ATOM     55  C   UNL A   1      46.976  31.693  29.343  1.00  0.00     0.037 A 
ATOM     56  C   UNL A   1      43.908  25.472  27.869  1.00  0.00     0.037 A 
ATOM     57  C   UNL A   1      47.839  30.699  28.762  1.00  0.00     0.049 A 
ATOM     58  C   UNL A   1      45.353  25.756  27.554  1.00  0.00     0.074 A 
ATOM     59  C   UNL A   1      49.185  30.793  28.466  1.00  0.00     0.029 A 
ATOM     60  N   UNL A   1      47.429  29.428  28.378  1.00  0.00    -0.354 N 
ATOM     61  N   UNL A   1      46.049  26.845  27.787  1.00  0.00    -0.248 NA
ATOM     62  C   UNL A   1      46.112  24.682  26.906  1.00  0.00     0.031 C 
ATOM     63  C   UNL A   1      49.574  29.601  27.846  1.00  0.00     0.029 A 
ATOM     64  C   UNL A   1      48.489  28.738  27.818  1.00  0.00     0.049 A 
ATOM     65  H   UNL A   1      46.517  29.072  28.488  1.00  0.00     0.167 HD
ATOM     66  C   UNL A   1      47.336  26.582  27.330  1.00  0.00     0.074 A 
ATOM     67  C   UNL A   1      47.322  25.219  26.832  1.00  0.00     0.031 C 
ATOM     68  C   UNL A   1      48.431  27.385  27.321  1.00  0.00     0.037 A 
BRANCH  55  69
ATOM     69  C   UNL A   1      47.530  33.055  29.660  1.00  0.00     0.058 A 
ATOM     70  C   UNL A   1      47.513  34.105  28.726  1.00  0.00     0.135 A 
ATOM     71  C   UNL A   1      48.082  33.317  30.925  1.00  0.00     0.135 A 
ATOM     72  F   UNL A   1      47.024  33.904  27.491  1.00  0.00    -0.206 F 
ATOM     73  C   UNL A   1      48.041  35.357  29.027  1.00  0.00     0.059 A 
ATOM     74  C   UNL A   1      48.589  34.569  31.258  1.00  0.00     0.059 A 
ATOM     75  F   UNL A   1      48.139  32.347  31.851  1.00  0.00    -0.206 F 
ATOM     76  C   UNL A   1      48.574  35.580  30.298  1.00  0.00     0.060 A 
BRANCH  76  77
ATOM     77  S   UNL A   1      49.242  37.214  30.679  1.00  0.00     0.124 S 
ATOM     78  O   UNL A   1      50.438  36.870  31.443  1.00  0.00    -0.237 OA
ATOM     79  O   UNL A   1      49.478  37.770  29.351  1.00  0.00    -0.237 OA
ATOM     80  O   UNL A   1      48.172  37.850  31.442  1.00  0.00    -0.744 OA
ENDBRANCH  76  77
ENDBRANCH  55  69
BRANCH  56  81
ATOM     81  C   UNL A   1      43.272  24.173  27.526  1.00  0.00     0.058 A 
ATOM     82  C   UNL A   1      42.727  23.935  26.256  1.00  0.00     0.135 A 
ATOM     83  C   UNL A   1      43.216  23.130  28.466  1.00  0.00     0.135 A 
ATOM     84  F   UNL A   1      42.751  24.901  25.324  1.00  0.00    -0.206 F 
ATOM     85  C   UNL A   1      42.137  22.717  25.933  1.00  0.00     0.059 A 
ATOM     86  C   UNL A   1      42.659  21.894  28.156  1.00  0.00     0.059 A 
ATOM     87  F   UNL A   1      43.737  23.299  29.691  1.00  0.00    -0.206 F 
ATOM     88  C   UNL A   1      42.112  21.701  26.889  1.00  0.00     0.060 A 
BRANCH  88  89
ATOM     89  S   UNL A   1      41.392  20.106  26.443  1.00  0.00     0.124 S 
ATOM     90  O   UNL A   1      40.029  20.488  26.091  1.00  0.00    -0.237 OA
ATOM     91  O   UNL A   1      42.245  19.687  25.335  1.00  0.00    -0.237 OA
ATOM     92  O   UNL A   1      41.532  19.319  27.664  1.00  0.00    -0.744 OA
ENDBRANCH  88  89
ENDBRANCH  56  81
BRANCH  68  93
ATOM     93  C   UNL A   1      49.700  26.794  26.769  1.00  0.00     0.058 A 
ATOM     94  C   UNL A   1      50.600  26.089  27.582  1.00  0.00     0.135 A 
ATOM     95  C   UNL A   1      50.003  26.915  25.404  1.00  0.00     0.135 A 
ATOM     96  F   UNL A   1      50.357  25.945  28.895  1.00  0.00    -0.206 F 
ATOM     97  C   UNL A   1      51.783  25.568  27.071  1.00  0.00     0.059 A 
ATOM     98  C   UNL A   1      51.162  26.369  24.863  1.00  0.00     0.059 A 
ATOM     99  F   UNL A   1      49.166  27.563  24.578  1.00  0.00    -0.206 F 
ATOM    100  C   UNL A   1      52.056  25.716  25.710  1.00  0.00     0.060 A 
BRANCH 100 101
ATOM    101  S   UNL A   1      53.596  25.039  25.060  1.00  0.00     0.124 S 
ATOM    102  O   UNL A   1      53.345  23.605  25.149  1.00  0.00    -0.237 OA
ATOM    103  O   UNL A   1      53.636  25.594  23.712  1.00  0.00    -0.237 OA
ATOM    104  O   UNL A   1      54.609  25.558  25.976  1.00  0.00    -0.744 OA
ENDBRANCH 100 101
ENDBRANCH  68  93
ENDBRANCH  42  43
ENDBRANCH  35  37
ENDBRANCH  34  35
ENDBRANCH  33  34
ENDBRANCH  32  33
ENDBRANCH  31  32
ENDBRANCH  30  31
ENDBRANCH  29  30
ENDBRANCH  28  29
ENDBRANCH   1  28
TORSDOF 28
ENDMDL
