MODEL 1
REMARK VINA RESULT:     -11.1      0.000      0.000
REMARK SMILES O=C(OCCOCCOCCOCCOC(=O)c1nn(Cc2ccc(F)cc2)c2c1CN(C(=O)[C@H]1CC1(F)F)CC2)c1ccc(-c2c3nc(c(-c4c(F)cc(S(=O)(=O)[O-])cc4F)c4ccc([nH]4)c(-c4c(F)cc(S(=O)(=O)[O-])cc4F)c4nc(c(-c5c(F)cc(S(=O)(=O)[O-])cc5F)c5ccc2[nH]5)C=C4)C=C3)cc1
REMARK SMILES IDX 8 1 7 2 6 3 5 4 4 5 3 6 2 7 1 8 42 9 43 10 107 11 44 12
REMARK SMILES IDX 106 13 45 14 46 15 47 16 100 17 48 18 105 19 99 20 101 21
REMARK SMILES IDX 49 22 104 23 98 24 97 25 50 27 84 28 63 29 83 30 64 31 67 32
REMARK SMILES IDX 82 33 102 34 65 35 66 36 81 38 103 39 68 40 51 41 52 42
REMARK SMILES IDX 61 43 53 44 54 45 60 46 62 47 55 48 56 49 57 50 58 51 59 52
REMARK SMILES IDX 85 53 86 54 95 55 87 56 88 57 94 58 96 59 89 60 90 61 91 62
REMARK SMILES IDX 92 63 93 64 69 65 70 66 79 67 71 68 72 69 78 70 80 71 73 72
REMARK SMILES IDX 74 73 75 74 76 75 77 76 9 77 10 78 11 79 12 80 13 81 14 82
REMARK SMILES IDX 15 83 16 84 17 85 18 86 19 87 30 88 20 89 29 90 31 91 41 92
REMARK SMILES IDX 32 93 40 94 21 95 22 96 23 97 28 98 24 99 27 100 25 101
REMARK SMILES IDX 26 102 33 103 34 104 35 105 36 106 37 107 38 108 39 109
REMARK H PARENT 101 26 67 37
REMARK Flexibility Score: inf
ROOT
ATOM      1  C   UNL A   1      31.663  26.764  26.531  1.00  0.00     0.188 C 
ENDROOT
BRANCH   1   2
ATOM      2  C   UNL A   1      31.779  28.112  27.255  1.00  0.00     0.188 C 
BRANCH   2   3
ATOM      3  O   UNL A   1      32.485  29.244  26.781  1.00  0.00    -0.376 OA
BRANCH   3   4
ATOM      4  C   UNL A   1      32.623  30.554  27.279  1.00  0.00     0.202 C 
BRANCH   4   5
ATOM      5  C   UNL A   1      33.907  31.357  27.473  1.00  0.00     0.261 C 
BRANCH   5   6
ATOM      6  O   UNL A   1      34.156  31.921  28.749  1.00  0.00    -0.460 OA
BRANCH   6   7
ATOM      7  C   UNL A   1      35.138  31.605  29.616  1.00  0.00     0.338 C 
ATOM      8  O   UNL A   1      35.039  31.989  30.781  1.00  0.00    -0.246 OA
BRANCH   7   9
ATOM      9  C   UNL A   1      36.411  30.972  29.198  1.00  0.00     0.060 A 
ATOM     10  C   UNL A   1      36.592  29.611  28.952  1.00  0.00     0.016 A 
ATOM     11  C   UNL A   1      37.521  31.840  29.149  1.00  0.00     0.016 A 
ATOM     12  C   UNL A   1      37.866  29.101  28.831  1.00  0.00     0.010 A 
ATOM     13  C   UNL A   1      38.800  31.336  29.016  1.00  0.00     0.010 A 
ATOM     14  C   UNL A   1      38.954  29.958  28.969  1.00  0.00    -0.014 A 
BRANCH  14  15
ATOM     15  C   UNL A   1      40.226  29.318  29.230  1.00  0.00     0.031 A 
ATOM     16  C   UNL A   1      40.605  29.209  30.656  1.00  0.00     0.074 A 
ATOM     17  C   UNL A   1      41.004  28.932  28.201  1.00  0.00     0.049 A 
ATOM     18  N   UNL A   1      41.560  29.818  31.280  1.00  0.00    -0.248 NA
ATOM     19  C   UNL A   1      39.713  28.434  31.528  1.00  0.00     0.031 C 
ATOM     20  C   UNL A   1      40.644  28.805  26.783  1.00  0.00     0.029 A 
ATOM     21  N   UNL A   1      42.281  28.479  28.230  1.00  0.00    -0.354 N 
ATOM     22  C   UNL A   1      41.528  29.329  32.583  1.00  0.00     0.074 A 
ATOM     23  C   UNL A   1      40.281  28.621  32.718  1.00  0.00     0.031 C 
ATOM     24  C   UNL A   1      41.590  28.080  26.149  1.00  0.00     0.029 A 
ATOM     25  C   UNL A   1      42.676  27.821  27.076  1.00  0.00     0.049 A 
ATOM     26  H   UNL A   1      42.877  28.607  29.004  1.00  0.00     0.167 HD
ATOM     27  C   UNL A   1      42.630  29.344  33.381  1.00  0.00     0.037 A 
ATOM     28  C   UNL A   1      43.771  27.033  26.948  1.00  0.00     0.037 A 
ATOM     29  C   UNL A   1      43.603  30.303  32.926  1.00  0.00     0.049 A 
ATOM     30  C   UNL A   1      44.717  27.432  28.027  1.00  0.00     0.074 A 
ATOM     31  C   UNL A   1      43.608  31.675  32.760  1.00  0.00     0.029 A 
ATOM     32  N   UNL A   1      44.694  29.841  32.230  1.00  0.00    -0.354 N 
ATOM     33  N   UNL A   1      45.304  28.598  28.086  1.00  0.00    -0.248 NA
ATOM     34  C   UNL A   1      44.657  26.705  29.287  1.00  0.00     0.031 C 
ATOM     35  C   UNL A   1      44.403  31.908  31.601  1.00  0.00     0.029 A 
ATOM     36  C   UNL A   1      44.870  30.671  31.152  1.00  0.00     0.049 A 
ATOM     37  H   UNL A   1      45.247  29.061  32.464  1.00  0.00     0.167 HD
ATOM     38  C   UNL A   1      45.322  28.926  29.435  1.00  0.00     0.074 A 
ATOM     39  C   UNL A   1      44.990  27.685  30.131  1.00  0.00     0.031 C 
ATOM     40  C   UNL A   1      45.332  30.227  29.854  1.00  0.00     0.037 A 
BRANCH  27  41
ATOM     41  C   UNL A   1      42.972  28.236  34.350  1.00  0.00     0.058 A 
ATOM     42  C   UNL A   1      43.417  26.957  33.945  1.00  0.00     0.135 A 
ATOM     43  C   UNL A   1      43.152  28.537  35.716  1.00  0.00     0.135 A 
ATOM     44  F   UNL A   1      43.392  26.555  32.669  1.00  0.00    -0.206 F 
ATOM     45  C   UNL A   1      44.016  26.056  34.814  1.00  0.00     0.059 A 
ATOM     46  C   UNL A   1      43.802  27.667  36.595  1.00  0.00     0.059 A 
ATOM     47  F   UNL A   1      42.770  29.725  36.209  1.00  0.00    -0.206 F 
ATOM     48  C   UNL A   1      44.243  26.435  36.127  1.00  0.00     0.060 A 
BRANCH  48  49
ATOM     49  S   UNL A   1      45.238  25.334  37.149  1.00  0.00     0.124 S 
ATOM     50  O   UNL A   1      46.079  26.285  37.868  1.00  0.00    -0.237 OA
ATOM     51  O   UNL A   1      44.216  24.659  37.941  1.00  0.00    -0.237 OA
ATOM     52  O   UNL A   1      45.924  24.498  36.169  1.00  0.00    -0.744 OA
ENDBRANCH  48  49
ENDBRANCH  27  41
BRANCH  28  53
ATOM     53  C   UNL A   1      43.815  25.711  26.267  1.00  0.00     0.058 A 
ATOM     54  C   UNL A   1      43.054  24.613  26.722  1.00  0.00     0.135 A 
ATOM     55  C   UNL A   1      44.812  25.422  25.319  1.00  0.00     0.135 A 
ATOM     56  F   UNL A   1      42.114  24.756  27.667  1.00  0.00    -0.206 F 
ATOM     57  C   UNL A   1      43.289  23.309  26.296  1.00  0.00     0.059 A 
ATOM     58  C   UNL A   1      45.075  24.117  24.885  1.00  0.00     0.059 A 
ATOM     59  F   UNL A   1      45.596  26.404  24.848  1.00  0.00    -0.206 F 
ATOM     60  C   UNL A   1      44.322  23.064  25.400  1.00  0.00     0.060 A 
BRANCH  60  61
ATOM     61  S   UNL A   1      44.705  21.343  25.012  1.00  0.00     0.124 S 
ATOM     62  O   UNL A   1      43.623  20.635  25.691  1.00  0.00    -0.237 OA
ATOM     63  O   UNL A   1      44.642  21.340  23.554  1.00  0.00    -0.237 OA
ATOM     64  O   UNL A   1      46.035  21.151  25.582  1.00  0.00    -0.744 OA
ENDBRANCH  60  61
ENDBRANCH  28  53
BRANCH  40  65
ATOM     65  C   UNL A   1      45.592  31.306  28.833  1.00  0.00     0.058 A 
ATOM     66  C   UNL A   1      46.844  31.940  28.835  1.00  0.00     0.135 A 
ATOM     67  C   UNL A   1      44.599  31.849  27.998  1.00  0.00     0.135 A 
ATOM     68  F   UNL A   1      47.816  31.508  29.654  1.00  0.00    -0.206 F 
ATOM     69  C   UNL A   1      47.100  33.065  28.054  1.00  0.00     0.059 A 
ATOM     70  C   UNL A   1      44.844  32.957  27.181  1.00  0.00     0.059 A 
ATOM     71  F   UNL A   1      43.349  31.368  28.013  1.00  0.00    -0.206 F 
ATOM     72  C   UNL A   1      46.094  33.569  27.232  1.00  0.00     0.060 A 
BRANCH  72  73
ATOM     73  S   UNL A   1      46.440  35.059  26.272  1.00  0.00     0.124 S 
ATOM     74  O   UNL A   1      47.595  35.610  26.976  1.00  0.00    -0.237 OA
ATOM     75  O   UNL A   1      46.711  34.519  24.942  1.00  0.00    -0.237 OA
ATOM     76  O   UNL A   1      45.212  35.842  26.386  1.00  0.00    -0.744 OA
ENDBRANCH  72  73
ENDBRANCH  40  65
ENDBRANCH  14  15
ENDBRANCH   7   9
ENDBRANCH   6   7
ENDBRANCH   5   6
ENDBRANCH   4   5
ENDBRANCH   3   4
ENDBRANCH   2   3
ENDBRANCH   1   2
BRANCH   1  77
ATOM     77  O   UNL A   1      30.372  26.194  26.459  1.00  0.00    -0.377 OA
BRANCH  77  78
ATOM     78  C   UNL A   1      30.363  24.798  26.283  1.00  0.00     0.188 C 
BRANCH  78  79
ATOM     79  C   UNL A   1      31.721  24.120  26.569  1.00  0.00     0.188 C 
BRANCH  79  80
ATOM     80  O   UNL A   1      31.922  23.272  27.690  1.00  0.00    -0.376 OA
BRANCH  80  81
ATOM     81  C   UNL A   1      32.829  22.192  27.615  1.00  0.00     0.202 C 
BRANCH  81  82
ATOM     82  C   UNL A   1      34.293  22.457  27.988  1.00  0.00     0.261 C 
BRANCH  82  83
ATOM     83  O   UNL A   1      35.119  23.059  26.979  1.00  0.00    -0.458 OA
BRANCH  83  84
ATOM     84  C   UNL A   1      35.579  22.255  25.970  1.00  0.00     0.359 C 
ATOM     85  O   UNL A   1      36.666  21.691  25.964  1.00  0.00    -0.244 OA
BRANCH  84  86
ATOM     86  C   UNL A   1      34.574  22.082  24.905  1.00  0.00     0.175 A 
ATOM     87  N   UNL A   1      34.021  20.869  24.702  1.00  0.00    -0.165 NA
ATOM     88  C   UNL A   1      34.045  23.037  23.973  1.00  0.00     0.028 A 
ATOM     89  N   UNL A   1      33.186  21.030  23.656  1.00  0.00    -0.264 N 
ATOM     90  C   UNL A   1      33.195  22.299  23.169  1.00  0.00     0.046 A 
ATOM     91  C   UNL A   1      34.305  24.496  23.748  1.00  0.00     0.159 C 
ATOM     92  C   UNL A   1      32.427  22.837  22.016  1.00  0.00     0.078 C 
ATOM     93  N   UNL A   1      33.373  25.027  22.728  1.00  0.00    -0.337 N 
ATOM     94  C   UNL A   1      33.086  24.155  21.571  1.00  0.00     0.126 C 
BRANCH  89  95
ATOM     95  C   UNL A   1      32.304  19.936  23.274  1.00  0.00     0.180 C 
BRANCH  95  96
ATOM     96  C   UNL A   1      32.734  18.609  23.848  1.00  0.00    -0.026 A 
ATOM     97  C   UNL A   1      32.404  18.268  25.171  1.00  0.00     0.008 A 
ATOM     98  C   UNL A   1      33.434  17.681  23.060  1.00  0.00     0.008 A 
ATOM     99  C   UNL A   1      32.750  17.021  25.691  1.00  0.00     0.039 A 
ATOM    100  C   UNL A   1      33.774  16.432  23.583  1.00  0.00     0.039 A 
ATOM    101  C   UNL A   1      33.424  16.111  24.888  1.00  0.00     0.123 A 
ATOM    102  F   UNL A   1      33.735  14.904  25.377  1.00  0.00    -0.207 F 
ENDBRANCH  95  96
ENDBRANCH  89  95
BRANCH  93 103
ATOM    103  C   UNL A   1      32.953  26.345  22.839  1.00  0.00     0.232 C 
ATOM    104  O   UNL A   1      33.618  27.220  23.385  1.00  0.00    -0.274 OA
BRANCH 103 105
ATOM    105  C   UNL A   1      31.651  26.694  22.234  1.00  0.00     0.154 C 
ATOM    106  C   UNL A   1      30.364  26.432  23.005  1.00  0.00     0.097 C 
ATOM    107  C   UNL A   1      30.844  27.814  22.774  1.00  0.00     0.260 C 
ATOM    108  F   UNL A   1      31.217  28.571  23.858  1.00  0.00    -0.206 F 
ATOM    109  F   UNL A   1      30.111  28.629  21.939  1.00  0.00    -0.206 F 
ENDBRANCH 103 105
ENDBRANCH  93 103
ENDBRANCH  84  86
ENDBRANCH  83  84
ENDBRANCH  82  83
ENDBRANCH  81  82
ENDBRANCH  80  81
ENDBRANCH  79  80
ENDBRANCH  78  79
ENDBRANCH  77  78
ENDBRANCH   1  77
TORSDOF 27
ENDMDL
MODEL 2
REMARK VINA RESULT:      -9.1      4.139      6.175
REMARK SMILES O=C(OCCOCCOCCOCCOC(=O)c1nn(Cc2ccc(F)cc2)c2c1CN(C(=O)[C@H]1CC1(F)F)CC2)c1ccc(-c2c3nc(c(-c4c(F)cc(S(=O)(=O)[O-])cc4F)c4ccc([nH]4)c(-c4c(F)cc(S(=O)(=O)[O-])cc4F)c4nc(c(-c5c(F)cc(S(=O)(=O)[O-])cc5F)c5ccc2[nH]5)C=C4)C=C3)cc1
REMARK SMILES IDX 8 1 7 2 6 3 5 4 4 5 3 6 2 7 1 8 42 9 43 10 107 11 44 12
REMARK SMILES IDX 106 13 45 14 46 15 47 16 100 17 48 18 105 19 99 20 101 21
REMARK SMILES IDX 49 22 104 23 98 24 97 25 50 27 84 28 63 29 83 30 64 31 67 32
REMARK SMILES IDX 82 33 102 34 65 35 66 36 81 38 103 39 68 40 51 41 52 42
REMARK SMILES IDX 61 43 53 44 54 45 60 46 62 47 55 48 56 49 57 50 58 51 59 52
REMARK SMILES IDX 85 53 86 54 95 55 87 56 88 57 94 58 96 59 89 60 90 61 91 62
REMARK SMILES IDX 92 63 93 64 69 65 70 66 79 67 71 68 72 69 78 70 80 71 73 72
REMARK SMILES IDX 74 73 75 74 76 75 77 76 9 77 10 78 11 79 12 80 13 81 14 82
REMARK SMILES IDX 15 83 16 84 17 85 18 86 19 87 30 88 20 89 29 90 31 91 41 92
REMARK SMILES IDX 32 93 40 94 21 95 22 96 23 97 28 98 24 99 27 100 25 101
REMARK SMILES IDX 26 102 33 103 34 104 35 105 36 106 37 107 38 108 39 109
REMARK H PARENT 101 26 67 37
REMARK Flexibility Score: inf
ROOT
ATOM      1  C   UNL A   1      31.796  29.607  26.772  1.00  0.00     0.188 C 
ENDROOT
BRANCH   1   2
ATOM      2  C   UNL A   1      33.134  30.141  26.243  1.00  0.00     0.188 C 
BRANCH   2   3
ATOM      3  O   UNL A   1      34.155  30.729  27.027  1.00  0.00    -0.376 OA
BRANCH   3   4
ATOM      4  C   UNL A   1      34.120  31.611  28.125  1.00  0.00     0.202 C 
BRANCH   4   5
ATOM      5  C   UNL A   1      34.122  33.138  28.107  1.00  0.00     0.261 C 
BRANCH   5   6
ATOM      6  O   UNL A   1      33.540  33.820  29.204  1.00  0.00    -0.460 OA
BRANCH   6   7
ATOM      7  C   UNL A   1      34.048  33.982  30.441  1.00  0.00     0.338 C 
ATOM      8  O   UNL A   1      33.533  34.819  31.183  1.00  0.00    -0.246 OA
BRANCH   7   9
ATOM      9  C   UNL A   1      35.303  33.333  30.891  1.00  0.00     0.060 A 
ATOM     10  C   UNL A   1      35.379  32.156  31.635  1.00  0.00     0.016 A 
ATOM     11  C   UNL A   1      36.482  34.048  30.599  1.00  0.00     0.016 A 
ATOM     12  C   UNL A   1      36.572  31.792  32.219  1.00  0.00     0.010 A 
ATOM     13  C   UNL A   1      37.684  33.682  31.171  1.00  0.00     0.010 A 
ATOM     14  C   UNL A   1      37.682  32.618  32.063  1.00  0.00    -0.014 A 
BRANCH  14  15
ATOM     15  C   UNL A   1      38.761  32.403  33.004  1.00  0.00     0.031 A 
ATOM     16  C   UNL A   1      38.662  33.158  34.272  1.00  0.00     0.074 A 
ATOM     17  C   UNL A   1      39.796  31.612  32.664  1.00  0.00     0.049 A 
ATOM     18  N   UNL A   1      39.409  34.128  34.688  1.00  0.00    -0.248 NA
ATOM     19  C   UNL A   1      37.490  32.894  35.118  1.00  0.00     0.031 C 
ATOM     20  C   UNL A   1      39.896  30.671  31.542  1.00  0.00     0.029 A 
ATOM     21  N   UNL A   1      40.965  31.422  33.323  1.00  0.00    -0.354 N 
ATOM     22  C   UNL A   1      38.933  34.451  35.956  1.00  0.00     0.074 A 
ATOM     23  C   UNL A   1      37.663  33.784  36.093  1.00  0.00     0.031 C 
ATOM     24  C   UNL A   1      40.943  29.844  31.748  1.00  0.00     0.029 A 
ATOM     25  C   UNL A   1      41.660  30.289  32.929  1.00  0.00     0.049 A 
ATOM     26  H   UNL A   1      41.293  32.035  34.020  1.00  0.00     0.167 HD
ATOM     27  C   UNL A   1      39.725  35.050  36.887  1.00  0.00     0.037 A 
ATOM     28  C   UNL A   1      42.684  29.713  33.603  1.00  0.00     0.037 A 
ATOM     29  C   UNL A   1      40.854  35.707  36.280  1.00  0.00     0.049 A 
ATOM     30  C   UNL A   1      43.265  30.763  34.485  1.00  0.00     0.074 A 
ATOM     31  C   UNL A   1      41.003  36.739  35.374  1.00  0.00     0.029 A 
ATOM     32  N   UNL A   1      42.075  35.081  36.332  1.00  0.00    -0.354 N 
ATOM     33  N   UNL A   1      43.880  31.827  34.040  1.00  0.00    -0.248 NA
ATOM     34  C   UNL A   1      42.762  30.862  35.847  1.00  0.00     0.031 C 
ATOM     35  C   UNL A   1      42.137  36.386  34.588  1.00  0.00     0.029 A 
ATOM     36  C   UNL A   1      42.638  35.181  35.085  1.00  0.00     0.049 A 
ATOM     37  H   UNL A   1      42.472  34.642  37.119  1.00  0.00     0.167 HD
ATOM     38  C   UNL A   1      43.493  32.851  34.895  1.00  0.00     0.074 A 
ATOM     39  C   UNL A   1      42.875  32.179  36.036  1.00  0.00     0.031 C 
ATOM     40  C   UNL A   1      43.456  34.153  34.479  1.00  0.00     0.037 A 
BRANCH  27  41
ATOM     41  C   UNL A   1      39.669  34.726  38.361  1.00  0.00     0.058 A 
ATOM     42  C   UNL A   1      39.200  35.631  39.341  1.00  0.00     0.135 A 
ATOM     43  C   UNL A   1      39.798  33.387  38.786  1.00  0.00     0.135 A 
ATOM     44  F   UNL A   1      38.945  36.917  39.071  1.00  0.00    -0.206 F 
ATOM     45  C   UNL A   1      38.861  35.241  40.629  1.00  0.00     0.059 A 
ATOM     46  C   UNL A   1      39.411  32.964  40.060  1.00  0.00     0.059 A 
ATOM     47  F   UNL A   1      40.231  32.441  37.937  1.00  0.00    -0.206 F 
ATOM     48  C   UNL A   1      38.929  33.899  40.967  1.00  0.00     0.060 A 
BRANCH  48  49
ATOM     49  S   UNL A   1      38.250  33.411  42.562  1.00  0.00     0.124 S 
ATOM     50  O   UNL A   1      38.222  34.687  43.270  1.00  0.00    -0.237 OA
ATOM     51  O   UNL A   1      36.953  32.864  42.180  1.00  0.00    -0.237 OA
ATOM     52  O   UNL A   1      39.219  32.437  43.054  1.00  0.00    -0.744 OA
ENDBRANCH  48  49
ENDBRANCH  27  41
BRANCH  28  53
ATOM     53  C   UNL A   1      42.854  28.254  33.845  1.00  0.00     0.058 A 
ATOM     54  C   UNL A   1      42.115  27.573  34.836  1.00  0.00     0.135 A 
ATOM     55  C   UNL A   1      43.940  27.553  33.293  1.00  0.00     0.135 A 
ATOM     56  F   UNL A   1      41.092  28.160  35.475  1.00  0.00    -0.206 F 
ATOM     57  C   UNL A   1      42.451  26.297  35.279  1.00  0.00     0.059 A 
ATOM     58  C   UNL A   1      44.305  26.275  33.732  1.00  0.00     0.059 A 
ATOM     59  F   UNL A   1      44.709  28.134  32.360  1.00  0.00    -0.206 F 
ATOM     60  C   UNL A   1      43.567  25.666  34.745  1.00  0.00     0.060 A 
BRANCH  60  61
ATOM     61  S   UNL A   1      44.069  24.092  35.473  1.00  0.00     0.124 S 
ATOM     62  O   UNL A   1      43.053  23.183  34.950  1.00  0.00    -0.237 OA
ATOM     63  O   UNL A   1      45.411  23.919  34.926  1.00  0.00    -0.237 OA
ATOM     64  O   UNL A   1      44.007  24.344  36.909  1.00  0.00    -0.744 OA
ENDBRANCH  60  61
ENDBRANCH  28  53
BRANCH  40  65
ATOM     65  C   UNL A   1      44.097  34.501  33.159  1.00  0.00     0.058 A 
ATOM     66  C   UNL A   1      43.329  34.383  31.991  1.00  0.00     0.135 A 
ATOM     67  C   UNL A   1      45.471  34.760  33.000  1.00  0.00     0.135 A 
ATOM     68  F   UNL A   1      42.024  34.078  32.072  1.00  0.00    -0.206 F 
ATOM     69  C   UNL A   1      43.893  34.505  30.724  1.00  0.00     0.059 A 
ATOM     70  C   UNL A   1      46.052  34.919  31.739  1.00  0.00     0.059 A 
ATOM     71  F   UNL A   1      46.293  34.786  34.057  1.00  0.00    -0.206 F 
ATOM     72  C   UNL A   1      45.256  34.770  30.606  1.00  0.00     0.060 A 
BRANCH  72  73
ATOM     73  S   UNL A   1      45.968  34.871  28.949  1.00  0.00     0.124 S 
ATOM     74  O   UNL A   1      44.818  34.554  28.107  1.00  0.00    -0.237 OA
ATOM     75  O   UNL A   1      46.429  36.256  28.890  1.00  0.00    -0.237 OA
ATOM     76  O   UNL A   1      47.025  33.863  28.961  1.00  0.00    -0.744 OA
ENDBRANCH  72  73
ENDBRANCH  40  65
ENDBRANCH  14  15
ENDBRANCH   7   9
ENDBRANCH   6   7
ENDBRANCH   5   6
ENDBRANCH   4   5
ENDBRANCH   3   4
ENDBRANCH   2   3
ENDBRANCH   1   2
BRANCH   1  77
ATOM     77  O   UNL A   1      31.332  28.396  26.210  1.00  0.00    -0.377 OA
BRANCH  77  78
ATOM     78  C   UNL A   1      32.197  27.302  26.393  1.00  0.00     0.188 C 
BRANCH  78  79
ATOM     79  C   UNL A   1      31.510  26.048  26.976  1.00  0.00     0.188 C 
BRANCH  79  80
ATOM     80  O   UNL A   1      30.401  25.429  26.342  1.00  0.00    -0.376 OA
BRANCH  80  81
ATOM     81  C   UNL A   1      29.825  24.261  26.890  1.00  0.00     0.202 C 
BRANCH  81  82
ATOM     82  C   UNL A   1      30.588  22.940  26.728  1.00  0.00     0.261 C 
BRANCH  82  83
ATOM     83  O   UNL A   1      31.732  22.746  27.574  1.00  0.00    -0.458 OA
BRANCH  83  84
ATOM     84  C   UNL A   1      32.911  22.385  26.977  1.00  0.00     0.359 C 
ATOM     85  O   UNL A   1      33.980  22.251  27.560  1.00  0.00    -0.244 OA
BRANCH  84  86
ATOM     86  C   UNL A   1      32.734  22.101  25.541  1.00  0.00     0.175 A 
ATOM     87  N   UNL A   1      32.618  20.824  25.124  1.00  0.00    -0.165 NA
ATOM     88  C   UNL A   1      32.665  23.001  24.425  1.00  0.00     0.028 A 
ATOM     89  N   UNL A   1      32.508  20.897  23.783  1.00  0.00    -0.264 N 
ATOM     90  C   UNL A   1      32.565  22.174  23.321  1.00  0.00     0.046 A 
ATOM     91  C   UNL A   1      32.743  24.495  24.311  1.00  0.00     0.159 C 
ATOM     92  C   UNL A   1      32.502  22.636  21.910  1.00  0.00     0.078 C 
ATOM     93  N   UNL A   1      32.474  24.912  22.917  1.00  0.00    -0.337 N 
ATOM     94  C   UNL A   1      33.051  24.073  21.848  1.00  0.00     0.126 C 
BRANCH  89  95
ATOM     95  C   UNL A   1      32.207  19.689  23.026  1.00  0.00     0.180 C 
BRANCH  95  96
ATOM     96  C   UNL A   1      32.734  18.439  23.685  1.00  0.00    -0.026 A 
ATOM     97  C   UNL A   1      33.657  17.618  23.013  1.00  0.00     0.008 A 
ATOM     98  C   UNL A   1      32.344  18.098  24.990  1.00  0.00     0.008 A 
ATOM     99  C   UNL A   1      34.191  16.491  23.638  1.00  0.00     0.039 A 
ATOM    100  C   UNL A   1      32.884  16.971  25.613  1.00  0.00     0.039 A 
ATOM    101  C   UNL A   1      33.806  16.183  24.936  1.00  0.00     0.123 A 
ATOM    102  F   UNL A   1      34.336  15.116  25.546  1.00  0.00    -0.207 F 
ENDBRANCH  95  96
ENDBRANCH  89  95
BRANCH  93 103
ATOM    103  C   UNL A   1      31.838  26.127  22.701  1.00  0.00     0.232 C 
ATOM    104  O   UNL A   1      30.683  26.353  23.047  1.00  0.00    -0.274 OA
BRANCH 103 105
ATOM    105  C   UNL A   1      32.624  27.195  22.050  1.00  0.00     0.154 C 
ATOM    106  C   UNL A   1      32.552  28.619  22.583  1.00  0.00     0.097 C 
ATOM    107  C   UNL A   1      33.782  27.809  22.741  1.00  0.00     0.260 C 
ATOM    108  F   UNL A   1      34.184  27.465  24.009  1.00  0.00    -0.206 F 
ATOM    109  F   UNL A   1      34.908  28.187  22.044  1.00  0.00    -0.206 F 
ENDBRANCH 103 105
ENDBRANCH  93 103
ENDBRANCH  84  86
ENDBRANCH  83  84
ENDBRANCH  82  83
ENDBRANCH  81  82
ENDBRANCH  80  81
ENDBRANCH  79  80
ENDBRANCH  78  79
ENDBRANCH  77  78
ENDBRANCH   1  77
TORSDOF 27
ENDMDL
MODEL 3
REMARK VINA RESULT:      -9.0      1.562      2.174
REMARK SMILES O=C(OCCOCCOCCOCCOC(=O)c1nn(Cc2ccc(F)cc2)c2c1CN(C(=O)[C@H]1CC1(F)F)CC2)c1ccc(-c2c3nc(c(-c4c(F)cc(S(=O)(=O)[O-])cc4F)c4ccc([nH]4)c(-c4c(F)cc(S(=O)(=O)[O-])cc4F)c4nc(c(-c5c(F)cc(S(=O)(=O)[O-])cc5F)c5ccc2[nH]5)C=C4)C=C3)cc1
REMARK SMILES IDX 8 1 7 2 6 3 5 4 4 5 3 6 2 7 1 8 42 9 43 10 107 11 44 12
REMARK SMILES IDX 106 13 45 14 46 15 47 16 100 17 48 18 105 19 99 20 101 21
REMARK SMILES IDX 49 22 104 23 98 24 97 25 50 27 84 28 63 29 83 30 64 31 67 32
REMARK SMILES IDX 82 33 102 34 65 35 66 36 81 38 103 39 68 40 51 41 52 42
REMARK SMILES IDX 61 43 53 44 54 45 60 46 62 47 55 48 56 49 57 50 58 51 59 52
REMARK SMILES IDX 85 53 86 54 95 55 87 56 88 57 94 58 96 59 89 60 90 61 91 62
REMARK SMILES IDX 92 63 93 64 69 65 70 66 79 67 71 68 72 69 78 70 80 71 73 72
REMARK SMILES IDX 74 73 75 74 76 75 77 76 9 77 10 78 11 79 12 80 13 81 14 82
REMARK SMILES IDX 15 83 16 84 17 85 18 86 19 87 30 88 20 89 29 90 31 91 41 92
REMARK SMILES IDX 32 93 40 94 21 95 22 96 23 97 28 98 24 99 27 100 25 101
REMARK SMILES IDX 26 102 33 103 34 104 35 105 36 106 37 107 38 108 39 109
REMARK H PARENT 101 26 67 37
REMARK Flexibility Score: inf
ROOT
ATOM      1  C   UNL A   1      31.834  29.627  26.838  1.00  0.00     0.188 C 
ENDROOT
BRANCH   1   2
ATOM      2  C   UNL A   1      33.060  29.988  25.988  1.00  0.00     0.188 C 
BRANCH   2   3
ATOM      3  O   UNL A   1      34.405  29.953  26.425  1.00  0.00    -0.376 OA
BRANCH   3   4
ATOM      4  C   UNL A   1      35.001  30.170  27.683  1.00  0.00     0.202 C 
BRANCH   4   5
ATOM      5  C   UNL A   1      35.334  31.503  28.350  1.00  0.00     0.261 C 
BRANCH   5   6
ATOM      6  O   UNL A   1      35.249  31.583  29.762  1.00  0.00    -0.460 OA
BRANCH   6   7
ATOM      7  C   UNL A   1      36.175  31.213  30.670  1.00  0.00     0.338 C 
ATOM      8  O   UNL A   1      36.092  31.667  31.811  1.00  0.00    -0.246 OA
BRANCH   7   9
ATOM      9  C   UNL A   1      37.383  30.430  30.317  1.00  0.00     0.060 A 
ATOM     10  C   UNL A   1      37.479  29.039  30.350  1.00  0.00     0.016 A 
ATOM     11  C   UNL A   1      38.527  31.200  30.023  1.00  0.00     0.016 A 
ATOM     12  C   UNL A   1      38.715  28.437  30.262  1.00  0.00     0.010 A 
ATOM     13  C   UNL A   1      39.767  30.601  29.922  1.00  0.00     0.010 A 
ATOM     14  C   UNL A   1      39.851  29.235  30.154  1.00  0.00    -0.014 A 
BRANCH  14  15
ATOM     15  C   UNL A   1      41.106  28.585  30.466  1.00  0.00     0.031 A 
ATOM     16  C   UNL A   1      41.464  28.543  31.901  1.00  0.00     0.074 A 
ATOM     17  C   UNL A   1      41.889  28.130  29.470  1.00  0.00     0.049 A 
ATOM     18  N   UNL A   1      42.422  29.164  32.506  1.00  0.00    -0.248 NA
ATOM     19  C   UNL A   1      40.544  27.832  32.799  1.00  0.00     0.031 C 
ATOM     20  C   UNL A   1      41.546  27.937  28.055  1.00  0.00     0.029 A 
ATOM     21  N   UNL A   1      43.156  27.654  29.541  1.00  0.00    -0.354 N 
ATOM     22  C   UNL A   1      42.362  28.745  33.833  1.00  0.00     0.074 A 
ATOM     23  C   UNL A   1      41.099  28.070  33.986  1.00  0.00     0.031 C 
ATOM     24  C   UNL A   1      42.485  27.161  27.473  1.00  0.00     0.029 A 
ATOM     25  C   UNL A   1      43.553  26.929  28.429  1.00  0.00     0.049 A 
ATOM     26  H   UNL A   1      43.744  27.811  30.316  1.00  0.00     0.167 HD
ATOM     27  C   UNL A   1      43.454  28.780  34.645  1.00  0.00     0.037 A 
ATOM     28  C   UNL A   1      44.633  26.114  28.358  1.00  0.00     0.037 A 
ATOM     29  C   UNL A   1      44.452  29.694  34.154  1.00  0.00     0.049 A 
ATOM     30  C   UNL A   1      45.573  26.550  29.428  1.00  0.00     0.074 A 
ATOM     31  C   UNL A   1      44.488  31.055  33.917  1.00  0.00     0.029 A 
ATOM     32  N   UNL A   1      45.542  29.175  33.500  1.00  0.00    -0.354 N 
ATOM     33  N   UNL A   1      46.182  27.705  29.434  1.00  0.00    -0.248 NA
ATOM     34  C   UNL A   1      45.481  25.891  30.723  1.00  0.00     0.031 C 
ATOM     35  C   UNL A   1      45.303  31.211  32.759  1.00  0.00     0.029 A 
ATOM     36  C   UNL A   1      45.750  29.943  32.382  1.00  0.00     0.049 A 
ATOM     37  H   UNL A   1      46.076  28.397  33.781  1.00  0.00     0.167 HD
ATOM     38  C   UNL A   1      46.190  28.103  30.765  1.00  0.00     0.074 A 
ATOM     39  C   UNL A   1      45.822  26.907  31.519  1.00  0.00     0.031 C 
ATOM     40  C   UNL A   1      46.220  29.423  31.116  1.00  0.00     0.037 A 
BRANCH  27  41
ATOM     41  C   UNL A   1      43.760  27.718  35.674  1.00  0.00     0.058 A 
ATOM     42  C   UNL A   1      43.988  26.360  35.350  1.00  0.00     0.135 A 
ATOM     43  C   UNL A   1      44.132  28.100  36.980  1.00  0.00     0.135 A 
ATOM     44  F   UNL A   1      43.766  25.864  34.127  1.00  0.00    -0.206 F 
ATOM     45  C   UNL A   1      44.562  25.459  36.235  1.00  0.00     0.059 A 
ATOM     46  C   UNL A   1      44.762  27.223  37.867  1.00  0.00     0.059 A 
ATOM     47  F   UNL A   1      43.964  29.365  37.394  1.00  0.00    -0.206 F 
ATOM     48  C   UNL A   1      44.985  25.908  37.476  1.00  0.00     0.060 A 
BRANCH  48  49
ATOM     49  S   UNL A   1      45.941  24.767  38.490  1.00  0.00     0.124 S 
ATOM     50  O   UNL A   1      47.299  25.261  38.284  1.00  0.00    -0.237 OA
ATOM     51  O   UNL A   1      45.373  24.996  39.813  1.00  0.00    -0.237 OA
ATOM     52  O   UNL A   1      45.645  23.466  37.899  1.00  0.00    -0.744 OA
ENDBRANCH  48  49
ENDBRANCH  27  41
BRANCH  28  53
ATOM     53  C   UNL A   1      44.659  24.758  27.746  1.00  0.00     0.058 A 
ATOM     54  C   UNL A   1      45.580  24.416  26.733  1.00  0.00     0.135 A 
ATOM     55  C   UNL A   1      43.603  23.853  27.953  1.00  0.00     0.135 A 
ATOM     56  F   UNL A   1      46.596  25.227  26.406  1.00  0.00    -0.206 F 
ATOM     57  C   UNL A   1      45.444  23.273  25.950  1.00  0.00     0.059 A 
ATOM     58  C   UNL A   1      43.439  22.705  27.169  1.00  0.00     0.059 A 
ATOM     59  F   UNL A   1      42.671  24.111  28.882  1.00  0.00    -0.206 F 
ATOM     60  C   UNL A   1      44.353  22.438  26.152  1.00  0.00     0.060 A 
BRANCH  60  61
ATOM     61  S   UNL A   1      44.121  21.068  25.000  1.00  0.00     0.124 S 
ATOM     62  O   UNL A   1      42.801  20.575  25.382  1.00  0.00    -0.237 OA
ATOM     63  O   UNL A   1      44.191  21.744  23.708  1.00  0.00    -0.237 OA
ATOM     64  O   UNL A   1      45.236  20.176  25.300  1.00  0.00    -0.744 OA
ENDBRANCH  60  61
ENDBRANCH  28  53
BRANCH  40  65
ATOM     65  C   UNL A   1      46.516  30.442  30.044  1.00  0.00     0.058 A 
ATOM     66  C   UNL A   1      47.808  30.988  29.979  1.00  0.00     0.135 A 
ATOM     67  C   UNL A   1      45.533  31.021  29.221  1.00  0.00     0.135 A 
ATOM     68  F   UNL A   1      48.776  30.521  30.782  1.00  0.00    -0.206 F 
ATOM     69  C   UNL A   1      48.111  32.062  29.146  1.00  0.00     0.059 A 
ATOM     70  C   UNL A   1      45.823  32.078  28.353  1.00  0.00     0.059 A 
ATOM     71  F   UNL A   1      44.255  30.628  29.296  1.00  0.00    -0.206 F 
ATOM     72  C   UNL A   1      47.113  32.603  28.338  1.00  0.00     0.060 A 
BRANCH  72  73
ATOM     73  S   UNL A   1      47.524  34.027  27.307  1.00  0.00     0.124 S 
ATOM     74  O   UNL A   1      46.390  34.915  27.552  1.00  0.00    -0.237 OA
ATOM     75  O   UNL A   1      48.799  34.465  27.871  1.00  0.00    -0.237 OA
ATOM     76  O   UNL A   1      47.598  33.474  25.958  1.00  0.00    -0.744 OA
ENDBRANCH  72  73
ENDBRANCH  40  65
ENDBRANCH  14  15
ENDBRANCH   7   9
ENDBRANCH   6   7
ENDBRANCH   5   6
ENDBRANCH   4   5
ENDBRANCH   3   4
ENDBRANCH   2   3
ENDBRANCH   1   2
BRANCH   1  77
ATOM     77  O   UNL A   1      31.106  28.481  26.445  1.00  0.00    -0.377 OA
BRANCH  77  78
ATOM     78  C   UNL A   1      31.886  27.319  26.302  1.00  0.00     0.188 C 
BRANCH  78  79
ATOM     79  C   UNL A   1      31.230  26.046  26.882  1.00  0.00     0.188 C 
BRANCH  79  80
ATOM     80  O   UNL A   1      30.084  25.451  26.293  1.00  0.00    -0.376 OA
BRANCH  80  81
ATOM     81  C   UNL A   1      29.514  24.287  26.855  1.00  0.00     0.202 C 
BRANCH  81  82
ATOM     82  C   UNL A   1      30.328  22.988  26.792  1.00  0.00     0.261 C 
BRANCH  82  83
ATOM     83  O   UNL A   1      31.423  22.865  27.714  1.00  0.00    -0.458 OA
BRANCH  83  84
ATOM     84  C   UNL A   1      32.647  22.519  27.205  1.00  0.00     0.359 C 
ATOM     85  O   UNL A   1      33.682  22.450  27.855  1.00  0.00    -0.244 OA
BRANCH  84  86
ATOM     86  C   UNL A   1      32.566  22.163  25.777  1.00  0.00     0.175 A 
ATOM     87  N   UNL A   1      32.520  20.864  25.416  1.00  0.00    -0.165 NA
ATOM     88  C   UNL A   1      32.533  23.007  24.616  1.00  0.00     0.028 A 
ATOM     89  N   UNL A   1      32.488  20.871  24.069  1.00  0.00    -0.264 N 
ATOM     90  C   UNL A   1      32.528  22.127  23.549  1.00  0.00     0.046 A 
ATOM     91  C   UNL A   1      32.565  24.495  24.435  1.00  0.00     0.159 C 
ATOM     92  C   UNL A   1      32.533  22.520  22.117  1.00  0.00     0.078 C 
ATOM     93  N   UNL A   1      32.366  24.837  23.009  1.00  0.00    -0.337 N 
ATOM     94  C   UNL A   1      33.035  23.972  22.017  1.00  0.00     0.126 C 
BRANCH  89  95
ATOM     95  C   UNL A   1      32.275  19.619  23.355  1.00  0.00     0.180 C 
BRANCH  95  96
ATOM     96  C   UNL A   1      33.058  18.471  23.940  1.00  0.00    -0.026 A 
ATOM     97  C   UNL A   1      34.459  18.538  24.025  1.00  0.00     0.008 A 
ATOM     98  C   UNL A   1      32.399  17.338  24.444  1.00  0.00     0.008 A 
ATOM     99  C   UNL A   1      35.186  17.504  24.616  1.00  0.00     0.039 A 
ATOM    100  C   UNL A   1      33.129  16.307  25.039  1.00  0.00     0.039 A 
ATOM    101  C   UNL A   1      34.512  16.402  25.125  1.00  0.00     0.123 A 
ATOM    102  F   UNL A   1      35.205  15.420  25.716  1.00  0.00    -0.207 F 
ENDBRANCH  95  96
ENDBRANCH  89  95
BRANCH  93 103
ATOM    103  C   UNL A   1      31.702  26.017  22.699  1.00  0.00     0.232 C 
ATOM    104  O   UNL A   1      30.523  26.219  22.973  1.00  0.00    -0.274 OA
BRANCH 103 105
ATOM    105  C   UNL A   1      32.485  27.079  22.033  1.00  0.00     0.154 C 
ATOM    106  C   UNL A   1      32.414  28.508  22.551  1.00  0.00     0.097 C 
ATOM    107  C   UNL A   1      33.645  27.701  22.714  1.00  0.00     0.260 C 
ATOM    108  F   UNL A   1      34.052  27.371  23.984  1.00  0.00    -0.206 F 
ATOM    109  F   UNL A   1      34.769  28.071  22.008  1.00  0.00    -0.206 F 
ENDBRANCH 103 105
ENDBRANCH  93 103
ENDBRANCH  84  86
ENDBRANCH  83  84
ENDBRANCH  82  83
ENDBRANCH  81  82
ENDBRANCH  80  81
ENDBRANCH  79  80
ENDBRANCH  78  79
ENDBRANCH  77  78
ENDBRANCH   1  77
TORSDOF 27
ENDMDL
