MODEL 1
REMARK VINA RESULT:     -10.9      0.000      0.000
REMARK SMILES CCc1n[nH]c(C(=O)N[C@@]2(C(=O)OCCOCCOCCOCCOC(=O)c3ccc(-c4c5nc(c(-c6c(F)cc(S(=O)(=O)[O-])cc6F)c6ccc([nH]6)c(-c6c(F)cc(S(=O)(=O)[O-])cc6F)c6nc(c(-c7c(F)cc(S(=O)(=O)[O-])cc7F)c7ccc4[nH]7)C=C6)C=C5)cc3)CCCC[C@H]2C)n1
REMARK SMILES IDX 19 1 18 2 17 3 16 4 15 5 14 6 13 7 11 8 12 9 10 10 94 11
REMARK SMILES IDX 98 12 95 13 97 14 99 15 96 16 9 17 7 18 8 19 6 21 3 22 4 23
REMARK SMILES IDX 100 24 5 25 2 27 1 28 20 29 21 30 22 31 23 32 24 33 25 34
REMARK SMILES IDX 26 35 27 36 28 37 29 38 93 39 30 40 92 41 31 42 32 43 33 44
REMARK SMILES IDX 86 45 34 46 91 47 85 48 87 49 35 50 90 51 84 52 83 53 36 55
REMARK SMILES IDX 70 56 49 57 69 58 50 59 53 60 68 61 88 62 51 63 52 64 67 66
REMARK SMILES IDX 89 67 54 68 37 69 38 70 47 71 39 72 40 73 46 74 48 75 41 76
REMARK SMILES IDX 42 77 43 78 44 79 45 80 71 81 72 82 81 83 73 84 74 85 80 86
REMARK SMILES IDX 82 87 75 88 76 89 77 90 78 91 79 92 55 93 56 94 65 95 57 96
REMARK SMILES IDX 58 97 64 98 66 99 59 100 60 101 61 102 62 103 63 104
REMARK H PARENT 9 20 5 26 87 54 53 65
REMARK Flexibility Score: inf
ROOT
ATOM      1  O   UNL A   1      35.122  21.413  25.291  1.00  0.00    -0.377 OA
ENDROOT
BRANCH   1   2
ATOM      2  C   UNL A   1      33.724  21.337  25.372  1.00  0.00     0.188 C 
BRANCH   2   3
ATOM      3  C   UNL A   1      33.052  20.527  24.270  1.00  0.00     0.188 C 
BRANCH   3   4
ATOM      4  O   UNL A   1      32.595  21.179  23.087  1.00  0.00    -0.376 OA
BRANCH   4   5
ATOM      5  C   UNL A   1      32.314  22.568  23.126  1.00  0.00     0.202 C 
BRANCH   5   6
ATOM      6  C   UNL A   1      33.178  23.443  22.193  1.00  0.00     0.261 C 
BRANCH   6   7
ATOM      7  O   UNL A   1      33.996  24.485  22.789  1.00  0.00    -0.461 OA
BRANCH   7   8
ATOM      8  C   UNL A   1      33.622  25.779  22.554  1.00  0.00     0.332 C 
ATOM      9  O   UNL A   1      33.594  26.273  21.429  1.00  0.00    -0.249 OA
BRANCH   8  10
ATOM     10  C   UNL A   1      33.250  26.605  23.869  1.00  0.00     0.141 C 
ATOM     11  C   UNL A   1      33.725  28.039  23.566  1.00  0.00     0.041 C 
ATOM     12  C   UNL A   1      33.902  26.217  25.264  1.00  0.00     0.023 C 
ATOM     13  C   UNL A   1      33.422  29.063  24.654  1.00  0.00     0.003 C 
ATOM     14  C   UNL A   1      33.667  27.293  26.362  1.00  0.00     0.006 C 
ATOM     15  C   UNL A   1      33.403  24.905  25.901  1.00  0.00     0.011 C 
ATOM     16  C   UNL A   1      34.104  28.684  25.950  1.00  0.00     0.000 C 
BRANCH  10  17
ATOM     17  N   UNL A   1      31.795  26.290  24.003  1.00  0.00    -0.333 N 
ATOM     18  C   UNL A   1      30.589  26.798  23.627  1.00  0.00     0.289 C 
ATOM     19  O   UNL A   1      29.607  26.078  23.839  1.00  0.00    -0.266 OA
ATOM     20  H   UNL A   1      31.670  25.463  24.522  1.00  0.00     0.165 HD
BRANCH  18  21
ATOM     21  C   UNL A   1      30.438  28.145  23.178  1.00  0.00     0.214 A 
ATOM     22  C   UNL A   1      29.772  30.127  22.911  1.00  0.00     0.151 A 
ATOM     23  N   UNL A   1      30.002  29.720  21.655  1.00  0.00    -0.158 NA
ATOM     24  N   UNL A   1      30.125  29.217  23.869  1.00  0.00    -0.207 NA
ATOM     25  N   UNL A   1      30.489  28.484  21.860  1.00  0.00    -0.255 N 
ATOM     26  H   UNL A   1      30.838  27.900  21.149  1.00  0.00     0.192 HD
BRANCH  22  27
ATOM     27  C   UNL A   1      28.949  31.330  23.219  1.00  0.00     0.076 C 
ATOM     28  C   UNL A   1      27.528  31.046  23.686  1.00  0.00     0.012 C 
ENDBRANCH  22  27
ENDBRANCH  18  21
ENDBRANCH  10  17
ENDBRANCH   8  10
ENDBRANCH   7   8
ENDBRANCH   6   7
ENDBRANCH   5   6
ENDBRANCH   4   5
ENDBRANCH   3   4
ENDBRANCH   2   3
ENDBRANCH   1   2
BRANCH   1  29
ATOM     29  C   UNL A   1      35.754  20.197  24.965  1.00  0.00     0.188 C 
BRANCH  29  30
ATOM     30  C   UNL A   1      37.287  20.260  24.980  1.00  0.00     0.188 C 
BRANCH  30  31
ATOM     31  O   UNL A   1      37.948  21.511  25.139  1.00  0.00    -0.376 OA
BRANCH  31  32
ATOM     32  C   UNL A   1      38.987  21.765  26.071  1.00  0.00     0.202 C 
BRANCH  32  33
ATOM     33  C   UNL A   1      39.391  23.157  26.565  1.00  0.00     0.261 C 
BRANCH  33  34
ATOM     34  O   UNL A   1      40.482  23.198  27.483  1.00  0.00    -0.460 OA
BRANCH  34  35
ATOM     35  C   UNL A   1      41.415  24.140  27.198  1.00  0.00     0.338 C 
ATOM     36  O   UNL A   1      42.292  24.071  26.361  1.00  0.00    -0.246 OA
BRANCH  35  37
ATOM     37  C   UNL A   1      41.084  25.376  27.930  1.00  0.00     0.060 A 
ATOM     38  C   UNL A   1      42.073  26.362  28.041  1.00  0.00     0.016 A 
ATOM     39  C   UNL A   1      39.834  25.544  28.526  1.00  0.00     0.016 A 
ATOM     40  C   UNL A   1      41.829  27.513  28.779  1.00  0.00     0.010 A 
ATOM     41  C   UNL A   1      39.602  26.680  29.300  1.00  0.00     0.010 A 
ATOM     42  C   UNL A   1      40.613  27.646  29.459  1.00  0.00    -0.014 A 
BRANCH  42  43
ATOM     43  C   UNL A   1      40.495  28.665  30.522  1.00  0.00     0.031 A 
ATOM     44  C   UNL A   1      41.401  28.539  31.714  1.00  0.00     0.074 A 
ATOM     45  C   UNL A   1      39.624  29.681  30.415  1.00  0.00     0.049 A 
ATOM     46  N   UNL A   1      41.447  29.262  32.801  1.00  0.00    -0.248 NA
ATOM     47  C   UNL A   1      42.386  27.443  31.676  1.00  0.00     0.031 C 
ATOM     48  C   UNL A   1      38.742  29.921  29.274  1.00  0.00     0.029 A 
ATOM     49  N   UNL A   1      39.336  30.697  31.288  1.00  0.00    -0.354 N 
ATOM     50  C   UNL A   1      42.456  28.706  33.578  1.00  0.00     0.074 A 
ATOM     51  C   UNL A   1      42.974  27.566  32.856  1.00  0.00     0.031 C 
ATOM     52  C   UNL A   1      37.993  31.009  29.528  1.00  0.00     0.029 A 
ATOM     53  C   UNL A   1      38.320  31.516  30.859  1.00  0.00     0.049 A 
ATOM     54  H   UNL A   1      39.810  30.826  32.141  1.00  0.00     0.167 HD
ATOM     55  C   UNL A   1      42.913  29.116  34.784  1.00  0.00     0.037 A 
ATOM     56  C   UNL A   1      37.712  32.540  31.489  1.00  0.00     0.037 A 
ATOM     57  C   UNL A   1      42.378  30.249  35.492  1.00  0.00     0.049 A 
ATOM     58  C   UNL A   1      38.182  32.930  32.869  1.00  0.00     0.074 A 
ATOM     59  C   UNL A   1      42.767  30.760  36.716  1.00  0.00     0.029 A 
ATOM     60  N   UNL A   1      41.330  31.040  35.041  1.00  0.00    -0.354 N 
ATOM     61  N   UNL A   1      39.147  32.409  33.590  1.00  0.00    -0.248 NA
ATOM     62  C   UNL A   1      37.483  34.048  33.517  1.00  0.00     0.031 C 
ATOM     63  C   UNL A   1      41.915  31.822  37.034  1.00  0.00     0.029 A 
ATOM     64  C   UNL A   1      41.039  32.017  35.976  1.00  0.00     0.049 A 
ATOM     65  H   UNL A   1      40.862  30.922  34.183  1.00  0.00     0.167 HD
ATOM     66  C   UNL A   1      39.194  33.158  34.763  1.00  0.00     0.074 A 
ATOM     67  C   UNL A   1      38.166  34.173  34.647  1.00  0.00     0.031 C 
ATOM     68  C   UNL A   1      40.015  33.024  35.835  1.00  0.00     0.037 A 
BRANCH  55  69
ATOM     69  C   UNL A   1      44.016  28.317  35.421  1.00  0.00     0.058 A 
ATOM     70  C   UNL A   1      43.763  27.373  36.429  1.00  0.00     0.135 A 
ATOM     71  C   UNL A   1      45.346  28.485  35.001  1.00  0.00     0.135 A 
ATOM     72  F   UNL A   1      42.514  27.189  36.886  1.00  0.00    -0.206 F 
ATOM     73  C   UNL A   1      44.791  26.643  37.017  1.00  0.00     0.059 A 
ATOM     74  C   UNL A   1      46.386  27.743  35.553  1.00  0.00     0.059 A 
ATOM     75  F   UNL A   1      45.647  29.380  34.047  1.00  0.00    -0.206 F 
ATOM     76  C   UNL A   1      46.099  26.834  36.570  1.00  0.00     0.060 A 
BRANCH  76  77
ATOM     77  S   UNL A   1      47.421  25.873  37.338  1.00  0.00     0.124 S 
ATOM     78  O   UNL A   1      48.573  26.746  37.134  1.00  0.00    -0.237 OA
ATOM     79  O   UNL A   1      46.955  25.750  38.715  1.00  0.00    -0.237 OA
ATOM     80  O   UNL A   1      47.433  24.632  36.569  1.00  0.00    -0.744 OA
ENDBRANCH  76  77
ENDBRANCH  55  69
BRANCH  56  81
ATOM     81  C   UNL A   1      36.588  33.259  30.830  1.00  0.00     0.058 A 
ATOM     82  C   UNL A   1      36.825  34.211  29.828  1.00  0.00     0.135 A 
ATOM     83  C   UNL A   1      35.254  33.008  31.189  1.00  0.00     0.135 A 
ATOM     84  F   UNL A   1      38.083  34.494  29.456  1.00  0.00    -0.206 F 
ATOM     85  C   UNL A   1      35.783  34.901  29.216  1.00  0.00     0.059 A 
ATOM     86  C   UNL A   1      34.194  33.664  30.572  1.00  0.00     0.059 A 
ATOM     87  F   UNL A   1      34.971  32.099  32.136  1.00  0.00    -0.206 F 
ATOM     88  C   UNL A   1      34.469  34.617  29.593  1.00  0.00     0.060 A 
BRANCH  88  89
ATOM     89  S   UNL A   1      33.124  35.484  28.759  1.00  0.00     0.124 S 
ATOM     90  O   UNL A   1      32.428  34.385  28.101  1.00  0.00    -0.237 OA
ATOM     91  O   UNL A   1      32.424  36.107  29.878  1.00  0.00    -0.237 OA
ATOM     92  O   UNL A   1      33.821  36.411  27.871  1.00  0.00    -0.744 OA
ENDBRANCH  88  89
ENDBRANCH  56  81
BRANCH  68  93
ATOM     93  C   UNL A   1      39.869  34.024  36.952  1.00  0.00     0.058 A 
ATOM     94  C   UNL A   1      40.381  35.326  36.854  1.00  0.00     0.135 A 
ATOM     95  C   UNL A   1      39.149  33.688  38.111  1.00  0.00     0.135 A 
ATOM     96  F   UNL A   1      41.080  35.699  35.770  1.00  0.00    -0.206 F 
ATOM     97  C   UNL A   1      40.209  36.252  37.878  1.00  0.00     0.059 A 
ATOM     98  C   UNL A   1      38.935  34.608  39.131  1.00  0.00     0.059 A 
ATOM     99  F   UNL A   1      38.624  32.460  38.250  1.00  0.00    -0.206 F 
ATOM    100  C   UNL A   1      39.480  35.885  39.011  1.00  0.00     0.060 A 
BRANCH 100 101
ATOM    101  S   UNL A   1      39.234  37.108  40.315  1.00  0.00     0.124 S 
ATOM    102  O   UNL A   1      38.677  38.229  39.565  1.00  0.00    -0.237 OA
ATOM    103  O   UNL A   1      38.309  36.423  41.214  1.00  0.00    -0.237 OA
ATOM    104  O   UNL A   1      40.578  37.314  40.847  1.00  0.00    -0.744 OA
ENDBRANCH 100 101
ENDBRANCH  68  93
ENDBRANCH  42  43
ENDBRANCH  35  37
ENDBRANCH  34  35
ENDBRANCH  33  34
ENDBRANCH  32  33
ENDBRANCH  31  32
ENDBRANCH  30  31
ENDBRANCH  29  30
ENDBRANCH   1  29
TORSDOF 26
ENDMDL
MODEL 2
REMARK VINA RESULT:      -9.9      5.028     10.796
REMARK SMILES CCc1n[nH]c(C(=O)N[C@@]2(C(=O)OCCOCCOCCOCCOC(=O)c3ccc(-c4c5nc(c(-c6c(F)cc(S(=O)(=O)[O-])cc6F)c6ccc([nH]6)c(-c6c(F)cc(S(=O)(=O)[O-])cc6F)c6nc(c(-c7c(F)cc(S(=O)(=O)[O-])cc7F)c7ccc4[nH]7)C=C6)C=C5)cc3)CCCC[C@H]2C)n1
REMARK SMILES IDX 19 1 18 2 17 3 16 4 15 5 14 6 13 7 11 8 12 9 10 10 94 11
REMARK SMILES IDX 98 12 95 13 97 14 99 15 96 16 9 17 7 18 8 19 6 21 3 22 4 23
REMARK SMILES IDX 100 24 5 25 2 27 1 28 20 29 21 30 22 31 23 32 24 33 25 34
REMARK SMILES IDX 26 35 27 36 28 37 29 38 93 39 30 40 92 41 31 42 32 43 33 44
REMARK SMILES IDX 86 45 34 46 91 47 85 48 87 49 35 50 90 51 84 52 83 53 36 55
REMARK SMILES IDX 70 56 49 57 69 58 50 59 53 60 68 61 88 62 51 63 52 64 67 66
REMARK SMILES IDX 89 67 54 68 37 69 38 70 47 71 39 72 40 73 46 74 48 75 41 76
REMARK SMILES IDX 42 77 43 78 44 79 45 80 71 81 72 82 81 83 73 84 74 85 80 86
REMARK SMILES IDX 82 87 75 88 76 89 77 90 78 91 79 92 55 93 56 94 65 95 57 96
REMARK SMILES IDX 58 97 64 98 66 99 59 100 60 101 61 102 62 103 63 104
REMARK H PARENT 9 20 5 26 87 54 53 65
REMARK Flexibility Score: inf
ROOT
ATOM      1  O   UNL A   1      34.030  34.780  28.981  1.00  0.00    -0.377 OA
ENDROOT
BRANCH   1   2
ATOM      2  C   UNL A   1      34.181  33.944  27.864  1.00  0.00     0.188 C 
BRANCH   2   3
ATOM      3  C   UNL A   1      34.158  32.450  28.162  1.00  0.00     0.188 C 
BRANCH   3   4
ATOM      4  O   UNL A   1      35.185  31.606  27.646  1.00  0.00    -0.376 OA
BRANCH   4   5
ATOM      5  C   UNL A   1      35.034  30.199  27.730  1.00  0.00     0.202 C 
BRANCH   5   6
ATOM      6  C   UNL A   1      33.773  29.628  27.046  1.00  0.00     0.261 C 
BRANCH   6   7
ATOM      7  O   UNL A   1      33.720  28.201  26.782  1.00  0.00    -0.461 OA
BRANCH   7   8
ATOM      8  C   UNL A   1      32.481  27.623  26.741  1.00  0.00     0.332 C 
ATOM      9  O   UNL A   1      31.598  27.875  27.559  1.00  0.00    -0.249 OA
BRANCH   8  10
ATOM     10  C   UNL A   1      32.286  26.569  25.557  1.00  0.00     0.141 C 
ATOM     11  C   UNL A   1      30.759  26.469  25.382  1.00  0.00     0.041 C 
ATOM     12  C   UNL A   1      32.802  25.077  25.725  1.00  0.00     0.023 C 
ATOM     13  C   UNL A   1      30.297  25.563  24.247  1.00  0.00     0.003 C 
ATOM     14  C   UNL A   1      32.272  24.124  24.617  1.00  0.00     0.006 C 
ATOM     15  C   UNL A   1      34.331  24.884  25.698  1.00  0.00     0.011 C 
ATOM     16  C   UNL A   1      30.764  24.142  24.473  1.00  0.00     0.000 C 
BRANCH  10  17
ATOM     17  N   UNL A   1      33.143  27.174  24.492  1.00  0.00    -0.333 N 
ATOM     18  C   UNL A   1      33.073  28.135  23.530  1.00  0.00     0.289 C 
ATOM     19  O   UNL A   1      34.133  28.411  22.960  1.00  0.00    -0.266 OA
ATOM     20  H   UNL A   1      34.031  26.747  24.484  1.00  0.00     0.165 HD
BRANCH  18  21
ATOM     21  C   UNL A   1      31.827  28.668  23.079  1.00  0.00     0.214 A 
ATOM     22  C   UNL A   1      29.851  29.395  22.990  1.00  0.00     0.151 A 
ATOM     23  N   UNL A   1      29.933  28.628  21.894  1.00  0.00    -0.158 NA
ATOM     24  N   UNL A   1      31.026  29.518  23.680  1.00  0.00    -0.207 NA
ATOM     25  N   UNL A   1      31.219  28.236  21.940  1.00  0.00    -0.255 N 
ATOM     26  H   UNL A   1      31.663  27.705  21.240  1.00  0.00     0.192 HD
BRANCH  22  27
ATOM     27  C   UNL A   1      28.545  29.835  23.555  1.00  0.00     0.076 C 
ATOM     28  C   UNL A   1      28.299  31.337  23.538  1.00  0.00     0.012 C 
ENDBRANCH  22  27
ENDBRANCH  18  21
ENDBRANCH  10  17
ENDBRANCH   8  10
ENDBRANCH   7   8
ENDBRANCH   6   7
ENDBRANCH   5   6
ENDBRANCH   4   5
ENDBRANCH   3   4
ENDBRANCH   2   3
ENDBRANCH   1   2
BRANCH   1  29
ATOM     29  C   UNL A   1      33.035  35.767  28.839  1.00  0.00     0.188 C 
BRANCH  29  30
ATOM     30  C   UNL A   1      33.372  37.102  29.515  1.00  0.00     0.188 C 
BRANCH  30  31
ATOM     31  O   UNL A   1      33.027  37.319  30.878  1.00  0.00    -0.376 OA
BRANCH  31  32
ATOM     32  C   UNL A   1      33.682  36.721  31.986  1.00  0.00     0.202 C 
BRANCH  32  33
ATOM     33  C   UNL A   1      33.689  35.220  32.286  1.00  0.00     0.261 C 
BRANCH  33  34
ATOM     34  O   UNL A   1      34.948  34.565  32.149  1.00  0.00    -0.460 OA
BRANCH  34  35
ATOM     35  C   UNL A   1      34.889  33.214  32.263  1.00  0.00     0.338 C 
ATOM     36  O   UNL A   1      33.929  32.550  32.596  1.00  0.00    -0.246 OA
BRANCH  35  37
ATOM     37  C   UNL A   1      36.132  32.635  31.719  1.00  0.00     0.060 A 
ATOM     38  C   UNL A   1      36.832  31.716  32.511  1.00  0.00     0.016 A 
ATOM     39  C   UNL A   1      36.614  33.018  30.468  1.00  0.00     0.016 A 
ATOM     40  C   UNL A   1      38.043  31.197  32.069  1.00  0.00     0.010 A 
ATOM     41  C   UNL A   1      37.848  32.528  30.041  1.00  0.00     0.010 A 
ATOM     42  C   UNL A   1      38.580  31.648  30.859  1.00  0.00    -0.014 A 
BRANCH  42  43
ATOM     43  C   UNL A   1      40.005  31.391  30.569  1.00  0.00     0.031 A 
ATOM     44  C   UNL A   1      40.988  32.489  30.864  1.00  0.00     0.074 A 
ATOM     45  C   UNL A   1      40.412  30.208  30.081  1.00  0.00     0.049 A 
ATOM     46  N   UNL A   1      42.274  32.535  30.640  1.00  0.00    -0.248 NA
ATOM     47  C   UNL A   1      40.441  33.706  31.493  1.00  0.00     0.031 C 
ATOM     48  C   UNL A   1      39.545  29.061  29.813  1.00  0.00     0.029 A 
ATOM     49  N   UNL A   1      41.662  29.782  29.716  1.00  0.00    -0.354 N 
ATOM     50  C   UNL A   1      42.688  33.782  31.091  1.00  0.00     0.074 A 
ATOM     51  C   UNL A   1      41.514  34.477  31.570  1.00  0.00     0.031 C 
ATOM     52  C   UNL A   1      40.291  28.064  29.305  1.00  0.00     0.029 A 
ATOM     53  C   UNL A   1      41.675  28.516  29.181  1.00  0.00     0.049 A 
ATOM     54  H   UNL A   1      42.472  30.331  29.825  1.00  0.00     0.167 HD
ATOM     55  C   UNL A   1      43.940  34.297  31.109  1.00  0.00     0.037 A 
ATOM     56  C   UNL A   1      42.690  27.821  28.632  1.00  0.00     0.037 A 
ATOM     57  C   UNL A   1      45.095  33.594  30.620  1.00  0.00     0.049 A 
ATOM     58  C   UNL A   1      44.063  28.447  28.588  1.00  0.00     0.074 A 
ATOM     59  C   UNL A   1      46.412  34.014  30.594  1.00  0.00     0.029 A 
ATOM     60  N   UNL A   1      45.068  32.324  30.059  1.00  0.00    -0.354 N 
ATOM     61  N   UNL A   1      44.450  29.621  29.030  1.00  0.00    -0.248 NA
ATOM     62  C   UNL A   1      45.135  27.653  27.974  1.00  0.00     0.031 C 
ATOM     63  C   UNL A   1      47.172  33.025  29.963  1.00  0.00     0.029 A 
ATOM     64  C   UNL A   1      46.341  31.957  29.658  1.00  0.00     0.049 A 
ATOM     65  H   UNL A   1      44.263  31.767  29.960  1.00  0.00     0.167 HD
ATOM     66  C   UNL A   1      45.818  29.692  28.779  1.00  0.00     0.074 A 
ATOM     67  C   UNL A   1      46.189  28.438  28.155  1.00  0.00     0.031 C 
ATOM     68  C   UNL A   1      46.688  30.698  29.045  1.00  0.00     0.037 A 
BRANCH  55  69
ATOM     69  C   UNL A   1      44.111  35.693  31.642  1.00  0.00     0.058 A 
ATOM     70  C   UNL A   1      44.026  36.822  30.811  1.00  0.00     0.135 A 
ATOM     71  C   UNL A   1      44.346  35.905  33.010  1.00  0.00     0.135 A 
ATOM     72  F   UNL A   1      43.828  36.677  29.491  1.00  0.00    -0.206 F 
ATOM     73  C   UNL A   1      44.193  38.109  31.312  1.00  0.00     0.059 A 
ATOM     74  C   UNL A   1      44.485  37.185  33.539  1.00  0.00     0.059 A 
ATOM     75  F   UNL A   1      44.446  34.863  33.849  1.00  0.00    -0.206 F 
ATOM     76  C   UNL A   1      44.420  38.280  32.678  1.00  0.00     0.060 A 
BRANCH  76  77
ATOM     77  S   UNL A   1      44.627  39.957  33.314  1.00  0.00     0.124 S 
ATOM     78  O   UNL A   1      45.455  39.722  34.493  1.00  0.00    -0.237 OA
ATOM     79  O   UNL A   1      45.286  40.631  32.200  1.00  0.00    -0.237 OA
ATOM     80  O   UNL A   1      43.260  40.391  33.586  1.00  0.00    -0.744 OA
ENDBRANCH  76  77
ENDBRANCH  55  69
BRANCH  56  81
ATOM     81  C   UNL A   1      42.448  26.465  28.071  1.00  0.00     0.058 A 
ATOM     82  C   UNL A   1      42.727  25.311  28.818  1.00  0.00     0.135 A 
ATOM     83  C   UNL A   1      41.932  26.295  26.777  1.00  0.00     0.135 A 
ATOM     84  F   UNL A   1      43.231  25.420  30.057  1.00  0.00    -0.206 F 
ATOM     85  C   UNL A   1      42.518  24.038  28.298  1.00  0.00     0.059 A 
ATOM     86  C   UNL A   1      41.687  25.033  26.245  1.00  0.00     0.059 A 
ATOM     87  F   UNL A   1      41.637  27.367  26.023  1.00  0.00    -0.206 F 
ATOM     88  C   UNL A   1      41.994  23.909  27.010  1.00  0.00     0.060 A 
BRANCH  88  89
ATOM     89  S   UNL A   1      41.685  22.252  26.364  1.00  0.00     0.124 S 
ATOM     90  O   UNL A   1      40.240  22.275  26.174  1.00  0.00    -0.237 OA
ATOM     91  O   UNL A   1      42.491  22.245  25.148  1.00  0.00    -0.237 OA
ATOM     92  O   UNL A   1      42.167  21.380  27.432  1.00  0.00    -0.744 OA
ENDBRANCH  88  89
ENDBRANCH  56  81
BRANCH  68  93
ATOM     93  C   UNL A   1      48.137  30.471  28.704  1.00  0.00     0.058 A 
ATOM     94  C   UNL A   1      49.015  29.822  29.586  1.00  0.00     0.135 A 
ATOM     95  C   UNL A   1      48.636  30.855  27.448  1.00  0.00     0.135 A 
ATOM     96  F   UNL A   1      48.591  29.437  30.801  1.00  0.00    -0.206 F 
ATOM     97  C   UNL A   1      50.343  29.586  29.246  1.00  0.00     0.059 A 
ATOM     98  C   UNL A   1      49.950  30.599  27.074  1.00  0.00     0.059 A 
ATOM     99  F   UNL A   1      47.836  31.467  26.560  1.00  0.00    -0.206 F 
ATOM    100  C   UNL A   1      50.801  29.975  27.985  1.00  0.00     0.060 A 
BRANCH 100 101
ATOM    101  S   UNL A   1      52.517  29.629  27.543  1.00  0.00     0.124 S 
ATOM    102  O   UNL A   1      53.237  30.281  28.633  1.00  0.00    -0.237 OA
ATOM    103  O   UNL A   1      52.550  28.170  27.544  1.00  0.00    -0.237 OA
ATOM    104  O   UNL A   1      52.663  30.253  26.232  1.00  0.00    -0.744 OA
ENDBRANCH 100 101
ENDBRANCH  68  93
ENDBRANCH  42  43
ENDBRANCH  35  37
ENDBRANCH  34  35
ENDBRANCH  33  34
ENDBRANCH  32  33
ENDBRANCH  31  32
ENDBRANCH  30  31
ENDBRANCH  29  30
ENDBRANCH   1  29
TORSDOF 26
ENDMDL
MODEL 3
REMARK VINA RESULT:      -9.8      5.119     11.354
REMARK SMILES CCc1n[nH]c(C(=O)N[C@@]2(C(=O)OCCOCCOCCOCCOC(=O)c3ccc(-c4c5nc(c(-c6c(F)cc(S(=O)(=O)[O-])cc6F)c6ccc([nH]6)c(-c6c(F)cc(S(=O)(=O)[O-])cc6F)c6nc(c(-c7c(F)cc(S(=O)(=O)[O-])cc7F)c7ccc4[nH]7)C=C6)C=C5)cc3)CCCC[C@H]2C)n1
REMARK SMILES IDX 19 1 18 2 17 3 16 4 15 5 14 6 13 7 11 8 12 9 10 10 94 11
REMARK SMILES IDX 98 12 95 13 97 14 99 15 96 16 9 17 7 18 8 19 6 21 3 22 4 23
REMARK SMILES IDX 100 24 5 25 2 27 1 28 20 29 21 30 22 31 23 32 24 33 25 34
REMARK SMILES IDX 26 35 27 36 28 37 29 38 93 39 30 40 92 41 31 42 32 43 33 44
REMARK SMILES IDX 86 45 34 46 91 47 85 48 87 49 35 50 90 51 84 52 83 53 36 55
REMARK SMILES IDX 70 56 49 57 69 58 50 59 53 60 68 61 88 62 51 63 52 64 67 66
REMARK SMILES IDX 89 67 54 68 37 69 38 70 47 71 39 72 40 73 46 74 48 75 41 76
REMARK SMILES IDX 42 77 43 78 44 79 45 80 71 81 72 82 81 83 73 84 74 85 80 86
REMARK SMILES IDX 82 87 75 88 76 89 77 90 78 91 79 92 55 93 56 94 65 95 57 96
REMARK SMILES IDX 58 97 64 98 66 99 59 100 60 101 61 102 62 103 63 104
REMARK H PARENT 9 20 5 26 87 54 53 65
REMARK Flexibility Score: inf
ROOT
ATOM      1  O   UNL A   1      34.493  34.439  29.045  1.00  0.00    -0.377 OA
ENDROOT
BRANCH   1   2
ATOM      2  C   UNL A   1      34.924  33.873  27.836  1.00  0.00     0.188 C 
BRANCH   2   3
ATOM      3  C   UNL A   1      35.191  32.373  27.879  1.00  0.00     0.188 C 
BRANCH   3   4
ATOM      4  O   UNL A   1      34.101  31.460  27.979  1.00  0.00    -0.376 OA
BRANCH   4   5
ATOM      5  C   UNL A   1      33.897  30.508  26.947  1.00  0.00     0.202 C 
BRANCH   5   6
ATOM      6  C   UNL A   1      32.735  29.519  27.181  1.00  0.00     0.261 C 
BRANCH   6   7
ATOM      7  O   UNL A   1      32.961  28.113  26.899  1.00  0.00    -0.461 OA
BRANCH   7   8
ATOM      8  C   UNL A   1      31.855  27.333  26.706  1.00  0.00     0.332 C 
ATOM      9  O   UNL A   1      30.890  27.339  27.468  1.00  0.00    -0.249 OA
BRANCH   8  10
ATOM     10  C   UNL A   1      31.932  26.388  25.420  1.00  0.00     0.141 C 
ATOM     11  C   UNL A   1      30.465  26.208  24.989  1.00  0.00     0.041 C 
ATOM     12  C   UNL A   1      32.532  24.923  25.543  1.00  0.00     0.023 C 
ATOM     13  C   UNL A   1      30.260  25.387  23.721  1.00  0.00     0.003 C 
ATOM     14  C   UNL A   1      32.260  24.049  24.286  1.00  0.00     0.006 C 
ATOM     15  C   UNL A   1      34.057  24.832  25.750  1.00  0.00     0.011 C 
ATOM     16  C   UNL A   1      30.797  23.985  23.899  1.00  0.00     0.000 C 
BRANCH  10  17
ATOM     17  N   UNL A   1      32.896  27.147  24.566  1.00  0.00    -0.333 N 
ATOM     18  C   UNL A   1      32.912  28.223  23.731  1.00  0.00     0.289 C 
ATOM     19  O   UNL A   1      34.026  28.597  23.350  1.00  0.00    -0.266 OA
ATOM     20  H   UNL A   1      33.794  26.747  24.624  1.00  0.00     0.165 HD
BRANCH  18  21
ATOM     21  C   UNL A   1      31.715  28.779  23.186  1.00  0.00     0.214 A 
ATOM     22  C   UNL A   1      29.758  29.519  22.939  1.00  0.00     0.151 A 
ATOM     23  N   UNL A   1      29.942  28.793  21.827  1.00  0.00    -0.158 NA
ATOM     24  N   UNL A   1      30.863  29.610  23.740  1.00  0.00    -0.207 NA
ATOM     25  N   UNL A   1      31.216  28.393  21.979  1.00  0.00    -0.255 N 
ATOM     26  H   UNL A   1      31.723  27.886  21.304  1.00  0.00     0.192 HD
BRANCH  22  27
ATOM     27  C   UNL A   1      28.405  29.944  23.395  1.00  0.00     0.076 C 
ATOM     28  C   UNL A   1      27.249  29.095  22.886  1.00  0.00     0.012 C 
ENDBRANCH  22  27
ENDBRANCH  18  21
ENDBRANCH  10  17
ENDBRANCH   8  10
ENDBRANCH   7   8
ENDBRANCH   6   7
ENDBRANCH   5   6
ENDBRANCH   4   5
ENDBRANCH   3   4
ENDBRANCH   2   3
ENDBRANCH   1   2
BRANCH   1  29
ATOM     29  C   UNL A   1      33.176  34.940  29.016  1.00  0.00     0.188 C 
BRANCH  29  30
ATOM     30  C   UNL A   1      33.036  36.371  29.549  1.00  0.00     0.188 C 
BRANCH  30  31
ATOM     31  O   UNL A   1      32.541  36.598  30.864  1.00  0.00    -0.376 OA
BRANCH  31  32
ATOM     32  C   UNL A   1      33.341  36.637  32.035  1.00  0.00     0.202 C 
BRANCH  32  33
ATOM     33  C   UNL A   1      33.874  35.402  32.766  1.00  0.00     0.261 C 
BRANCH  33  34
ATOM     34  O   UNL A   1      34.920  34.692  32.105  1.00  0.00    -0.460 OA
BRANCH  34  35
ATOM     35  C   UNL A   1      34.919  33.355  32.336  1.00  0.00     0.338 C 
ATOM     36  O   UNL A   1      33.950  32.637  32.464  1.00  0.00    -0.246 OA
BRANCH  35  37
ATOM     37  C   UNL A   1      36.298  32.849  32.207  1.00  0.00     0.060 A 
ATOM     38  C   UNL A   1      37.208  33.149  33.230  1.00  0.00     0.016 A 
ATOM     39  C   UNL A   1      36.695  32.123  31.085  1.00  0.00     0.016 A 
ATOM     40  C   UNL A   1      38.535  32.752  33.119  1.00  0.00     0.010 A 
ATOM     41  C   UNL A   1      38.034  31.758  30.955  1.00  0.00     0.010 A 
ATOM     42  C   UNL A   1      38.962  32.107  31.954  1.00  0.00    -0.014 A 
BRANCH  42  43
ATOM     43  C   UNL A   1      40.409  32.018  31.674  1.00  0.00     0.031 A 
ATOM     44  C   UNL A   1      41.041  33.137  30.896  1.00  0.00     0.074 A 
ATOM     45  C   UNL A   1      41.140  30.983  32.121  1.00  0.00     0.049 A 
ATOM     46  N   UNL A   1      42.269  33.262  30.469  1.00  0.00    -0.248 NA
ATOM     47  C   UNL A   1      40.163  34.269  30.545  1.00  0.00     0.031 C 
ATOM     48  C   UNL A   1      40.632  29.877  32.930  1.00  0.00     0.029 A 
ATOM     49  N   UNL A   1      42.468  30.695  31.946  1.00  0.00    -0.354 N 
ATOM     50  C   UNL A   1      42.311  34.476  29.796  1.00  0.00     0.074 A 
ATOM     51  C   UNL A   1      40.978  35.036  29.839  1.00  0.00     0.031 C 
ATOM     52  C   UNL A   1      41.638  29.016  33.166  1.00  0.00     0.029 A 
ATOM     53  C   UNL A   1      42.845  29.494  32.496  1.00  0.00     0.049 A 
ATOM     54  H   UNL A   1      43.091  31.291  31.471  1.00  0.00     0.167 HD
ATOM     55  C   UNL A   1      43.369  35.073  29.200  1.00  0.00     0.037 A 
ATOM     56  C   UNL A   1      44.026  28.850  32.436  1.00  0.00     0.037 A 
ATOM     57  C   UNL A   1      44.687  34.496  29.160  1.00  0.00     0.049 A 
ATOM     58  C   UNL A   1      45.172  29.495  31.696  1.00  0.00     0.074 A 
ATOM     59  C   UNL A   1      45.835  35.013  28.590  1.00  0.00     0.029 A 
ATOM     60  N   UNL A   1      45.026  33.264  29.702  1.00  0.00    -0.354 N 
ATOM     61  N   UNL A   1      45.208  30.651  31.075  1.00  0.00    -0.248 NA
ATOM     62  C   UNL A   1      46.438  28.750  31.653  1.00  0.00     0.031 C 
ATOM     63  C   UNL A   1      46.856  34.068  28.736  1.00  0.00     0.029 A 
ATOM     64  C   UNL A   1      46.361  32.991  29.457  1.00  0.00     0.049 A 
ATOM     65  H   UNL A   1      44.410  32.672  30.189  1.00  0.00     0.167 HD
ATOM     66  C   UNL A   1      46.509  30.787  30.597  1.00  0.00     0.074 A 
ATOM     67  C   UNL A   1      47.228  29.600  31.010  1.00  0.00     0.031 C 
ATOM     68  C   UNL A   1      47.059  31.803  29.886  1.00  0.00     0.037 A 
BRANCH  55  69
ATOM     69  C   UNL A   1      43.134  36.394  28.521  1.00  0.00     0.058 A 
ATOM     70  C   UNL A   1      43.375  37.616  29.168  1.00  0.00     0.135 A 
ATOM     71  C   UNL A   1      42.679  36.436  27.193  1.00  0.00     0.135 A 
ATOM     72  F   UNL A   1      43.788  37.636  30.446  1.00  0.00    -0.206 F 
ATOM     73  C   UNL A   1      43.148  38.833  28.533  1.00  0.00     0.059 A 
ATOM     74  C   UNL A   1      42.475  37.641  26.527  1.00  0.00     0.059 A 
ATOM     75  F   UNL A   1      42.423  35.298  26.528  1.00  0.00    -0.206 F 
ATOM     76  C   UNL A   1      42.700  38.834  27.211  1.00  0.00     0.060 A 
BRANCH  76  77
ATOM     77  S   UNL A   1      42.418  40.422  26.399  1.00  0.00     0.124 S 
ATOM     78  O   UNL A   1      42.524  41.348  27.523  1.00  0.00    -0.237 OA
ATOM     79  O   UNL A   1      43.509  40.474  25.432  1.00  0.00    -0.237 OA
ATOM     80  O   UNL A   1      41.082  40.281  25.828  1.00  0.00    -0.744 OA
ENDBRANCH  76  77
ENDBRANCH  55  69
BRANCH  56  81
ATOM     81  C   UNL A   1      44.184  27.518  33.082  1.00  0.00     0.058 A 
ATOM     82  C   UNL A   1      44.472  27.405  34.449  1.00  0.00     0.135 A 
ATOM     83  C   UNL A   1      44.048  26.332  32.344  1.00  0.00     0.135 A 
ATOM     84  F   UNL A   1      44.620  28.511  35.197  1.00  0.00    -0.206 F 
ATOM     85  C   UNL A   1      44.635  26.167  35.061  1.00  0.00     0.059 A 
ATOM     86  C   UNL A   1      44.179  25.080  32.938  1.00  0.00     0.059 A 
ATOM     87  F   UNL A   1      43.762  26.382  31.032  1.00  0.00    -0.206 F 
ATOM     88  C   UNL A   1      44.483  25.008  34.296  1.00  0.00     0.060 A 
BRANCH  88  89
ATOM     89  S   UNL A   1      44.653  23.406  35.110  1.00  0.00     0.124 S 
ATOM     90  O   UNL A   1      45.792  22.835  34.402  1.00  0.00    -0.237 OA
ATOM     91  O   UNL A   1      44.889  23.794  36.497  1.00  0.00    -0.237 OA
ATOM     92  O   UNL A   1      43.366  22.764  34.857  1.00  0.00    -0.744 OA
ENDBRANCH  88  89
ENDBRANCH  56  81
BRANCH  68  93
ATOM     93  C   UNL A   1      48.523  31.701  29.547  1.00  0.00     0.058 A 
ATOM     94  C   UNL A   1      49.522  32.147  30.424  1.00  0.00     0.135 A 
ATOM     95  C   UNL A   1      48.928  31.088  28.349  1.00  0.00     0.135 A 
ATOM     96  F   UNL A   1      49.190  32.744  31.580  1.00  0.00    -0.206 F 
ATOM     97  C   UNL A   1      50.872  32.015  30.116  1.00  0.00     0.059 A 
ATOM     98  C   UNL A   1      50.272  30.913  28.036  1.00  0.00     0.059 A 
ATOM     99  F   UNL A   1      48.014  30.629  27.480  1.00  0.00    -0.206 F 
ATOM    100  C   UNL A   1      51.237  31.392  28.920  1.00  0.00     0.060 A 
BRANCH 100 101
ATOM    101  S   UNL A   1      52.993  31.194  28.550  1.00  0.00     0.124 S 
ATOM    102  O   UNL A   1      52.980  31.133  27.092  1.00  0.00    -0.237 OA
ATOM    103  O   UNL A   1      53.571  32.403  29.130  1.00  0.00    -0.237 OA
ATOM    104  O   UNL A   1      53.346  29.950  29.228  1.00  0.00    -0.744 OA
ENDBRANCH 100 101
ENDBRANCH  68  93
ENDBRANCH  42  43
ENDBRANCH  35  37
ENDBRANCH  34  35
ENDBRANCH  33  34
ENDBRANCH  32  33
ENDBRANCH  31  32
ENDBRANCH  30  31
ENDBRANCH  29  30
ENDBRANCH   1  29
TORSDOF 26
ENDMDL
