MODEL 1
REMARK VINA RESULT:      -8.7      0.000      0.000
REMARK SMILES COC(=O)c1c(NC(=O)[C@@H]2[C@H]3CC[C@H](CC3)[C@H]2C(=O)OCCOCCOCCOCCOC(=O)c2ccc(-c3c4nc(c(-c5c(F)cc(S(=O)(=O)[O-])cc5F)c5ccc([nH]5)c(-c5c(F)cc(S(=O)(=O)[O-])cc5F)c5nc(c(-c6c(F)cc(S(=O)(=O)[O-])cc6F)c6ccc3[nH]6)C=C5)C=C4)cc2)sc(C)c1-c1ccc(C)cc1
REMARK SMILES IDX 25 1 24 2 23 3 22 4 21 5 20 6 18 7 19 8 17 9 10 10 11 11
REMARK SMILES IDX 12 12 16 13 14 14 13 15 15 16 8 17 7 18 9 20 6 21 5 22
REMARK SMILES IDX 104 23 101 24 102 25 103 26 3 27 4 28 2 29 1 30 105 31
REMARK SMILES IDX 106 32 111 33 107 34 110 35 108 36 109 37 26 38 27 39 28 40
REMARK SMILES IDX 29 41 30 42 31 43 32 44 33 45 34 46 35 47 36 48 100 49 37 50
REMARK SMILES IDX 99 51 38 52 39 53 40 54 93 55 41 56 98 57 92 58 94 59 42 60
REMARK SMILES IDX 97 61 91 62 90 63 43 65 77 66 56 67 76 68 57 69 60 70 75 71
REMARK SMILES IDX 95 72 58 73 59 74 74 76 96 77 61 78 44 79 45 80 54 81 46 82
REMARK SMILES IDX 47 83 53 84 55 85 48 86 49 87 50 88 51 89 52 90 78 91 79 92
REMARK SMILES IDX 88 93 80 94 81 95 87 96 89 97 82 98 83 99 84 100 85 101
REMARK SMILES IDX 86 102 62 103 63 104 72 105 64 106 65 107 71 108 73 109
REMARK SMILES IDX 66 110 67 111 68 112 69 113 70 114
REMARK H PARENT 7 19 94 64 60 75
REMARK Flexibility Score: inf
ROOT
ATOM      1  C   UNL A   1      34.243  34.446  29.259  1.00  0.00     0.188 C 
ENDROOT
BRANCH   1   2
ATOM      2  C   UNL A   1      33.513  33.643  28.170  1.00  0.00     0.188 C 
BRANCH   2   3
ATOM      3  O   UNL A   1      34.103  32.509  27.550  1.00  0.00    -0.376 OA
BRANCH   3   4
ATOM      4  C   UNL A   1      33.490  31.230  27.618  1.00  0.00     0.202 C 
BRANCH   4   5
ATOM      5  C   UNL A   1      32.934  30.584  26.343  1.00  0.00     0.261 C 
BRANCH   5   6
ATOM      6  O   UNL A   1      31.594  30.060  26.428  1.00  0.00    -0.463 OA
BRANCH   6   7
ATOM      7  C   UNL A   1      31.473  28.730  26.211  1.00  0.00     0.310 C 
ATOM      8  O   UNL A   1      31.329  27.896  27.100  1.00  0.00    -0.252 OA
BRANCH   7   9
ATOM      9  C   UNL A   1      31.649  28.307  24.757  1.00  0.00     0.115 C 
ATOM     10  C   UNL A   1      31.982  26.813  24.410  1.00  0.00     0.096 C 
ATOM     11  C   UNL A   1      31.040  26.359  23.258  1.00  0.00     0.002 C 
ATOM     12  C   UNL A   1      29.605  26.363  23.812  1.00  0.00     0.005 C 
ATOM     13  C   UNL A   1      31.101  27.339  22.068  1.00  0.00     0.005 C 
ATOM     14  C   UNL A   1      30.377  28.761  23.999  1.00  0.00     0.004 C 
ATOM     15  C   UNL A   1      29.216  27.779  24.248  1.00  0.00     0.005 C 
ATOM     16  C   UNL A   1      30.718  28.755  22.504  1.00  0.00     0.005 C 
BRANCH  10  17
ATOM     17  C   UNL A   1      33.458  26.619  23.989  1.00  0.00     0.229 C 
ATOM     18  N   UNL A   1      34.225  25.506  24.210  1.00  0.00    -0.317 N 
ATOM     19  H   UNL A   1      35.135  25.608  23.852  1.00  0.00     0.170 HD
ATOM     20  O   UNL A   1      34.043  27.532  23.389  1.00  0.00    -0.274 OA
BRANCH  18  21
ATOM     21  C   UNL A   1      34.036  24.270  24.813  1.00  0.00     0.111 A 
ATOM     22  C   UNL A   1      33.821  23.044  24.175  1.00  0.00     0.102 A 
ATOM     23  C   UNL A   1      33.753  21.936  25.140  1.00  0.00     0.012 A 
ATOM     24  S   UNL A   1      34.012  24.113  26.482  1.00  0.00    -0.122 S 
ATOM     25  C   UNL A   1      33.850  22.419  26.441  1.00  0.00     0.012 A 
ATOM     26  C   UNL A   1      33.894  21.748  27.775  1.00  0.00     0.057 C 
BRANCH  22  27
ATOM     27  C   UNL A   1      33.742  22.933  22.714  1.00  0.00     0.341 C 
ATOM     28  O   UNL A   1      34.633  23.329  21.967  1.00  0.00    -0.246 OA
BRANCH  27  29
ATOM     29  O   UNL A   1      32.590  22.352  22.275  1.00  0.00    -0.465 OA
ATOM     30  C   UNL A   1      31.390  22.830  22.883  1.00  0.00     0.282 C 
ENDBRANCH  27  29
ENDBRANCH  22  27
BRANCH  23  31
ATOM     31  C   UNL A   1      33.726  20.487  24.847  1.00  0.00    -0.016 A 
ATOM     32  C   UNL A   1      34.919  19.749  24.812  1.00  0.00     0.009 A 
ATOM     33  C   UNL A   1      32.531  19.791  24.630  1.00  0.00     0.009 A 
ATOM     34  C   UNL A   1      34.924  18.363  24.627  1.00  0.00     0.004 A 
ATOM     35  C   UNL A   1      32.528  18.398  24.458  1.00  0.00     0.004 A 
ATOM     36  C   UNL A   1      33.723  17.671  24.468  1.00  0.00    -0.051 A 
ATOM     37  C   UNL A   1      33.738  16.180  24.290  1.00  0.00     0.044 C 
ENDBRANCH  23  31
ENDBRANCH  18  21
ENDBRANCH  10  17
ENDBRANCH   7   9
ENDBRANCH   6   7
ENDBRANCH   5   6
ENDBRANCH   4   5
ENDBRANCH   3   4
ENDBRANCH   2   3
ENDBRANCH   1   2
BRANCH   1  38
ATOM     38  O   UNL A   1      35.406  33.844  29.793  1.00  0.00    -0.377 OA
BRANCH  38  39
ATOM     39  C   UNL A   1      35.680  34.135  31.160  1.00  0.00     0.188 C 
BRANCH  39  40
ATOM     40  C   UNL A   1      36.898  33.417  31.766  1.00  0.00     0.188 C 
BRANCH  40  41
ATOM     41  O   UNL A   1      38.105  33.671  31.048  1.00  0.00    -0.376 OA
BRANCH  41  42
ATOM     42  C   UNL A   1      38.301  32.943  29.842  1.00  0.00     0.202 C 
BRANCH  42  43
ATOM     43  C   UNL A   1      37.971  31.451  29.912  1.00  0.00     0.261 C 
BRANCH  43  44
ATOM     44  O   UNL A   1      39.018  30.555  29.500  1.00  0.00    -0.460 OA
BRANCH  44  45
ATOM     45  C   UNL A   1      38.945  29.266  29.883  1.00  0.00     0.338 C 
ATOM     46  O   UNL A   1      38.386  28.357  29.288  1.00  0.00    -0.246 OA
BRANCH  45  47
ATOM     47  C   UNL A   1      39.829  29.094  31.054  1.00  0.00     0.060 A 
ATOM     48  C   UNL A   1      39.401  28.301  32.124  1.00  0.00     0.016 A 
ATOM     49  C   UNL A   1      41.075  29.717  31.101  1.00  0.00     0.016 A 
ATOM     50  C   UNL A   1      40.204  28.168  33.261  1.00  0.00     0.010 A 
ATOM     51  C   UNL A   1      41.889  29.562  32.230  1.00  0.00     0.010 A 
ATOM     52  C   UNL A   1      41.437  28.832  33.342  1.00  0.00    -0.014 A 
BRANCH  52  53
ATOM     53  C   UNL A   1      42.124  28.951  34.660  1.00  0.00     0.031 A 
ATOM     54  C   UNL A   1      43.133  27.893  35.039  1.00  0.00     0.074 A 
ATOM     55  C   UNL A   1      41.918  29.998  35.483  1.00  0.00     0.049 A 
ATOM     56  N   UNL A   1      43.905  27.817  36.092  1.00  0.00    -0.248 NA
ATOM     57  C   UNL A   1      43.281  26.758  34.111  1.00  0.00     0.031 C 
ATOM     58  C   UNL A   1      40.964  31.084  35.258  1.00  0.00     0.029 A 
ATOM     59  N   UNL A   1      42.516  30.323  36.678  1.00  0.00    -0.354 N 
ATOM     60  C   UNL A   1      44.619  26.631  35.954  1.00  0.00     0.074 A 
ATOM     61  C   UNL A   1      44.139  25.985  34.754  1.00  0.00     0.031 C 
ATOM     62  C   UNL A   1      41.057  31.965  36.270  1.00  0.00     0.029 A 
ATOM     63  C   UNL A   1      42.070  31.507  37.220  1.00  0.00     0.049 A 
ATOM     64  H   UNL A   1      43.200  29.760  37.106  1.00  0.00     0.167 HD
ATOM     65  C   UNL A   1      45.613  26.135  36.726  1.00  0.00     0.037 A 
ATOM     66  C   UNL A   1      42.448  32.152  38.344  1.00  0.00     0.037 A 
ATOM     67  C   UNL A   1      46.124  26.786  37.901  1.00  0.00     0.049 A 
ATOM     68  C   UNL A   1      43.558  31.582  39.194  1.00  0.00     0.074 A 
ATOM     69  C   UNL A   1      47.156  26.381  38.729  1.00  0.00     0.029 A 
ATOM     70  N   UNL A   1      45.647  27.983  38.411  1.00  0.00    -0.354 N 
ATOM     71  N   UNL A   1      44.258  30.486  39.016  1.00  0.00    -0.248 NA
ATOM     72  C   UNL A   1      43.942  32.348  40.391  1.00  0.00     0.031 C 
ATOM     73  C   UNL A   1      47.280  27.317  39.762  1.00  0.00     0.029 A 
ATOM     74  C   UNL A   1      46.355  28.327  39.549  1.00  0.00     0.049 A 
ATOM     75  H   UNL A   1      44.913  28.511  38.021  1.00  0.00     0.167 HD
ATOM     76  C   UNL A   1      45.184  30.451  40.055  1.00  0.00     0.074 A 
ATOM     77  C   UNL A   1      44.963  31.639  40.853  1.00  0.00     0.031 C 
ATOM     78  C   UNL A   1      46.134  29.521  40.325  1.00  0.00     0.037 A 
BRANCH  65  79
ATOM     79  C   UNL A   1      46.216  24.822  36.311  1.00  0.00     0.058 A 
ATOM     80  C   UNL A   1      45.633  23.597  36.674  1.00  0.00     0.135 A 
ATOM     81  C   UNL A   1      47.392  24.788  35.545  1.00  0.00     0.135 A 
ATOM     82  F   UNL A   1      44.521  23.574  37.427  1.00  0.00    -0.206 F 
ATOM     83  C   UNL A   1      46.215  22.384  36.327  1.00  0.00     0.059 A 
ATOM     84  C   UNL A   1      47.976  23.585  35.160  1.00  0.00     0.059 A 
ATOM     85  F   UNL A   1      47.992  25.930  35.174  1.00  0.00    -0.206 F 
ATOM     86  C   UNL A   1      47.390  22.388  35.573  1.00  0.00     0.060 A 
BRANCH  86  87
ATOM     87  S   UNL A   1      48.145  20.806  35.143  1.00  0.00     0.124 S 
ATOM     88  O   UNL A   1      48.898  21.161  33.944  1.00  0.00    -0.237 OA
ATOM     89  O   UNL A   1      48.944  20.508  36.328  1.00  0.00    -0.237 OA
ATOM     90  O   UNL A   1      46.998  19.931  34.927  1.00  0.00    -0.744 OA
ENDBRANCH  86  87
ENDBRANCH  65  79
BRANCH  66  91
ATOM     91  C   UNL A   1      41.800  33.437  38.726  1.00  0.00     0.058 A 
ATOM     92  C   UNL A   1      42.213  34.655  38.165  1.00  0.00     0.135 A 
ATOM     93  C   UNL A   1      40.771  33.477  39.679  1.00  0.00     0.135 A 
ATOM     94  F   UNL A   1      43.203  34.673  37.258  1.00  0.00    -0.206 F 
ATOM     95  C   UNL A   1      41.647  35.868  38.549  1.00  0.00     0.059 A 
ATOM     96  C   UNL A   1      40.172  34.673  40.063  1.00  0.00     0.059 A 
ATOM     97  F   UNL A   1      40.332  32.339  40.241  1.00  0.00    -0.206 F 
ATOM     98  C   UNL A   1      40.626  35.866  39.500  1.00  0.00     0.060 A 
BRANCH  98  99
ATOM     99  S   UNL A   1      39.867  37.439  39.962  1.00  0.00     0.124 S 
ATOM    100  O   UNL A   1      39.277  37.112  41.255  1.00  0.00    -0.237 OA
ATOM    101  O   UNL A   1      41.018  38.336  39.995  1.00  0.00    -0.237 OA
ATOM    102  O   UNL A   1      38.921  37.685  38.879  1.00  0.00    -0.744 OA
ENDBRANCH  98  99
ENDBRANCH  66  91
BRANCH  78 103
ATOM    103  C   UNL A   1      47.038  29.765  41.503  1.00  0.00     0.058 A 
ATOM    104  C   UNL A   1      48.194  30.554  41.398  1.00  0.00     0.135 A 
ATOM    105  C   UNL A   1      46.716  29.240  42.766  1.00  0.00     0.135 A 
ATOM    106  F   UNL A   1      48.547  31.081  40.216  1.00  0.00    -0.206 F 
ATOM    107  C   UNL A   1      49.016  30.789  42.496  1.00  0.00     0.059 A 
ATOM    108  C   UNL A   1      47.509  29.484  43.883  1.00  0.00     0.059 A 
ATOM    109  F   UNL A   1      45.612  28.492  42.925  1.00  0.00    -0.206 F 
ATOM    110  C   UNL A   1      48.666  30.246  43.734  1.00  0.00     0.060 A 
BRANCH 110 111
ATOM    111  S   UNL A   1      49.730  30.570  45.157  1.00  0.00     0.124 S 
ATOM    112  O   UNL A   1      50.053  29.217  45.595  1.00  0.00    -0.237 OA
ATOM    113  O   UNL A   1      50.830  31.323  44.561  1.00  0.00    -0.237 OA
ATOM    114  O   UNL A   1      48.871  31.335  46.057  1.00  0.00    -0.744 OA
ENDBRANCH 110 111
ENDBRANCH  78 103
ENDBRANCH  52  53
ENDBRANCH  45  47
ENDBRANCH  44  45
ENDBRANCH  43  44
ENDBRANCH  42  43
ENDBRANCH  41  42
ENDBRANCH  40  41
ENDBRANCH  39  40
ENDBRANCH  38  39
ENDBRANCH   1  38
TORSDOF 28
ENDMDL
MODEL 2
REMARK VINA RESULT:      -8.4      5.489     14.867
REMARK SMILES COC(=O)c1c(NC(=O)[C@@H]2[C@H]3CC[C@H](CC3)[C@H]2C(=O)OCCOCCOCCOCCOC(=O)c2ccc(-c3c4nc(c(-c5c(F)cc(S(=O)(=O)[O-])cc5F)c5ccc([nH]5)c(-c5c(F)cc(S(=O)(=O)[O-])cc5F)c5nc(c(-c6c(F)cc(S(=O)(=O)[O-])cc6F)c6ccc3[nH]6)C=C5)C=C4)cc2)sc(C)c1-c1ccc(C)cc1
REMARK SMILES IDX 25 1 24 2 23 3 22 4 21 5 20 6 18 7 19 8 17 9 10 10 11 11
REMARK SMILES IDX 12 12 16 13 14 14 13 15 15 16 8 17 7 18 9 20 6 21 5 22
REMARK SMILES IDX 104 23 101 24 102 25 103 26 3 27 4 28 2 29 1 30 105 31
REMARK SMILES IDX 106 32 111 33 107 34 110 35 108 36 109 37 26 38 27 39 28 40
REMARK SMILES IDX 29 41 30 42 31 43 32 44 33 45 34 46 35 47 36 48 100 49 37 50
REMARK SMILES IDX 99 51 38 52 39 53 40 54 93 55 41 56 98 57 92 58 94 59 42 60
REMARK SMILES IDX 97 61 91 62 90 63 43 65 77 66 56 67 76 68 57 69 60 70 75 71
REMARK SMILES IDX 95 72 58 73 59 74 74 76 96 77 61 78 44 79 45 80 54 81 46 82
REMARK SMILES IDX 47 83 53 84 55 85 48 86 49 87 50 88 51 89 52 90 78 91 79 92
REMARK SMILES IDX 88 93 80 94 81 95 87 96 89 97 82 98 83 99 84 100 85 101
REMARK SMILES IDX 86 102 62 103 63 104 72 105 64 106 65 107 71 108 73 109
REMARK SMILES IDX 66 110 67 111 68 112 69 113 70 114
REMARK H PARENT 7 19 94 64 60 75
REMARK Flexibility Score: inf
ROOT
ATOM      1  C   UNL A   1      39.017  34.060  35.312  1.00  0.00     0.188 C 
ENDROOT
BRANCH   1   2
ATOM      2  C   UNL A   1      38.405  32.652  35.402  1.00  0.00     0.188 C 
BRANCH   2   3
ATOM      3  O   UNL A   1      38.718  31.635  34.461  1.00  0.00    -0.376 OA
BRANCH   3   4
ATOM      4  C   UNL A   1      40.044  31.151  34.313  1.00  0.00     0.202 C 
BRANCH   4   5
ATOM      5  C   UNL A   1      40.612  30.162  35.338  1.00  0.00     0.261 C 
BRANCH   5   6
ATOM      6  O   UNL A   1      40.985  28.865  34.832  1.00  0.00    -0.463 OA
BRANCH   6   7
ATOM      7  C   UNL A   1      41.477  28.000  35.748  1.00  0.00     0.310 C 
ATOM      8  O   UNL A   1      40.983  27.815  36.857  1.00  0.00    -0.252 OA
BRANCH   7   9
ATOM      9  C   UNL A   1      42.790  27.336  35.351  1.00  0.00     0.115 C 
ATOM     10  C   UNL A   1      44.023  27.395  36.321  1.00  0.00     0.096 C 
ATOM     11  C   UNL A   1      44.627  25.965  36.427  1.00  0.00     0.002 C 
ATOM     12  C   UNL A   1      43.579  25.075  37.117  1.00  0.00     0.005 C 
ATOM     13  C   UNL A   1      44.917  25.376  35.031  1.00  0.00     0.005 C 
ATOM     14  C   UNL A   1      42.461  25.865  34.994  1.00  0.00     0.004 C 
ATOM     15  C   UNL A   1      42.303  25.017  36.272  1.00  0.00     0.005 C 
ATOM     16  C   UNL A   1      43.643  25.323  34.183  1.00  0.00     0.005 C 
BRANCH  10  17
ATOM     17  C   UNL A   1      45.107  28.389  35.839  1.00  0.00     0.229 C 
ATOM     18  N   UNL A   1      45.984  29.078  36.631  1.00  0.00    -0.317 N 
ATOM     19  H   UNL A   1      46.585  29.652  36.105  1.00  0.00     0.170 HD
ATOM     20  O   UNL A   1      45.230  28.611  34.625  1.00  0.00    -0.274 OA
BRANCH  18  21
ATOM     21  C   UNL A   1      46.238  29.168  37.993  1.00  0.00     0.111 A 
ATOM     22  C   UNL A   1      47.218  28.481  38.716  1.00  0.00     0.102 A 
ATOM     23  C   UNL A   1      47.245  28.899  40.126  1.00  0.00     0.012 A 
ATOM     24  S   UNL A   1      45.311  30.151  38.986  1.00  0.00    -0.122 S 
ATOM     25  C   UNL A   1      46.233  29.821  40.377  1.00  0.00     0.012 A 
ATOM     26  C   UNL A   1      45.844  30.599  41.592  1.00  0.00     0.057 C 
BRANCH  22  27
ATOM     27  C   UNL A   1      48.120  27.515  38.077  1.00  0.00     0.341 C 
ATOM     28  O   UNL A   1      48.112  26.317  38.345  1.00  0.00    -0.246 OA
BRANCH  27  29
ATOM     29  O   UNL A   1      48.960  28.080  37.165  1.00  0.00    -0.465 OA
ATOM     30  C   UNL A   1      50.348  28.032  37.493  1.00  0.00     0.282 C 
ENDBRANCH  27  29
ENDBRANCH  22  27
BRANCH  23  31
ATOM     31  C   UNL A   1      48.251  28.547  41.152  1.00  0.00    -0.016 A 
ATOM     32  C   UNL A   1      49.208  29.489  41.557  1.00  0.00     0.009 A 
ATOM     33  C   UNL A   1      48.271  27.296  41.778  1.00  0.00     0.009 A 
ATOM     34  C   UNL A   1      50.117  29.220  42.587  1.00  0.00     0.004 A 
ATOM     35  C   UNL A   1      49.170  27.025  42.821  1.00  0.00     0.004 A 
ATOM     36  C   UNL A   1      50.092  27.989  43.243  1.00  0.00    -0.051 A 
ATOM     37  C   UNL A   1      51.057  27.719  44.361  1.00  0.00     0.044 C 
ENDBRANCH  23  31
ENDBRANCH  18  21
ENDBRANCH  10  17
ENDBRANCH   7   9
ENDBRANCH   6   7
ENDBRANCH   5   6
ENDBRANCH   4   5
ENDBRANCH   3   4
ENDBRANCH   2   3
ENDBRANCH   1   2
BRANCH   1  38
ATOM     38  O   UNL A   1      38.658  34.815  34.171  1.00  0.00    -0.377 OA
BRANCH  38  39
ATOM     39  C   UNL A   1      37.897  34.122  33.186  1.00  0.00     0.188 C 
BRANCH  39  40
ATOM     40  C   UNL A   1      38.199  34.493  31.725  1.00  0.00     0.188 C 
BRANCH  40  41
ATOM     41  O   UNL A   1      37.282  33.905  30.803  1.00  0.00    -0.376 OA
BRANCH  41  42
ATOM     42  C   UNL A   1      35.910  33.897  31.178  1.00  0.00     0.202 C 
BRANCH  42  43
ATOM     43  C   UNL A   1      34.929  33.485  30.079  1.00  0.00     0.261 C 
BRANCH  43  44
ATOM     44  O   UNL A   1      34.570  32.093  30.048  1.00  0.00    -0.460 OA
BRANCH  44  45
ATOM     45  C   UNL A   1      34.683  31.428  28.882  1.00  0.00     0.338 C 
ATOM     46  O   UNL A   1      33.946  31.523  27.912  1.00  0.00    -0.246 OA
BRANCH  45  47
ATOM     47  C   UNL A   1      35.972  30.706  28.898  1.00  0.00     0.060 A 
ATOM     48  C   UNL A   1      36.448  30.183  30.104  1.00  0.00     0.016 A 
ATOM     49  C   UNL A   1      36.712  30.549  27.727  1.00  0.00     0.016 A 
ATOM     50  C   UNL A   1      37.689  29.541  30.146  1.00  0.00     0.010 A 
ATOM     51  C   UNL A   1      37.944  29.882  27.766  1.00  0.00     0.010 A 
ATOM     52  C   UNL A   1      38.468  29.421  28.985  1.00  0.00    -0.014 A 
BRANCH  52  53
ATOM     53  C   UNL A   1      39.904  29.037  29.097  1.00  0.00     0.031 A 
ATOM     54  C   UNL A   1      40.861  30.022  29.727  1.00  0.00     0.074 A 
ATOM     55  C   UNL A   1      40.354  27.826  28.713  1.00  0.00     0.049 A 
ATOM     56  N   UNL A   1      42.134  29.890  29.997  1.00  0.00    -0.248 NA
ATOM     57  C   UNL A   1      40.310  31.340  30.088  1.00  0.00     0.031 C 
ATOM     58  C   UNL A   1      39.552  26.782  28.075  1.00  0.00     0.029 A 
ATOM     59  N   UNL A   1      41.605  27.266  28.820  1.00  0.00    -0.354 N 
ATOM     60  C   UNL A   1      42.531  31.103  30.550  1.00  0.00     0.074 A 
ATOM     61  C   UNL A   1      41.386  31.982  30.512  1.00  0.00     0.031 C 
ATOM     62  C   UNL A   1      40.326  25.702  27.867  1.00  0.00     0.029 A 
ATOM     63  C   UNL A   1      41.680  25.975  28.349  1.00  0.00     0.049 A 
ATOM     64  H   UNL A   1      42.377  27.745  29.198  1.00  0.00     0.167 HD
ATOM     65  C   UNL A   1      43.726  31.453  31.081  1.00  0.00     0.037 A 
ATOM     66  C   UNL A   1      42.716  25.111  28.324  1.00  0.00     0.037 A 
ATOM     67  C   UNL A   1      44.862  30.575  31.157  1.00  0.00     0.049 A 
ATOM     68  C   UNL A   1      44.042  25.518  28.920  1.00  0.00     0.074 A 
ATOM     69  C   UNL A   1      46.106  30.825  31.711  1.00  0.00     0.029 A 
ATOM     70  N   UNL A   1      44.892  29.278  30.672  1.00  0.00    -0.354 N 
ATOM     71  N   UNL A   1      44.381  26.652  29.487  1.00  0.00    -0.248 NA
ATOM     72  C   UNL A   1      45.123  24.520  28.886  1.00  0.00     0.031 C 
ATOM     73  C   UNL A   1      46.900  29.687  31.530  1.00  0.00     0.029 A 
ATOM     74  C   UNL A   1      46.136  28.716  30.904  1.00  0.00     0.049 A 
ATOM     75  H   UNL A   1      44.140  28.823  30.229  1.00  0.00     0.167 HD
ATOM     76  C   UNL A   1      45.699  26.490  29.907  1.00  0.00     0.074 A 
ATOM     77  C   UNL A   1      46.093  25.146  29.539  1.00  0.00     0.031 C 
ATOM     78  C   UNL A   1      46.510  27.371  30.544  1.00  0.00     0.037 A 
BRANCH  65  79
ATOM     79  C   UNL A   1      43.855  32.847  31.627  1.00  0.00     0.058 A 
ATOM     80  C   UNL A   1      44.306  33.911  30.830  1.00  0.00     0.135 A 
ATOM     81  C   UNL A   1      43.527  33.121  32.964  1.00  0.00     0.135 A 
ATOM     82  F   UNL A   1      44.655  33.697  29.551  1.00  0.00    -0.206 F 
ATOM     83  C   UNL A   1      44.466  35.191  31.348  1.00  0.00     0.059 A 
ATOM     84  C   UNL A   1      43.651  34.401  33.497  1.00  0.00     0.059 A 
ATOM     85  F   UNL A   1      43.095  32.139  33.771  1.00  0.00    -0.206 F 
ATOM     86  C   UNL A   1      44.140  35.425  32.685  1.00  0.00     0.060 A 
BRANCH  86  87
ATOM     87  S   UNL A   1      44.368  37.087  33.350  1.00  0.00     0.124 S 
ATOM     88  O   UNL A   1      43.789  36.947  34.684  1.00  0.00    -0.237 OA
ATOM     89  O   UNL A   1      45.818  37.247  33.303  1.00  0.00    -0.237 OA
ATOM     90  O   UNL A   1      43.616  37.928  32.425  1.00  0.00    -0.744 OA
ENDBRANCH  86  87
ENDBRANCH  65  79
BRANCH  66  91
ATOM     91  C   UNL A   1      42.544  23.749  27.746  1.00  0.00     0.058 A 
ATOM     92  C   UNL A   1      42.403  22.621  28.570  1.00  0.00     0.135 A 
ATOM     93  C   UNL A   1      42.544  23.543  26.358  1.00  0.00     0.135 A 
ATOM     94  F   UNL A   1      42.411  22.762  29.905  1.00  0.00    -0.206 F 
ATOM     95  C   UNL A   1      42.290  21.338  28.041  1.00  0.00     0.059 A 
ATOM     96  C   UNL A   1      42.408  22.274  25.805  1.00  0.00     0.059 A 
ATOM     97  F   UNL A   1      42.667  24.589  25.524  1.00  0.00    -0.206 F 
ATOM     98  C   UNL A   1      42.293  21.175  26.655  1.00  0.00     0.060 A 
BRANCH  98  99
ATOM     99  S   UNL A   1      42.103  19.511  25.977  1.00  0.00     0.124 S 
ATOM    100  O   UNL A   1      42.611  18.689  27.069  1.00  0.00    -0.237 OA
ATOM    101  O   UNL A   1      40.665  19.440  25.740  1.00  0.00    -0.237 OA
ATOM    102  O   UNL A   1      42.927  19.545  24.773  1.00  0.00    -0.744 OA
ENDBRANCH  98  99
ENDBRANCH  66  91
BRANCH  78 103
ATOM    103  C   UNL A   1      47.889  26.906  30.925  1.00  0.00     0.058 A 
ATOM    104  C   UNL A   1      48.115  26.110  32.059  1.00  0.00     0.135 A 
ATOM    105  C   UNL A   1      48.993  27.221  30.115  1.00  0.00     0.135 A 
ATOM    106  F   UNL A   1      47.095  25.779  32.866  1.00  0.00    -0.206 F 
ATOM    107  C   UNL A   1      49.391  25.670  32.395  1.00  0.00     0.059 A 
ATOM    108  C   UNL A   1      50.274  26.768  30.417  1.00  0.00     0.059 A 
ATOM    109  F   UNL A   1      48.830  27.964  29.009  1.00  0.00    -0.206 F 
ATOM    110  C   UNL A   1      50.465  26.007  31.569  1.00  0.00     0.060 A 
BRANCH 110 111
ATOM    111  S   UNL A   1      52.115  25.416  32.004  1.00  0.00     0.124 S 
ATOM    112  O   UNL A   1      52.854  25.677  30.774  1.00  0.00    -0.237 OA
ATOM    113  O   UNL A   1      52.461  26.262  33.143  1.00  0.00    -0.237 OA
ATOM    114  O   UNL A   1      51.899  24.007  32.322  1.00  0.00    -0.744 OA
ENDBRANCH 110 111
ENDBRANCH  78 103
ENDBRANCH  52  53
ENDBRANCH  45  47
ENDBRANCH  44  45
ENDBRANCH  43  44
ENDBRANCH  42  43
ENDBRANCH  41  42
ENDBRANCH  40  41
ENDBRANCH  39  40
ENDBRANCH  38  39
ENDBRANCH   1  38
TORSDOF 28
ENDMDL
MODEL 3
REMARK VINA RESULT:      -8.3      1.247      7.623
REMARK SMILES COC(=O)c1c(NC(=O)[C@@H]2[C@H]3CC[C@H](CC3)[C@H]2C(=O)OCCOCCOCCOCCOC(=O)c2ccc(-c3c4nc(c(-c5c(F)cc(S(=O)(=O)[O-])cc5F)c5ccc([nH]5)c(-c5c(F)cc(S(=O)(=O)[O-])cc5F)c5nc(c(-c6c(F)cc(S(=O)(=O)[O-])cc6F)c6ccc3[nH]6)C=C5)C=C4)cc2)sc(C)c1-c1ccc(C)cc1
REMARK SMILES IDX 25 1 24 2 23 3 22 4 21 5 20 6 18 7 19 8 17 9 10 10 11 11
REMARK SMILES IDX 12 12 16 13 14 14 13 15 15 16 8 17 7 18 9 20 6 21 5 22
REMARK SMILES IDX 104 23 101 24 102 25 103 26 3 27 4 28 2 29 1 30 105 31
REMARK SMILES IDX 106 32 111 33 107 34 110 35 108 36 109 37 26 38 27 39 28 40
REMARK SMILES IDX 29 41 30 42 31 43 32 44 33 45 34 46 35 47 36 48 100 49 37 50
REMARK SMILES IDX 99 51 38 52 39 53 40 54 93 55 41 56 98 57 92 58 94 59 42 60
REMARK SMILES IDX 97 61 91 62 90 63 43 65 77 66 56 67 76 68 57 69 60 70 75 71
REMARK SMILES IDX 95 72 58 73 59 74 74 76 96 77 61 78 44 79 45 80 54 81 46 82
REMARK SMILES IDX 47 83 53 84 55 85 48 86 49 87 50 88 51 89 52 90 78 91 79 92
REMARK SMILES IDX 88 93 80 94 81 95 87 96 89 97 82 98 83 99 84 100 85 101
REMARK SMILES IDX 86 102 62 103 63 104 72 105 64 106 65 107 71 108 73 109
REMARK SMILES IDX 66 110 67 111 68 112 69 113 70 114
REMARK H PARENT 7 19 94 64 60 75
REMARK Flexibility Score: inf
ROOT
ATOM      1  C   UNL A   1      34.398  33.710  29.082  1.00  0.00     0.188 C 
ENDROOT
BRANCH   1   2
ATOM      2  C   UNL A   1      33.601  32.859  28.079  1.00  0.00     0.188 C 
BRANCH   2   3
ATOM      3  O   UNL A   1      34.192  31.775  27.376  1.00  0.00    -0.376 OA
BRANCH   3   4
ATOM      4  C   UNL A   1      33.598  30.486  27.378  1.00  0.00     0.202 C 
BRANCH   4   5
ATOM      5  C   UNL A   1      32.806  30.011  26.153  1.00  0.00     0.261 C 
BRANCH   5   6
ATOM      6  O   UNL A   1      31.489  29.486  26.413  1.00  0.00    -0.463 OA
BRANCH   6   7
ATOM      7  C   UNL A   1      31.317  28.175  26.129  1.00  0.00     0.310 C 
ATOM      8  O   UNL A   1      31.117  27.306  26.975  1.00  0.00    -0.252 OA
BRANCH   7   9
ATOM      9  C   UNL A   1      31.508  27.813  24.661  1.00  0.00     0.115 C 
ATOM     10  C   UNL A   1      31.896  26.346  24.259  1.00  0.00     0.096 C 
ATOM     11  C   UNL A   1      30.972  25.902  23.090  1.00  0.00     0.002 C 
ATOM     12  C   UNL A   1      29.538  25.832  23.641  1.00  0.00     0.005 C 
ATOM     13  C   UNL A   1      30.997  26.927  21.937  1.00  0.00     0.005 C 
ATOM     14  C   UNL A   1      30.221  28.248  23.918  1.00  0.00     0.004 C 
ATOM     15  C   UNL A   1      29.097  27.215  24.129  1.00  0.00     0.005 C 
ATOM     16  C   UNL A   1      30.562  28.311  22.425  1.00  0.00     0.005 C 
BRANCH  10  17
ATOM     17  C   UNL A   1      33.379  26.222  23.834  1.00  0.00     0.229 C 
ATOM     18  N   UNL A   1      34.210  25.165  24.089  1.00  0.00    -0.317 N 
ATOM     19  H   UNL A   1      35.111  25.306  23.720  1.00  0.00     0.170 HD
ATOM     20  O   UNL A   1      33.906  27.146  23.195  1.00  0.00    -0.274 OA
BRANCH  18  21
ATOM     21  C   UNL A   1      34.097  23.943  24.738  1.00  0.00     0.111 A 
ATOM     22  C   UNL A   1      33.685  22.728  24.182  1.00  0.00     0.102 A 
ATOM     23  C   UNL A   1      33.776  21.629  25.156  1.00  0.00     0.012 A 
ATOM     24  S   UNL A   1      34.435  23.795  26.373  1.00  0.00    -0.122 S 
ATOM     25  C   UNL A   1      34.182  22.112  26.395  1.00  0.00     0.012 A 
ATOM     26  C   UNL A   1      34.486  21.445  27.697  1.00  0.00     0.057 C 
BRANCH  22  27
ATOM     27  C   UNL A   1      33.279  22.615  22.776  1.00  0.00     0.341 C 
ATOM     28  O   UNL A   1      32.361  21.889  22.404  1.00  0.00    -0.246 OA
BRANCH  27  29
ATOM     29  O   UNL A   1      34.021  23.389  21.934  1.00  0.00    -0.465 OA
ATOM     30  C   UNL A   1      33.530  23.491  20.598  1.00  0.00     0.282 C 
ENDBRANCH  27  29
ENDBRANCH  22  27
BRANCH  23  31
ATOM     31  C   UNL A   1      33.612  20.181  24.898  1.00  0.00    -0.016 A 
ATOM     32  C   UNL A   1      34.722  19.392  24.564  1.00  0.00     0.009 A 
ATOM     33  C   UNL A   1      32.373  19.539  25.009  1.00  0.00     0.009 A 
ATOM     34  C   UNL A   1      34.619  18.006  24.402  1.00  0.00     0.004 A 
ATOM     35  C   UNL A   1      32.266  18.148  24.862  1.00  0.00     0.004 A 
ATOM     36  C   UNL A   1      33.390  17.368  24.570  1.00  0.00    -0.051 A 
ATOM     37  C   UNL A   1      33.294  15.877  24.414  1.00  0.00     0.044 C 
ENDBRANCH  23  31
ENDBRANCH  18  21
ENDBRANCH  10  17
ENDBRANCH   7   9
ENDBRANCH   6   7
ENDBRANCH   5   6
ENDBRANCH   4   5
ENDBRANCH   3   4
ENDBRANCH   2   3
ENDBRANCH   1   2
BRANCH   1  38
ATOM     38  O   UNL A   1      35.656  33.189  29.467  1.00  0.00    -0.377 OA
BRANCH  38  39
ATOM     39  C   UNL A   1      36.219  33.747  30.650  1.00  0.00     0.188 C 
BRANCH  39  40
ATOM     40  C   UNL A   1      37.492  33.061  31.173  1.00  0.00     0.188 C 
BRANCH  40  41
ATOM     41  O   UNL A   1      38.566  33.095  30.235  1.00  0.00    -0.376 OA
BRANCH  41  42
ATOM     42  C   UNL A   1      38.681  31.988  29.349  1.00  0.00     0.202 C 
BRANCH  42  43
ATOM     43  C   UNL A   1      38.747  30.613  30.017  1.00  0.00     0.261 C 
BRANCH  43  44
ATOM     44  O   UNL A   1      40.001  29.919  29.904  1.00  0.00    -0.460 OA
BRANCH  44  45
ATOM     45  C   UNL A   1      40.141  28.741  30.542  1.00  0.00     0.338 C 
ATOM     46  O   UNL A   1      39.982  27.627  30.064  1.00  0.00    -0.246 OA
BRANCH  45  47
ATOM     47  C   UNL A   1      40.712  29.016  31.876  1.00  0.00     0.060 A 
ATOM     48  C   UNL A   1      41.831  29.848  31.984  1.00  0.00     0.016 A 
ATOM     49  C   UNL A   1      40.151  28.449  33.019  1.00  0.00     0.016 A 
ATOM     50  C   UNL A   1      42.414  30.077  33.233  1.00  0.00     0.010 A 
ATOM     51  C   UNL A   1      40.721  28.701  34.274  1.00  0.00     0.010 A 
ATOM     52  C   UNL A   1      41.890  29.472  34.385  1.00  0.00    -0.014 A 
BRANCH  52  53
ATOM     53  C   UNL A   1      42.694  29.455  35.640  1.00  0.00     0.031 A 
ATOM     54  C   UNL A   1      42.496  30.578  36.632  1.00  0.00     0.074 A 
ATOM     55  C   UNL A   1      43.536  28.446  35.938  1.00  0.00     0.049 A 
ATOM     56  N   UNL A   1      43.025  30.746  37.816  1.00  0.00    -0.248 NA
ATOM     57  C   UNL A   1      41.591  31.667  36.225  1.00  0.00     0.031 C 
ATOM     58  C   UNL A   1      43.840  27.307  35.073  1.00  0.00     0.029 A 
ATOM     59  N   UNL A   1      44.282  28.214  37.069  1.00  0.00    -0.354 N 
ATOM     60  C   UNL A   1      42.522  31.954  38.288  1.00  0.00     0.074 A 
ATOM     61  C   UNL A   1      41.704  32.512  37.236  1.00  0.00     0.031 C 
ATOM     62  C   UNL A   1      44.693  26.486  35.713  1.00  0.00     0.029 A 
ATOM     63  C   UNL A   1      45.003  27.041  37.030  1.00  0.00     0.049 A 
ATOM     64  H   UNL A   1      44.301  28.829  37.836  1.00  0.00     0.167 HD
ATOM     65  C   UNL A   1      42.686  32.536  39.498  1.00  0.00     0.037 A 
ATOM     66  C   UNL A   1      45.805  26.476  37.956  1.00  0.00     0.037 A 
ATOM     67  C   UNL A   1      43.466  31.973  40.565  1.00  0.00     0.049 A 
ATOM     68  C   UNL A   1      45.977  27.141  39.301  1.00  0.00     0.074 A 
ATOM     69  C   UNL A   1      43.663  32.470  41.842  1.00  0.00     0.029 A 
ATOM     70  N   UNL A   1      44.175  30.785  40.484  1.00  0.00    -0.354 N 
ATOM     71  N   UNL A   1      45.449  28.256  39.746  1.00  0.00    -0.248 NA
ATOM     72  C   UNL A   1      46.843  26.458  40.276  1.00  0.00     0.031 C 
ATOM     73  C   UNL A   1      44.519  31.597  42.522  1.00  0.00     0.029 A 
ATOM     74  C   UNL A   1      44.818  30.536  41.684  1.00  0.00     0.049 A 
ATOM     75  H   UNL A   1      44.213  30.203  39.690  1.00  0.00     0.167 HD
ATOM     76  C   UNL A   1      45.890  28.390  41.060  1.00  0.00     0.074 A 
ATOM     77  C   UNL A   1      46.720  27.237  41.342  1.00  0.00     0.031 C 
ATOM     78  C   UNL A   1      45.630  29.376  41.955  1.00  0.00     0.037 A 
BRANCH  65  79
ATOM     79  C   UNL A   1      41.995  33.851  39.728  1.00  0.00     0.058 A 
ATOM     80  C   UNL A   1      42.543  35.060  39.269  1.00  0.00     0.135 A 
ATOM     81  C   UNL A   1      40.774  33.904  40.418  1.00  0.00     0.135 A 
ATOM     82  F   UNL A   1      43.721  35.068  38.625  1.00  0.00    -0.206 F 
ATOM     83  C   UNL A   1      41.925  36.280  39.520  1.00  0.00     0.059 A 
ATOM     84  C   UNL A   1      40.122  35.111  40.654  1.00  0.00     0.059 A 
ATOM     85  F   UNL A   1      40.208  32.778  40.881  1.00  0.00    -0.206 F 
ATOM     86  C   UNL A   1      40.716  36.295  40.218  1.00  0.00     0.060 A 
BRANCH  86  87
ATOM     87  S   UNL A   1      39.933  37.886  40.552  1.00  0.00     0.124 S 
ATOM     88  O   UNL A   1      41.097  38.745  40.752  1.00  0.00    -0.237 OA
ATOM     89  O   UNL A   1      39.174  38.124  39.328  1.00  0.00    -0.237 OA
ATOM     90  O   UNL A   1      39.131  37.627  41.743  1.00  0.00    -0.744 OA
ENDBRANCH  86  87
ENDBRANCH  65  79
BRANCH  66  91
ATOM     91  C   UNL A   1      46.490  25.184  37.669  1.00  0.00     0.058 A 
ATOM     92  C   UNL A   1      47.764  25.153  37.081  1.00  0.00     0.135 A 
ATOM     93  C   UNL A   1      45.874  23.956  37.952  1.00  0.00     0.135 A 
ATOM     94  F   UNL A   1      48.391  26.300  36.777  1.00  0.00    -0.206 F 
ATOM     95  C   UNL A   1      48.393  23.952  36.764  1.00  0.00     0.059 A 
ATOM     96  C   UNL A   1      46.492  22.743  37.667  1.00  0.00     0.059 A 
ATOM     97  F   UNL A   1      44.658  23.930  38.522  1.00  0.00    -0.206 F 
ATOM     98  C   UNL A   1      47.748  22.751  37.061  1.00  0.00     0.060 A 
BRANCH  98  99
ATOM     99  S   UNL A   1      48.590  21.197  36.685  1.00  0.00     0.124 S 
ATOM    100  O   UNL A   1      48.709  20.600  38.010  1.00  0.00    -0.237 OA
ATOM    101  O   UNL A   1      47.650  20.551  35.776  1.00  0.00    -0.237 OA
ATOM    102  O   UNL A   1      49.841  21.634  36.074  1.00  0.00    -0.744 OA
ENDBRANCH  98  99
ENDBRANCH  66  91
BRANCH  78 103
ATOM    103  C   UNL A   1      46.208  29.237  43.338  1.00  0.00     0.058 A 
ATOM    104  C   UNL A   1      47.438  29.816  43.687  1.00  0.00     0.135 A 
ATOM    105  C   UNL A   1      45.496  28.556  44.339  1.00  0.00     0.135 A 
ATOM    106  F   UNL A   1      48.158  30.479  42.769  1.00  0.00    -0.206 F 
ATOM    107  C   UNL A   1      47.957  29.698  44.972  1.00  0.00     0.059 A 
ATOM    108  C   UNL A   1      45.985  28.448  45.638  1.00  0.00     0.059 A 
ATOM    109  F   UNL A   1      44.307  27.998  44.063  1.00  0.00    -0.206 F 
ATOM    110  C   UNL A   1      47.224  29.009  45.940  1.00  0.00     0.060 A 
BRANCH 110 111
ATOM    111  S   UNL A   1      47.900  28.874  47.609  1.00  0.00     0.124 S 
ATOM    112  O   UNL A   1      48.814  27.747  47.466  1.00  0.00    -0.237 OA
ATOM    113  O   UNL A   1      48.526  30.179  47.801  1.00  0.00    -0.237 OA
ATOM    114  O   UNL A   1      46.720  28.626  48.434  1.00  0.00    -0.744 OA
ENDBRANCH 110 111
ENDBRANCH  78 103
ENDBRANCH  52  53
ENDBRANCH  45  47
ENDBRANCH  44  45
ENDBRANCH  43  44
ENDBRANCH  42  43
ENDBRANCH  41  42
ENDBRANCH  40  41
ENDBRANCH  39  40
ENDBRANCH  38  39
ENDBRANCH   1  38
TORSDOF 28
ENDMDL
