MODEL 1
REMARK VINA RESULT:      -9.2      0.000      0.000
REMARK SMILES CCN(CC)C(=O)CN(CC(=O)OCCOCCOCCOCCOC(=O)c1ccc(-c2c3nc(c(-c4c(F)cc(S(=O)(=O)[O-])cc4F)c4ccc([nH]4)c(-c4c(F)cc(S(=O)(=O)[O-])cc4F)c4nc(c(-c5c(F)cc(S(=O)(=O)[O-])cc5F)c5ccc2[nH]5)C=C4)C=C3)cc1)c1ccccc1
REMARK SMILES IDX 18 1 17 2 16 3 15 4 14 5 13 6 11 7 12 8 10 9 9 10 8 11 6 12
REMARK SMILES IDX 3 13 7 14 2 15 1 16 4 17 5 18 94 19 95 20 99 21 96 22 98 23
REMARK SMILES IDX 97 24 19 25 20 26 21 27 22 28 23 29 24 30 25 31 26 32 27 33
REMARK SMILES IDX 28 34 29 35 93 36 30 37 92 38 31 39 32 40 33 41 86 42 34 43
REMARK SMILES IDX 91 44 85 45 87 46 35 47 90 48 84 49 83 50 36 52 70 53 49 54
REMARK SMILES IDX 69 55 50 56 53 57 68 58 88 59 51 60 52 61 67 63 89 64 54 65
REMARK SMILES IDX 37 66 38 67 47 68 39 69 40 70 46 71 48 72 41 73 42 74 43 75
REMARK SMILES IDX 44 76 45 77 71 78 72 79 81 80 73 81 74 82 80 83 82 84 75 85
REMARK SMILES IDX 76 86 77 87 78 88 79 89 55 90 56 91 65 92 57 93 58 94 64 95
REMARK SMILES IDX 66 96 59 97 60 98 61 99 62 100 63 101
REMARK H PARENT 87 51 53 62
REMARK Flexibility Score: inf
ROOT
ATOM      1  C   UNL A   1      35.057  21.692  26.712  1.00  0.00     0.188 C 
ENDROOT
BRANCH   1   2
ATOM      2  C   UNL A   1      34.112  22.887  26.971  1.00  0.00     0.188 C 
BRANCH   2   3
ATOM      3  O   UNL A   1      32.956  22.572  27.719  1.00  0.00    -0.376 OA
BRANCH   3   4
ATOM      4  C   UNL A   1      31.669  22.945  27.266  1.00  0.00     0.202 C 
BRANCH   4   5
ATOM      5  C   UNL A   1      31.426  23.962  26.132  1.00  0.00     0.261 C 
BRANCH   5   6
ATOM      6  O   UNL A   1      30.744  25.189  26.454  1.00  0.00    -0.462 OA
BRANCH   6   7
ATOM      7  C   UNL A   1      31.485  26.312  26.547  1.00  0.00     0.325 C 
ATOM      8  O   UNL A   1      31.287  27.183  27.392  1.00  0.00    -0.250 OA
BRANCH   7   9
ATOM      9  C   UNL A   1      32.563  26.466  25.472  1.00  0.00     0.239 C 
BRANCH   9  10
ATOM     10  N   UNL A   1      32.287  27.146  24.163  1.00  0.00    -0.351 N 
BRANCH  10  11
ATOM     11  C   UNL A   1      33.151  26.725  23.022  1.00  0.00     0.217 C 
BRANCH  11  12
ATOM     12  C   UNL A   1      32.724  25.416  22.288  1.00  0.00     0.242 C 
ATOM     13  N   UNL A   1      33.017  24.154  22.805  1.00  0.00    -0.342 N 
ATOM     14  O   UNL A   1      32.104  25.516  21.219  1.00  0.00    -0.273 OA
BRANCH  13  15
ATOM     15  C   UNL A   1      32.303  23.004  22.249  1.00  0.00     0.116 C 
ATOM     16  C   UNL A   1      32.624  21.713  22.995  1.00  0.00     0.027 C 
ENDBRANCH  13  15
BRANCH  13  17
ATOM     17  C   UNL A   1      33.981  23.882  23.863  1.00  0.00     0.116 C 
ATOM     18  C   UNL A   1      35.412  23.934  23.352  1.00  0.00     0.027 C 
ENDBRANCH  13  17
ENDBRANCH  11  12
ENDBRANCH  10  11
BRANCH  10  19
ATOM     19  C   UNL A   1      31.141  27.909  23.890  1.00  0.00     0.038 A 
ATOM     20  C   UNL A   1      31.085  29.299  24.086  1.00  0.00     0.026 A 
ATOM     21  C   UNL A   1      29.971  27.346  23.321  1.00  0.00     0.026 A 
ATOM     22  C   UNL A   1      29.956  30.065  23.737  1.00  0.00     0.002 A 
ATOM     23  C   UNL A   1      28.825  28.094  23.008  1.00  0.00     0.002 A 
ATOM     24  C   UNL A   1      28.821  29.463  23.209  1.00  0.00     0.000 A 
ENDBRANCH  10  19
ENDBRANCH   9  10
ENDBRANCH   7   9
ENDBRANCH   6   7
ENDBRANCH   5   6
ENDBRANCH   4   5
ENDBRANCH   3   4
ENDBRANCH   2   3
ENDBRANCH   1   2
BRANCH   1  25
ATOM     25  O   UNL A   1      35.137  21.077  25.441  1.00  0.00    -0.377 OA
BRANCH  25  26
ATOM     26  C   UNL A   1      36.352  20.449  25.134  1.00  0.00     0.188 C 
BRANCH  26  27
ATOM     27  C   UNL A   1      37.524  21.438  25.106  1.00  0.00     0.188 C 
BRANCH  27  28
ATOM     28  O   UNL A   1      38.817  21.051  25.541  1.00  0.00    -0.376 OA
BRANCH  28  29
ATOM     29  C   UNL A   1      39.693  21.880  26.291  1.00  0.00     0.202 C 
BRANCH  29  30
ATOM     30  C   UNL A   1      39.368  23.186  27.038  1.00  0.00     0.261 C 
BRANCH  30  31
ATOM     31  O   UNL A   1      39.908  24.399  26.542  1.00  0.00    -0.460 OA
BRANCH  31  32
ATOM     32  C   UNL A   1      41.118  24.736  27.036  1.00  0.00     0.338 C 
ATOM     33  O   UNL A   1      42.205  24.370  26.650  1.00  0.00    -0.246 OA
BRANCH  32  34
ATOM     34  C   UNL A   1      40.883  25.816  28.009  1.00  0.00     0.060 A 
ATOM     35  C   UNL A   1      41.899  26.762  28.192  1.00  0.00     0.016 A 
ATOM     36  C   UNL A   1      39.665  25.922  28.686  1.00  0.00     0.016 A 
ATOM     37  C   UNL A   1      41.697  27.830  29.052  1.00  0.00     0.010 A 
ATOM     38  C   UNL A   1      39.484  26.962  29.593  1.00  0.00     0.010 A 
ATOM     39  C   UNL A   1      40.512  27.899  29.793  1.00  0.00    -0.014 A 
BRANCH  39  40
ATOM     40  C   UNL A   1      40.485  28.788  30.967  1.00  0.00     0.031 A 
ATOM     41  C   UNL A   1      39.476  29.898  30.960  1.00  0.00     0.074 A 
ATOM     42  C   UNL A   1      41.284  28.567  32.022  1.00  0.00     0.049 A 
ATOM     43  N   UNL A   1      39.233  30.804  31.867  1.00  0.00    -0.248 NA
ATOM     44  C   UNL A   1      38.619  29.993  29.764  1.00  0.00     0.031 C 
ATOM     45  C   UNL A   1      42.248  27.474  32.139  1.00  0.00     0.029 A 
ATOM     46  N   UNL A   1      41.404  29.255  33.199  1.00  0.00    -0.354 N 
ATOM     47  C   UNL A   1      38.197  31.574  31.353  1.00  0.00     0.074 A 
ATOM     48  C   UNL A   1      37.880  31.054  30.044  1.00  0.00     0.031 C 
ATOM     49  C   UNL A   1      42.871  27.572  33.327  1.00  0.00     0.029 A 
ATOM     50  C   UNL A   1      42.369  28.750  34.034  1.00  0.00     0.049 A 
ATOM     51  H   UNL A   1      40.851  30.037  33.425  1.00  0.00     0.167 HD
ATOM     52  C   UNL A   1      37.563  32.620  31.931  1.00  0.00     0.037 A 
ATOM     53  C   UNL A   1      42.804  29.209  35.224  1.00  0.00     0.037 A 
ATOM     54  C   UNL A   1      37.917  33.138  33.224  1.00  0.00     0.049 A 
ATOM     55  C   UNL A   1      42.152  30.437  35.806  1.00  0.00     0.074 A 
ATOM     56  C   UNL A   1      37.359  34.200  33.909  1.00  0.00     0.029 A 
ATOM     57  N   UNL A   1      38.940  32.637  34.020  1.00  0.00    -0.354 N 
ATOM     58  N   UNL A   1      41.163  31.154  35.324  1.00  0.00    -0.248 NA
ATOM     59  C   UNL A   1      42.669  30.916  37.094  1.00  0.00     0.031 C 
ATOM     60  C   UNL A   1      38.084  34.380  35.091  1.00  0.00     0.029 A 
ATOM     61  C   UNL A   1      39.050  33.388  35.177  1.00  0.00     0.049 A 
ATOM     62  H   UNL A   1      39.504  31.863  33.794  1.00  0.00     0.167 HD
ATOM     63  C   UNL A   1      40.919  32.152  36.263  1.00  0.00     0.074 A 
ATOM     64  C   UNL A   1      41.862  31.938  37.344  1.00  0.00     0.031 C 
ATOM     65  C   UNL A   1      39.998  33.149  36.239  1.00  0.00     0.037 A 
BRANCH  52  66
ATOM     66  C   UNL A   1      36.475  33.287  31.138  1.00  0.00     0.058 A 
ATOM     67  C   UNL A   1      36.755  34.121  30.042  1.00  0.00     0.135 A 
ATOM     68  C   UNL A   1      35.129  33.110  31.496  1.00  0.00     0.135 A 
ATOM     69  F   UNL A   1      38.025  34.348  29.671  1.00  0.00    -0.206 F 
ATOM     70  C   UNL A   1      35.744  34.786  29.356  1.00  0.00     0.059 A 
ATOM     71  C   UNL A   1      34.099  33.739  30.803  1.00  0.00     0.059 A 
ATOM     72  F   UNL A   1      34.803  32.332  32.540  1.00  0.00    -0.206 F 
ATOM     73  C   UNL A   1      34.418  34.592  29.747  1.00  0.00     0.060 A 
BRANCH  73  74
ATOM     74  S   UNL A   1      33.119  35.476  28.860  1.00  0.00     0.124 S 
ATOM     75  O   UNL A   1      32.504  34.398  28.091  1.00  0.00    -0.237 OA
ATOM     76  O   UNL A   1      32.312  36.019  29.948  1.00  0.00    -0.237 OA
ATOM     77  O   UNL A   1      33.853  36.465  28.076  1.00  0.00    -0.744 OA
ENDBRANCH  73  74
ENDBRANCH  52  66
BRANCH  53  78
ATOM     78  C   UNL A   1      43.905  28.504  35.933  1.00  0.00     0.058 A 
ATOM     79  C   UNL A   1      45.242  28.890  35.762  1.00  0.00     0.135 A 
ATOM     80  C   UNL A   1      43.640  27.446  36.817  1.00  0.00     0.135 A 
ATOM     81  F   UNL A   1      45.550  29.888  34.919  1.00  0.00    -0.206 F 
ATOM     82  C   UNL A   1      46.278  28.254  36.439  1.00  0.00     0.059 A 
ATOM     83  C   UNL A   1      44.655  26.811  37.525  1.00  0.00     0.059 A 
ATOM     84  F   UNL A   1      42.377  27.041  37.023  1.00  0.00    -0.206 F 
ATOM     85  C   UNL A   1      45.973  27.220  37.327  1.00  0.00     0.060 A 
BRANCH  85  86
ATOM     86  S   UNL A   1      47.318  26.454  38.256  1.00  0.00     0.124 S 
ATOM     87  O   UNL A   1      47.275  25.082  37.764  1.00  0.00    -0.237 OA
ATOM     88  O   UNL A   1      48.469  27.248  37.836  1.00  0.00    -0.237 OA
ATOM     89  O   UNL A   1      46.915  26.639  39.647  1.00  0.00    -0.744 OA
ENDBRANCH  85  86
ENDBRANCH  53  78
BRANCH  65  90
ATOM     90  C   UNL A   1      39.934  34.063  37.433  1.00  0.00     0.058 A 
ATOM     91  C   UNL A   1      40.605  35.295  37.461  1.00  0.00     0.135 A 
ATOM     92  C   UNL A   1      39.133  33.727  38.536  1.00  0.00     0.135 A 
ATOM     93  F   UNL A   1      41.389  35.662  36.435  1.00  0.00    -0.206 F 
ATOM     94  C   UNL A   1      40.500  36.153  38.551  1.00  0.00     0.059 A 
ATOM     95  C   UNL A   1      38.986  34.584  39.622  1.00  0.00     0.059 A 
ATOM     96  F   UNL A   1      38.460  32.564  38.555  1.00  0.00    -0.206 F 
ATOM     97  C   UNL A   1      39.684  35.791  39.625  1.00  0.00     0.060 A 
BRANCH  97  98
ATOM     98  S   UNL A   1      39.524  36.932  41.013  1.00  0.00     0.124 S 
ATOM     99  O   UNL A   1      38.694  36.162  41.932  1.00  0.00    -0.237 OA
ATOM    100  O   UNL A   1      40.912  37.123  41.420  1.00  0.00    -0.237 OA
ATOM    101  O   UNL A   1      38.884  38.103  40.420  1.00  0.00    -0.744 OA
ENDBRANCH  97  98
ENDBRANCH  65  90
ENDBRANCH  39  40
ENDBRANCH  32  34
ENDBRANCH  31  32
ENDBRANCH  30  31
ENDBRANCH  29  30
ENDBRANCH  28  29
ENDBRANCH  27  28
ENDBRANCH  26  27
ENDBRANCH  25  26
ENDBRANCH   1  25
TORSDOF 29
ENDMDL
MODEL 2
REMARK VINA RESULT:      -8.2      5.274      9.387
REMARK SMILES CCN(CC)C(=O)CN(CC(=O)OCCOCCOCCOCCOC(=O)c1ccc(-c2c3nc(c(-c4c(F)cc(S(=O)(=O)[O-])cc4F)c4ccc([nH]4)c(-c4c(F)cc(S(=O)(=O)[O-])cc4F)c4nc(c(-c5c(F)cc(S(=O)(=O)[O-])cc5F)c5ccc2[nH]5)C=C4)C=C3)cc1)c1ccccc1
REMARK SMILES IDX 18 1 17 2 16 3 15 4 14 5 13 6 11 7 12 8 10 9 9 10 8 11 6 12
REMARK SMILES IDX 3 13 7 14 2 15 1 16 4 17 5 18 94 19 95 20 99 21 96 22 98 23
REMARK SMILES IDX 97 24 19 25 20 26 21 27 22 28 23 29 24 30 25 31 26 32 27 33
REMARK SMILES IDX 28 34 29 35 93 36 30 37 92 38 31 39 32 40 33 41 86 42 34 43
REMARK SMILES IDX 91 44 85 45 87 46 35 47 90 48 84 49 83 50 36 52 70 53 49 54
REMARK SMILES IDX 69 55 50 56 53 57 68 58 88 59 51 60 52 61 67 63 89 64 54 65
REMARK SMILES IDX 37 66 38 67 47 68 39 69 40 70 46 71 48 72 41 73 42 74 43 75
REMARK SMILES IDX 44 76 45 77 71 78 72 79 81 80 73 81 74 82 80 83 82 84 75 85
REMARK SMILES IDX 76 86 77 87 78 88 79 89 55 90 56 91 65 92 57 93 58 94 64 95
REMARK SMILES IDX 66 96 59 97 60 98 61 99 62 100 63 101
REMARK H PARENT 87 51 53 62
REMARK Flexibility Score: inf
ROOT
ATOM      1  C   UNL A   1      34.042  21.648  25.335  1.00  0.00     0.188 C 
ENDROOT
BRANCH   1   2
ATOM      2  C   UNL A   1      33.095  22.445  26.261  1.00  0.00     0.188 C 
BRANCH   2   3
ATOM      3  O   UNL A   1      31.772  22.572  25.782  1.00  0.00    -0.376 OA
BRANCH   3   4
ATOM      4  C   UNL A   1      30.832  23.396  26.444  1.00  0.00     0.202 C 
BRANCH   4   5
ATOM      5  C   UNL A   1      30.431  24.800  25.948  1.00  0.00     0.261 C 
BRANCH   5   6
ATOM      6  O   UNL A   1      30.679  25.923  26.815  1.00  0.00    -0.462 OA
BRANCH   6   7
ATOM      7  C   UNL A   1      31.796  26.647  26.599  1.00  0.00     0.325 C 
ATOM      8  O   UNL A   1      32.814  26.181  26.090  1.00  0.00    -0.250 OA
BRANCH   7   9
ATOM      9  C   UNL A   1      31.737  28.092  27.100  1.00  0.00     0.239 C 
BRANCH   9  10
ATOM     10  N   UNL A   1      31.915  29.261  26.176  1.00  0.00    -0.351 N 
BRANCH  10  11
ATOM     11  C   UNL A   1      32.825  30.337  26.664  1.00  0.00     0.217 C 
BRANCH  11  12
ATOM     12  C   UNL A   1      34.292  29.904  26.974  1.00  0.00     0.242 C 
ATOM     13  N   UNL A   1      35.073  30.575  27.915  1.00  0.00    -0.342 N 
ATOM     14  O   UNL A   1      34.760  28.933  26.363  1.00  0.00    -0.273 OA
BRANCH  13  15
ATOM     15  C   UNL A   1      36.292  29.916  28.387  1.00  0.00     0.116 C 
ATOM     16  C   UNL A   1      36.277  29.696  29.896  1.00  0.00     0.027 C 
ENDBRANCH  13  15
BRANCH  13  17
ATOM     17  C   UNL A   1      34.775  31.887  28.473  1.00  0.00     0.116 C 
ATOM     18  C   UNL A   1      35.662  32.970  27.879  1.00  0.00     0.027 C 
ENDBRANCH  13  17
ENDBRANCH  11  12
ENDBRANCH  10  11
BRANCH  10  19
ATOM     19  C   UNL A   1      31.522  29.276  24.828  1.00  0.00     0.038 A 
ATOM     20  C   UNL A   1      32.329  28.777  23.793  1.00  0.00     0.026 A 
ATOM     21  C   UNL A   1      30.243  29.727  24.414  1.00  0.00     0.026 A 
ATOM     22  C   UNL A   1      31.894  28.727  22.454  1.00  0.00     0.002 A 
ATOM     23  C   UNL A   1      29.816  29.720  23.077  1.00  0.00     0.002 A 
ATOM     24  C   UNL A   1      30.642  29.209  22.093  1.00  0.00     0.000 A 
ENDBRANCH  10  19
ENDBRANCH   9  10
ENDBRANCH   7   9
ENDBRANCH   6   7
ENDBRANCH   5   6
ENDBRANCH   4   5
ENDBRANCH   3   4
ENDBRANCH   2   3
ENDBRANCH   1   2
BRANCH   1  25
ATOM     25  O   UNL A   1      34.791  22.286  24.321  1.00  0.00    -0.377 OA
BRANCH  25  26
ATOM     26  C   UNL A   1      36.184  22.266  24.475  1.00  0.00     0.188 C 
BRANCH  26  27
ATOM     27  C   UNL A   1      36.659  21.048  25.277  1.00  0.00     0.188 C 
BRANCH  27  28
ATOM     28  O   UNL A   1      37.582  20.123  24.725  1.00  0.00    -0.376 OA
BRANCH  28  29
ATOM     29  C   UNL A   1      38.894  19.904  25.224  1.00  0.00     0.202 C 
BRANCH  29  30
ATOM     30  C   UNL A   1      39.612  20.628  26.378  1.00  0.00     0.261 C 
BRANCH  30  31
ATOM     31  O   UNL A   1      39.992  21.980  26.192  1.00  0.00    -0.460 OA
BRANCH  31  32
ATOM     32  C   UNL A   1      41.323  22.206  26.161  1.00  0.00     0.338 C 
ATOM     33  O   UNL A   1      42.168  21.577  25.564  1.00  0.00    -0.246 OA
BRANCH  32  34
ATOM     34  C   UNL A   1      41.538  23.504  26.819  1.00  0.00     0.060 A 
ATOM     35  C   UNL A   1      41.482  24.656  26.025  1.00  0.00     0.016 A 
ATOM     36  C   UNL A   1      41.740  23.587  28.200  1.00  0.00     0.016 A 
ATOM     37  C   UNL A   1      41.619  25.904  26.613  1.00  0.00     0.010 A 
ATOM     38  C   UNL A   1      41.935  24.836  28.781  1.00  0.00     0.010 A 
ATOM     39  C   UNL A   1      41.900  25.990  27.981  1.00  0.00    -0.014 A 
BRANCH  39  40
ATOM     40  C   UNL A   1      42.431  27.264  28.495  1.00  0.00     0.031 A 
ATOM     41  C   UNL A   1      43.903  27.506  28.331  1.00  0.00     0.074 A 
ATOM     42  C   UNL A   1      41.618  28.191  29.024  1.00  0.00     0.049 A 
ATOM     43  N   UNL A   1      44.617  28.541  28.677  1.00  0.00    -0.248 NA
ATOM     44  C   UNL A   1      44.672  26.430  27.679  1.00  0.00     0.031 C 
ATOM     45  C   UNL A   1      40.168  28.065  29.163  1.00  0.00     0.029 A 
ATOM     46  N   UNL A   1      41.905  29.427  29.539  1.00  0.00    -0.354 N 
ATOM     47  C   UNL A   1      45.917  28.242  28.285  1.00  0.00     0.074 A 
ATOM     48  C   UNL A   1      45.900  26.919  27.707  1.00  0.00     0.031 C 
ATOM     49  C   UNL A   1      39.691  29.183  29.739  1.00  0.00     0.029 A 
ATOM     50  C   UNL A   1      40.806  30.083  30.034  1.00  0.00     0.049 A 
ATOM     51  H   UNL A   1      42.812  29.808  29.554  1.00  0.00     0.167 HD
ATOM     52  C   UNL A   1      47.023  29.012  28.394  1.00  0.00     0.037 A 
ATOM     53  C   UNL A   1      40.724  31.269  30.668  1.00  0.00     0.037 A 
ATOM     54  C   UNL A   1      47.019  30.316  28.999  1.00  0.00     0.049 A 
ATOM     55  C   UNL A   1      41.986  32.068  30.869  1.00  0.00     0.074 A 
ATOM     56  C   UNL A   1      48.077  31.185  29.180  1.00  0.00     0.029 A 
ATOM     57  N   UNL A   1      45.896  30.928  29.542  1.00  0.00    -0.354 N 
ATOM     58  N   UNL A   1      43.211  31.789  30.485  1.00  0.00    -0.248 NA
ATOM     59  C   UNL A   1      41.857  33.344  31.585  1.00  0.00     0.031 C 
ATOM     60  C   UNL A   1      47.606  32.297  29.886  1.00  0.00     0.029 A 
ATOM     61  C   UNL A   1      46.241  32.153  30.086  1.00  0.00     0.049 A 
ATOM     62  H   UNL A   1      44.989  30.547  29.541  1.00  0.00     0.167 HD
ATOM     63  C   UNL A   1      43.994  32.868  30.885  1.00  0.00     0.074 A 
ATOM     64  C   UNL A   1      43.099  33.806  31.535  1.00  0.00     0.031 C 
ATOM     65  C   UNL A   1      45.327  33.069  30.725  1.00  0.00     0.037 A 
BRANCH  52  66
ATOM     66  C   UNL A   1      48.316  28.430  27.895  1.00  0.00     0.058 A 
ATOM     67  C   UNL A   1      49.299  27.938  28.771  1.00  0.00     0.135 A 
ATOM     68  C   UNL A   1      48.589  28.389  26.519  1.00  0.00     0.135 A 
ATOM     69  F   UNL A   1      49.103  27.979  30.099  1.00  0.00    -0.206 F 
ATOM     70  C   UNL A   1      50.520  27.464  28.303  1.00  0.00     0.059 A 
ATOM     71  C   UNL A   1      49.790  27.887  26.026  1.00  0.00     0.059 A 
ATOM     72  F   UNL A   1      47.691  28.854  25.636  1.00  0.00    -0.206 F 
ATOM     73  C   UNL A   1      50.758  27.446  26.927  1.00  0.00     0.060 A 
BRANCH  73  74
ATOM     74  S   UNL A   1      52.353  26.845  26.336  1.00  0.00     0.124 S 
ATOM     75  O   UNL A   1      53.280  27.688  27.086  1.00  0.00    -0.237 OA
ATOM     76  O   UNL A   1      52.319  25.438  26.725  1.00  0.00    -0.237 OA
ATOM     77  O   UNL A   1      52.301  27.096  24.899  1.00  0.00    -0.744 OA
ENDBRANCH  73  74
ENDBRANCH  52  66
BRANCH  53  78
ATOM     78  C   UNL A   1      39.407  31.761  31.153  1.00  0.00     0.058 A 
ATOM     79  C   UNL A   1      38.646  32.663  30.395  1.00  0.00     0.135 A 
ATOM     80  C   UNL A   1      38.870  31.320  32.373  1.00  0.00     0.135 A 
ATOM     81  F   UNL A   1      39.119  33.125  29.228  1.00  0.00    -0.206 F 
ATOM     82  C   UNL A   1      37.402  33.111  30.827  1.00  0.00     0.059 A 
ATOM     83  C   UNL A   1      37.617  31.733  32.815  1.00  0.00     0.059 A 
ATOM     84  F   UNL A   1      39.554  30.451  33.134  1.00  0.00    -0.206 F 
ATOM     85  C   UNL A   1      36.891  32.632  32.036  1.00  0.00     0.060 A 
BRANCH  85  86
ATOM     86  S   UNL A   1      35.243  33.163  32.548  1.00  0.00     0.124 S 
ATOM     87  O   UNL A   1      35.256  32.837  33.969  1.00  0.00    -0.237 OA
ATOM     88  O   UNL A   1      35.265  34.584  32.218  1.00  0.00    -0.237 OA
ATOM     89  O   UNL A   1      34.355  32.350  31.721  1.00  0.00    -0.744 OA
ENDBRANCH  85  86
ENDBRANCH  53  78
BRANCH  65  90
ATOM     90  C   UNL A   1      45.896  34.369  31.224  1.00  0.00     0.058 A 
ATOM     91  C   UNL A   1      45.918  35.523  30.427  1.00  0.00     0.135 A 
ATOM     92  C   UNL A   1      46.363  34.475  32.545  1.00  0.00     0.135 A 
ATOM     93  F   UNL A   1      45.489  35.477  29.156  1.00  0.00    -0.206 F 
ATOM     94  C   UNL A   1      46.403  36.733  30.915  1.00  0.00     0.059 A 
ATOM     95  C   UNL A   1      46.821  35.681  33.064  1.00  0.00     0.059 A 
ATOM     96  F   UNL A   1      46.353  33.403  33.354  1.00  0.00    -0.206 F 
ATOM     97  C   UNL A   1      46.848  36.803  32.237  1.00  0.00     0.060 A 
BRANCH  97  98
ATOM     98  S   UNL A   1      47.435  38.387  32.869  1.00  0.00     0.124 S 
ATOM     99  O   UNL A   1      46.996  38.330  34.259  1.00  0.00    -0.237 OA
ATOM    100  O   UNL A   1      48.876  38.293  32.654  1.00  0.00    -0.237 OA
ATOM    101  O   UNL A   1      46.745  39.365  32.032  1.00  0.00    -0.744 OA
ENDBRANCH  97  98
ENDBRANCH  65  90
ENDBRANCH  39  40
ENDBRANCH  32  34
ENDBRANCH  31  32
ENDBRANCH  30  31
ENDBRANCH  29  30
ENDBRANCH  28  29
ENDBRANCH  27  28
ENDBRANCH  26  27
ENDBRANCH  25  26
ENDBRANCH   1  25
TORSDOF 29
ENDMDL
MODEL 3
REMARK VINA RESULT:      -8.1      5.442      9.470
REMARK SMILES CCN(CC)C(=O)CN(CC(=O)OCCOCCOCCOCCOC(=O)c1ccc(-c2c3nc(c(-c4c(F)cc(S(=O)(=O)[O-])cc4F)c4ccc([nH]4)c(-c4c(F)cc(S(=O)(=O)[O-])cc4F)c4nc(c(-c5c(F)cc(S(=O)(=O)[O-])cc5F)c5ccc2[nH]5)C=C4)C=C3)cc1)c1ccccc1
REMARK SMILES IDX 18 1 17 2 16 3 15 4 14 5 13 6 11 7 12 8 10 9 9 10 8 11 6 12
REMARK SMILES IDX 3 13 7 14 2 15 1 16 4 17 5 18 94 19 95 20 99 21 96 22 98 23
REMARK SMILES IDX 97 24 19 25 20 26 21 27 22 28 23 29 24 30 25 31 26 32 27 33
REMARK SMILES IDX 28 34 29 35 93 36 30 37 92 38 31 39 32 40 33 41 86 42 34 43
REMARK SMILES IDX 91 44 85 45 87 46 35 47 90 48 84 49 83 50 36 52 70 53 49 54
REMARK SMILES IDX 69 55 50 56 53 57 68 58 88 59 51 60 52 61 67 63 89 64 54 65
REMARK SMILES IDX 37 66 38 67 47 68 39 69 40 70 46 71 48 72 41 73 42 74 43 75
REMARK SMILES IDX 44 76 45 77 71 78 72 79 81 80 73 81 74 82 80 83 82 84 75 85
REMARK SMILES IDX 76 86 77 87 78 88 79 89 55 90 56 91 65 92 57 93 58 94 64 95
REMARK SMILES IDX 66 96 59 97 60 98 61 99 62 100 63 101
REMARK H PARENT 87 51 53 62
REMARK Flexibility Score: inf
ROOT
ATOM      1  C   UNL A   1      33.710  21.399  24.567  1.00  0.00     0.188 C 
ENDROOT
BRANCH   1   2
ATOM      2  C   UNL A   1      32.719  21.791  25.688  1.00  0.00     0.188 C 
BRANCH   2   3
ATOM      3  O   UNL A   1      32.140  23.071  25.541  1.00  0.00    -0.376 OA
BRANCH   3   4
ATOM      4  C   UNL A   1      31.007  23.451  26.298  1.00  0.00     0.202 C 
BRANCH   4   5
ATOM      5  C   UNL A   1      30.399  24.867  26.270  1.00  0.00     0.261 C 
BRANCH   5   6
ATOM      6  O   UNL A   1      30.979  25.839  25.379  1.00  0.00    -0.462 OA
BRANCH   6   7
ATOM      7  C   UNL A   1      30.217  26.287  24.359  1.00  0.00     0.325 C 
ATOM      8  O   UNL A   1      29.044  25.959  24.199  1.00  0.00    -0.250 OA
BRANCH   7   9
ATOM      9  C   UNL A   1      30.943  27.191  23.360  1.00  0.00     0.239 C 
BRANCH   9  10
ATOM     10  N   UNL A   1      30.898  28.687  23.463  1.00  0.00    -0.351 N 
BRANCH  10  11
ATOM     11  C   UNL A   1      32.222  29.375  23.458  1.00  0.00     0.217 C 
BRANCH  11  12
ATOM     12  C   UNL A   1      33.268  28.852  24.492  1.00  0.00     0.242 C 
ATOM     13  N   UNL A   1      33.015  28.865  25.864  1.00  0.00    -0.342 N 
ATOM     14  O   UNL A   1      34.346  28.411  24.067  1.00  0.00    -0.273 OA
BRANCH  13  15
ATOM     15  C   UNL A   1      33.883  28.063  26.727  1.00  0.00     0.116 C 
ATOM     16  C   UNL A   1      34.856  28.925  27.525  1.00  0.00     0.027 C 
ENDBRANCH  13  15
BRANCH  13  17
ATOM     17  C   UNL A   1      31.951  29.617  26.515  1.00  0.00     0.116 C 
ATOM     18  C   UNL A   1      32.144  31.117  26.368  1.00  0.00     0.027 C 
ENDBRANCH  13  17
ENDBRANCH  11  12
ENDBRANCH  10  11
BRANCH  10  19
ATOM     19  C   UNL A   1      29.740  29.461  23.289  1.00  0.00     0.038 A 
ATOM     20  C   UNL A   1      28.605  28.993  22.608  1.00  0.00     0.026 A 
ATOM     21  C   UNL A   1      29.597  30.753  23.856  1.00  0.00     0.026 A 
ATOM     22  C   UNL A   1      27.421  29.749  22.505  1.00  0.00     0.002 A 
ATOM     23  C   UNL A   1      28.437  31.532  23.723  1.00  0.00     0.002 A 
ATOM     24  C   UNL A   1      27.340  31.024  23.052  1.00  0.00     0.000 A 
ENDBRANCH  10  19
ENDBRANCH   9  10
ENDBRANCH   7   9
ENDBRANCH   6   7
ENDBRANCH   5   6
ENDBRANCH   4   5
ENDBRANCH   3   4
ENDBRANCH   2   3
ENDBRANCH   1   2
BRANCH   1  25
ATOM     25  O   UNL A   1      34.596  22.345  24.002  1.00  0.00    -0.377 OA
BRANCH  25  26
ATOM     26  C   UNL A   1      35.839  22.481  24.635  1.00  0.00     0.188 C 
BRANCH  26  27
ATOM     27  C   UNL A   1      36.244  21.212  25.394  1.00  0.00     0.188 C 
BRANCH  27  28
ATOM     28  O   UNL A   1      37.190  20.305  24.851  1.00  0.00    -0.376 OA
BRANCH  28  29
ATOM     29  C   UNL A   1      38.529  20.174  25.306  1.00  0.00     0.202 C 
BRANCH  29  30
ATOM     30  C   UNL A   1      39.275  21.033  26.344  1.00  0.00     0.261 C 
BRANCH  30  31
ATOM     31  O   UNL A   1      40.429  21.741  25.929  1.00  0.00    -0.460 OA
BRANCH  31  32
ATOM     32  C   UNL A   1      41.461  21.724  26.799  1.00  0.00     0.338 C 
ATOM     33  O   UNL A   1      42.229  20.814  27.022  1.00  0.00    -0.246 OA
BRANCH  32  34
ATOM     34  C   UNL A   1      41.621  23.106  27.281  1.00  0.00     0.060 A 
ATOM     35  C   UNL A   1      41.577  24.136  26.334  1.00  0.00     0.016 A 
ATOM     36  C   UNL A   1      41.759  23.381  28.644  1.00  0.00     0.016 A 
ATOM     37  C   UNL A   1      41.662  25.455  26.750  1.00  0.00     0.010 A 
ATOM     38  C   UNL A   1      41.903  24.703  29.056  1.00  0.00     0.010 A 
ATOM     39  C   UNL A   1      41.879  25.735  28.103  1.00  0.00    -0.014 A 
BRANCH  39  40
ATOM     40  C   UNL A   1      42.362  27.081  28.459  1.00  0.00     0.031 A 
ATOM     41  C   UNL A   1      43.807  27.382  28.189  1.00  0.00     0.074 A 
ATOM     42  C   UNL A   1      41.524  28.013  28.938  1.00  0.00     0.049 A 
ATOM     43  N   UNL A   1      44.477  28.483  28.390  1.00  0.00    -0.248 NA
ATOM     44  C   UNL A   1      44.603  26.287  27.604  1.00  0.00     0.031 C 
ATOM     45  C   UNL A   1      40.093  27.826  29.171  1.00  0.00     0.029 A 
ATOM     46  N   UNL A   1      41.764  29.308  29.312  1.00  0.00    -0.354 N 
ATOM     47  C   UNL A   1      45.770  28.214  27.958  1.00  0.00     0.074 A 
ATOM     48  C   UNL A   1      45.801  26.840  27.515  1.00  0.00     0.031 C 
ATOM     49  C   UNL A   1      39.581  28.970  29.660  1.00  0.00     0.029 A 
ATOM     50  C   UNL A   1      40.656  29.952  29.801  1.00  0.00     0.049 A 
ATOM     51  H   UNL A   1      42.648  29.736  29.238  1.00  0.00     0.167 HD
ATOM     52  C   UNL A   1      46.833  29.048  27.927  1.00  0.00     0.037 A 
ATOM     53  C   UNL A   1      40.538  31.191  30.319  1.00  0.00     0.037 A 
ATOM     54  C   UNL A   1      46.784  30.405  28.400  1.00  0.00     0.049 A 
ATOM     55  C   UNL A   1      41.760  32.071  30.369  1.00  0.00     0.074 A 
ATOM     56  C   UNL A   1      47.799  31.343  28.434  1.00  0.00     0.029 A 
ATOM     57  N   UNL A   1      45.657  31.009  28.943  1.00  0.00    -0.354 N 
ATOM     58  N   UNL A   1      42.978  31.820  29.945  1.00  0.00    -0.248 NA
ATOM     59  C   UNL A   1      41.594  33.405  30.961  1.00  0.00     0.031 C 
ATOM     60  C   UNL A   1      47.301  32.494  29.053  1.00  0.00     0.029 A 
ATOM     61  C   UNL A   1      45.958  32.300  29.342  1.00  0.00     0.049 A 
ATOM     62  H   UNL A   1      44.775  30.583  29.031  1.00  0.00     0.167 HD
ATOM     63  C   UNL A   1      43.716  32.973  30.192  1.00  0.00     0.074 A 
ATOM     64  C   UNL A   1      42.803  33.924  30.796  1.00  0.00     0.031 C 
ATOM     65  C   UNL A   1      45.026  33.227  29.939  1.00  0.00     0.037 A 
BRANCH  52  66
ATOM     66  C   UNL A   1      48.131  28.488  27.416  1.00  0.00     0.058 A 
ATOM     67  C   UNL A   1      49.193  28.162  28.278  1.00  0.00     0.135 A 
ATOM     68  C   UNL A   1      48.327  28.299  26.039  1.00  0.00     0.135 A 
ATOM     69  F   UNL A   1      49.072  28.349  29.602  1.00  0.00    -0.206 F 
ATOM     70  C   UNL A   1      50.413  27.708  27.789  1.00  0.00     0.059 A 
ATOM     71  C   UNL A   1      49.528  27.813  25.531  1.00  0.00     0.059 A 
ATOM     72  F   UNL A   1      47.351  28.602  25.169  1.00  0.00    -0.206 F 
ATOM     73  C   UNL A   1      50.573  27.540  26.413  1.00  0.00     0.060 A 
BRANCH  73  74
ATOM     74  S   UNL A   1      52.168  26.966  25.793  1.00  0.00     0.124 S 
ATOM     75  O   UNL A   1      52.580  26.050  26.851  1.00  0.00    -0.237 OA
ATOM     76  O   UNL A   1      51.803  26.346  24.523  1.00  0.00    -0.237 OA
ATOM     77  O   UNL A   1      52.952  28.193  25.685  1.00  0.00    -0.744 OA
ENDBRANCH  73  74
ENDBRANCH  52  66
BRANCH  53  78
ATOM     78  C   UNL A   1      39.221  31.660  30.826  1.00  0.00     0.058 A 
ATOM     79  C   UNL A   1      38.890  31.560  32.186  1.00  0.00     0.135 A 
ATOM     80  C   UNL A   1      38.277  32.242  29.967  1.00  0.00     0.135 A 
ATOM     81  F   UNL A   1      39.753  31.001  33.047  1.00  0.00    -0.206 F 
ATOM     82  C   UNL A   1      37.671  32.019  32.675  1.00  0.00     0.059 A 
ATOM     83  C   UNL A   1      37.062  32.732  30.436  1.00  0.00     0.059 A 
ATOM     84  F   UNL A   1      38.546  32.369  28.658  1.00  0.00    -0.206 F 
ATOM     85  C   UNL A   1      36.766  32.612  31.793  1.00  0.00     0.060 A 
BRANCH  85  86
ATOM     86  S   UNL A   1      35.220  33.271  32.453  1.00  0.00     0.124 S 
ATOM     87  O   UNL A   1      35.402  34.704  32.260  1.00  0.00    -0.237 OA
ATOM     88  O   UNL A   1      34.227  32.631  31.597  1.00  0.00    -0.237 OA
ATOM     89  O   UNL A   1      35.225  32.815  33.841  1.00  0.00    -0.744 OA
ENDBRANCH  85  86
ENDBRANCH  53  78
BRANCH  65  90
ATOM     90  C   UNL A   1      45.543  34.599  30.274  1.00  0.00     0.058 A 
ATOM     91  C   UNL A   1      46.131  34.887  31.515  1.00  0.00     0.135 A 
ATOM     92  C   UNL A   1      45.511  35.620  29.311  1.00  0.00     0.135 A 
ATOM     93  F   UNL A   1      46.183  33.948  32.474  1.00  0.00    -0.206 F 
ATOM     94  C   UNL A   1      46.650  36.146  31.797  1.00  0.00     0.059 A 
ATOM     95  C   UNL A   1      46.054  36.876  29.558  1.00  0.00     0.059 A 
ATOM     96  F   UNL A   1      44.970  35.394  28.102  1.00  0.00    -0.206 F 
ATOM     97  C   UNL A   1      46.611  37.134  30.810  1.00  0.00     0.060 A 
BRANCH  97  98
ATOM     98  S   UNL A   1      47.325  38.750  31.175  1.00  0.00     0.124 S 
ATOM     99  O   UNL A   1      48.749  38.491  30.989  1.00  0.00    -0.237 OA
ATOM    100  O   UNL A   1      46.699  39.602  30.169  1.00  0.00    -0.237 OA
ATOM    101  O   UNL A   1      46.908  39.004  32.551  1.00  0.00    -0.744 OA
ENDBRANCH  97  98
ENDBRANCH  65  90
ENDBRANCH  39  40
ENDBRANCH  32  34
ENDBRANCH  31  32
ENDBRANCH  30  31
ENDBRANCH  29  30
ENDBRANCH  28  29
ENDBRANCH  27  28
ENDBRANCH  26  27
ENDBRANCH  25  26
ENDBRANCH   1  25
TORSDOF 29
ENDMDL
