MODEL 1
REMARK VINA RESULT:      -9.4      0.000      0.000
REMARK SMILES CC[NH2+][C@@]1(C(=O)OCCOCCOCCOCCOC(=O)c2ccc(-c3c4nc(c(-c5c(F)cc(S(=O)(=O)[O-])cc5F)c5ccc([nH]5)c(-c5c(F)cc(S(=O)(=O)[O-])cc5F)c5nc(c(-c6c(F)cc(S(=O)(=O)[O-])cc6F)c6ccc3[nH]6)C=C5)C=C4)cc2)CCC[C@H]1CCN1C(=O)CCC1=O
REMARK SMILES IDX 13 1 12 2 11 3 10 4 9 5 8 6 7 7 5 8 6 9 4 10 88 11 91 12
REMARK SMILES IDX 89 13 90 14 3 15 2 18 1 19 92 20 93 21 94 22 95 23 99 24
REMARK SMILES IDX 96 25 97 26 98 27 100 28 14 29 15 30 16 31 17 32 18 33 19 34
REMARK SMILES IDX 20 35 21 36 22 37 23 38 87 39 24 40 86 41 25 42 26 43 27 44
REMARK SMILES IDX 80 45 28 46 85 47 79 48 81 49 29 50 84 51 78 52 77 53 30 55
REMARK SMILES IDX 64 56 43 57 63 58 44 59 47 60 62 61 82 62 45 63 46 64 61 66
REMARK SMILES IDX 83 67 48 68 31 69 32 70 41 71 33 72 34 73 40 74 42 75 35 76
REMARK SMILES IDX 36 77 37 78 38 79 39 80 65 81 66 82 75 83 67 84 68 85 74 86
REMARK SMILES IDX 76 87 69 88 70 89 71 90 72 91 73 92 49 93 50 94 59 95 51 96
REMARK SMILES IDX 52 97 58 98 60 99 53 100 54 101 55 102 56 103 57 104
REMARK H PARENT 3 16 3 17 81 54 47 65
REMARK Flexibility Score: inf
ROOT
ATOM      1  O   UNL A   1      34.644  20.969  25.243  1.00  0.00    -0.377 OA
ENDROOT
BRANCH   1   2
ATOM      2  C   UNL A   1      33.916  20.917  26.451  1.00  0.00     0.188 C 
BRANCH   2   3
ATOM      3  C   UNL A   1      32.912  22.050  26.672  1.00  0.00     0.188 C 
BRANCH   3   4
ATOM      4  O   UNL A   1      31.804  22.170  25.812  1.00  0.00    -0.376 OA
BRANCH   4   5
ATOM      5  C   UNL A   1      30.618  22.801  26.279  1.00  0.00     0.202 C 
BRANCH   5   6
ATOM      6  C   UNL A   1      30.489  24.305  26.632  1.00  0.00     0.261 C 
BRANCH   6   7
ATOM      7  O   UNL A   1      31.681  25.116  26.719  1.00  0.00    -0.459 OA
BRANCH   7   8
ATOM      8  C   UNL A   1      31.510  26.450  26.566  1.00  0.00     0.368 C 
ATOM      9  O   UNL A   1      30.918  27.156  27.385  1.00  0.00    -0.245 OA
BRANCH   8  10
ATOM     10  C   UNL A   1      32.133  27.076  25.250  1.00  0.00     0.197 C 
ATOM     11  C   UNL A   1      33.634  27.202  25.596  1.00  0.00     0.081 C 
ATOM     12  C   UNL A   1      31.815  28.551  24.825  1.00  0.00     0.064 C 
ATOM     13  C   UNL A   1      33.720  28.494  26.401  1.00  0.00     0.008 C 
ATOM     14  C   UNL A   1      32.652  29.410  25.813  1.00  0.00     0.011 C 
BRANCH  10  15
ATOM     15  N   UNL A   1      31.973  26.069  24.152  1.00  0.00    -0.332 N 
ATOM     16  H   UNL A   1      31.502  25.249  24.536  1.00  0.00     0.347 HD
ATOM     17  H   UNL A   1      31.433  26.519  23.413  1.00  0.00     0.347 HD
BRANCH  15  18
ATOM     18  C   UNL A   1      33.239  25.637  23.552  1.00  0.00     0.257 C 
ATOM     19  C   UNL A   1      33.281  25.873  22.052  1.00  0.00     0.071 C 
ENDBRANCH  15  18
ENDBRANCH  10  15
BRANCH  12  20
ATOM     20  C   UNL A   1      32.199  28.995  23.378  1.00  0.00     0.033 C 
BRANCH  20  21
ATOM     21  C   UNL A   1      31.133  29.140  22.277  1.00  0.00     0.129 C 
BRANCH  21  22
ATOM     22  N   UNL A   1      29.731  29.307  22.640  1.00  0.00    -0.283 N 
ATOM     23  C   UNL A   1      28.944  30.375  22.328  1.00  0.00     0.229 C 
ATOM     24  C   UNL A   1      28.968  28.230  23.015  1.00  0.00     0.229 C 
ATOM     25  O   UNL A   1      29.264  31.393  21.737  1.00  0.00    -0.274 OA
ATOM     26  C   UNL A   1      27.549  30.106  22.812  1.00  0.00     0.110 C 
ATOM     27  C   UNL A   1      27.546  28.654  23.209  1.00  0.00     0.110 C 
ATOM     28  O   UNL A   1      29.330  27.068  23.125  1.00  0.00    -0.274 OA
ENDBRANCH  21  22
ENDBRANCH  20  21
ENDBRANCH  12  20
ENDBRANCH   8  10
ENDBRANCH   7   8
ENDBRANCH   6   7
ENDBRANCH   5   6
ENDBRANCH   4   5
ENDBRANCH   3   4
ENDBRANCH   2   3
ENDBRANCH   1   2
BRANCH   1  29
ATOM     29  C   UNL A   1      36.060  21.090  25.334  1.00  0.00     0.188 C 
BRANCH  29  30
ATOM     30  C   UNL A   1      36.675  22.494  25.490  1.00  0.00     0.188 C 
BRANCH  30  31
ATOM     31  O   UNL A   1      38.073  22.573  25.234  1.00  0.00    -0.376 OA
BRANCH  31  32
ATOM     32  C   UNL A   1      38.975  22.815  26.305  1.00  0.00     0.202 C 
BRANCH  32  33
ATOM     33  C   UNL A   1      39.802  21.635  26.834  1.00  0.00     0.261 C 
BRANCH  33  34
ATOM     34  O   UNL A   1      40.340  20.748  25.862  1.00  0.00    -0.460 OA
BRANCH  34  35
ATOM     35  C   UNL A   1      41.571  20.251  26.068  1.00  0.00     0.338 C 
ATOM     36  O   UNL A   1      41.973  19.127  25.865  1.00  0.00    -0.246 OA
BRANCH  35  37
ATOM     37  C   UNL A   1      42.392  21.435  26.340  1.00  0.00     0.060 A 
ATOM     38  C   UNL A   1      42.829  21.637  27.650  1.00  0.00     0.016 A 
ATOM     39  C   UNL A   1      42.781  22.280  25.293  1.00  0.00     0.016 A 
ATOM     40  C   UNL A   1      43.604  22.745  27.933  1.00  0.00     0.010 A 
ATOM     41  C   UNL A   1      43.547  23.400  25.579  1.00  0.00     0.010 A 
ATOM     42  C   UNL A   1      43.896  23.659  26.911  1.00  0.00    -0.014 A 
BRANCH  42  43
ATOM     43  C   UNL A   1      44.311  25.007  27.324  1.00  0.00     0.031 A 
ATOM     44  C   UNL A   1      45.746  25.383  27.092  1.00  0.00     0.074 A 
ATOM     45  C   UNL A   1      43.393  25.886  27.749  1.00  0.00     0.049 A 
ATOM     46  N   UNL A   1      46.326  26.545  27.218  1.00  0.00    -0.248 NA
ATOM     47  C   UNL A   1      46.649  24.307  26.640  1.00  0.00     0.031 C 
ATOM     48  C   UNL A   1      41.975  25.590  27.957  1.00  0.00     0.029 A 
ATOM     49  N   UNL A   1      43.514  27.213  28.048  1.00  0.00    -0.354 N 
ATOM     50  C   UNL A   1      47.651  26.341  26.854  1.00  0.00     0.074 A 
ATOM     51  C   UNL A   1      47.806  24.939  26.546  1.00  0.00     0.031 C 
ATOM     52  C   UNL A   1      41.349  26.718  28.335  1.00  0.00     0.029 A 
ATOM     53  C   UNL A   1      42.328  27.799  28.414  1.00  0.00     0.049 A 
ATOM     54  H   UNL A   1      44.367  27.701  28.006  1.00  0.00     0.167 HD
ATOM     55  C   UNL A   1      48.644  27.254  26.770  1.00  0.00     0.037 A 
ATOM     56  C   UNL A   1      42.077  29.071  28.771  1.00  0.00     0.037 A 
ATOM     57  C   UNL A   1      48.456  28.642  27.093  1.00  0.00     0.049 A 
ATOM     58  C   UNL A   1      43.213  30.059  28.720  1.00  0.00     0.074 A 
ATOM     59  C   UNL A   1      49.381  29.668  27.060  1.00  0.00     0.029 A 
ATOM     60  N   UNL A   1      47.254  29.195  27.519  1.00  0.00    -0.354 N 
ATOM     61  N   UNL A   1      44.462  29.863  28.361  1.00  0.00    -0.248 NA
ATOM     62  C   UNL A   1      42.904  31.439  29.105  1.00  0.00     0.031 C 
ATOM     63  C   UNL A   1      48.752  30.829  27.524  1.00  0.00     0.029 A 
ATOM     64  C   UNL A   1      47.419  30.543  27.777  1.00  0.00     0.049 A 
ATOM     65  H   UNL A   1      46.410  28.699  27.622  1.00  0.00     0.167 HD
ATOM     66  C   UNL A   1      45.085  31.103  28.453  1.00  0.00     0.074 A 
ATOM     67  C   UNL A   1      44.063  32.042  28.879  1.00  0.00     0.031 C 
ATOM     68  C   UNL A   1      46.377  31.443  28.209  1.00  0.00     0.037 A 
BRANCH  55  69
ATOM     69  C   UNL A   1      50.007  26.769  26.358  1.00  0.00     0.058 A 
ATOM     70  C   UNL A   1      50.929  26.254  27.284  1.00  0.00     0.135 A 
ATOM     71  C   UNL A   1      50.394  26.816  25.009  1.00  0.00     0.135 A 
ATOM     72  F   UNL A   1      50.627  26.215  28.591  1.00  0.00    -0.206 F 
ATOM     73  C   UNL A   1      52.191  25.819  26.890  1.00  0.00     0.059 A 
ATOM     74  C   UNL A   1      51.639  26.359  24.588  1.00  0.00     0.059 A 
ATOM     75  F   UNL A   1      49.560  27.316  24.084  1.00  0.00    -0.206 F 
ATOM     76  C   UNL A   1      52.536  25.871  25.538  1.00  0.00     0.060 A 
BRANCH  76  77
ATOM     77  S   UNL A   1      54.168  25.285  25.039  1.00  0.00     0.124 S 
ATOM     78  O   UNL A   1      53.954  23.842  24.975  1.00  0.00    -0.237 OA
ATOM     79  O   UNL A   1      54.359  25.955  23.756  1.00  0.00    -0.237 OA
ATOM     80  O   UNL A   1      55.039  25.742  26.117  1.00  0.00    -0.744 OA
ENDBRANCH  76  77
ENDBRANCH  55  69
BRANCH  56  81
ATOM     81  C   UNL A   1      40.710  29.468  29.195  1.00  0.00     0.058 A 
ATOM     82  C   UNL A   1      40.404  29.731  30.538  1.00  0.00     0.135 A 
ATOM     83  C   UNL A   1      39.679  29.609  28.253  1.00  0.00     0.135 A 
ATOM     84  F   UNL A   1      41.353  29.611  31.480  1.00  0.00    -0.206 F 
ATOM     85  C   UNL A   1      39.122  30.102  30.935  1.00  0.00     0.059 A 
ATOM     86  C   UNL A   1      38.398  30.008  28.619  1.00  0.00     0.059 A 
ATOM     87  F   UNL A   1      39.922  29.386  26.951  1.00  0.00    -0.206 F 
ATOM     88  C   UNL A   1      38.126  30.241  29.965  1.00  0.00     0.060 A 
BRANCH  88  89
ATOM     89  S   UNL A   1      36.479  30.766  30.483  1.00  0.00     0.124 S 
ATOM     90  O   UNL A   1      36.755  32.077  31.060  1.00  0.00    -0.237 OA
ATOM     91  O   UNL A   1      35.748  30.763  29.221  1.00  0.00    -0.237 OA
ATOM     92  O   UNL A   1      36.079  29.730  31.432  1.00  0.00    -0.744 OA
ENDBRANCH  88  89
ENDBRANCH  56  81
BRANCH  68  93
ATOM     93  C   UNL A   1      46.736  32.894  28.367  1.00  0.00     0.058 A 
ATOM     94  C   UNL A   1      46.543  33.823  27.333  1.00  0.00     0.135 A 
ATOM     95  C   UNL A   1      47.271  33.361  29.580  1.00  0.00     0.135 A 
ATOM     96  F   UNL A   1      46.035  33.428  26.155  1.00  0.00    -0.206 F 
ATOM     97  C   UNL A   1      46.921  35.153  27.475  1.00  0.00     0.059 A 
ATOM     98  C   UNL A   1      47.617  34.695  29.758  1.00  0.00     0.059 A 
ATOM     99  F   UNL A   1      47.455  32.519  30.609  1.00  0.00    -0.206 F 
ATOM    100  C   UNL A   1      47.463  35.577  28.690  1.00  0.00     0.060 A 
BRANCH 100 101
ATOM    101  S   UNL A   1      47.968  37.301  28.855  1.00  0.00     0.124 S 
ATOM    102  O   UNL A   1      47.060  37.961  27.922  1.00  0.00    -0.237 OA
ATOM    103  O   UNL A   1      47.724  37.563  30.270  1.00  0.00    -0.237 OA
ATOM    104  O   UNL A   1      49.373  37.283  28.459  1.00  0.00    -0.744 OA
ENDBRANCH 100 101
ENDBRANCH  68  93
ENDBRANCH  42  43
ENDBRANCH  35  37
ENDBRANCH  34  35
ENDBRANCH  33  34
ENDBRANCH  32  33
ENDBRANCH  31  32
ENDBRANCH  30  31
ENDBRANCH  29  30
ENDBRANCH   1  29
TORSDOF 28
ENDMDL
MODEL 2
REMARK VINA RESULT:      -9.3      2.086      8.891
REMARK SMILES CC[NH2+][C@@]1(C(=O)OCCOCCOCCOCCOC(=O)c2ccc(-c3c4nc(c(-c5c(F)cc(S(=O)(=O)[O-])cc5F)c5ccc([nH]5)c(-c5c(F)cc(S(=O)(=O)[O-])cc5F)c5nc(c(-c6c(F)cc(S(=O)(=O)[O-])cc6F)c6ccc3[nH]6)C=C5)C=C4)cc2)CCC[C@H]1CCN1C(=O)CCC1=O
REMARK SMILES IDX 13 1 12 2 11 3 10 4 9 5 8 6 7 7 5 8 6 9 4 10 88 11 91 12
REMARK SMILES IDX 89 13 90 14 3 15 2 18 1 19 92 20 93 21 94 22 95 23 99 24
REMARK SMILES IDX 96 25 97 26 98 27 100 28 14 29 15 30 16 31 17 32 18 33 19 34
REMARK SMILES IDX 20 35 21 36 22 37 23 38 87 39 24 40 86 41 25 42 26 43 27 44
REMARK SMILES IDX 80 45 28 46 85 47 79 48 81 49 29 50 84 51 78 52 77 53 30 55
REMARK SMILES IDX 64 56 43 57 63 58 44 59 47 60 62 61 82 62 45 63 46 64 61 66
REMARK SMILES IDX 83 67 48 68 31 69 32 70 41 71 33 72 34 73 40 74 42 75 35 76
REMARK SMILES IDX 36 77 37 78 38 79 39 80 65 81 66 82 75 83 67 84 68 85 74 86
REMARK SMILES IDX 76 87 69 88 70 89 71 90 72 91 73 92 49 93 50 94 59 95 51 96
REMARK SMILES IDX 52 97 58 98 60 99 53 100 54 101 55 102 56 103 57 104
REMARK H PARENT 3 16 3 17 81 54 47 65
REMARK Flexibility Score: inf
ROOT
ATOM      1  O   UNL A   1      31.598  29.750  24.914  1.00  0.00    -0.377 OA
ENDROOT
BRANCH   1   2
ATOM      2  C   UNL A   1      30.354  30.238  24.460  1.00  0.00     0.188 C 
BRANCH   2   3
ATOM      3  C   UNL A   1      30.019  29.943  22.995  1.00  0.00     0.188 C 
BRANCH   3   4
ATOM      4  O   UNL A   1      29.171  28.864  22.683  1.00  0.00    -0.376 OA
BRANCH   4   5
ATOM      5  C   UNL A   1      29.596  27.535  22.958  1.00  0.00     0.202 C 
BRANCH   5   6
ATOM      6  C   UNL A   1      29.377  26.790  24.299  1.00  0.00     0.261 C 
BRANCH   6   7
ATOM      7  O   UNL A   1      30.435  26.778  25.283  1.00  0.00    -0.459 OA
BRANCH   7   8
ATOM      8  C   UNL A   1      30.630  25.609  25.938  1.00  0.00     0.368 C 
ATOM      9  O   UNL A   1      29.803  25.117  26.707  1.00  0.00    -0.245 OA
BRANCH   8  10
ATOM     10  C   UNL A   1      32.009  24.883  25.650  1.00  0.00     0.197 C 
ATOM     11  C   UNL A   1      31.652  23.881  24.527  1.00  0.00     0.081 C 
ATOM     12  C   UNL A   1      32.650  23.914  26.702  1.00  0.00     0.064 C 
ATOM     13  C   UNL A   1      31.041  22.698  25.269  1.00  0.00     0.008 C 
ATOM     14  C   UNL A   1      31.779  22.631  26.602  1.00  0.00     0.011 C 
BRANCH  10  15
ATOM     15  N   UNL A   1      32.952  25.909  25.100  1.00  0.00    -0.332 N 
ATOM     16  H   UNL A   1      32.537  26.831  25.234  1.00  0.00     0.347 HD
ATOM     17  H   UNL A   1      33.833  25.801  25.602  1.00  0.00     0.347 HD
BRANCH  15  18
ATOM     18  C   UNL A   1      33.251  25.740  23.674  1.00  0.00     0.257 C 
ATOM     19  C   UNL A   1      33.584  27.054  22.990  1.00  0.00     0.071 C 
ENDBRANCH  15  18
ENDBRANCH  10  15
BRANCH  12  20
ATOM     20  C   UNL A   1      34.137  23.487  26.492  1.00  0.00     0.033 C 
BRANCH  20  21
ATOM     21  C   UNL A   1      34.581  22.727  25.229  1.00  0.00     0.129 C 
BRANCH  21  22
ATOM     22  N   UNL A   1      35.928  22.174  25.149  1.00  0.00    -0.283 N 
ATOM     23  C   UNL A   1      37.069  22.778  25.587  1.00  0.00     0.229 C 
ATOM     24  C   UNL A   1      36.128  20.831  24.957  1.00  0.00     0.229 C 
ATOM     25  O   UNL A   1      37.186  23.887  26.081  1.00  0.00    -0.274 OA
ATOM     26  C   UNL A   1      38.220  21.833  25.397  1.00  0.00     0.110 C 
ATOM     27  C   UNL A   1      37.588  20.515  25.041  1.00  0.00     0.110 C 
ATOM     28  O   UNL A   1      35.275  19.969  24.801  1.00  0.00    -0.274 OA
ENDBRANCH  21  22
ENDBRANCH  20  21
ENDBRANCH  12  20
ENDBRANCH   8  10
ENDBRANCH   7   8
ENDBRANCH   6   7
ENDBRANCH   5   6
ENDBRANCH   4   5
ENDBRANCH   3   4
ENDBRANCH   2   3
ENDBRANCH   1   2
BRANCH   1  29
ATOM     29  C   UNL A   1      32.172  30.378  26.056  1.00  0.00     0.188 C 
BRANCH  29  30
ATOM     30  C   UNL A   1      33.237  29.614  26.865  1.00  0.00     0.188 C 
BRANCH  30  31
ATOM     31  O   UNL A   1      34.454  30.320  27.080  1.00  0.00    -0.376 OA
BRANCH  31  32
ATOM     32  C   UNL A   1      34.489  31.404  27.998  1.00  0.00     0.202 C 
BRANCH  32  33
ATOM     33  C   UNL A   1      35.303  31.232  29.288  1.00  0.00     0.261 C 
BRANCH  33  34
ATOM     34  O   UNL A   1      36.028  30.017  29.426  1.00  0.00    -0.460 OA
BRANCH  34  35
ATOM     35  C   UNL A   1      36.718  29.814  30.562  1.00  0.00     0.338 C 
ATOM     36  O   UNL A   1      36.297  29.510  31.655  1.00  0.00    -0.246 OA
BRANCH  35  37
ATOM     37  C   UNL A   1      38.118  29.780  30.126  1.00  0.00     0.060 A 
ATOM     38  C   UNL A   1      38.395  30.101  28.797  1.00  0.00     0.016 A 
ATOM     39  C   UNL A   1      39.138  29.508  31.047  1.00  0.00     0.016 A 
ATOM     40  C   UNL A   1      39.705  30.076  28.360  1.00  0.00     0.010 A 
ATOM     41  C   UNL A   1      40.452  29.469  30.607  1.00  0.00     0.010 A 
ATOM     42  C   UNL A   1      40.717  29.688  29.249  1.00  0.00    -0.014 A 
BRANCH  42  43
ATOM     43  C   UNL A   1      41.986  29.242  28.656  1.00  0.00     0.031 A 
ATOM     44  C   UNL A   1      43.112  30.233  28.621  1.00  0.00     0.074 A 
ATOM     45  C   UNL A   1      42.142  27.956  28.307  1.00  0.00     0.049 A 
ATOM     46  N   UNL A   1      44.364  30.051  28.300  1.00  0.00    -0.248 NA
ATOM     47  C   UNL A   1      42.790  31.618  29.016  1.00  0.00     0.031 C 
ATOM     48  C   UNL A   1      41.096  26.935  28.358  1.00  0.00     0.029 A 
ATOM     49  N   UNL A   1      43.253  27.289  27.876  1.00  0.00    -0.354 N 
ATOM     50  C   UNL A   1      44.974  31.289  28.463  1.00  0.00     0.074 A 
ATOM     51  C   UNL A   1      43.953  32.226  28.866  1.00  0.00     0.031 C 
ATOM     52  C   UNL A   1      41.624  25.757  27.986  1.00  0.00     0.029 A 
ATOM     53  C   UNL A   1      43.033  25.952  27.655  1.00  0.00     0.049 A 
ATOM     54  H   UNL A   1      44.125  27.723  27.737  1.00  0.00     0.167 HD
ATOM     55  C   UNL A   1      46.279  31.603  28.305  1.00  0.00     0.037 A 
ATOM     56  C   UNL A   1      43.887  25.004  27.231  1.00  0.00     0.037 A 
ATOM     57  C   UNL A   1      47.268  30.645  27.894  1.00  0.00     0.049 A 
ATOM     58  C   UNL A   1      45.325  25.392  27.010  1.00  0.00     0.074 A 
ATOM     59  C   UNL A   1      48.621  30.836  27.687  1.00  0.00     0.029 A 
ATOM     60  N   UNL A   1      47.002  29.309  27.619  1.00  0.00    -0.354 N 
ATOM     61  N   UNL A   1      45.900  26.562  27.180  1.00  0.00    -0.248 NA
ATOM     62  C   UNL A   1      46.232  24.333  26.558  1.00  0.00     0.031 C 
ATOM     63  C   UNL A   1      49.160  29.629  27.228  1.00  0.00     0.029 A 
ATOM     64  C   UNL A   1      48.160  28.668  27.219  1.00  0.00     0.049 A 
ATOM     65  H   UNL A   1      46.118  28.882  27.697  1.00  0.00     0.167 HD
ATOM     66  C   UNL A   1      47.244  26.374  26.879  1.00  0.00     0.074 A 
ATOM     67  C   UNL A   1      47.395  24.970  26.541  1.00  0.00     0.031 C 
ATOM     68  C   UNL A   1      48.266  27.270  26.881  1.00  0.00     0.037 A 
BRANCH  55  69
ATOM     69  C   UNL A   1      46.686  33.033  28.535  1.00  0.00     0.058 A 
ATOM     70  C   UNL A   1      47.107  33.498  29.792  1.00  0.00     0.135 A 
ATOM     71  C   UNL A   1      46.658  33.953  27.474  1.00  0.00     0.135 A 
ATOM     72  F   UNL A   1      47.123  32.673  30.850  1.00  0.00    -0.206 F 
ATOM     73  C   UNL A   1      47.470  34.827  29.992  1.00  0.00     0.059 A 
ATOM     74  C   UNL A   1      47.045  35.278  27.645  1.00  0.00     0.059 A 
ATOM     75  F   UNL A   1      46.246  33.568  26.257  1.00  0.00    -0.206 F 
ATOM     76  C   UNL A   1      47.440  35.709  28.910  1.00  0.00     0.060 A 
BRANCH  76  77
ATOM     77  S   UNL A   1      47.932  37.425  29.181  1.00  0.00     0.124 S 
ATOM     78  O   UNL A   1      49.227  37.467  28.509  1.00  0.00    -0.237 OA
ATOM     79  O   UNL A   1      46.856  38.162  28.527  1.00  0.00    -0.237 OA
ATOM     80  O   UNL A   1      47.976  37.542  30.635  1.00  0.00    -0.744 OA
ENDBRANCH  76  77
ENDBRANCH  55  69
BRANCH  56  81
ATOM     81  C   UNL A   1      43.402  23.619  26.998  1.00  0.00     0.058 A 
ATOM     82  C   UNL A   1      43.154  23.134  25.705  1.00  0.00     0.135 A 
ATOM     83  C   UNL A   1      43.195  22.741  28.074  1.00  0.00     0.135 A 
ATOM     84  F   UNL A   1      43.336  23.932  24.642  1.00  0.00    -0.206 F 
ATOM     85  C   UNL A   1      42.699  21.836  25.488  1.00  0.00     0.059 A 
ATOM     86  C   UNL A   1      42.771  21.431  27.881  1.00  0.00     0.059 A 
ATOM     87  F   UNL A   1      43.434  23.148  29.330  1.00  0.00    -0.206 F 
ATOM     88  C   UNL A   1      42.515  20.991  26.584  1.00  0.00     0.060 A 
BRANCH  88  89
ATOM     89  S   UNL A   1      41.968  19.296  26.290  1.00  0.00     0.124 S 
ATOM     90  O   UNL A   1      42.588  18.589  27.405  1.00  0.00    -0.237 OA
ATOM     91  O   UNL A   1      40.516  19.430  26.346  1.00  0.00    -0.237 OA
ATOM     92  O   UNL A   1      42.512  18.992  24.969  1.00  0.00    -0.744 OA
ENDBRANCH  88  89
ENDBRANCH  56  81
BRANCH  68  93
ATOM     93  C   UNL A   1      49.630  26.740  26.539  1.00  0.00     0.058 A 
ATOM     94  C   UNL A   1      50.121  26.749  25.223  1.00  0.00     0.135 A 
ATOM     95  C   UNL A   1      50.463  26.228  27.548  1.00  0.00     0.135 A 
ATOM     96  F   UNL A   1      49.365  27.227  24.223  1.00  0.00    -0.206 F 
ATOM     97  C   UNL A   1      51.366  26.214  24.912  1.00  0.00     0.059 A 
ATOM     98  C   UNL A   1      51.727  25.727  27.265  1.00  0.00     0.059 A 
ATOM     99  F   UNL A   1      50.051  26.217  28.826  1.00  0.00    -0.206 F 
ATOM    100  C   UNL A   1      52.159  25.700  25.940  1.00  0.00     0.060 A 
BRANCH 100 101
ATOM    101  S   UNL A   1      53.764  24.993  25.520  1.00  0.00     0.124 S 
ATOM    102  O   UNL A   1      53.400  23.620  25.186  1.00  0.00    -0.237 OA
ATOM    103  O   UNL A   1      54.190  25.828  24.401  1.00  0.00    -0.237 OA
ATOM    104  O   UNL A   1      54.538  25.157  26.747  1.00  0.00    -0.744 OA
ENDBRANCH 100 101
ENDBRANCH  68  93
ENDBRANCH  42  43
ENDBRANCH  35  37
ENDBRANCH  34  35
ENDBRANCH  33  34
ENDBRANCH  32  33
ENDBRANCH  31  32
ENDBRANCH  30  31
ENDBRANCH  29  30
ENDBRANCH   1  29
TORSDOF 28
ENDMDL
MODEL 3
REMARK VINA RESULT:      -9.3      5.974      8.204
REMARK SMILES CC[NH2+][C@@]1(C(=O)OCCOCCOCCOCCOC(=O)c2ccc(-c3c4nc(c(-c5c(F)cc(S(=O)(=O)[O-])cc5F)c5ccc([nH]5)c(-c5c(F)cc(S(=O)(=O)[O-])cc5F)c5nc(c(-c6c(F)cc(S(=O)(=O)[O-])cc6F)c6ccc3[nH]6)C=C5)C=C4)cc2)CCC[C@H]1CCN1C(=O)CCC1=O
REMARK SMILES IDX 13 1 12 2 11 3 10 4 9 5 8 6 7 7 5 8 6 9 4 10 88 11 91 12
REMARK SMILES IDX 89 13 90 14 3 15 2 18 1 19 92 20 93 21 94 22 95 23 99 24
REMARK SMILES IDX 96 25 97 26 98 27 100 28 14 29 15 30 16 31 17 32 18 33 19 34
REMARK SMILES IDX 20 35 21 36 22 37 23 38 87 39 24 40 86 41 25 42 26 43 27 44
REMARK SMILES IDX 80 45 28 46 85 47 79 48 81 49 29 50 84 51 78 52 77 53 30 55
REMARK SMILES IDX 64 56 43 57 63 58 44 59 47 60 62 61 82 62 45 63 46 64 61 66
REMARK SMILES IDX 83 67 48 68 31 69 32 70 41 71 33 72 34 73 40 74 42 75 35 76
REMARK SMILES IDX 36 77 37 78 38 79 39 80 65 81 66 82 75 83 67 84 68 85 74 86
REMARK SMILES IDX 76 87 69 88 70 89 71 90 72 91 73 92 49 93 50 94 59 95 51 96
REMARK SMILES IDX 52 97 58 98 60 99 53 100 54 101 55 102 56 103 57 104
REMARK H PARENT 3 16 3 17 81 54 47 65
REMARK Flexibility Score: inf
ROOT
ATOM      1  O   UNL A   1      38.040  20.903  24.506  1.00  0.00    -0.377 OA
ENDROOT
BRANCH   1   2
ATOM      2  C   UNL A   1      36.768  21.418  24.835  1.00  0.00     0.188 C 
BRANCH   2   3
ATOM      3  C   UNL A   1      35.619  20.407  24.827  1.00  0.00     0.188 C 
BRANCH   3   4
ATOM      4  O   UNL A   1      34.567  20.549  25.752  1.00  0.00    -0.376 OA
BRANCH   4   5
ATOM      5  C   UNL A   1      34.583  21.631  26.673  1.00  0.00     0.202 C 
BRANCH   5   6
ATOM      6  C   UNL A   1      34.031  23.052  26.389  1.00  0.00     0.261 C 
BRANCH   6   7
ATOM      7  O   UNL A   1      33.647  23.405  25.042  1.00  0.00    -0.459 OA
BRANCH   7   8
ATOM      8  C   UNL A   1      33.539  24.728  24.778  1.00  0.00     0.368 C 
ATOM      9  O   UNL A   1      34.378  25.560  25.130  1.00  0.00    -0.245 OA
BRANCH   8  10
ATOM     10  C   UNL A   1      32.251  25.164  23.965  1.00  0.00     0.197 C 
ATOM     11  C   UNL A   1      32.547  24.651  22.536  1.00  0.00     0.081 C 
ATOM     12  C   UNL A   1      31.952  26.674  23.667  1.00  0.00     0.064 C 
ATOM     13  C   UNL A   1      33.443  25.728  21.936  1.00  0.00     0.008 C 
ATOM     14  C   UNL A   1      32.969  27.040  22.551  1.00  0.00     0.011 C 
BRANCH  10  15
ATOM     15  N   UNL A   1      31.088  24.401  24.521  1.00  0.00    -0.332 N 
ATOM     16  H   UNL A   1      30.281  24.562  23.917  1.00  0.00     0.347 HD
ATOM     17  H   UNL A   1      31.363  23.419  24.550  1.00  0.00     0.347 HD
BRANCH  15  18
ATOM     18  C   UNL A   1      30.725  24.783  25.889  1.00  0.00     0.257 C 
ATOM     19  C   UNL A   1      30.208  23.609  26.702  1.00  0.00     0.071 C 
ENDBRANCH  15  18
ENDBRANCH  10  15
BRANCH  12  20
ATOM     20  C   UNL A   1      30.529  27.049  23.146  1.00  0.00     0.033 C 
BRANCH  20  21
ATOM     21  C   UNL A   1      30.292  28.321  22.312  1.00  0.00     0.129 C 
BRANCH  21  22
ATOM     22  N   UNL A   1      29.601  29.460  22.904  1.00  0.00    -0.283 N 
ATOM     23  C   UNL A   1      30.040  30.205  23.958  1.00  0.00     0.229 C 
ATOM     24  C   UNL A   1      28.616  30.122  22.216  1.00  0.00     0.229 C 
ATOM     25  O   UNL A   1      31.051  30.039  24.622  1.00  0.00    -0.274 OA
ATOM     26  C   UNL A   1      29.077  31.332  24.189  1.00  0.00     0.110 C 
ATOM     27  C   UNL A   1      28.165  31.319  22.991  1.00  0.00     0.110 C 
ATOM     28  O   UNL A   1      28.179  29.853  21.105  1.00  0.00    -0.274 OA
ENDBRANCH  21  22
ENDBRANCH  20  21
ENDBRANCH  12  20
ENDBRANCH   8  10
ENDBRANCH   7   8
ENDBRANCH   6   7
ENDBRANCH   5   6
ENDBRANCH   4   5
ENDBRANCH   3   4
ENDBRANCH   2   3
ENDBRANCH   1   2
BRANCH   1  29
ATOM     29  C   UNL A   1      38.593  19.916  25.370  1.00  0.00     0.188 C 
BRANCH  29  30
ATOM     30  C   UNL A   1      39.807  20.291  26.242  1.00  0.00     0.188 C 
BRANCH  30  31
ATOM     31  O   UNL A   1      40.004  21.687  26.436  1.00  0.00    -0.376 OA
BRANCH  31  32
ATOM     32  C   UNL A   1      41.199  22.153  27.049  1.00  0.00     0.202 C 
BRANCH  32  33
ATOM     33  C   UNL A   1      41.830  23.444  26.510  1.00  0.00     0.261 C 
BRANCH  33  34
ATOM     34  O   UNL A   1      40.955  24.547  26.311  1.00  0.00    -0.460 OA
BRANCH  34  35
ATOM     35  C   UNL A   1      41.497  25.753  26.074  1.00  0.00     0.338 C 
ATOM     36  O   UNL A   1      41.728  26.279  25.009  1.00  0.00    -0.246 OA
BRANCH  35  37
ATOM     37  C   UNL A   1      41.502  26.406  27.388  1.00  0.00     0.060 A 
ATOM     38  C   UNL A   1      40.654  25.895  28.371  1.00  0.00     0.016 A 
ATOM     39  C   UNL A   1      42.392  27.455  27.653  1.00  0.00     0.016 A 
ATOM     40  C   UNL A   1      40.638  26.491  29.617  1.00  0.00     0.010 A 
ATOM     41  C   UNL A   1      42.367  28.062  28.898  1.00  0.00     0.010 A 
ATOM     42  C   UNL A   1      41.440  27.617  29.850  1.00  0.00    -0.014 A 
BRANCH  42  43
ATOM     43  C   UNL A   1      41.071  28.472  30.987  1.00  0.00     0.031 A 
ATOM     44  C   UNL A   1      41.930  28.388  32.215  1.00  0.00     0.074 A 
ATOM     45  C   UNL A   1      40.095  29.381  30.848  1.00  0.00     0.049 A 
ATOM     46  N   UNL A   1      41.919  29.135  33.284  1.00  0.00    -0.248 NA
ATOM     47  C   UNL A   1      42.955  27.326  32.236  1.00  0.00     0.031 C 
ATOM     48  C   UNL A   1      39.251  29.538  29.663  1.00  0.00     0.029 A 
ATOM     49  N   UNL A   1      39.677  30.363  31.700  1.00  0.00    -0.354 N 
ATOM     50  C   UNL A   1      42.934  28.641  34.095  1.00  0.00     0.074 A 
ATOM     51  C   UNL A   1      43.513  27.503  33.421  1.00  0.00     0.031 C 
ATOM     52  C   UNL A   1      38.421  30.577  29.859  1.00  0.00     0.029 A 
ATOM     53  C   UNL A   1      38.666  31.136  31.186  1.00  0.00     0.049 A 
ATOM     54  H   UNL A   1      40.062  30.503  32.595  1.00  0.00     0.167 HD
ATOM     55  C   UNL A   1      43.352  29.114  35.290  1.00  0.00     0.037 A 
ATOM     56  C   UNL A   1      38.019  32.177  31.739  1.00  0.00     0.037 A 
ATOM     57  C   UNL A   1      42.746  30.245  35.937  1.00  0.00     0.049 A 
ATOM     58  C   UNL A   1      38.469  32.650  33.096  1.00  0.00     0.074 A 
ATOM     59  C   UNL A   1      43.067  30.818  37.153  1.00  0.00     0.029 A 
ATOM     60  N   UNL A   1      41.682  30.972  35.416  1.00  0.00    -0.354 N 
ATOM     61  N   UNL A   1      39.439  32.188  33.853  1.00  0.00    -0.248 NA
ATOM     62  C   UNL A   1      37.751  33.793  33.667  1.00  0.00     0.031 C 
ATOM     63  C   UNL A   1      42.158  31.853  37.393  1.00  0.00     0.029 A 
ATOM     64  C   UNL A   1      41.316  31.972  36.298  1.00  0.00     0.049 A 
ATOM     65  H   UNL A   1      41.251  30.799  34.548  1.00  0.00     0.167 HD
ATOM     66  C   UNL A   1      39.465  33.001  34.980  1.00  0.00     0.074 A 
ATOM     67  C   UNL A   1      38.426  33.996  34.790  1.00  0.00     0.031 C 
ATOM     68  C   UNL A   1      40.268  32.939  36.074  1.00  0.00     0.037 A 
BRANCH  55  69
ATOM     69  C   UNL A   1      44.474  28.384  35.975  1.00  0.00     0.058 A 
ATOM     70  C   UNL A   1      45.821  28.737  35.787  1.00  0.00     0.135 A 
ATOM     71  C   UNL A   1      44.195  27.315  36.842  1.00  0.00     0.135 A 
ATOM     72  F   UNL A   1      46.151  29.729  34.945  1.00  0.00    -0.206 F 
ATOM     73  C   UNL A   1      46.851  28.045  36.420  1.00  0.00     0.059 A 
ATOM     74  C   UNL A   1      45.206  26.629  37.508  1.00  0.00     0.059 A 
ATOM     75  F   UNL A   1      42.928  26.923  37.045  1.00  0.00    -0.206 F 
ATOM     76  C   UNL A   1      46.533  26.995  37.282  1.00  0.00     0.060 A 
BRANCH  76  77
ATOM     77  S   UNL A   1      47.877  26.119  38.110  1.00  0.00     0.124 S 
ATOM     78  O   UNL A   1      47.146  25.325  39.094  1.00  0.00    -0.237 OA
ATOM     79  O   UNL A   1      48.480  25.370  37.014  1.00  0.00    -0.237 OA
ATOM     80  O   UNL A   1      48.697  27.195  38.658  1.00  0.00    -0.744 OA
ENDBRANCH  76  77
ENDBRANCH  55  69
BRANCH  56  81
ATOM     81  C   UNL A   1      36.899  32.827  31.012  1.00  0.00     0.058 A 
ATOM     82  C   UNL A   1      37.126  33.665  29.911  1.00  0.00     0.135 A 
ATOM     83  C   UNL A   1      35.567  32.603  31.397  1.00  0.00     0.135 A 
ATOM     84  F   UNL A   1      38.379  33.913  29.501  1.00  0.00    -0.206 F 
ATOM     85  C   UNL A   1      36.075  34.275  29.230  1.00  0.00     0.059 A 
ATOM     86  C   UNL A   1      34.499  33.175  30.715  1.00  0.00     0.059 A 
ATOM     87  F   UNL A   1      35.294  31.795  32.434  1.00  0.00    -0.206 F 
ATOM     88  C   UNL A   1      34.764  34.019  29.639  1.00  0.00     0.060 A 
BRANCH  88  89
ATOM     89  S   UNL A   1      33.407  34.777  28.723  1.00  0.00     0.124 S 
ATOM     90  O   UNL A   1      34.031  36.000  28.229  1.00  0.00    -0.237 OA
ATOM     91  O   UNL A   1      33.110  33.761  27.719  1.00  0.00    -0.237 OA
ATOM     92  O   UNL A   1      32.375  34.962  29.740  1.00  0.00    -0.744 OA
ENDBRANCH  88  89
ENDBRANCH  56  81
BRANCH  68  93
ATOM     93  C   UNL A   1      40.068  33.999  37.121  1.00  0.00     0.058 A 
ATOM     94  C   UNL A   1      39.265  33.782  38.252  1.00  0.00     0.135 A 
ATOM     95  C   UNL A   1      40.703  35.246  36.993  1.00  0.00     0.135 A 
ATOM     96  F   UNL A   1      38.637  32.608  38.421  1.00  0.00    -0.206 F 
ATOM     97  C   UNL A   1      39.050  34.786  39.189  1.00  0.00     0.059 A 
ATOM     98  C   UNL A   1      40.535  36.249  37.940  1.00  0.00     0.059 A 
ATOM     99  F   UNL A   1      41.500  35.497  35.942  1.00  0.00    -0.206 F 
ATOM    100  C   UNL A   1      39.685  36.018  39.021  1.00  0.00     0.060 A 
BRANCH 100 101
ATOM    101  S   UNL A   1      39.384  37.318  40.235  1.00  0.00     0.124 S 
ATOM    102  O   UNL A   1      38.742  38.339  39.415  1.00  0.00    -0.237 OA
ATOM    103  O   UNL A   1      38.522  36.646  41.203  1.00  0.00    -0.237 OA
ATOM    104  O   UNL A   1      40.722  37.647  40.718  1.00  0.00    -0.744 OA
ENDBRANCH 100 101
ENDBRANCH  68  93
ENDBRANCH  42  43
ENDBRANCH  35  37
ENDBRANCH  34  35
ENDBRANCH  33  34
ENDBRANCH  32  33
ENDBRANCH  31  32
ENDBRANCH  30  31
ENDBRANCH  29  30
ENDBRANCH   1  29
TORSDOF 28
ENDMDL
