MODEL 1
REMARK VINA RESULT:      -9.1      0.000      0.000
REMARK SMILES [NH3+][C@@H](CCCCC(=O)OCCOCCOCCOCCOC(=O)c1ccc(-c2c3nc(c(-c4c(F)cc(S(=O)(=O)[O-])cc4F)c4ccc([nH]4)c(-c4c(F)cc(S(=O)(=O)[O-])cc4F)c4nc(c(-c5c(F)cc(S(=O)(=O)[O-])cc5F)c5ccc2[nH]5)C=C4)C=C3)cc1)c1ccc2[nH]c(=O)[nH]c2c1
REMARK SMILES IDX 14 1 13 2 12 3 11 4 10 5 9 6 7 7 8 8 6 9 5 10 4 11 3 12 2 13
REMARK SMILES IDX 1 14 90 18 91 19 99 20 92 21 98 22 93 23 97 24 94 25 95 26
REMARK SMILES IDX 96 29 15 30 16 31 17 32 18 33 19 34 20 35 21 36 22 37 23 38
REMARK SMILES IDX 24 39 25 40 89 41 26 42 88 43 27 44 28 45 29 46 82 47 30 48
REMARK SMILES IDX 87 49 81 50 83 51 31 52 86 53 80 54 79 55 32 57 66 58 45 59
REMARK SMILES IDX 65 60 46 61 49 62 64 63 84 64 47 65 48 66 63 68 85 69 50 70
REMARK SMILES IDX 33 71 34 72 43 73 35 74 36 75 42 76 44 77 37 78 38 79 39 80
REMARK SMILES IDX 40 81 41 82 67 83 68 84 77 85 69 86 70 87 76 88 78 89 71 90
REMARK SMILES IDX 72 91 73 92 74 93 75 94 51 95 52 96 61 97 53 98 54 99 60 100
REMARK SMILES IDX 62 101 55 102 56 103 57 104 58 105 59 106
REMARK H PARENT 1 15 1 16 1 17 97 27 94 28 83 56 49 67
REMARK Flexibility Score: inf
ROOT
ATOM      1  C   UNL A   1      33.372  35.003  30.094  1.00  0.00     0.188 C 
ENDROOT
BRANCH   1   2
ATOM      2  C   UNL A   1      34.254  34.102  29.221  1.00  0.00     0.188 C 
BRANCH   2   3
ATOM      3  O   UNL A   1      34.335  32.750  29.603  1.00  0.00    -0.376 OA
BRANCH   3   4
ATOM      4  C   UNL A   1      34.540  31.712  28.656  1.00  0.00     0.202 C 
BRANCH   4   5
ATOM      5  C   UNL A   1      33.798  31.546  27.318  1.00  0.00     0.261 C 
BRANCH   5   6
ATOM      6  O   UNL A   1      32.743  30.584  27.278  1.00  0.00    -0.463 OA
BRANCH   6   7
ATOM      7  C   UNL A   1      31.777  30.846  26.374  1.00  0.00     0.305 C 
ATOM      8  O   UNL A   1      31.157  31.906  26.302  1.00  0.00    -0.252 OA
BRANCH   7   9
ATOM      9  C   UNL A   1      31.537  29.769  25.353  1.00  0.00     0.123 C 
BRANCH   9  10
ATOM     10  C   UNL A   1      32.618  28.847  24.798  1.00  0.00     0.012 C 
BRANCH  10  11
ATOM     11  C   UNL A   1      32.343  28.194  23.451  1.00  0.00     0.007 C 
BRANCH  11  12
ATOM     12  C   UNL A   1      31.830  26.745  23.490  1.00  0.00     0.070 C 
BRANCH  12  13
ATOM     13  C   UNL A   1      32.689  25.636  22.802  1.00  0.00     0.212 C 
BRANCH  13  14
ATOM     14  N   UNL A   1      31.795  24.626  22.217  1.00  0.00    -0.351 N 
ATOM     15  H   UNL A   1      31.872  23.758  22.746  1.00  0.00     0.345 HD
ATOM     16  H   UNL A   1      32.061  24.457  21.247  1.00  0.00     0.345 HD
ATOM     17  H   UNL A   1      30.833  24.962  22.253  1.00  0.00     0.345 HD
ENDBRANCH  13  14
BRANCH  13  18
ATOM     18  C   UNL A   1      33.783  25.018  23.678  1.00  0.00     0.011 A 
ATOM     19  C   UNL A   1      33.847  25.362  25.057  1.00  0.00     0.012 A 
ATOM     20  C   UNL A   1      34.696  24.064  23.182  1.00  0.00     0.038 A 
ATOM     21  C   UNL A   1      34.594  24.613  25.979  1.00  0.00     0.029 A 
ATOM     22  C   UNL A   1      35.472  23.386  24.097  1.00  0.00     0.067 A 
ATOM     23  C   UNL A   1      35.375  23.614  25.466  1.00  0.00     0.066 A 
ATOM     24  N   UNL A   1      36.405  22.373  23.902  1.00  0.00    -0.306 N 
ATOM     25  N   UNL A   1      36.186  22.693  26.117  1.00  0.00    -0.306 N 
ATOM     26  C   UNL A   1      36.855  21.927  25.153  1.00  0.00     0.323 A 
ATOM     27  H   UNL A   1      36.700  22.026  23.029  1.00  0.00     0.171 HD
ATOM     28  H   UNL A   1      36.276  22.596  27.093  1.00  0.00     0.171 HD
ATOM     29  O   UNL A   1      37.670  21.045  25.365  1.00  0.00    -0.248 OA
ENDBRANCH  13  18
ENDBRANCH  12  13
ENDBRANCH  11  12
ENDBRANCH  10  11
ENDBRANCH   9  10
ENDBRANCH   7   9
ENDBRANCH   6   7
ENDBRANCH   5   6
ENDBRANCH   4   5
ENDBRANCH   3   4
ENDBRANCH   2   3
ENDBRANCH   1   2
BRANCH   1  30
ATOM     30  O   UNL A   1      33.971  35.733  31.149  1.00  0.00    -0.377 OA
BRANCH  30  31
ATOM     31  C   UNL A   1      33.608  35.510  32.504  1.00  0.00     0.188 C 
BRANCH  31  32
ATOM     32  C   UNL A   1      34.688  35.181  33.548  1.00  0.00     0.188 C 
BRANCH  32  33
ATOM     33  O   UNL A   1      34.852  33.802  33.820  1.00  0.00    -0.376 OA
BRANCH  33  34
ATOM     34  C   UNL A   1      35.192  32.938  32.747  1.00  0.00     0.202 C 
BRANCH  34  35
ATOM     35  C   UNL A   1      36.664  32.854  32.315  1.00  0.00     0.261 C 
BRANCH  35  36
ATOM     36  O   UNL A   1      36.991  31.860  31.328  1.00  0.00    -0.460 OA
BRANCH  36  37
ATOM     37  C   UNL A   1      37.214  30.598  31.746  1.00  0.00     0.338 C 
ATOM     38  O   UNL A   1      36.516  29.934  32.496  1.00  0.00    -0.246 OA
BRANCH  37  39
ATOM     39  C   UNL A   1      38.366  30.069  30.992  1.00  0.00     0.060 A 
ATOM     40  C   UNL A   1      39.311  29.277  31.656  1.00  0.00     0.016 A 
ATOM     41  C   UNL A   1      38.521  30.378  29.640  1.00  0.00     0.016 A 
ATOM     42  C   UNL A   1      40.440  28.821  30.977  1.00  0.00     0.010 A 
ATOM     43  C   UNL A   1      39.664  29.940  28.966  1.00  0.00     0.010 A 
ATOM     44  C   UNL A   1      40.647  29.193  29.642  1.00  0.00    -0.014 A 
BRANCH  44  45
ATOM     45  C   UNL A   1      41.978  28.983  29.023  1.00  0.00     0.031 A 
ATOM     46  C   UNL A   1      42.306  27.613  28.494  1.00  0.00     0.074 A 
ATOM     47  C   UNL A   1      42.863  29.987  28.906  1.00  0.00     0.049 A 
ATOM     48  N   UNL A   1      43.418  27.168  27.971  1.00  0.00    -0.248 NA
ATOM     49  C   UNL A   1      41.232  26.606  28.568  1.00  0.00     0.031 C 
ATOM     50  C   UNL A   1      42.640  31.365  29.336  1.00  0.00     0.029 A 
ATOM     51  N   UNL A   1      44.139  29.993  28.399  1.00  0.00    -0.354 N 
ATOM     52  C   UNL A   1      43.182  25.833  27.662  1.00  0.00     0.074 A 
ATOM     53  C   UNL A   1      41.834  25.531  28.087  1.00  0.00     0.031 C 
ATOM     54  C   UNL A   1      43.752  32.083  29.091  1.00  0.00     0.029 A 
ATOM     55  C   UNL A   1      44.775  31.206  28.523  1.00  0.00     0.049 A 
ATOM     56  H   UNL A   1      44.558  29.205  27.985  1.00  0.00     0.167 HD
ATOM     57  C   UNL A   1      44.012  24.944  27.067  1.00  0.00     0.037 A 
ATOM     58  C   UNL A   1      46.046  31.556  28.239  1.00  0.00     0.037 A 
ATOM     59  C   UNL A   1      45.355  25.252  26.653  1.00  0.00     0.049 A 
ATOM     60  C   UNL A   1      46.980  30.528  27.651  1.00  0.00     0.074 A 
ATOM     61  C   UNL A   1      46.277  24.425  26.038  1.00  0.00     0.029 A 
ATOM     62  N   UNL A   1      45.973  26.484  26.818  1.00  0.00    -0.354 N 
ATOM     63  N   UNL A   1      46.742  29.272  27.350  1.00  0.00    -0.248 NA
ATOM     64  C   UNL A   1      48.353  30.963  27.360  1.00  0.00     0.031 C 
ATOM     65  C   UNL A   1      47.471  25.137  25.885  1.00  0.00     0.029 A 
ATOM     66  C   UNL A   1      47.272  26.431  26.341  1.00  0.00     0.049 A 
ATOM     67  H   UNL A   1      45.550  27.278  27.217  1.00  0.00     0.167 HD
ATOM     68  C   UNL A   1      47.925  28.779  26.806  1.00  0.00     0.074 A 
ATOM     69  C   UNL A   1      48.872  29.875  26.809  1.00  0.00     0.031 C 
ATOM     70  C   UNL A   1      48.202  27.534  26.343  1.00  0.00     0.037 A 
BRANCH  57  71
ATOM     71  C   UNL A   1      43.501  23.544  26.859  1.00  0.00     0.058 A 
ATOM     72  C   UNL A   1      43.429  22.616  27.910  1.00  0.00     0.135 A 
ATOM     73  C   UNL A   1      43.048  23.133  25.595  1.00  0.00     0.135 A 
ATOM     74  F   UNL A   1      43.868  22.946  29.136  1.00  0.00    -0.206 F 
ATOM     75  C   UNL A   1      42.951  21.324  27.710  1.00  0.00     0.059 A 
ATOM     76  C   UNL A   1      42.536  21.858  25.378  1.00  0.00     0.059 A 
ATOM     77  F   UNL A   1      43.098  23.977  24.552  1.00  0.00    -0.206 F 
ATOM     78  C   UNL A   1      42.505  20.956  26.441  1.00  0.00     0.060 A 
BRANCH  78  79
ATOM     79  S   UNL A   1      41.881  19.279  26.201  1.00  0.00     0.124 S 
ATOM     80  O   UNL A   1      42.664  18.837  25.052  1.00  0.00    -0.237 OA
ATOM     81  O   UNL A   1      42.205  18.642  27.473  1.00  0.00    -0.237 OA
ATOM     82  O   UNL A   1      40.456  19.478  25.948  1.00  0.00    -0.744 OA
ENDBRANCH  78  79
ENDBRANCH  57  71
BRANCH  58  83
ATOM     83  C   UNL A   1      46.519  32.938  28.528  1.00  0.00     0.058 A 
ATOM     84  C   UNL A   1      47.059  33.278  29.778  1.00  0.00     0.135 A 
ATOM     85  C   UNL A   1      46.435  33.950  27.558  1.00  0.00     0.135 A 
ATOM     86  F   UNL A   1      47.148  32.352  30.744  1.00  0.00    -0.206 F 
ATOM     87  C   UNL A   1      47.486  34.572  30.060  1.00  0.00     0.059 A 
ATOM     88  C   UNL A   1      46.882  35.243  27.806  1.00  0.00     0.059 A 
ATOM     89  F   UNL A   1      45.934  33.678  26.343  1.00  0.00    -0.206 F 
ATOM     90  C   UNL A   1      47.399  35.546  29.064  1.00  0.00     0.060 A 
BRANCH  90  91
ATOM     91  S   UNL A   1      48.009  37.208  29.424  1.00  0.00     0.124 S 
ATOM     92  O   UNL A   1      48.624  37.020  30.731  1.00  0.00    -0.237 OA
ATOM     93  O   UNL A   1      48.926  37.442  28.312  1.00  0.00    -0.237 OA
ATOM     94  O   UNL A   1      46.796  38.021  29.406  1.00  0.00    -0.744 OA
ENDBRANCH  90  91
ENDBRANCH  58  83
BRANCH  70  95
ATOM     95  C   UNL A   1      49.568  27.292  25.756  1.00  0.00     0.058 A 
ATOM     96  C   UNL A   1      50.663  26.916  26.551  1.00  0.00     0.135 A 
ATOM     97  C   UNL A   1      49.768  27.381  24.368  1.00  0.00     0.135 A 
ATOM     98  F   UNL A   1      50.530  26.821  27.883  1.00  0.00    -0.206 F 
ATOM     99  C   UNL A   1      51.913  26.663  25.993  1.00  0.00     0.059 A 
ATOM    100  C   UNL A   1      51.000  27.099  23.786  1.00  0.00     0.059 A 
ATOM    101  F   UNL A   1      48.753  27.724  23.559  1.00  0.00    -0.206 F 
ATOM    102  C   UNL A   1      52.071  26.752  24.609  1.00  0.00     0.060 A 
BRANCH 102 103
ATOM    103  S   UNL A   1      53.689  26.387  23.897  1.00  0.00     0.124 S 
ATOM    104  O   UNL A   1      54.072  25.189  24.637  1.00  0.00    -0.237 OA
ATOM    105  O   UNL A   1      53.370  26.187  22.487  1.00  0.00    -0.237 OA
ATOM    106  O   UNL A   1      54.470  27.584  24.194  1.00  0.00    -0.744 OA
ENDBRANCH 102 103
ENDBRANCH  70  95
ENDBRANCH  44  45
ENDBRANCH  37  39
ENDBRANCH  36  37
ENDBRANCH  35  36
ENDBRANCH  34  35
ENDBRANCH  33  34
ENDBRANCH  32  33
ENDBRANCH  31  32
ENDBRANCH  30  31
ENDBRANCH   1  30
TORSDOF 29
ENDMDL
MODEL 2
REMARK VINA RESULT:      -9.0      1.867      2.862
REMARK SMILES [NH3+][C@@H](CCCCC(=O)OCCOCCOCCOCCOC(=O)c1ccc(-c2c3nc(c(-c4c(F)cc(S(=O)(=O)[O-])cc4F)c4ccc([nH]4)c(-c4c(F)cc(S(=O)(=O)[O-])cc4F)c4nc(c(-c5c(F)cc(S(=O)(=O)[O-])cc5F)c5ccc2[nH]5)C=C4)C=C3)cc1)c1ccc2[nH]c(=O)[nH]c2c1
REMARK SMILES IDX 14 1 13 2 12 3 11 4 10 5 9 6 7 7 8 8 6 9 5 10 4 11 3 12 2 13
REMARK SMILES IDX 1 14 90 18 91 19 99 20 92 21 98 22 93 23 97 24 94 25 95 26
REMARK SMILES IDX 96 29 15 30 16 31 17 32 18 33 19 34 20 35 21 36 22 37 23 38
REMARK SMILES IDX 24 39 25 40 89 41 26 42 88 43 27 44 28 45 29 46 82 47 30 48
REMARK SMILES IDX 87 49 81 50 83 51 31 52 86 53 80 54 79 55 32 57 66 58 45 59
REMARK SMILES IDX 65 60 46 61 49 62 64 63 84 64 47 65 48 66 63 68 85 69 50 70
REMARK SMILES IDX 33 71 34 72 43 73 35 74 36 75 42 76 44 77 37 78 38 79 39 80
REMARK SMILES IDX 40 81 41 82 67 83 68 84 77 85 69 86 70 87 76 88 78 89 71 90
REMARK SMILES IDX 72 91 73 92 74 93 75 94 51 95 52 96 61 97 53 98 54 99 60 100
REMARK SMILES IDX 62 101 55 102 56 103 57 104 58 105 59 106
REMARK H PARENT 1 15 1 16 1 17 97 27 94 28 83 56 49 67
REMARK Flexibility Score: inf
ROOT
ATOM      1  C   UNL A   1      32.959  35.182  29.871  1.00  0.00     0.188 C 
ENDROOT
BRANCH   1   2
ATOM      2  C   UNL A   1      33.599  35.035  28.484  1.00  0.00     0.188 C 
BRANCH   2   3
ATOM      3  O   UNL A   1      34.918  34.547  28.455  1.00  0.00    -0.376 OA
BRANCH   3   4
ATOM      4  C   UNL A   1      35.232  33.251  27.967  1.00  0.00     0.202 C 
BRANCH   4   5
ATOM      5  C   UNL A   1      34.328  32.008  28.053  1.00  0.00     0.261 C 
BRANCH   5   6
ATOM      6  O   UNL A   1      34.505  31.008  27.048  1.00  0.00    -0.463 OA
BRANCH   6   7
ATOM      7  C   UNL A   1      34.736  29.768  27.524  1.00  0.00     0.305 C 
ATOM      8  O   UNL A   1      35.570  29.493  28.385  1.00  0.00    -0.252 OA
BRANCH   7   9
ATOM      9  C   UNL A   1      33.826  28.694  26.995  1.00  0.00     0.123 C 
BRANCH   9  10
ATOM     10  C   UNL A   1      32.352  28.895  26.661  1.00  0.00     0.012 C 
BRANCH  10  11
ATOM     11  C   UNL A   1      31.340  28.188  27.551  1.00  0.00     0.007 C 
BRANCH  11  12
ATOM     12  C   UNL A   1      31.117  26.693  27.273  1.00  0.00     0.070 C 
BRANCH  12  13
ATOM     13  C   UNL A   1      30.354  26.286  25.973  1.00  0.00     0.212 C 
BRANCH  13  14
ATOM     14  N   UNL A   1      29.346  25.267  26.302  1.00  0.00    -0.351 N 
ATOM     15  H   UNL A   1      29.016  24.826  25.444  1.00  0.00     0.345 HD
ATOM     16  H   UNL A   1      28.560  25.707  26.781  1.00  0.00     0.345 HD
ATOM     17  H   UNL A   1      29.763  24.561  26.909  1.00  0.00     0.345 HD
ENDBRANCH  13  14
BRANCH  13  18
ATOM     18  C   UNL A   1      31.242  25.876  24.794  1.00  0.00     0.011 A 
ATOM     19  C   UNL A   1      32.016  24.685  24.887  1.00  0.00     0.012 A 
ATOM     20  C   UNL A   1      31.273  26.603  23.585  1.00  0.00     0.038 A 
ATOM     21  C   UNL A   1      32.591  24.079  23.760  1.00  0.00     0.029 A 
ATOM     22  C   UNL A   1      31.903  26.021  22.506  1.00  0.00     0.067 A 
ATOM     23  C   UNL A   1      32.491  24.762  22.579  1.00  0.00     0.066 A 
ATOM     24  N   UNL A   1      32.041  26.477  21.200  1.00  0.00    -0.306 N 
ATOM     25  N   UNL A   1      32.921  24.410  21.306  1.00  0.00    -0.306 N 
ATOM     26  C   UNL A   1      32.669  25.481  20.438  1.00  0.00     0.323 A 
ATOM     27  H   UNL A   1      31.746  27.354  20.864  1.00  0.00     0.171 HD
ATOM     28  H   UNL A   1      33.334  23.552  21.056  1.00  0.00     0.171 HD
ATOM     29  O   UNL A   1      32.946  25.533  19.252  1.00  0.00    -0.248 OA
ENDBRANCH  13  18
ENDBRANCH  12  13
ENDBRANCH  11  12
ENDBRANCH  10  11
ENDBRANCH   9  10
ENDBRANCH   7   9
ENDBRANCH   6   7
ENDBRANCH   5   6
ENDBRANCH   4   5
ENDBRANCH   3   4
ENDBRANCH   2   3
ENDBRANCH   1   2
BRANCH   1  30
ATOM     30  O   UNL A   1      33.150  36.389  30.588  1.00  0.00    -0.377 OA
BRANCH  30  31
ATOM     31  C   UNL A   1      33.092  36.425  32.006  1.00  0.00     0.188 C 
BRANCH  31  32
ATOM     32  C   UNL A   1      34.321  36.863  32.818  1.00  0.00     0.188 C 
BRANCH  32  33
ATOM     33  O   UNL A   1      34.944  35.831  33.560  1.00  0.00    -0.376 OA
BRANCH  33  34
ATOM     34  C   UNL A   1      35.115  34.565  32.942  1.00  0.00     0.202 C 
BRANCH  34  35
ATOM     35  C   UNL A   1      36.524  34.163  32.478  1.00  0.00     0.261 C 
BRANCH  35  36
ATOM     36  O   UNL A   1      36.610  33.418  31.251  1.00  0.00    -0.460 OA
BRANCH  36  37
ATOM     37  C   UNL A   1      36.395  32.088  31.298  1.00  0.00     0.338 C 
ATOM     38  O   UNL A   1      35.343  31.517  31.542  1.00  0.00    -0.246 OA
BRANCH  37  39
ATOM     39  C   UNL A   1      37.616  31.416  30.816  1.00  0.00     0.060 A 
ATOM     40  C   UNL A   1      38.467  30.800  31.743  1.00  0.00     0.016 A 
ATOM     41  C   UNL A   1      37.929  31.418  29.456  1.00  0.00     0.016 A 
ATOM     42  C   UNL A   1      39.659  30.216  31.315  1.00  0.00     0.010 A 
ATOM     43  C   UNL A   1      39.134  30.853  29.031  1.00  0.00     0.010 A 
ATOM     44  C   UNL A   1      40.021  30.284  29.963  1.00  0.00    -0.014 A 
BRANCH  44  45
ATOM     45  C   UNL A   1      41.410  29.954  29.561  1.00  0.00     0.031 A 
ATOM     46  C   UNL A   1      41.691  28.566  29.052  1.00  0.00     0.074 A 
ATOM     47  C   UNL A   1      42.393  30.869  29.620  1.00  0.00     0.049 A 
ATOM     48  N   UNL A   1      42.828  28.023  28.704  1.00  0.00    -0.248 NA
ATOM     49  C   UNL A   1      40.530  27.668  28.921  1.00  0.00     0.031 C 
ATOM     50  C   UNL A   1      42.233  32.256  30.049  1.00  0.00     0.029 A 
ATOM     51  N   UNL A   1      43.729  30.759  29.327  1.00  0.00    -0.354 N 
ATOM     52  C   UNL A   1      42.522  26.722  28.320  1.00  0.00     0.074 A 
ATOM     53  C   UNL A   1      41.099  26.546  28.512  1.00  0.00     0.031 C 
ATOM     54  C   UNL A   1      43.431  32.866  30.010  1.00  0.00     0.029 A 
ATOM     55  C   UNL A   1      44.447  31.901  29.589  1.00  0.00     0.049 A 
ATOM     56  H   UNL A   1      44.136  29.940  28.963  1.00  0.00     0.167 HD
ATOM     57  C   UNL A   1      43.352  25.765  27.841  1.00  0.00     0.037 A 
ATOM     58  C   UNL A   1      45.774  32.131  29.525  1.00  0.00     0.037 A 
ATOM     59  C   UNL A   1      44.767  25.947  27.660  1.00  0.00     0.049 A 
ATOM     60  C   UNL A   1      46.692  31.025  29.066  1.00  0.00     0.074 A 
ATOM     61  C   UNL A   1      45.696  25.043  27.178  1.00  0.00     0.029 A 
ATOM     62  N   UNL A   1      45.462  27.110  27.960  1.00  0.00    -0.354 N 
ATOM     63  N   UNL A   1      46.391  29.803  28.693  1.00  0.00    -0.248 NA
ATOM     64  C   UNL A   1      48.129  31.329  29.014  1.00  0.00     0.031 C 
ATOM     65  C   UNL A   1      46.960  25.638  27.242  1.00  0.00     0.029 A 
ATOM     66  C   UNL A   1      46.811  26.938  27.699  1.00  0.00     0.049 A 
ATOM     67  H   UNL A   1      45.055  27.937  28.308  1.00  0.00     0.167 HD
ATOM     68  C   UNL A   1      47.595  29.205  28.333  1.00  0.00     0.074 A 
ATOM     69  C   UNL A   1      48.627  30.203  28.522  1.00  0.00     0.031 C 
ATOM     70  C   UNL A   1      47.827  27.946  27.884  1.00  0.00     0.037 A 
BRANCH  57  71
ATOM     71  C   UNL A   1      42.752  24.424  27.511  1.00  0.00     0.058 A 
ATOM     72  C   UNL A   1      42.399  24.072  26.198  1.00  0.00     0.135 A 
ATOM     73  C   UNL A   1      42.556  23.466  28.518  1.00  0.00     0.135 A 
ATOM     74  F   UNL A   1      42.545  24.957  25.197  1.00  0.00    -0.206 F 
ATOM     75  C   UNL A   1      41.848  22.830  25.900  1.00  0.00     0.059 A 
ATOM     76  C   UNL A   1      42.037  22.205  28.240  1.00  0.00     0.059 A 
ATOM     77  F   UNL A   1      42.870  23.750  29.792  1.00  0.00    -0.206 F 
ATOM     78  C   UNL A   1      41.674  21.902  26.928  1.00  0.00     0.060 A 
BRANCH  78  79
ATOM     79  S   UNL A   1      40.966  20.292  26.523  1.00  0.00     0.124 S 
ATOM     80  O   UNL A   1      41.016  19.616  27.816  1.00  0.00    -0.237 OA
ATOM     81  O   UNL A   1      39.634  20.649  26.045  1.00  0.00    -0.237 OA
ATOM     82  O   UNL A   1      41.873  19.766  25.506  1.00  0.00    -0.744 OA
ENDBRANCH  78  79
ENDBRANCH  57  71
BRANCH  58  83
ATOM     83  C   UNL A   1      46.320  33.456  29.928  1.00  0.00     0.058 A 
ATOM     84  C   UNL A   1      46.675  33.725  31.259  1.00  0.00     0.135 A 
ATOM     85  C   UNL A   1      46.495  34.484  28.988  1.00  0.00     0.135 A 
ATOM     86  F   UNL A   1      46.516  32.781  32.199  1.00  0.00    -0.206 F 
ATOM     87  C   UNL A   1      47.170  34.967  31.646  1.00  0.00     0.059 A 
ATOM     88  C   UNL A   1      47.014  35.724  29.344  1.00  0.00     0.059 A 
ATOM     89  F   UNL A   1      46.179  34.278  27.700  1.00  0.00    -0.206 F 
ATOM     90  C   UNL A   1      47.341  35.958  30.678  1.00  0.00     0.060 A 
BRANCH  90  91
ATOM     91  S   UNL A   1      48.037  37.548  31.181  1.00  0.00     0.124 S 
ATOM     92  O   UNL A   1      48.565  37.234  32.502  1.00  0.00    -0.237 OA
ATOM     93  O   UNL A   1      49.026  37.791  30.135  1.00  0.00    -0.237 OA
ATOM     94  O   UNL A   1      46.881  38.441  31.158  1.00  0.00    -0.744 OA
ENDBRANCH  90  91
ENDBRANCH  58  83
BRANCH  70  95
ATOM     95  C   UNL A   1      49.242  27.581  27.519  1.00  0.00     0.058 A 
ATOM     96  C   UNL A   1      49.724  27.691  26.205  1.00  0.00     0.135 A 
ATOM     97  C   UNL A   1      50.146  27.171  28.514  1.00  0.00     0.135 A 
ATOM     98  F   UNL A   1      48.903  28.073  25.215  1.00  0.00    -0.206 F 
ATOM     99  C   UNL A   1      51.043  27.383  25.886  1.00  0.00     0.059 A 
ATOM    100  C   UNL A   1      51.478  26.891  28.224  1.00  0.00     0.059 A 
ATOM    101  F   UNL A   1      49.743  27.060  29.790  1.00  0.00    -0.206 F 
ATOM    102  C   UNL A   1      51.914  26.988  26.903  1.00  0.00     0.060 A 
BRANCH 102 103
ATOM    103  S   UNL A   1      53.630  26.625  26.480  1.00  0.00     0.124 S 
ATOM    104  O   UNL A   1      54.216  27.961  26.452  1.00  0.00    -0.237 OA
ATOM    105  O   UNL A   1      54.050  25.771  27.587  1.00  0.00    -0.237 OA
ATOM    106  O   UNL A   1      53.529  25.958  25.185  1.00  0.00    -0.744 OA
ENDBRANCH 102 103
ENDBRANCH  70  95
ENDBRANCH  44  45
ENDBRANCH  37  39
ENDBRANCH  36  37
ENDBRANCH  35  36
ENDBRANCH  34  35
ENDBRANCH  33  34
ENDBRANCH  32  33
ENDBRANCH  31  32
ENDBRANCH  30  31
ENDBRANCH   1  30
TORSDOF 29
ENDMDL
MODEL 3
REMARK VINA RESULT:      -8.5      2.186      3.734
REMARK SMILES [NH3+][C@@H](CCCCC(=O)OCCOCCOCCOCCOC(=O)c1ccc(-c2c3nc(c(-c4c(F)cc(S(=O)(=O)[O-])cc4F)c4ccc([nH]4)c(-c4c(F)cc(S(=O)(=O)[O-])cc4F)c4nc(c(-c5c(F)cc(S(=O)(=O)[O-])cc5F)c5ccc2[nH]5)C=C4)C=C3)cc1)c1ccc2[nH]c(=O)[nH]c2c1
REMARK SMILES IDX 14 1 13 2 12 3 11 4 10 5 9 6 7 7 8 8 6 9 5 10 4 11 3 12 2 13
REMARK SMILES IDX 1 14 90 18 91 19 99 20 92 21 98 22 93 23 97 24 94 25 95 26
REMARK SMILES IDX 96 29 15 30 16 31 17 32 18 33 19 34 20 35 21 36 22 37 23 38
REMARK SMILES IDX 24 39 25 40 89 41 26 42 88 43 27 44 28 45 29 46 82 47 30 48
REMARK SMILES IDX 87 49 81 50 83 51 31 52 86 53 80 54 79 55 32 57 66 58 45 59
REMARK SMILES IDX 65 60 46 61 49 62 64 63 84 64 47 65 48 66 63 68 85 69 50 70
REMARK SMILES IDX 33 71 34 72 43 73 35 74 36 75 42 76 44 77 37 78 38 79 39 80
REMARK SMILES IDX 40 81 41 82 67 83 68 84 77 85 69 86 70 87 76 88 78 89 71 90
REMARK SMILES IDX 72 91 73 92 74 93 75 94 51 95 52 96 61 97 53 98 54 99 60 100
REMARK SMILES IDX 62 101 55 102 56 103 57 104 58 105 59 106
REMARK H PARENT 1 15 1 16 1 17 97 27 94 28 83 56 49 67
REMARK Flexibility Score: inf
ROOT
ATOM      1  C   UNL A   1      33.033  35.070  29.754  1.00  0.00     0.188 C 
ENDROOT
BRANCH   1   2
ATOM      2  C   UNL A   1      33.621  34.809  28.361  1.00  0.00     0.188 C 
BRANCH   2   3
ATOM      3  O   UNL A   1      34.986  34.471  28.315  1.00  0.00    -0.376 OA
BRANCH   3   4
ATOM      4  C   UNL A   1      35.440  33.247  27.755  1.00  0.00     0.202 C 
BRANCH   4   5
ATOM      5  C   UNL A   1      34.722  31.888  27.849  1.00  0.00     0.261 C 
BRANCH   5   6
ATOM      6  O   UNL A   1      35.198  30.845  26.996  1.00  0.00    -0.463 OA
BRANCH   6   7
ATOM      7  C   UNL A   1      34.710  29.620  27.280  1.00  0.00     0.305 C 
ATOM      8  O   UNL A   1      34.782  29.077  28.381  1.00  0.00    -0.252 OA
BRANCH   7   9
ATOM      9  C   UNL A   1      33.961  28.949  26.163  1.00  0.00     0.123 C 
BRANCH   9  10
ATOM     10  C   UNL A   1      33.091  27.708  26.327  1.00  0.00     0.012 C 
BRANCH  10  11
ATOM     11  C   UNL A   1      33.676  26.386  25.851  1.00  0.00     0.007 C 
BRANCH  11  12
ATOM     12  C   UNL A   1      34.014  26.291  24.354  1.00  0.00     0.070 C 
BRANCH  12  13
ATOM     13  C   UNL A   1      32.863  25.952  23.354  1.00  0.00     0.212 C 
BRANCH  13  14
ATOM     14  N   UNL A   1      33.432  25.738  22.016  1.00  0.00    -0.351 N 
ATOM     15  H   UNL A   1      34.427  25.528  22.100  1.00  0.00     0.345 HD
ATOM     16  H   UNL A   1      33.309  26.580  21.454  1.00  0.00     0.345 HD
ATOM     17  H   UNL A   1      32.957  24.956  21.565  1.00  0.00     0.345 HD
ENDBRANCH  13  14
BRANCH  13  18
ATOM     18  C   UNL A   1      31.692  26.941  23.344  1.00  0.00     0.011 A 
ATOM     19  C   UNL A   1      31.900  28.260  22.854  1.00  0.00     0.012 A 
ATOM     20  C   UNL A   1      30.391  26.572  23.745  1.00  0.00     0.038 A 
ATOM     21  C   UNL A   1      30.834  29.107  22.515  1.00  0.00     0.029 A 
ATOM     22  C   UNL A   1      29.364  27.448  23.465  1.00  0.00     0.067 A 
ATOM     23  C   UNL A   1      29.577  28.656  22.810  1.00  0.00     0.066 A 
ATOM     24  N   UNL A   1      27.998  27.325  23.694  1.00  0.00    -0.306 N 
ATOM     25  N   UNL A   1      28.340  29.241  22.567  1.00  0.00    -0.306 N 
ATOM     26  C   UNL A   1      27.345  28.433  23.134  1.00  0.00     0.323 A 
ATOM     27  H   UNL A   1      27.561  26.582  24.170  1.00  0.00     0.171 HD
ATOM     28  H   UNL A   1      28.189  30.082  22.077  1.00  0.00     0.171 HD
ATOM     29  O   UNL A   1      26.147  28.655  23.140  1.00  0.00    -0.248 OA
ENDBRANCH  13  18
ENDBRANCH  12  13
ENDBRANCH  11  12
ENDBRANCH  10  11
ENDBRANCH   9  10
ENDBRANCH   7   9
ENDBRANCH   6   7
ENDBRANCH   5   6
ENDBRANCH   4   5
ENDBRANCH   3   4
ENDBRANCH   2   3
ENDBRANCH   1   2
BRANCH   1  30
ATOM     30  O   UNL A   1      33.171  36.358  30.326  1.00  0.00    -0.377 OA
BRANCH  30  31
ATOM     31  C   UNL A   1      33.006  36.572  31.720  1.00  0.00     0.188 C 
BRANCH  31  32
ATOM     32  C   UNL A   1      34.118  37.253  32.533  1.00  0.00     0.188 C 
BRANCH  32  33
ATOM     33  O   UNL A   1      34.722  36.436  33.518  1.00  0.00    -0.376 OA
BRANCH  33  34
ATOM     34  C   UNL A   1      34.874  35.052  33.246  1.00  0.00     0.202 C 
BRANCH  34  35
ATOM     35  C   UNL A   1      36.151  34.584  32.529  1.00  0.00     0.261 C 
BRANCH  35  36
ATOM     36  O   UNL A   1      35.978  33.649  31.450  1.00  0.00    -0.460 OA
BRANCH  36  37
ATOM     37  C   UNL A   1      35.939  32.335  31.747  1.00  0.00     0.338 C 
ATOM     38  O   UNL A   1      34.995  31.708  32.205  1.00  0.00    -0.246 OA
BRANCH  37  39
ATOM     39  C   UNL A   1      37.184  31.722  31.248  1.00  0.00     0.060 A 
ATOM     40  C   UNL A   1      37.974  30.970  32.128  1.00  0.00     0.016 A 
ATOM     41  C   UNL A   1      37.578  31.911  29.923  1.00  0.00     0.016 A 
ATOM     42  C   UNL A   1      39.187  30.437  31.693  1.00  0.00     0.010 A 
ATOM     43  C   UNL A   1      38.804  31.396  29.495  1.00  0.00     0.010 A 
ATOM     44  C   UNL A   1      39.631  30.690  30.389  1.00  0.00    -0.014 A 
BRANCH  44  45
ATOM     45  C   UNL A   1      41.040  30.402  30.028  1.00  0.00     0.031 A 
ATOM     46  C   UNL A   1      41.371  29.034  29.494  1.00  0.00     0.074 A 
ATOM     47  C   UNL A   1      41.999  31.337  30.143  1.00  0.00     0.049 A 
ATOM     48  N   UNL A   1      42.531  28.526  29.173  1.00  0.00    -0.248 NA
ATOM     49  C   UNL A   1      40.237  28.114  29.301  1.00  0.00     0.031 C 
ATOM     50  C   UNL A   1      41.791  32.709  30.600  1.00  0.00     0.029 A 
ATOM     51  N   UNL A   1      43.347  31.264  29.894  1.00  0.00    -0.354 N 
ATOM     52  C   UNL A   1      42.270  27.229  28.747  1.00  0.00     0.074 A 
ATOM     53  C   UNL A   1      40.846  27.015  28.884  1.00  0.00     0.031 C 
ATOM     54  C   UNL A   1      42.975  33.346  30.617  1.00  0.00     0.029 A 
ATOM     55  C   UNL A   1      44.028  32.416  30.208  1.00  0.00     0.049 A 
ATOM     56  H   UNL A   1      43.784  30.464  29.524  1.00  0.00     0.167 HD
ATOM     57  C   UNL A   1      43.137  26.302  28.274  1.00  0.00     0.037 A 
ATOM     58  C   UNL A   1      45.351  32.677  30.197  1.00  0.00     0.037 A 
ATOM     59  C   UNL A   1      44.553  26.522  28.146  1.00  0.00     0.049 A 
ATOM     60  C   UNL A   1      46.310  31.604  29.743  1.00  0.00     0.074 A 
ATOM     61  C   UNL A   1      45.519  25.651  27.675  1.00  0.00     0.029 A 
ATOM     62  N   UNL A   1      45.210  27.692  28.499  1.00  0.00    -0.354 N 
ATOM     63  N   UNL A   1      46.050  30.386  29.330  1.00  0.00    -0.248 NA
ATOM     64  C   UNL A   1      47.740  31.942  29.749  1.00  0.00     0.031 C 
ATOM     65  C   UNL A   1      46.766  26.273  27.798  1.00  0.00     0.029 A 
ATOM     66  C   UNL A   1      46.571  27.557  28.281  1.00  0.00     0.049 A 
ATOM     67  H   UNL A   1      44.772  28.500  28.853  1.00  0.00     0.167 HD
ATOM     68  C   UNL A   1      47.280  29.824  28.998  1.00  0.00     0.074 A 
ATOM     69  C   UNL A   1      48.281  30.840  29.247  1.00  0.00     0.031 C 
ATOM     70  C   UNL A   1      47.556  28.582  28.526  1.00  0.00     0.037 A 
BRANCH  57  71
ATOM     71  C   UNL A   1      42.581  24.957  27.890  1.00  0.00     0.058 A 
ATOM     72  C   UNL A   1      42.020  24.720  26.625  1.00  0.00     0.135 A 
ATOM     73  C   UNL A   1      42.637  23.882  28.791  1.00  0.00     0.135 A 
ATOM     74  F   UNL A   1      41.921  25.717  25.730  1.00  0.00    -0.206 F 
ATOM     75  C   UNL A   1      41.511  23.473  26.276  1.00  0.00     0.059 A 
ATOM     76  C   UNL A   1      42.164  22.618  28.454  1.00  0.00     0.059 A 
ATOM     77  F   UNL A   1      43.158  24.053  30.017  1.00  0.00    -0.206 F 
ATOM     78  C   UNL A   1      41.590  22.427  27.197  1.00  0.00     0.060 A 
BRANCH  78  79
ATOM     79  S   UNL A   1      40.933  20.813  26.726  1.00  0.00     0.124 S 
ATOM     80  O   UNL A   1      39.627  21.177  26.185  1.00  0.00    -0.237 OA
ATOM     81  O   UNL A   1      41.916  20.350  25.753  1.00  0.00    -0.237 OA
ATOM     82  O   UNL A   1      40.904  20.075  27.986  1.00  0.00    -0.744 OA
ENDBRANCH  78  79
ENDBRANCH  57  71
BRANCH  58  83
ATOM     83  C   UNL A   1      45.851  34.003  30.651  1.00  0.00     0.058 A 
ATOM     84  C   UNL A   1      46.212  34.228  31.988  1.00  0.00     0.135 A 
ATOM     85  C   UNL A   1      45.976  35.077  29.754  1.00  0.00     0.135 A 
ATOM     86  F   UNL A   1      46.099  33.240  32.888  1.00  0.00    -0.206 F 
ATOM     87  C   UNL A   1      46.664  35.471  32.423  1.00  0.00     0.059 A 
ATOM     88  C   UNL A   1      46.453  36.319  30.158  1.00  0.00     0.059 A 
ATOM     89  F   UNL A   1      45.653  34.914  28.462  1.00  0.00    -0.206 F 
ATOM     90  C   UNL A   1      46.786  36.509  31.498  1.00  0.00     0.060 A 
BRANCH  90  91
ATOM     91  S   UNL A   1      47.427  38.101  32.062  1.00  0.00     0.124 S 
ATOM     92  O   UNL A   1      48.742  37.727  32.566  1.00  0.00    -0.237 OA
ATOM     93  O   UNL A   1      47.412  38.887  30.832  1.00  0.00    -0.237 OA
ATOM     94  O   UNL A   1      46.456  38.514  33.072  1.00  0.00    -0.744 OA
ENDBRANCH  90  91
ENDBRANCH  58  83
BRANCH  70  95
ATOM     95  C   UNL A   1      48.992  28.259  28.202  1.00  0.00     0.058 A 
ATOM     96  C   UNL A   1      49.861  27.702  29.154  1.00  0.00     0.135 A 
ATOM     97  C   UNL A   1      49.485  28.454  26.901  1.00  0.00     0.135 A 
ATOM     98  F   UNL A   1      49.444  27.498  30.413  1.00  0.00    -0.206 F 
ATOM     99  C   UNL A   1      51.176  27.376  28.834  1.00  0.00     0.059 A 
ATOM    100  C   UNL A   1      50.785  28.105  26.550  1.00  0.00     0.059 A 
ATOM    101  F   UNL A   1      48.693  28.972  25.949  1.00  0.00    -0.206 F 
ATOM    102  C   UNL A   1      51.628  27.576  27.528  1.00  0.00     0.060 A 
BRANCH 102 103
ATOM    103  S   UNL A   1      53.324  27.117  27.119  1.00  0.00     0.124 S 
ATOM    104  O   UNL A   1      53.344  27.318  25.674  1.00  0.00    -0.237 OA
ATOM    105  O   UNL A   1      54.102  28.072  27.903  1.00  0.00    -0.237 OA
ATOM    106  O   UNL A   1      53.418  25.729  27.561  1.00  0.00    -0.744 OA
ENDBRANCH 102 103
ENDBRANCH  70  95
ENDBRANCH  44  45
ENDBRANCH  37  39
ENDBRANCH  36  37
ENDBRANCH  35  36
ENDBRANCH  34  35
ENDBRANCH  33  34
ENDBRANCH  32  33
ENDBRANCH  31  32
ENDBRANCH  30  31
ENDBRANCH   1  30
TORSDOF 29
ENDMDL
