MODEL 1
REMARK VINA RESULT:      -8.9      0.000      0.000
REMARK SMILES CCC(CC)(CC(=O)NNC(=O)C1CC1)C(=O)OCCOCCOCCOCCOC(=O)c1ccc(-c2c3nc(c(-c4c(F)cc(S(=O)(=O)[O-])cc4F)c4ccc([nH]4)c(-c4c(F)cc(S(=O)(=O)[O-])cc4F)c4nc(c(-c5c(F)cc(S(=O)(=O)[O-])cc5F)c5ccc2[nH]5)C=C4)C=C3)cc1
REMARK SMILES IDX 23 1 22 2 21 3 20 4 19 5 18 6 16 7 17 8 3 9 2 10 1 11 4 12
REMARK SMILES IDX 5 13 6 14 7 15 8 16 9 17 10 19 11 20 12 22 13 23 14 24 15 25
REMARK SMILES IDX 24 26 25 27 26 28 27 29 28 30 29 31 30 32 31 33 32 34 33 35
REMARK SMILES IDX 34 36 98 37 35 38 97 39 36 40 37 41 38 42 91 43 39 44 96 45
REMARK SMILES IDX 90 46 92 47 40 48 95 49 89 50 88 51 41 53 75 54 54 55 74 56
REMARK SMILES IDX 55 57 58 58 73 59 93 60 56 61 57 62 72 64 94 65 59 66 42 67
REMARK SMILES IDX 43 68 52 69 44 70 45 71 51 72 53 73 46 74 47 75 48 76 49 77
REMARK SMILES IDX 50 78 76 79 77 80 86 81 78 82 79 83 85 84 87 85 80 86 81 87
REMARK SMILES IDX 82 88 83 89 84 90 60 91 61 92 70 93 62 94 63 95 69 96 71 97
REMARK SMILES IDX 64 98 65 99 66 100 67 101 68 102
REMARK H PARENT 9 18 10 21 92 52 58 63
REMARK Flexibility Score: inf
ROOT
ATOM      1  C   UNL A   1      34.279  32.146  28.642  1.00  0.00     0.188 C 
ENDROOT
BRANCH   1   2
ATOM      2  C   UNL A   1      34.968  31.250  27.618  1.00  0.00     0.188 C 
BRANCH   2   3
ATOM      3  O   UNL A   1      34.222  30.099  27.300  1.00  0.00    -0.376 OA
BRANCH   3   4
ATOM      4  C   UNL A   1      32.817  30.240  27.203  1.00  0.00     0.202 C 
BRANCH   4   5
ATOM      5  C   UNL A   1      31.913  29.123  26.627  1.00  0.00     0.261 C 
BRANCH   5   6
ATOM      6  O   UNL A   1      32.289  28.486  25.384  1.00  0.00    -0.463 OA
BRANCH   6   7
ATOM      7  C   UNL A   1      31.367  28.504  24.403  1.00  0.00     0.312 C 
ATOM      8  O   UNL A   1      30.764  29.534  24.107  1.00  0.00    -0.252 OA
BRANCH   7   9
ATOM      9  C   UNL A   1      31.094  27.143  23.682  1.00  0.00     0.076 C 
BRANCH   9  10
ATOM     10  C   UNL A   1      32.121  26.991  22.534  1.00  0.00     0.016 C 
ATOM     11  C   UNL A   1      33.441  27.747  22.613  1.00  0.00     0.005 C 
ENDBRANCH   9  10
BRANCH   9  12
ATOM     12  C   UNL A   1      29.634  27.398  23.132  1.00  0.00     0.016 C 
ATOM     13  C   UNL A   1      28.473  26.692  23.823  1.00  0.00     0.005 C 
ENDBRANCH   9  12
BRANCH   9  14
ATOM     14  C   UNL A   1      31.006  25.826  24.551  1.00  0.00     0.120 C 
BRANCH  14  15
ATOM     15  C   UNL A   1      31.483  25.539  25.996  1.00  0.00     0.239 C 
ATOM     16  O   UNL A   1      30.646  25.179  26.838  1.00  0.00    -0.273 OA
ATOM     17  N   UNL A   1      32.778  25.478  26.437  1.00  0.00    -0.268 N 
ATOM     18  H   UNL A   1      32.913  25.556  27.410  1.00  0.00     0.191 HD
BRANCH  17  19
ATOM     19  N   UNL A   1      33.909  25.319  25.672  1.00  0.00    -0.267 N 
ATOM     20  C   UNL A   1      34.642  24.163  25.469  1.00  0.00     0.241 C 
ATOM     21  H   UNL A   1      34.238  26.126  25.214  1.00  0.00     0.191 HD
ATOM     22  O   UNL A   1      35.709  24.271  24.863  1.00  0.00    -0.273 OA
BRANCH  20  23
ATOM     23  C   UNL A   1      34.242  22.785  25.886  1.00  0.00     0.080 C 
ATOM     24  C   UNL A   1      35.220  21.690  26.209  1.00  0.00     0.014 C 
ATOM     25  C   UNL A   1      34.276  22.189  27.267  1.00  0.00     0.014 C 
ENDBRANCH  20  23
ENDBRANCH  17  19
ENDBRANCH  14  15
ENDBRANCH   9  14
ENDBRANCH   7   9
ENDBRANCH   6   7
ENDBRANCH   5   6
ENDBRANCH   4   5
ENDBRANCH   3   4
ENDBRANCH   2   3
ENDBRANCH   1   2
BRANCH   1  26
ATOM     26  O   UNL A   1      33.780  33.420  28.282  1.00  0.00    -0.377 OA
BRANCH  26  27
ATOM     27  C   UNL A   1      34.274  34.589  28.915  1.00  0.00     0.188 C 
BRANCH  27  28
ATOM     28  C   UNL A   1      33.608  35.070  30.215  1.00  0.00     0.188 C 
BRANCH  28  29
ATOM     29  O   UNL A   1      33.758  34.207  31.323  1.00  0.00    -0.376 OA
BRANCH  29  30
ATOM     30  C   UNL A   1      35.036  33.816  31.785  1.00  0.00     0.202 C 
BRANCH  30  31
ATOM     31  C   UNL A   1      35.509  32.368  32.001  1.00  0.00     0.261 C 
BRANCH  31  32
ATOM     32  O   UNL A   1      36.685  31.917  31.339  1.00  0.00    -0.460 OA
BRANCH  32  33
ATOM     33  C   UNL A   1      36.754  30.610  30.998  1.00  0.00     0.338 C 
ATOM     34  O   UNL A   1      35.849  29.812  30.947  1.00  0.00    -0.246 OA
BRANCH  33  35
ATOM     35  C   UNL A   1      38.142  30.387  30.540  1.00  0.00     0.060 A 
ATOM     36  C   UNL A   1      38.396  30.159  29.181  1.00  0.00     0.016 A 
ATOM     37  C   UNL A   1      39.186  30.436  31.464  1.00  0.00     0.016 A 
ATOM     38  C   UNL A   1      39.703  29.943  28.745  1.00  0.00     0.010 A 
ATOM     39  C   UNL A   1      40.489  30.198  31.033  1.00  0.00     0.010 A 
ATOM     40  C   UNL A   1      40.746  29.917  29.680  1.00  0.00    -0.014 A 
BRANCH  40  41
ATOM     41  C   UNL A   1      42.071  29.377  29.309  1.00  0.00     0.031 A 
ATOM     42  C   UNL A   1      43.214  30.346  29.217  1.00  0.00     0.074 A 
ATOM     43  C   UNL A   1      42.239  28.080  29.004  1.00  0.00     0.049 A 
ATOM     44  N   UNL A   1      44.418  30.171  28.742  1.00  0.00    -0.248 NA
ATOM     45  C   UNL A   1      42.949  31.707  29.712  1.00  0.00     0.031 C 
ATOM     46  C   UNL A   1      41.206  27.051  29.098  1.00  0.00     0.029 A 
ATOM     47  N   UNL A   1      43.338  27.419  28.514  1.00  0.00    -0.354 N 
ATOM     48  C   UNL A   1      45.045  31.407  28.852  1.00  0.00     0.074 A 
ATOM     49  C   UNL A   1      44.082  32.325  29.419  1.00  0.00     0.031 C 
ATOM     50  C   UNL A   1      41.708  25.893  28.636  1.00  0.00     0.029 A 
ATOM     51  C   UNL A   1      43.078  26.114  28.172  1.00  0.00     0.049 A 
ATOM     52  H   UNL A   1      44.223  27.839  28.417  1.00  0.00     0.167 HD
ATOM     53  C   UNL A   1      46.307  31.742  28.500  1.00  0.00     0.037 A 
ATOM     54  C   UNL A   1      43.842  25.222  27.513  1.00  0.00     0.037 A 
ATOM     55  C   UNL A   1      47.241  30.813  27.922  1.00  0.00     0.049 A 
ATOM     56  C   UNL A   1      45.227  25.622  27.077  1.00  0.00     0.074 A 
ATOM     57  C   UNL A   1      48.556  31.033  27.553  1.00  0.00     0.029 A 
ATOM     58  N   UNL A   1      46.950  29.493  27.606  1.00  0.00    -0.354 N 
ATOM     59  N   UNL A   1      45.829  26.782  27.207  1.00  0.00    -0.248 NA
ATOM     60  C   UNL A   1      46.041  24.597  26.410  1.00  0.00     0.031 C 
ATOM     61  C   UNL A   1      49.037  29.865  26.952  1.00  0.00     0.029 A 
ATOM     62  C   UNL A   1      48.048  28.892  27.017  1.00  0.00     0.049 A 
ATOM     63  H   UNL A   1      46.087  29.049  27.777  1.00  0.00     0.167 HD
ATOM     64  C   UNL A   1      47.101  26.619  26.667  1.00  0.00     0.074 A 
ATOM     65  C   UNL A   1      47.180  25.247  26.205  1.00  0.00     0.031 C 
ATOM     66  C   UNL A   1      48.112  27.519  26.573  1.00  0.00     0.037 A 
BRANCH  53  67
ATOM     67  C   UNL A   1      46.713  33.181  28.675  1.00  0.00     0.058 A 
ATOM     68  C   UNL A   1      46.594  34.125  27.641  1.00  0.00     0.135 A 
ATOM     69  C   UNL A   1      47.261  33.616  29.893  1.00  0.00     0.135 A 
ATOM     70  F   UNL A   1      46.095  33.763  26.448  1.00  0.00    -0.206 F 
ATOM     71  C   UNL A   1      47.052  35.431  27.789  1.00  0.00     0.059 A 
ATOM     72  C   UNL A   1      47.691  34.927  30.077  1.00  0.00     0.059 A 
ATOM     73  F   UNL A   1      47.400  32.759  30.916  1.00  0.00    -0.206 F 
ATOM     74  C   UNL A   1      47.606  35.820  29.010  1.00  0.00     0.060 A 
BRANCH  74  75
ATOM     75  S   UNL A   1      48.234  37.504  29.176  1.00  0.00     0.124 S 
ATOM     76  O   UNL A   1      47.292  38.247  28.344  1.00  0.00    -0.237 OA
ATOM     77  O   UNL A   1      48.130  37.735  30.612  1.00  0.00    -0.237 OA
ATOM     78  O   UNL A   1      49.594  37.413  28.654  1.00  0.00    -0.744 OA
ENDBRANCH  74  75
ENDBRANCH  53  67
BRANCH  54  79
ATOM     79  C   UNL A   1      43.287  23.876  27.211  1.00  0.00     0.058 A 
ATOM     80  C   UNL A   1      42.899  23.523  25.912  1.00  0.00     0.135 A 
ATOM     81  C   UNL A   1      43.204  22.890  28.209  1.00  0.00     0.135 A 
ATOM     82  F   UNL A   1      42.945  24.433  24.927  1.00  0.00    -0.206 F 
ATOM     83  C   UNL A   1      42.463  22.237  25.607  1.00  0.00     0.059 A 
ATOM     84  C   UNL A   1      42.797  21.591  27.923  1.00  0.00     0.059 A 
ATOM     85  F   UNL A   1      43.572  23.174  29.468  1.00  0.00    -0.206 F 
ATOM     86  C   UNL A   1      42.431  21.273  26.617  1.00  0.00     0.060 A 
BRANCH  86  87
ATOM     87  S   UNL A   1      41.974  19.580  26.182  1.00  0.00     0.124 S 
ATOM     88  O   UNL A   1      40.525  19.687  26.059  1.00  0.00    -0.237 OA
ATOM     89  O   UNL A   1      42.708  19.378  24.936  1.00  0.00    -0.237 OA
ATOM     90  O   UNL A   1      42.454  18.799  27.318  1.00  0.00    -0.744 OA
ENDBRANCH  86  87
ENDBRANCH  54  79
BRANCH  66  91
ATOM     91  C   UNL A   1      49.421  27.050  25.998  1.00  0.00     0.058 A 
ATOM     92  C   UNL A   1      49.753  27.233  24.647  1.00  0.00     0.135 A 
ATOM     93  C   UNL A   1      50.401  26.504  26.845  1.00  0.00     0.135 A 
ATOM     94  F   UNL A   1      48.852  27.744  23.793  1.00  0.00    -0.206 F 
ATOM     95  C   UNL A   1      51.008  26.886  24.155  1.00  0.00     0.059 A 
ATOM     96  C   UNL A   1      51.672  26.177  26.381  1.00  0.00     0.059 A 
ATOM     97  F   UNL A   1      50.139  26.316  28.149  1.00  0.00    -0.206 F 
ATOM     98  C   UNL A   1      51.963  26.368  25.032  1.00  0.00     0.060 A 
BRANCH  98  99
ATOM     99  S   UNL A   1      53.610  25.987  24.394  1.00  0.00     0.124 S 
ATOM    100  O   UNL A   1      53.292  25.347  23.122  1.00  0.00    -0.237 OA
ATOM    101  O   UNL A   1      54.220  27.309  24.304  1.00  0.00    -0.237 OA
ATOM    102  O   UNL A   1      54.176  25.109  25.414  1.00  0.00    -0.744 OA
ENDBRANCH  98  99
ENDBRANCH  66  91
ENDBRANCH  40  41
ENDBRANCH  33  35
ENDBRANCH  32  33
ENDBRANCH  31  32
ENDBRANCH  30  31
ENDBRANCH  29  30
ENDBRANCH  28  29
ENDBRANCH  27  28
ENDBRANCH  26  27
ENDBRANCH   1  26
TORSDOF 29
ENDMDL
MODEL 2
REMARK VINA RESULT:      -8.7      1.306      8.321
REMARK SMILES CCC(CC)(CC(=O)NNC(=O)C1CC1)C(=O)OCCOCCOCCOCCOC(=O)c1ccc(-c2c3nc(c(-c4c(F)cc(S(=O)(=O)[O-])cc4F)c4ccc([nH]4)c(-c4c(F)cc(S(=O)(=O)[O-])cc4F)c4nc(c(-c5c(F)cc(S(=O)(=O)[O-])cc5F)c5ccc2[nH]5)C=C4)C=C3)cc1
REMARK SMILES IDX 23 1 22 2 21 3 20 4 19 5 18 6 16 7 17 8 3 9 2 10 1 11 4 12
REMARK SMILES IDX 5 13 6 14 7 15 8 16 9 17 10 19 11 20 12 22 13 23 14 24 15 25
REMARK SMILES IDX 24 26 25 27 26 28 27 29 28 30 29 31 30 32 31 33 32 34 33 35
REMARK SMILES IDX 34 36 98 37 35 38 97 39 36 40 37 41 38 42 91 43 39 44 96 45
REMARK SMILES IDX 90 46 92 47 40 48 95 49 89 50 88 51 41 53 75 54 54 55 74 56
REMARK SMILES IDX 55 57 58 58 73 59 93 60 56 61 57 62 72 64 94 65 59 66 42 67
REMARK SMILES IDX 43 68 52 69 44 70 45 71 51 72 53 73 46 74 47 75 48 76 49 77
REMARK SMILES IDX 50 78 76 79 77 80 86 81 78 82 79 83 85 84 87 85 80 86 81 87
REMARK SMILES IDX 82 88 83 89 84 90 60 91 61 92 70 93 62 94 63 95 69 96 71 97
REMARK SMILES IDX 64 98 65 99 66 100 67 101 68 102
REMARK H PARENT 9 18 10 21 92 52 58 63
REMARK Flexibility Score: inf
ROOT
ATOM      1  C   UNL A   1      34.611  31.337  28.529  1.00  0.00     0.188 C 
ENDROOT
BRANCH   1   2
ATOM      2  C   UNL A   1      35.092  30.228  27.600  1.00  0.00     0.188 C 
BRANCH   2   3
ATOM      3  O   UNL A   1      34.296  29.069  27.664  1.00  0.00    -0.376 OA
BRANCH   3   4
ATOM      4  C   UNL A   1      33.124  29.039  26.871  1.00  0.00     0.202 C 
BRANCH   4   5
ATOM      5  C   UNL A   1      32.160  27.828  26.867  1.00  0.00     0.261 C 
BRANCH   5   6
ATOM      6  O   UNL A   1      32.651  26.541  26.428  1.00  0.00    -0.463 OA
BRANCH   6   7
ATOM      7  C   UNL A   1      31.734  25.561  26.310  1.00  0.00     0.312 C 
ATOM      8  O   UNL A   1      30.572  25.722  26.677  1.00  0.00    -0.252 OA
BRANCH   7   9
ATOM      9  C   UNL A   1      32.237  24.209  25.704  1.00  0.00     0.076 C 
BRANCH   9  10
ATOM     10  C   UNL A   1      31.005  23.304  25.458  1.00  0.00     0.016 C 
ATOM     11  C   UNL A   1      30.120  22.917  26.636  1.00  0.00     0.005 C 
ENDBRANCH   9  10
BRANCH   9  12
ATOM     12  C   UNL A   1      33.128  23.676  26.896  1.00  0.00     0.016 C 
ATOM     13  C   UNL A   1      33.546  22.210  26.879  1.00  0.00     0.005 C 
ENDBRANCH   9  12
BRANCH   9  14
ATOM     14  C   UNL A   1      33.182  24.247  24.439  1.00  0.00     0.120 C 
BRANCH  14  15
ATOM     15  C   UNL A   1      33.031  23.583  23.048  1.00  0.00     0.239 C 
ATOM     16  O   UNL A   1      33.385  22.401  22.912  1.00  0.00    -0.273 OA
ATOM     17  N   UNL A   1      32.392  24.101  21.954  1.00  0.00    -0.268 N 
ATOM     18  H   UNL A   1      32.611  23.692  21.084  1.00  0.00     0.191 HD
BRANCH  17  19
ATOM     19  N   UNL A   1      31.479  25.128  21.936  1.00  0.00    -0.267 N 
ATOM     20  C   UNL A   1      31.723  26.484  22.067  1.00  0.00     0.241 C 
ATOM     21  H   UNL A   1      30.537  24.868  21.817  1.00  0.00     0.191 HD
ATOM     22  O   UNL A   1      30.744  27.226  22.171  1.00  0.00    -0.273 OA
BRANCH  20  23
ATOM     23  C   UNL A   1      33.065  27.139  22.058  1.00  0.00     0.080 C 
ATOM     24  C   UNL A   1      33.314  28.547  22.526  1.00  0.00     0.014 C 
ATOM     25  C   UNL A   1      33.979  27.394  23.225  1.00  0.00     0.014 C 
ENDBRANCH  20  23
ENDBRANCH  17  19
ENDBRANCH  14  15
ENDBRANCH   9  14
ENDBRANCH   7   9
ENDBRANCH   6   7
ENDBRANCH   5   6
ENDBRANCH   4   5
ENDBRANCH   3   4
ENDBRANCH   2   3
ENDBRANCH   1   2
BRANCH   1  26
ATOM     26  O   UNL A   1      34.168  32.580  28.019  1.00  0.00    -0.377 OA
BRANCH  26  27
ATOM     27  C   UNL A   1      34.746  33.792  28.479  1.00  0.00     0.188 C 
BRANCH  27  28
ATOM     28  C   UNL A   1      34.100  34.518  29.670  1.00  0.00     0.188 C 
BRANCH  28  29
ATOM     29  O   UNL A   1      34.016  33.763  30.861  1.00  0.00    -0.376 OA
BRANCH  29  30
ATOM     30  C   UNL A   1      35.166  33.471  31.631  1.00  0.00     0.202 C 
BRANCH  30  31
ATOM     31  C   UNL A   1      35.632  32.067  32.052  1.00  0.00     0.261 C 
BRANCH  31  32
ATOM     32  O   UNL A   1      36.935  31.630  31.686  1.00  0.00    -0.460 OA
BRANCH  32  33
ATOM     33  C   UNL A   1      37.078  30.351  31.273  1.00  0.00     0.338 C 
ATOM     34  O   UNL A   1      36.245  29.476  31.278  1.00  0.00    -0.246 OA
BRANCH  33  35
ATOM     35  C   UNL A   1      38.421  30.274  30.659  1.00  0.00     0.060 A 
ATOM     36  C   UNL A   1      38.557  30.399  29.270  1.00  0.00     0.016 A 
ATOM     37  C   UNL A   1      39.541  30.107  31.475  1.00  0.00     0.016 A 
ATOM     38  C   UNL A   1      39.822  30.322  28.687  1.00  0.00     0.010 A 
ATOM     39  C   UNL A   1      40.801  30.008  30.891  1.00  0.00     0.010 A 
ATOM     40  C   UNL A   1      40.941  30.080  29.494  1.00  0.00    -0.014 A 
BRANCH  40  41
ATOM     41  C   UNL A   1      42.227  29.674  28.890  1.00  0.00     0.031 A 
ATOM     42  C   UNL A   1      42.356  28.254  28.420  1.00  0.00     0.074 A 
ATOM     43  C   UNL A   1      43.266  30.522  28.818  1.00  0.00     0.049 A 
ATOM     44  N   UNL A   1      43.415  27.599  28.029  1.00  0.00    -0.248 NA
ATOM     45  C   UNL A   1      41.116  27.460  28.414  1.00  0.00     0.031 C 
ATOM     46  C   UNL A   1      43.234  31.929  29.210  1.00  0.00     0.029 A 
ATOM     47  N   UNL A   1      44.562  30.305  28.425  1.00  0.00    -0.354 N 
ATOM     48  C   UNL A   1      42.978  26.308  27.760  1.00  0.00     0.074 A 
ATOM     49  C   UNL A   1      41.561  26.269  28.051  1.00  0.00     0.031 C 
ATOM     50  C   UNL A   1      44.470  32.441  29.078  1.00  0.00     0.029 A 
ATOM     51  C   UNL A   1      45.383  31.385  28.641  1.00  0.00     0.049 A 
ATOM     52  H   UNL A   1      44.873  29.458  28.029  1.00  0.00     0.167 HD
ATOM     53  C   UNL A   1      43.698  25.252  27.318  1.00  0.00     0.037 A 
ATOM     54  C   UNL A   1      46.723  31.489  28.546  1.00  0.00     0.037 A 
ATOM     55  C   UNL A   1      45.110  25.312  27.052  1.00  0.00     0.049 A 
ATOM     56  C   UNL A   1      47.523  30.291  28.106  1.00  0.00     0.074 A 
ATOM     57  C   UNL A   1      45.939  24.314  26.574  1.00  0.00     0.029 A 
ATOM     58  N   UNL A   1      45.907  26.430  27.264  1.00  0.00    -0.354 N 
ATOM     59  N   UNL A   1      47.104  29.078  27.824  1.00  0.00    -0.248 NA
ATOM     60  C   UNL A   1      48.974  30.470  27.966  1.00  0.00     0.031 C 
ATOM     61  C   UNL A   1      47.248  24.808  26.562  1.00  0.00     0.029 A 
ATOM     62  C   UNL A   1      47.225  26.138  26.957  1.00  0.00     0.049 A 
ATOM     63  H   UNL A   1      45.582  27.302  27.585  1.00  0.00     0.167 HD
ATOM     64  C   UNL A   1      48.232  28.360  27.444  1.00  0.00     0.074 A 
ATOM     65  C   UNL A   1      49.354  29.273  27.536  1.00  0.00     0.031 C 
ATOM     66  C   UNL A   1      48.328  27.066  27.045  1.00  0.00     0.037 A 
BRANCH  53  67
ATOM     67  C   UNL A   1      42.976  23.940  27.165  1.00  0.00     0.058 A 
ATOM     68  C   UNL A   1      42.745  23.079  28.251  1.00  0.00     0.135 A 
ATOM     69  C   UNL A   1      42.534  23.522  25.899  1.00  0.00     0.135 A 
ATOM     70  F   UNL A   1      43.162  23.416  29.483  1.00  0.00    -0.206 F 
ATOM     71  C   UNL A   1      42.153  21.831  28.080  1.00  0.00     0.059 A 
ATOM     72  C   UNL A   1      41.905  22.295  25.710  1.00  0.00     0.059 A 
ATOM     73  F   UNL A   1      42.728  24.302  24.824  1.00  0.00    -0.206 F 
ATOM     74  C   UNL A   1      41.743  21.446  26.803  1.00  0.00     0.060 A 
BRANCH  74  75
ATOM     75  S   UNL A   1      41.013  19.809  26.587  1.00  0.00     0.124 S 
ATOM     76  O   UNL A   1      39.713  20.144  26.015  1.00  0.00    -0.237 OA
ATOM     77  O   UNL A   1      41.957  19.164  25.681  1.00  0.00    -0.237 OA
ATOM     78  O   UNL A   1      40.981  19.270  27.943  1.00  0.00    -0.744 OA
ENDBRANCH  74  75
ENDBRANCH  53  67
BRANCH  54  79
ATOM     79  C   UNL A   1      47.377  32.776  28.904  1.00  0.00     0.058 A 
ATOM     80  C   UNL A   1      47.582  33.779  27.948  1.00  0.00     0.135 A 
ATOM     81  C   UNL A   1      47.743  33.054  30.232  1.00  0.00     0.135 A 
ATOM     82  F   UNL A   1      47.263  33.556  26.663  1.00  0.00    -0.206 F 
ATOM     83  C   UNL A   1      48.112  35.018  28.294  1.00  0.00     0.059 A 
ATOM     84  C   UNL A   1      48.250  34.294  30.607  1.00  0.00     0.059 A 
ATOM     85  F   UNL A   1      47.560  32.130  31.188  1.00  0.00    -0.206 F 
ATOM     86  C   UNL A   1      48.427  35.272  29.631  1.00  0.00     0.060 A 
BRANCH  86  87
ATOM     87  S   UNL A   1      49.004  36.923  30.084  1.00  0.00     0.124 S 
ATOM     88  O   UNL A   1      50.189  36.615  30.875  1.00  0.00    -0.237 OA
ATOM     89  O   UNL A   1      49.245  37.529  28.779  1.00  0.00    -0.237 OA
ATOM     90  O   UNL A   1      47.878  37.481  30.828  1.00  0.00    -0.744 OA
ENDBRANCH  86  87
ENDBRANCH  54  79
BRANCH  66  91
ATOM     91  C   UNL A   1      49.680  26.558  26.621  1.00  0.00     0.058 A 
ATOM     92  C   UNL A   1      50.166  26.727  25.316  1.00  0.00     0.135 A 
ATOM     93  C   UNL A   1      50.542  25.984  27.573  1.00  0.00     0.135 A 
ATOM     94  F   UNL A   1      49.383  27.262  24.367  1.00  0.00    -0.206 F 
ATOM     95  C   UNL A   1      51.458  26.341  24.968  1.00  0.00     0.059 A 
ATOM     96  C   UNL A   1      51.846  25.619  27.254  1.00  0.00     0.059 A 
ATOM     97  F   UNL A   1      50.129  25.808  28.838  1.00  0.00    -0.206 F 
ATOM     98  C   UNL A   1      52.293  25.798  25.946  1.00  0.00     0.060 A 
BRANCH  98  99
ATOM     99  S   UNL A   1      53.988  25.367  25.497  1.00  0.00     0.124 S 
ATOM    100  O   UNL A   1      54.560  25.030  26.797  1.00  0.00    -0.237 OA
ATOM    101  O   UNL A   1      53.792  24.249  24.581  1.00  0.00    -0.237 OA
ATOM    102  O   UNL A   1      54.500  26.590  24.885  1.00  0.00    -0.744 OA
ENDBRANCH  98  99
ENDBRANCH  66  91
ENDBRANCH  40  41
ENDBRANCH  33  35
ENDBRANCH  32  33
ENDBRANCH  31  32
ENDBRANCH  30  31
ENDBRANCH  29  30
ENDBRANCH  28  29
ENDBRANCH  27  28
ENDBRANCH  26  27
ENDBRANCH   1  26
TORSDOF 29
ENDMDL
MODEL 3
REMARK VINA RESULT:      -8.7      1.521      8.251
REMARK SMILES CCC(CC)(CC(=O)NNC(=O)C1CC1)C(=O)OCCOCCOCCOCCOC(=O)c1ccc(-c2c3nc(c(-c4c(F)cc(S(=O)(=O)[O-])cc4F)c4ccc([nH]4)c(-c4c(F)cc(S(=O)(=O)[O-])cc4F)c4nc(c(-c5c(F)cc(S(=O)(=O)[O-])cc5F)c5ccc2[nH]5)C=C4)C=C3)cc1
REMARK SMILES IDX 23 1 22 2 21 3 20 4 19 5 18 6 16 7 17 8 3 9 2 10 1 11 4 12
REMARK SMILES IDX 5 13 6 14 7 15 8 16 9 17 10 19 11 20 12 22 13 23 14 24 15 25
REMARK SMILES IDX 24 26 25 27 26 28 27 29 28 30 29 31 30 32 31 33 32 34 33 35
REMARK SMILES IDX 34 36 98 37 35 38 97 39 36 40 37 41 38 42 91 43 39 44 96 45
REMARK SMILES IDX 90 46 92 47 40 48 95 49 89 50 88 51 41 53 75 54 54 55 74 56
REMARK SMILES IDX 55 57 58 58 73 59 93 60 56 61 57 62 72 64 94 65 59 66 42 67
REMARK SMILES IDX 43 68 52 69 44 70 45 71 51 72 53 73 46 74 47 75 48 76 49 77
REMARK SMILES IDX 50 78 76 79 77 80 86 81 78 82 79 83 85 84 87 85 80 86 81 87
REMARK SMILES IDX 82 88 83 89 84 90 60 91 61 92 70 93 62 94 63 95 69 96 71 97
REMARK SMILES IDX 64 98 65 99 66 100 67 101 68 102
REMARK H PARENT 9 18 10 21 92 52 58 63
REMARK Flexibility Score: inf
ROOT
ATOM      1  C   UNL A   1      34.698  31.382  28.546  1.00  0.00     0.188 C 
ENDROOT
BRANCH   1   2
ATOM      2  C   UNL A   1      35.265  30.355  27.572  1.00  0.00     0.188 C 
BRANCH   2   3
ATOM      3  O   UNL A   1      34.496  29.179  27.498  1.00  0.00    -0.376 OA
BRANCH   3   4
ATOM      4  C   UNL A   1      33.211  29.277  26.913  1.00  0.00     0.202 C 
BRANCH   4   5
ATOM      5  C   UNL A   1      32.227  28.082  26.876  1.00  0.00     0.261 C 
BRANCH   5   6
ATOM      6  O   UNL A   1      32.723  26.776  26.503  1.00  0.00    -0.463 OA
BRANCH   6   7
ATOM      7  C   UNL A   1      31.795  25.858  26.170  1.00  0.00     0.312 C 
ATOM      8  O   UNL A   1      30.593  26.113  26.223  1.00  0.00    -0.252 OA
BRANCH   7   9
ATOM      9  C   UNL A   1      32.330  24.454  25.738  1.00  0.00     0.076 C 
BRANCH   9  10
ATOM     10  C   UNL A   1      32.750  24.535  24.250  1.00  0.00     0.016 C 
ATOM     11  C   UNL A   1      32.963  25.902  23.611  1.00  0.00     0.005 C 
ENDBRANCH   9  10
BRANCH   9  12
ATOM     12  C   UNL A   1      31.028  23.579  25.933  1.00  0.00     0.016 C 
ATOM     13  C   UNL A   1      31.073  22.442  26.948  1.00  0.00     0.005 C 
ENDBRANCH   9  12
BRANCH   9  14
ATOM     14  C   UNL A   1      33.451  23.764  26.613  1.00  0.00     0.120 C 
BRANCH  14  15
ATOM     15  C   UNL A   1      34.770  23.069  26.195  1.00  0.00     0.239 C 
ATOM     16  O   UNL A   1      35.829  23.713  26.260  1.00  0.00    -0.273 OA
ATOM     17  N   UNL A   1      34.944  21.742  25.903  1.00  0.00    -0.268 N 
ATOM     18  H   UNL A   1      35.758  21.507  25.401  1.00  0.00     0.191 HD
BRANCH  17  19
ATOM     19  N   UNL A   1      34.107  20.704  26.234  1.00  0.00    -0.267 N 
ATOM     20  C   UNL A   1      33.259  19.996  25.399  1.00  0.00     0.241 C 
ATOM     21  H   UNL A   1      34.109  20.430  27.180  1.00  0.00     0.191 HD
ATOM     22  O   UNL A   1      32.484  19.198  25.928  1.00  0.00    -0.273 OA
BRANCH  20  23
ATOM     23  C   UNL A   1      33.220  20.084  23.909  1.00  0.00     0.080 C 
ATOM     24  C   UNL A   1      32.185  19.406  23.056  1.00  0.00     0.014 C 
ATOM     25  C   UNL A   1      32.295  20.905  23.053  1.00  0.00     0.014 C 
ENDBRANCH  20  23
ENDBRANCH  17  19
ENDBRANCH  14  15
ENDBRANCH   9  14
ENDBRANCH   7   9
ENDBRANCH   6   7
ENDBRANCH   5   6
ENDBRANCH   4   5
ENDBRANCH   3   4
ENDBRANCH   2   3
ENDBRANCH   1   2
BRANCH   1  26
ATOM     26  O   UNL A   1      34.311  32.670  28.110  1.00  0.00    -0.377 OA
BRANCH  26  27
ATOM     27  C   UNL A   1      34.830  33.829  28.744  1.00  0.00     0.188 C 
BRANCH  27  28
ATOM     28  C   UNL A   1      34.144  34.350  30.018  1.00  0.00     0.188 C 
BRANCH  28  29
ATOM     29  O   UNL A   1      34.090  33.432  31.090  1.00  0.00    -0.376 OA
BRANCH  29  30
ATOM     30  C   UNL A   1      35.258  33.042  31.786  1.00  0.00     0.202 C 
BRANCH  30  31
ATOM     31  C   UNL A   1      35.721  31.595  32.024  1.00  0.00     0.261 C 
BRANCH  31  32
ATOM     32  O   UNL A   1      37.036  31.215  31.635  1.00  0.00    -0.460 OA
BRANCH  32  33
ATOM     33  C   UNL A   1      37.214  29.963  31.158  1.00  0.00     0.338 C 
ATOM     34  O   UNL A   1      36.402  29.071  31.102  1.00  0.00    -0.246 OA
BRANCH  33  35
ATOM     35  C   UNL A   1      38.568  29.948  30.563  1.00  0.00     0.060 A 
ATOM     36  C   UNL A   1      38.718  30.074  29.176  1.00  0.00     0.016 A 
ATOM     37  C   UNL A   1      39.683  29.840  31.396  1.00  0.00     0.016 A 
ATOM     38  C   UNL A   1      39.993  30.056  28.611  1.00  0.00     0.010 A 
ATOM     39  C   UNL A   1      40.954  29.800  30.830  1.00  0.00     0.010 A 
ATOM     40  C   UNL A   1      41.110  29.872  29.435  1.00  0.00    -0.014 A 
BRANCH  40  41
ATOM     41  C   UNL A   1      42.424  29.526  28.851  1.00  0.00     0.031 A 
ATOM     42  C   UNL A   1      42.618  28.120  28.365  1.00  0.00     0.074 A 
ATOM     43  C   UNL A   1      43.428  30.416  28.811  1.00  0.00     0.049 A 
ATOM     44  N   UNL A   1      43.710  27.513  27.986  1.00  0.00    -0.248 NA
ATOM     45  C   UNL A   1      41.412  27.277  28.323  1.00  0.00     0.031 C 
ATOM     46  C   UNL A   1      43.333  31.815  29.220  1.00  0.00     0.029 A 
ATOM     47  N   UNL A   1      44.740  30.256  28.441  1.00  0.00    -0.354 N 
ATOM     48  C   UNL A   1      43.330  26.209  27.691  1.00  0.00     0.074 A 
ATOM     49  C   UNL A   1      41.911  26.109  27.953  1.00  0.00     0.031 C 
ATOM     50  C   UNL A   1      44.550  32.378  29.120  1.00  0.00     0.029 A 
ATOM     51  C   UNL A   1      45.512  31.365  28.687  1.00  0.00     0.049 A 
ATOM     52  H   UNL A   1      45.092  29.429  28.039  1.00  0.00     0.167 HD
ATOM     53  C   UNL A   1      44.101  25.189  27.250  1.00  0.00     0.037 A 
ATOM     54  C   UNL A   1      46.849  31.524  28.621  1.00  0.00     0.037 A 
ATOM     55  C   UNL A   1      45.514  25.310  27.012  1.00  0.00     0.049 A 
ATOM     56  C   UNL A   1      47.705  30.365  28.180  1.00  0.00     0.074 A 
ATOM     57  C   UNL A   1      46.392  24.352  26.538  1.00  0.00     0.029 A 
ATOM     58  N   UNL A   1      46.262  26.455  27.255  1.00  0.00    -0.354 N 
ATOM     59  N   UNL A   1      47.340  29.141  27.874  1.00  0.00    -0.248 NA
ATOM     60  C   UNL A   1      49.150  30.604  28.072  1.00  0.00     0.031 C 
ATOM     61  C   UNL A   1      47.679  24.898  26.558  1.00  0.00     0.029 A 
ATOM     62  C   UNL A   1      47.596  26.220  26.971  1.00  0.00     0.049 A 
ATOM     63  H   UNL A   1      45.895  27.308  27.582  1.00  0.00     0.167 HD
ATOM     64  C   UNL A   1      48.504  28.473  27.507  1.00  0.00     0.074 A 
ATOM     65  C   UNL A   1      49.586  29.429  27.633  1.00  0.00     0.031 C 
ATOM     66  C   UNL A   1      48.659  27.190  27.093  1.00  0.00     0.037 A 
BRANCH  53  67
ATOM     67  C   UNL A   1      43.436  23.851  27.065  1.00  0.00     0.058 A 
ATOM     68  C   UNL A   1      43.198  22.977  28.139  1.00  0.00     0.135 A 
ATOM     69  C   UNL A   1      43.056  23.424  25.781  1.00  0.00     0.135 A 
ATOM     70  F   UNL A   1      43.556  23.323  29.386  1.00  0.00    -0.206 F 
ATOM     71  C   UNL A   1      42.659  21.709  27.940  1.00  0.00     0.059 A 
ATOM     72  C   UNL A   1      42.482  22.175  25.564  1.00  0.00     0.059 A 
ATOM     73  F   UNL A   1      43.260  24.216  24.717  1.00  0.00    -0.206 F 
ATOM     74  C   UNL A   1      42.311  21.315  26.647  1.00  0.00     0.060 A 
BRANCH  74  75
ATOM     75  S   UNL A   1      41.653  19.653  26.399  1.00  0.00     0.124 S 
ATOM     76  O   UNL A   1      40.229  19.927  26.232  1.00  0.00    -0.237 OA
ATOM     77  O   UNL A   1      42.358  19.214  25.199  1.00  0.00    -0.237 OA
ATOM     78  O   UNL A   1      42.017  18.955  27.627  1.00  0.00    -0.744 OA
ENDBRANCH  74  75
ENDBRANCH  53  67
BRANCH  54  79
ATOM     79  C   UNL A   1      47.444  32.831  29.008  1.00  0.00     0.058 A 
ATOM     80  C   UNL A   1      47.907  33.062  30.310  1.00  0.00     0.135 A 
ATOM     81  C   UNL A   1      47.626  33.850  28.059  1.00  0.00     0.135 A 
ATOM     82  F   UNL A   1      47.743  32.126  31.257  1.00  0.00    -0.206 F 
ATOM     83  C   UNL A   1      48.545  34.250  30.655  1.00  0.00     0.059 A 
ATOM     84  C   UNL A   1      48.284  35.035  28.372  1.00  0.00     0.059 A 
ATOM     85  F   UNL A   1      47.207  33.675  26.795  1.00  0.00    -0.206 F 
ATOM     86  C   UNL A   1      48.743  35.224  29.674  1.00  0.00     0.060 A 
BRANCH  86  87
ATOM     87  S   UNL A   1      49.674  36.710  30.108  1.00  0.00     0.124 S 
ATOM     88  O   UNL A   1      49.034  37.716  29.268  1.00  0.00    -0.237 OA
ATOM     89  O   UNL A   1      49.423  36.819  31.541  1.00  0.00    -0.237 OA
ATOM     90  O   UNL A   1      51.046  36.367  29.744  1.00  0.00    -0.744 OA
ENDBRANCH  86  87
ENDBRANCH  54  79
BRANCH  66  91
ATOM     91  C   UNL A   1      50.037  26.742  26.688  1.00  0.00     0.058 A 
ATOM     92  C   UNL A   1      50.520  26.897  25.380  1.00  0.00     0.135 A 
ATOM     93  C   UNL A   1      50.925  26.246  27.660  1.00  0.00     0.135 A 
ATOM     94  F   UNL A   1      49.714  27.359  24.413  1.00  0.00    -0.206 F 
ATOM     95  C   UNL A   1      51.833  26.571  25.049  1.00  0.00     0.059 A 
ATOM     96  C   UNL A   1      52.248  25.942  27.357  1.00  0.00     0.059 A 
ATOM     97  F   UNL A   1      50.516  26.087  28.929  1.00  0.00    -0.206 F 
ATOM     98  C   UNL A   1      52.691  26.103  26.046  1.00  0.00     0.060 A 
BRANCH  98  99
ATOM     99  S   UNL A   1      54.409  25.751  25.616  1.00  0.00     0.124 S 
ATOM    100  O   UNL A   1      54.826  27.012  25.012  1.00  0.00    -0.237 OA
ATOM    101  O   UNL A   1      54.997  25.445  26.916  1.00  0.00    -0.237 OA
ATOM    102  O   UNL A   1      54.306  24.620  24.698  1.00  0.00    -0.744 OA
ENDBRANCH  98  99
ENDBRANCH  66  91
ENDBRANCH  40  41
ENDBRANCH  33  35
ENDBRANCH  32  33
ENDBRANCH  31  32
ENDBRANCH  30  31
ENDBRANCH  29  30
ENDBRANCH  28  29
ENDBRANCH  27  28
ENDBRANCH  26  27
ENDBRANCH   1  26
TORSDOF 29
ENDMDL
