MODEL 1
REMARK VINA RESULT:      -9.9      0.000      0.000
REMARK SMILES CC[NH+]1CCC2(CC1)OC[C@@H](C(=O)OCCOCCOCCOCCOC(=O)c1ccc(-c3c4nc(c(-c5c(F)cc(S(=O)(=O)[O-])cc5F)c5ccc([nH]5)c(-c5c(F)cc(S(=O)(=O)[O-])cc5F)c5nc(c(-c6c(F)cc(S(=O)(=O)[O-])cc6F)c6ccc3[nH]6)C=C5)C=C4)cc1)N2C(=O)c1ccc(Cl)c([N+](=O)[O-])c1
REMARK SMILES IDX 20 1 19 2 18 3 17 4 16 5 15 6 14 7 12 8 13 9 11 10 3 11 4 12
REMARK SMILES IDX 8 13 5 15 7 16 6 17 9 18 95 19 10 20 2 21 1 22 96 23 97 24
REMARK SMILES IDX 98 25 99 26 107 27 100 28 103 29 101 30 102 31 104 32 105 33
REMARK SMILES IDX 106 34 21 35 22 36 23 37 24 38 25 39 26 40 27 41 28 42 29 43
REMARK SMILES IDX 30 44 94 45 31 46 93 47 32 48 33 49 34 50 87 51 35 52 92 53
REMARK SMILES IDX 86 54 88 55 36 56 91 57 85 58 84 59 37 61 71 62 50 63 70 64
REMARK SMILES IDX 51 65 54 66 69 67 89 68 52 69 53 70 68 72 90 73 55 74 38 75
REMARK SMILES IDX 39 76 48 77 40 78 41 79 47 80 49 81 42 82 43 83 44 84 45 85
REMARK SMILES IDX 46 86 72 87 73 88 82 89 74 90 75 91 81 92 83 93 76 94 77 95
REMARK SMILES IDX 78 96 79 97 80 98 56 99 57 100 66 101 58 102 59 103 65 104
REMARK SMILES IDX 67 105 60 106 61 107 62 108 63 109 64 110
REMARK H PARENT 3 14 88 60 54 71
REMARK Flexibility Score: inf
ROOT
ATOM      1  O   UNL A   1      36.779  21.817  25.525  1.00  0.00    -0.377 OA
ENDROOT
BRANCH   1   2
ATOM      2  C   UNL A   1      37.032  22.957  24.722  1.00  0.00     0.188 C 
BRANCH   2   3
ATOM      3  C   UNL A   1      36.440  22.811  23.320  1.00  0.00     0.188 C 
BRANCH   3   4
ATOM      4  O   UNL A   1      35.369  23.675  22.963  1.00  0.00    -0.376 OA
BRANCH   4   5
ATOM      5  C   UNL A   1      34.027  23.291  23.260  1.00  0.00     0.202 C 
BRANCH   5   6
ATOM      6  C   UNL A   1      32.877  23.729  22.327  1.00  0.00     0.261 C 
BRANCH   6   7
ATOM      7  O   UNL A   1      33.226  24.698  21.298  1.00  0.00    -0.462 OA
BRANCH   7   8
ATOM      8  C   UNL A   1      32.416  25.776  21.241  1.00  0.00     0.331 C 
ATOM      9  O   UNL A   1      31.644  25.979  20.296  1.00  0.00    -0.250 OA
BRANCH   8  10
ATOM     10  C   UNL A   1      32.483  26.824  22.371  1.00  0.00     0.224 C 
ATOM     11  N   UNL A   1      32.571  29.481  26.796  1.00  0.00    -0.335 N 
ATOM     12  C   UNL A   1      31.960  29.827  25.525  1.00  0.00     0.267 C 
ATOM     13  C   UNL A   1      33.241  28.193  26.918  1.00  0.00     0.267 C 
ATOM     14  H   UNL A   1      31.727  29.320  27.345  1.00  0.00     0.348 HD
ATOM     15  C   UNL A   1      32.698  29.363  24.291  1.00  0.00     0.120 C 
ATOM     16  C   UNL A   1      33.935  27.660  25.680  1.00  0.00     0.120 C 
ATOM     17  C   UNL A   1      33.214  27.910  24.361  1.00  0.00     0.155 C 
ATOM     18  O   UNL A   1      34.314  27.926  23.414  1.00  0.00    -0.352 OA
ATOM     19  N   UNL A   1      32.273  26.877  23.839  1.00  0.00    -0.293 N 
ATOM     20  C   UNL A   1      33.941  27.238  22.238  1.00  0.00     0.200 C 
BRANCH  11  21
ATOM     21  C   UNL A   1      33.285  30.571  27.452  1.00  0.00     0.258 C 
ATOM     22  C   UNL A   1      34.749  30.170  27.576  1.00  0.00     0.071 C 
ENDBRANCH  11  21
BRANCH  19  23
ATOM     23  C   UNL A   1      30.945  26.825  24.307  1.00  0.00     0.257 C 
ATOM     24  O   UNL A   1      30.133  27.709  24.039  1.00  0.00    -0.269 OA
BRANCH  23  25
ATOM     25  C   UNL A   1      30.488  25.807  25.305  1.00  0.00     0.047 A 
ATOM     26  C   UNL A   1      29.226  25.785  25.893  1.00  0.00     0.016 A 
ATOM     27  C   UNL A   1      31.400  24.786  25.637  1.00  0.00     0.101 A 
ATOM     28  C   UNL A   1      28.852  24.682  26.691  1.00  0.00     0.028 A 
ATOM     29  C   UNL A   1      30.982  23.615  26.301  1.00  0.00     0.288 A 
ATOM     30  C   UNL A   1      29.700  23.566  26.853  1.00  0.00     0.118 A 
ATOM     31  Cl  UNL A   1      29.035  22.233  27.727  1.00  0.00    -0.077 Cl
BRANCH  29  32
ATOM     32  N   UNL A   1      31.893  22.456  26.243  1.00  0.00     0.064 N 
ATOM     33  O   UNL A   1      32.796  22.344  27.080  1.00  0.00    -0.258 OA
ATOM     34  O   UNL A   1      31.676  21.610  25.360  1.00  0.00    -0.258 OA
ENDBRANCH  29  32
ENDBRANCH  23  25
ENDBRANCH  19  23
ENDBRANCH   8  10
ENDBRANCH   7   8
ENDBRANCH   6   7
ENDBRANCH   5   6
ENDBRANCH   4   5
ENDBRANCH   3   4
ENDBRANCH   2   3
ENDBRANCH   1   2
BRANCH   1  35
ATOM     35  C   UNL A   1      37.400  20.570  25.240  1.00  0.00     0.188 C 
BRANCH  35  36
ATOM     36  C   UNL A   1      38.924  20.504  25.321  1.00  0.00     0.188 C 
BRANCH  36  37
ATOM     37  O   UNL A   1      39.516  20.712  26.608  1.00  0.00    -0.376 OA
BRANCH  37  38
ATOM     38  C   UNL A   1      39.988  22.019  26.928  1.00  0.00     0.202 C 
BRANCH  38  39
ATOM     39  C   UNL A   1      41.157  22.521  26.079  1.00  0.00     0.261 C 
BRANCH  39  40
ATOM     40  O   UNL A   1      41.448  23.912  26.291  1.00  0.00    -0.460 OA
BRANCH  40  41
ATOM     41  C   UNL A   1      42.291  24.166  27.319  1.00  0.00     0.338 C 
ATOM     42  O   UNL A   1      43.328  23.571  27.590  1.00  0.00    -0.246 OA
BRANCH  41  43
ATOM     43  C   UNL A   1      41.869  25.388  28.019  1.00  0.00     0.060 A 
ATOM     44  C   UNL A   1      42.760  26.468  28.074  1.00  0.00     0.016 A 
ATOM     45  C   UNL A   1      40.649  25.435  28.698  1.00  0.00     0.016 A 
ATOM     46  C   UNL A   1      42.455  27.584  28.846  1.00  0.00     0.010 A 
ATOM     47  C   UNL A   1      40.352  26.548  29.485  1.00  0.00     0.010 A 
ATOM     48  C   UNL A   1      41.273  27.607  29.592  1.00  0.00    -0.014 A 
BRANCH  48  49
ATOM     49  C   UNL A   1      41.081  28.652  30.622  1.00  0.00     0.031 A 
ATOM     50  C   UNL A   1      41.945  28.617  31.851  1.00  0.00     0.074 A 
ATOM     51  C   UNL A   1      40.159  29.615  30.456  1.00  0.00     0.049 A 
ATOM     52  N   UNL A   1      41.908  29.377  32.912  1.00  0.00    -0.248 NA
ATOM     53  C   UNL A   1      42.988  27.579  31.890  1.00  0.00     0.031 C 
ATOM     54  C   UNL A   1      39.295  29.761  29.286  1.00  0.00     0.029 A 
ATOM     55  N   UNL A   1      39.783  30.640  31.285  1.00  0.00    -0.354 N 
ATOM     56  C   UNL A   1      42.903  28.898  33.756  1.00  0.00     0.074 A 
ATOM     57  C   UNL A   1      43.512  27.766  33.092  1.00  0.00     0.031 C 
ATOM     58  C   UNL A   1      38.469  30.803  29.484  1.00  0.00     0.029 A 
ATOM     59  C   UNL A   1      38.723  31.369  30.808  1.00  0.00     0.049 A 
ATOM     60  H   UNL A   1      40.232  30.834  32.140  1.00  0.00     0.167 HD
ATOM     61  C   UNL A   1      43.272  29.362  34.973  1.00  0.00     0.037 A 
ATOM     62  C   UNL A   1      38.014  32.356  31.390  1.00  0.00     0.037 A 
ATOM     63  C   UNL A   1      42.656  30.494  35.616  1.00  0.00     0.049 A 
ATOM     64  C   UNL A   1      38.411  32.828  32.764  1.00  0.00     0.074 A 
ATOM     65  C   UNL A   1      42.979  31.075  36.829  1.00  0.00     0.029 A 
ATOM     66  N   UNL A   1      41.578  31.205  35.105  1.00  0.00    -0.354 N 
ATOM     67  N   UNL A   1      39.376  32.393  33.538  1.00  0.00    -0.248 NA
ATOM     68  C   UNL A   1      37.627  33.929  33.341  1.00  0.00     0.031 C 
ATOM     69  C   UNL A   1      42.055  32.095  37.082  1.00  0.00     0.029 A 
ATOM     70  C   UNL A   1      41.199  32.196  35.996  1.00  0.00     0.049 A 
ATOM     71  H   UNL A   1      41.147  31.031  34.238  1.00  0.00     0.167 HD
ATOM     72  C   UNL A   1      39.332  33.181  34.685  1.00  0.00     0.074 A 
ATOM     73  C   UNL A   1      38.252  34.127  34.494  1.00  0.00     0.031 C 
ATOM     74  C   UNL A   1      40.116  33.128  35.791  1.00  0.00     0.037 A 
BRANCH  61  75
ATOM     75  C   UNL A   1      44.357  28.619  35.706  1.00  0.00     0.058 A 
ATOM     76  C   UNL A   1      45.721  28.852  35.464  1.00  0.00     0.135 A 
ATOM     77  C   UNL A   1      44.021  27.663  36.679  1.00  0.00     0.135 A 
ATOM     78  F   UNL A   1      46.100  29.740  34.532  1.00  0.00    -0.206 F 
ATOM     79  C   UNL A   1      46.710  28.141  36.137  1.00  0.00     0.059 A 
ATOM     80  C   UNL A   1      44.994  26.964  37.387  1.00  0.00     0.059 A 
ATOM     81  F   UNL A   1      42.733  27.397  36.949  1.00  0.00    -0.206 F 
ATOM     82  C   UNL A   1      46.337  27.199  37.096  1.00  0.00     0.060 A 
BRANCH  82  83
ATOM     83  S   UNL A   1      47.631  26.279  37.955  1.00  0.00     0.124 S 
ATOM     84  O   UNL A   1      47.004  26.036  39.251  1.00  0.00    -0.237 OA
ATOM     85  O   UNL A   1      47.798  25.107  37.102  1.00  0.00    -0.237 OA
ATOM     86  O   UNL A   1      48.757  27.206  37.968  1.00  0.00    -0.744 OA
ENDBRANCH  82  83
ENDBRANCH  61  75
BRANCH  62  87
ATOM     87  C   UNL A   1      36.848  32.940  30.677  1.00  0.00     0.058 A 
ATOM     88  C   UNL A   1      35.540  32.517  30.946  1.00  0.00     0.135 A 
ATOM     89  C   UNL A   1      37.022  33.966  29.733  1.00  0.00     0.135 A 
ATOM     90  F   UNL A   1      35.322  31.532  31.832  1.00  0.00    -0.206 F 
ATOM     91  C   UNL A   1      34.443  33.088  30.307  1.00  0.00     0.059 A 
ATOM     92  C   UNL A   1      35.941  34.572  29.102  1.00  0.00     0.059 A 
ATOM     93  F   UNL A   1      38.254  34.417  29.448  1.00  0.00    -0.206 F 
ATOM     94  C   UNL A   1      34.655  34.122  29.394  1.00  0.00     0.060 A 
BRANCH  94  95
ATOM     95  S   UNL A   1      33.220  34.914  28.634  1.00  0.00     0.124 S 
ATOM     96  O   UNL A   1      33.834  36.048  27.954  1.00  0.00    -0.237 OA
ATOM     97  O   UNL A   1      32.708  33.852  27.774  1.00  0.00    -0.237 OA
ATOM     98  O   UNL A   1      32.376  35.245  29.778  1.00  0.00    -0.744 OA
ENDBRANCH  94  95
ENDBRANCH  62  87
BRANCH  74  99
ATOM     99  C   UNL A   1      39.856  34.140  36.875  1.00  0.00     0.058 A 
ATOM    100  C   UNL A   1      39.174  33.806  38.055  1.00  0.00     0.135 A 
ATOM    101  C   UNL A   1      40.351  35.450  36.755  1.00  0.00     0.135 A 
ATOM    102  F   UNL A   1      38.675  32.569  38.220  1.00  0.00    -0.206 F 
ATOM    103  C   UNL A   1      38.968  34.739  39.066  1.00  0.00     0.059 A 
ATOM    104  C   UNL A   1      40.187  36.390  37.767  1.00  0.00     0.059 A 
ATOM    105  F   UNL A   1      41.022  35.821  35.652  1.00  0.00    -0.206 F 
ATOM    106  C   UNL A   1      39.483  36.028  38.914  1.00  0.00     0.060 A 
BRANCH 106 107
ATOM    107  S   UNL A   1      39.236  37.220  40.247  1.00  0.00     0.124 S 
ATOM    108  O   UNL A   1      38.418  38.234  39.588  1.00  0.00    -0.237 OA
ATOM    109  O   UNL A   1      38.558  36.417  41.260  1.00  0.00    -0.237 OA
ATOM    110  O   UNL A   1      40.593  37.634  40.588  1.00  0.00    -0.744 OA
ENDBRANCH 106 107
ENDBRANCH  74  99
ENDBRANCH  48  49
ENDBRANCH  41  43
ENDBRANCH  40  41
ENDBRANCH  39  40
ENDBRANCH  38  39
ENDBRANCH  37  38
ENDBRANCH  36  37
ENDBRANCH  35  36
ENDBRANCH   1  35
TORSDOF 27
ENDMDL
MODEL 2
REMARK VINA RESULT:      -9.4      6.198     11.307
REMARK SMILES CC[NH+]1CCC2(CC1)OC[C@@H](C(=O)OCCOCCOCCOCCOC(=O)c1ccc(-c3c4nc(c(-c5c(F)cc(S(=O)(=O)[O-])cc5F)c5ccc([nH]5)c(-c5c(F)cc(S(=O)(=O)[O-])cc5F)c5nc(c(-c6c(F)cc(S(=O)(=O)[O-])cc6F)c6ccc3[nH]6)C=C5)C=C4)cc1)N2C(=O)c1ccc(Cl)c([N+](=O)[O-])c1
REMARK SMILES IDX 20 1 19 2 18 3 17 4 16 5 15 6 14 7 12 8 13 9 11 10 3 11 4 12
REMARK SMILES IDX 8 13 5 15 7 16 6 17 9 18 95 19 10 20 2 21 1 22 96 23 97 24
REMARK SMILES IDX 98 25 99 26 107 27 100 28 103 29 101 30 102 31 104 32 105 33
REMARK SMILES IDX 106 34 21 35 22 36 23 37 24 38 25 39 26 40 27 41 28 42 29 43
REMARK SMILES IDX 30 44 94 45 31 46 93 47 32 48 33 49 34 50 87 51 35 52 92 53
REMARK SMILES IDX 86 54 88 55 36 56 91 57 85 58 84 59 37 61 71 62 50 63 70 64
REMARK SMILES IDX 51 65 54 66 69 67 89 68 52 69 53 70 68 72 90 73 55 74 38 75
REMARK SMILES IDX 39 76 48 77 40 78 41 79 47 80 49 81 42 82 43 83 44 84 45 85
REMARK SMILES IDX 46 86 72 87 73 88 82 89 74 90 75 91 81 92 83 93 76 94 77 95
REMARK SMILES IDX 78 96 79 97 80 98 56 99 57 100 66 101 58 102 59 103 65 104
REMARK SMILES IDX 67 105 60 106 61 107 62 108 63 109 64 110
REMARK H PARENT 3 14 88 60 54 71
REMARK Flexibility Score: inf
ROOT
ATOM      1  O   UNL A   1      32.945  31.423  27.262  1.00  0.00    -0.377 OA
ENDROOT
BRANCH   1   2
ATOM      2  C   UNL A   1      33.033  30.050  26.922  1.00  0.00     0.188 C 
BRANCH   2   3
ATOM      3  C   UNL A   1      31.722  29.521  26.337  1.00  0.00     0.188 C 
BRANCH   3   4
ATOM      4  O   UNL A   1      31.400  29.891  25.002  1.00  0.00    -0.376 OA
BRANCH   4   5
ATOM      5  C   UNL A   1      31.700  28.996  23.932  1.00  0.00     0.202 C 
BRANCH   5   6
ATOM      6  C   UNL A   1      33.168  28.763  23.513  1.00  0.00     0.261 C 
BRANCH   6   7
ATOM      7  O   UNL A   1      33.569  27.373  23.346  1.00  0.00    -0.462 OA
BRANCH   7   8
ATOM      8  C   UNL A   1      33.685  26.678  24.496  1.00  0.00     0.331 C 
ATOM      9  O   UNL A   1      34.024  27.205  25.562  1.00  0.00    -0.250 OA
BRANCH   8  10
ATOM     10  C   UNL A   1      33.432  25.156  24.479  1.00  0.00     0.224 C 
ATOM     11  N   UNL A   1      33.452  20.025  25.057  1.00  0.00    -0.335 N 
ATOM     12  C   UNL A   1      33.168  20.820  23.875  1.00  0.00     0.267 C 
ATOM     13  C   UNL A   1      33.830  20.717  26.284  1.00  0.00     0.267 C 
ATOM     14  H   UNL A   1      34.344  19.622  24.772  1.00  0.00     0.348 HD
ATOM     15  C   UNL A   1      32.468  22.137  24.117  1.00  0.00     0.120 C 
ATOM     16  C   UNL A   1      33.201  22.073  26.529  1.00  0.00     0.120 C 
ATOM     17  C   UNL A   1      33.032  22.955  25.297  1.00  0.00     0.155 C 
ATOM     18  O   UNL A   1      31.900  23.782  25.671  1.00  0.00    -0.352 OA
ATOM     19  N   UNL A   1      34.112  23.920  24.941  1.00  0.00    -0.293 N 
ATOM     20  C   UNL A   1      32.124  25.113  25.254  1.00  0.00     0.200 C 
BRANCH  11  21
ATOM     21  C   UNL A   1      32.545  18.905  25.278  1.00  0.00     0.258 C 
ATOM     22  C   UNL A   1      33.232  17.637  24.785  1.00  0.00     0.071 C 
ENDBRANCH  11  21
BRANCH  19  23
ATOM     23  C   UNL A   1      35.238  23.489  24.212  1.00  0.00     0.257 C 
ATOM     24  O   UNL A   1      35.248  23.489  22.982  1.00  0.00    -0.269 OA
BRANCH  23  25
ATOM     25  C   UNL A   1      36.411  22.828  24.869  1.00  0.00     0.047 A 
ATOM     26  C   UNL A   1      36.839  21.530  24.603  1.00  0.00     0.016 A 
ATOM     27  C   UNL A   1      37.141  23.599  25.792  1.00  0.00     0.101 A 
ATOM     28  C   UNL A   1      38.055  21.074  25.158  1.00  0.00     0.028 A 
ATOM     29  C   UNL A   1      38.427  23.208  26.223  1.00  0.00     0.288 A 
ATOM     30  C   UNL A   1      38.884  21.924  25.920  1.00  0.00     0.118 A 
ATOM     31  Cl  UNL A   1      40.409  21.266  26.393  1.00  0.00    -0.077 Cl
BRANCH  29  32
ATOM     32  N   UNL A   1      39.263  24.249  26.851  1.00  0.00     0.064 N 
ATOM     33  O   UNL A   1      39.484  24.205  28.066  1.00  0.00    -0.258 OA
ATOM     34  O   UNL A   1      39.747  25.113  26.102  1.00  0.00    -0.258 OA
ENDBRANCH  29  32
ENDBRANCH  23  25
ENDBRANCH  19  23
ENDBRANCH   8  10
ENDBRANCH   7   8
ENDBRANCH   6   7
ENDBRANCH   5   6
ENDBRANCH   4   5
ENDBRANCH   3   4
ENDBRANCH   2   3
ENDBRANCH   1   2
BRANCH   1  35
ATOM     35  C   UNL A   1      34.002  32.072  27.957  1.00  0.00     0.188 C 
BRANCH  35  36
ATOM     36  C   UNL A   1      33.810  33.544  28.320  1.00  0.00     0.188 C 
BRANCH  36  37
ATOM     37  O   UNL A   1      34.743  34.112  29.245  1.00  0.00    -0.376 OA
BRANCH  37  38
ATOM     38  C   UNL A   1      34.234  34.682  30.449  1.00  0.00     0.202 C 
BRANCH  38  39
ATOM     39  C   UNL A   1      34.514  33.881  31.723  1.00  0.00     0.261 C 
BRANCH  39  40
ATOM     40  O   UNL A   1      35.130  32.610  31.463  1.00  0.00    -0.460 OA
BRANCH  40  41
ATOM     41  C   UNL A   1      36.019  32.207  32.401  1.00  0.00     0.338 C 
ATOM     42  O   UNL A   1      35.790  31.954  33.577  1.00  0.00    -0.246 OA
BRANCH  41  43
ATOM     43  C   UNL A   1      37.326  31.960  31.774  1.00  0.00     0.060 A 
ATOM     44  C   UNL A   1      38.405  31.609  32.596  1.00  0.00     0.016 A 
ATOM     45  C   UNL A   1      37.511  32.167  30.405  1.00  0.00     0.016 A 
ATOM     46  C   UNL A   1      39.684  31.508  32.061  1.00  0.00     0.010 A 
ATOM     47  C   UNL A   1      38.797  32.081  29.872  1.00  0.00     0.010 A 
ATOM     48  C   UNL A   1      39.892  31.791  30.707  1.00  0.00    -0.014 A 
BRANCH  48  49
ATOM     49  C   UNL A   1      41.272  31.960  30.201  1.00  0.00     0.031 A 
ATOM     50  C   UNL A   1      41.909  33.319  30.289  1.00  0.00     0.074 A 
ATOM     51  C   UNL A   1      41.944  30.918  29.682  1.00  0.00     0.049 A 
ATOM     52  N   UNL A   1      43.070  33.721  29.846  1.00  0.00    -0.248 NA
ATOM     53  C   UNL A   1      41.124  34.368  30.962  1.00  0.00     0.031 C 
ATOM     54  C   UNL A   1      41.433  29.552  29.584  1.00  0.00     0.029 A 
ATOM     55  N   UNL A   1      43.193  30.855  29.121  1.00  0.00    -0.354 N 
ATOM     56  C   UNL A   1      43.148  35.072  30.164  1.00  0.00     0.074 A 
ATOM     57  C   UNL A   1      41.907  35.426  30.816  1.00  0.00     0.031 C 
ATOM     58  C   UNL A   1      42.354  28.788  28.972  1.00  0.00     0.029 A 
ATOM     59  C   UNL A   1      43.498  29.620  28.605  1.00  0.00     0.049 A 
ATOM     60  H   UNL A   1      43.811  31.621  29.093  1.00  0.00     0.167 HD
ATOM     61  C   UNL A   1      44.165  35.934  29.930  1.00  0.00     0.037 A 
ATOM     62  C   UNL A   1      44.564  29.219  27.885  1.00  0.00     0.037 A 
ATOM     63  C   UNL A   1      45.396  35.561  29.282  1.00  0.00     0.049 A 
ATOM     64  C   UNL A   1      45.664  30.205  27.596  1.00  0.00     0.074 A 
ATOM     65  C   UNL A   1      46.509  36.344  29.033  1.00  0.00     0.029 A 
ATOM     66  N   UNL A   1      45.668  34.301  28.765  1.00  0.00    -0.354 N 
ATOM     67  N   UNL A   1      45.746  31.470  27.932  1.00  0.00    -0.248 NA
ATOM     68  C   UNL A   1      46.820  29.709  26.836  1.00  0.00     0.031 C 
ATOM     69  C   UNL A   1      47.426  35.577  28.307  1.00  0.00     0.029 A 
ATOM     70  C   UNL A   1      46.916  34.295  28.164  1.00  0.00     0.049 A 
ATOM     71  H   UNL A   1      45.064  33.526  28.818  1.00  0.00     0.167 HD
ATOM     72  C   UNL A   1      46.971  31.918  27.444  1.00  0.00     0.074 A 
ATOM     73  C   UNL A   1      47.600  30.781  26.802  1.00  0.00     0.031 C 
ATOM     74  C   UNL A   1      47.525  33.153  27.524  1.00  0.00     0.037 A 
BRANCH  61  75
ATOM     75  C   UNL A   1      43.970  37.372  30.333  1.00  0.00     0.058 A 
ATOM     76  C   UNL A   1      44.329  37.850  31.604  1.00  0.00     0.135 A 
ATOM     77  C   UNL A   1      43.423  38.290  29.421  1.00  0.00     0.135 A 
ATOM     78  F   UNL A   1      44.839  37.014  32.522  1.00  0.00    -0.206 F 
ATOM     79  C   UNL A   1      44.123  39.178  31.966  1.00  0.00     0.059 A 
ATOM     80  C   UNL A   1      43.239  39.630  29.751  1.00  0.00     0.059 A 
ATOM     81  F   UNL A   1      43.057  37.888  28.194  1.00  0.00    -0.206 F 
ATOM     82  C   UNL A   1      43.576  40.060  31.033  1.00  0.00     0.060 A 
BRANCH  82  83
ATOM     83  S   UNL A   1      43.307  41.777  31.520  1.00  0.00     0.124 S 
ATOM     84  O   UNL A   1      43.772  42.491  30.335  1.00  0.00    -0.237 OA
ATOM     85  O   UNL A   1      41.868  41.811  31.756  1.00  0.00    -0.237 OA
ATOM     86  O   UNL A   1      44.139  41.928  32.709  1.00  0.00    -0.744 OA
ENDBRANCH  82  83
ENDBRANCH  61  75
BRANCH  62  87
ATOM     87  C   UNL A   1      44.620  27.823  27.376  1.00  0.00     0.058 A 
ATOM     88  C   UNL A   1      44.068  27.475  26.136  1.00  0.00     0.135 A 
ATOM     89  C   UNL A   1      45.267  26.815  28.110  1.00  0.00     0.135 A 
ATOM     90  F   UNL A   1      43.431  28.400  25.402  1.00  0.00    -0.206 F 
ATOM     91  C   UNL A   1      44.152  26.177  25.640  1.00  0.00     0.059 A 
ATOM     92  C   UNL A   1      45.389  25.518  27.623  1.00  0.00     0.059 A 
ATOM     93  F   UNL A   1      45.824  27.098  29.298  1.00  0.00    -0.206 F 
ATOM     94  C   UNL A   1      44.824  25.208  26.388  1.00  0.00     0.060 A 
BRANCH  94  95
ATOM     95  S   UNL A   1      45.002  23.549  25.695  1.00  0.00     0.124 S 
ATOM     96  O   UNL A   1      43.995  22.808  26.445  1.00  0.00    -0.237 OA
ATOM     97  O   UNL A   1      44.710  23.778  24.283  1.00  0.00    -0.237 OA
ATOM     98  O   UNL A   1      46.390  23.209  25.993  1.00  0.00    -0.744 OA
ENDBRANCH  94  95
ENDBRANCH  62  87
BRANCH  74  99
ATOM     99  C   UNL A   1      48.895  33.340  26.928  1.00  0.00     0.058 A 
ATOM    100  C   UNL A   1      49.098  34.075  25.750  1.00  0.00     0.135 A 
ATOM    101  C   UNL A   1      50.028  32.824  27.580  1.00  0.00     0.135 A 
ATOM    102  F   UNL A   1      48.049  34.585  25.083  1.00  0.00    -0.206 F 
ATOM    103  C   UNL A   1      50.371  34.271  25.225  1.00  0.00     0.059 A 
ATOM    104  C   UNL A   1      51.313  33.036  27.092  1.00  0.00     0.059 A 
ATOM    105  F   UNL A   1      49.893  32.124  28.718  1.00  0.00    -0.206 F 
ATOM    106  C   UNL A   1      51.473  33.750  25.906  1.00  0.00     0.060 A 
BRANCH 106 107
ATOM    107  S   UNL A   1      53.122  34.040  25.230  1.00  0.00     0.124 S 
ATOM    108  O   UNL A   1      53.606  35.117  26.087  1.00  0.00    -0.237 OA
ATOM    109  O   UNL A   1      53.767  32.743  25.416  1.00  0.00    -0.237 OA
ATOM    110  O   UNL A   1      52.861  34.411  23.844  1.00  0.00    -0.744 OA
ENDBRANCH 106 107
ENDBRANCH  74  99
ENDBRANCH  48  49
ENDBRANCH  41  43
ENDBRANCH  40  41
ENDBRANCH  39  40
ENDBRANCH  38  39
ENDBRANCH  37  38
ENDBRANCH  36  37
ENDBRANCH  35  36
ENDBRANCH   1  35
TORSDOF 27
ENDMDL
MODEL 3
REMARK VINA RESULT:      -9.4      3.964      9.065
REMARK SMILES CC[NH+]1CCC2(CC1)OC[C@@H](C(=O)OCCOCCOCCOCCOC(=O)c1ccc(-c3c4nc(c(-c5c(F)cc(S(=O)(=O)[O-])cc5F)c5ccc([nH]5)c(-c5c(F)cc(S(=O)(=O)[O-])cc5F)c5nc(c(-c6c(F)cc(S(=O)(=O)[O-])cc6F)c6ccc3[nH]6)C=C5)C=C4)cc1)N2C(=O)c1ccc(Cl)c([N+](=O)[O-])c1
REMARK SMILES IDX 20 1 19 2 18 3 17 4 16 5 15 6 14 7 12 8 13 9 11 10 3 11 4 12
REMARK SMILES IDX 8 13 5 15 7 16 6 17 9 18 95 19 10 20 2 21 1 22 96 23 97 24
REMARK SMILES IDX 98 25 99 26 107 27 100 28 103 29 101 30 102 31 104 32 105 33
REMARK SMILES IDX 106 34 21 35 22 36 23 37 24 38 25 39 26 40 27 41 28 42 29 43
REMARK SMILES IDX 30 44 94 45 31 46 93 47 32 48 33 49 34 50 87 51 35 52 92 53
REMARK SMILES IDX 86 54 88 55 36 56 91 57 85 58 84 59 37 61 71 62 50 63 70 64
REMARK SMILES IDX 51 65 54 66 69 67 89 68 52 69 53 70 68 72 90 73 55 74 38 75
REMARK SMILES IDX 39 76 48 77 40 78 41 79 47 80 49 81 42 82 43 83 44 84 45 85
REMARK SMILES IDX 46 86 72 87 73 88 82 89 74 90 75 91 81 92 83 93 76 94 77 95
REMARK SMILES IDX 78 96 79 97 80 98 56 99 57 100 66 101 58 102 59 103 65 104
REMARK SMILES IDX 67 105 60 106 61 107 62 108 63 109 64 110
REMARK H PARENT 3 14 88 60 54 71
REMARK Flexibility Score: inf
ROOT
ATOM      1  O   UNL A   1      34.689  29.964  27.958  1.00  0.00    -0.377 OA
ENDROOT
BRANCH   1   2
ATOM      2  C   UNL A   1      34.040  29.580  26.758  1.00  0.00     0.188 C 
BRANCH   2   3
ATOM      3  C   UNL A   1      32.532  29.834  26.819  1.00  0.00     0.188 C 
BRANCH   3   4
ATOM      4  O   UNL A   1      31.932  30.502  25.717  1.00  0.00    -0.376 OA
BRANCH   4   5
ATOM      5  C   UNL A   1      31.170  29.753  24.770  1.00  0.00     0.202 C 
BRANCH   5   6
ATOM      6  C   UNL A   1      31.855  28.652  23.930  1.00  0.00     0.261 C 
BRANCH   6   7
ATOM      7  O   UNL A   1      31.784  27.303  24.471  1.00  0.00    -0.462 OA
BRANCH   7   8
ATOM      8  C   UNL A   1      32.918  26.583  24.340  1.00  0.00     0.331 C 
ATOM      9  O   UNL A   1      34.025  27.108  24.177  1.00  0.00    -0.250 OA
BRANCH   8  10
ATOM     10  C   UNL A   1      32.831  25.042  24.344  1.00  0.00     0.224 C 
ATOM     11  N   UNL A   1      33.406  19.952  24.988  1.00  0.00    -0.335 N 
ATOM     12  C   UNL A   1      33.033  20.695  23.797  1.00  0.00     0.267 C 
ATOM     13  C   UNL A   1      33.712  20.697  26.203  1.00  0.00     0.267 C 
ATOM     14  H   UNL A   1      34.335  19.643  24.703  1.00  0.00     0.348 HD
ATOM     15  C   UNL A   1      32.196  21.932  24.026  1.00  0.00     0.120 C 
ATOM     16  C   UNL A   1      32.942  21.981  26.435  1.00  0.00     0.120 C 
ATOM     17  C   UNL A   1      32.674  22.822  25.192  1.00  0.00     0.155 C 
ATOM     18  O   UNL A   1      31.460  23.528  25.561  1.00  0.00    -0.352 OA
ATOM     19  N   UNL A   1      33.642  23.893  24.817  1.00  0.00    -0.293 N 
ATOM     20  C   UNL A   1      31.538  24.869  25.126  1.00  0.00     0.200 C 
BRANCH  11  21
ATOM     21  C   UNL A   1      32.626  18.743  25.228  1.00  0.00     0.258 C 
ATOM     22  C   UNL A   1      33.510  17.541  24.918  1.00  0.00     0.071 C 
ENDBRANCH  11  21
BRANCH  19  23
ATOM     23  C   UNL A   1      34.805  23.576  24.088  1.00  0.00     0.257 C 
ATOM     24  O   UNL A   1      34.835  23.647  22.860  1.00  0.00    -0.269 OA
BRANCH  23  25
ATOM     25  C   UNL A   1      36.007  22.954  24.730  1.00  0.00     0.047 A 
ATOM     26  C   UNL A   1      36.505  21.691  24.420  1.00  0.00     0.016 A 
ATOM     27  C   UNL A   1      36.689  23.728  25.687  1.00  0.00     0.101 A 
ATOM     28  C   UNL A   1      37.740  21.280  24.968  1.00  0.00     0.028 A 
ATOM     29  C   UNL A   1      37.991  23.390  26.114  1.00  0.00     0.288 A 
ATOM     30  C   UNL A   1      38.518  22.144  25.768  1.00  0.00     0.118 A 
ATOM     31  Cl  UNL A   1      40.072  21.550  26.229  1.00  0.00    -0.077 Cl
BRANCH  29  32
ATOM     32  N   UNL A   1      38.767  24.449  26.787  1.00  0.00     0.064 N 
ATOM     33  O   UNL A   1      38.502  24.753  27.955  1.00  0.00    -0.258 OA
ATOM     34  O   UNL A   1      39.695  24.965  26.143  1.00  0.00    -0.258 OA
ENDBRANCH  29  32
ENDBRANCH  23  25
ENDBRANCH  19  23
ENDBRANCH   8  10
ENDBRANCH   7   8
ENDBRANCH   6   7
ENDBRANCH   5   6
ENDBRANCH   4   5
ENDBRANCH   3   4
ENDBRANCH   2   3
ENDBRANCH   1   2
BRANCH   1  35
ATOM     35  C   UNL A   1      35.331  31.228  28.068  1.00  0.00     0.188 C 
BRANCH  35  36
ATOM     36  C   UNL A   1      34.448  32.475  28.046  1.00  0.00     0.188 C 
BRANCH  36  37
ATOM     37  O   UNL A   1      35.111  33.740  27.953  1.00  0.00    -0.376 OA
BRANCH  37  38
ATOM     38  C   UNL A   1      34.351  34.867  27.523  1.00  0.00     0.202 C 
BRANCH  38  39
ATOM     39  C   UNL A   1      33.873  35.801  28.638  1.00  0.00     0.261 C 
BRANCH  39  40
ATOM     40  O   UNL A   1      32.887  35.198  29.491  1.00  0.00    -0.460 OA
BRANCH  40  41
ATOM     41  C   UNL A   1      32.821  35.718  30.739  1.00  0.00     0.338 C 
ATOM     42  O   UNL A   1      31.945  36.445  31.192  1.00  0.00    -0.246 OA
BRANCH  41  43
ATOM     43  C   UNL A   1      33.902  35.164  31.567  1.00  0.00     0.060 A 
ATOM     44  C   UNL A   1      34.467  35.977  32.558  1.00  0.00     0.016 A 
ATOM     45  C   UNL A   1      34.420  33.894  31.307  1.00  0.00     0.016 A 
ATOM     46  C   UNL A   1      35.584  35.542  33.263  1.00  0.00     0.010 A 
ATOM     47  C   UNL A   1      35.550  33.464  32.004  1.00  0.00     0.010 A 
ATOM     48  C   UNL A   1      36.158  34.304  32.954  1.00  0.00    -0.014 A 
BRANCH  48  49
ATOM     49  C   UNL A   1      37.492  33.965  33.495  1.00  0.00     0.031 A 
ATOM     50  C   UNL A   1      37.635  33.749  34.975  1.00  0.00     0.074 A 
ATOM     51  C   UNL A   1      38.551  33.843  32.677  1.00  0.00     0.049 A 
ATOM     52  N   UNL A   1      38.710  33.518  35.680  1.00  0.00    -0.248 NA
ATOM     53  C   UNL A   1      36.396  33.810  35.769  1.00  0.00     0.031 C 
ATOM     54  C   UNL A   1      38.514  33.994  31.224  1.00  0.00     0.029 A 
ATOM     55  N   UNL A   1      39.868  33.585  32.958  1.00  0.00    -0.354 N 
ATOM     56  C   UNL A   1      38.285  33.430  37.001  1.00  0.00     0.074 A 
ATOM     57  C   UNL A   1      36.857  33.655  37.001  1.00  0.00     0.031 C 
ATOM     58  C   UNL A   1      39.761  33.852  30.741  1.00  0.00     0.029 A 
ATOM     59  C   UNL A   1      40.683  33.637  31.854  1.00  0.00     0.049 A 
ATOM     60  H   UNL A   1      40.196  33.381  33.864  1.00  0.00     0.167 HD
ATOM     61  C   UNL A   1      39.023  33.183  38.108  1.00  0.00     0.037 A 
ATOM     62  C   UNL A   1      42.025  33.558  31.761  1.00  0.00     0.037 A 
ATOM     63  C   UNL A   1      40.445  32.957  38.086  1.00  0.00     0.049 A 
ATOM     64  C   UNL A   1      42.833  33.329  33.010  1.00  0.00     0.074 A 
ATOM     65  C   UNL A   1      41.285  32.656  39.144  1.00  0.00     0.029 A 
ATOM     66  N   UNL A   1      41.241  33.024  36.950  1.00  0.00    -0.354 N 
ATOM     67  N   UNL A   1      42.419  33.210  34.249  1.00  0.00    -0.248 NA
ATOM     68  C   UNL A   1      44.289  33.217  32.850  1.00  0.00     0.031 C 
ATOM     69  C   UNL A   1      42.596  32.609  38.658  1.00  0.00     0.029 A 
ATOM     70  C   UNL A   1      42.566  32.809  37.286  1.00  0.00     0.049 A 
ATOM     71  H   UNL A   1      40.910  33.200  36.039  1.00  0.00     0.167 HD
ATOM     72  C   UNL A   1      43.560  32.987  35.015  1.00  0.00     0.074 A 
ATOM     73  C   UNL A   1      44.678  32.974  34.094  1.00  0.00     0.031 C 
ATOM     74  C   UNL A   1      43.670  32.805  36.355  1.00  0.00     0.037 A 
BRANCH  61  75
ATOM     75  C   UNL A   1      38.315  33.193  39.437  1.00  0.00     0.058 A 
ATOM     76  C   UNL A   1      38.402  34.277  40.325  1.00  0.00     0.135 A 
ATOM     77  C   UNL A   1      37.522  32.098  39.820  1.00  0.00     0.135 A 
ATOM     78  F   UNL A   1      39.159  35.342  40.020  1.00  0.00    -0.206 F 
ATOM     79  C   UNL A   1      37.756  34.261  41.558  1.00  0.00     0.059 A 
ATOM     80  C   UNL A   1      36.841  32.074  41.034  1.00  0.00     0.059 A 
ATOM     81  F   UNL A   1      37.405  31.032  39.012  1.00  0.00    -0.206 F 
ATOM     82  C   UNL A   1      36.980  33.154  41.904  1.00  0.00     0.060 A 
BRANCH  82  83
ATOM     83  S   UNL A   1      36.155  33.144  43.510  1.00  0.00     0.124 S 
ATOM     84  O   UNL A   1      35.041  32.235  43.259  1.00  0.00    -0.237 OA
ATOM     85  O   UNL A   1      37.200  32.636  44.392  1.00  0.00    -0.237 OA
ATOM     86  O   UNL A   1      35.791  34.542  43.715  1.00  0.00    -0.744 OA
ENDBRANCH  82  83
ENDBRANCH  61  75
BRANCH  62  87
ATOM     87  C   UNL A   1      42.677  33.719  30.434  1.00  0.00     0.058 A 
ATOM     88  C   UNL A   1      43.043  34.981  29.949  1.00  0.00     0.135 A 
ATOM     89  C   UNL A   1      42.982  32.600  29.642  1.00  0.00     0.135 A 
ATOM     90  F   UNL A   1      42.763  36.082  30.664  1.00  0.00    -0.206 F 
ATOM     91  C   UNL A   1      43.687  35.132  28.725  1.00  0.00     0.059 A 
ATOM     92  C   UNL A   1      43.651  32.722  28.429  1.00  0.00     0.059 A 
ATOM     93  F   UNL A   1      42.665  31.367  30.067  1.00  0.00    -0.206 F 
ATOM     94  C   UNL A   1      43.996  33.994  27.977  1.00  0.00     0.060 A 
BRANCH  94  95
ATOM     95  S   UNL A   1      44.909  34.195  26.431  1.00  0.00     0.124 S 
ATOM     96  O   UNL A   1      43.833  34.162  25.448  1.00  0.00    -0.237 OA
ATOM     97  O   UNL A   1      45.557  35.488  26.628  1.00  0.00    -0.237 OA
ATOM     98  O   UNL A   1      45.809  33.046  26.423  1.00  0.00    -0.744 OA
ENDBRANCH  94  95
ENDBRANCH  62  87
BRANCH  74  99
ATOM     99  C   UNL A   1      45.046  32.547  36.910  1.00  0.00     0.058 A 
ATOM    100  C   UNL A   1      45.598  31.258  36.952  1.00  0.00     0.135 A 
ATOM    101  C   UNL A   1      45.845  33.616  37.350  1.00  0.00     0.135 A 
ATOM    102  F   UNL A   1      44.876  30.199  36.549  1.00  0.00    -0.206 F 
ATOM    103  C   UNL A   1      46.884  31.033  37.435  1.00  0.00     0.059 A 
ATOM    104  C   UNL A   1      47.145  33.419  37.805  1.00  0.00     0.059 A 
ATOM    105  F   UNL A   1      45.371  34.872  37.319  1.00  0.00    -0.206 F 
ATOM    106  C   UNL A   1      47.650  32.121  37.856  1.00  0.00     0.060 A 
BRANCH 106 107
ATOM    107  S   UNL A   1      49.328  31.818  38.450  1.00  0.00     0.124 S 
ATOM    108  O   UNL A   1      49.073  31.160  39.728  1.00  0.00    -0.237 OA
ATOM    109  O   UNL A   1      49.882  30.971  37.399  1.00  0.00    -0.237 OA
ATOM    110  O   UNL A   1      49.904  33.156  38.538  1.00  0.00    -0.744 OA
ENDBRANCH 106 107
ENDBRANCH  74  99
ENDBRANCH  48  49
ENDBRANCH  41  43
ENDBRANCH  40  41
ENDBRANCH  39  40
ENDBRANCH  38  39
ENDBRANCH  37  38
ENDBRANCH  36  37
ENDBRANCH  35  36
ENDBRANCH   1  35
TORSDOF 27
ENDMDL
