MODEL 1
REMARK VINA RESULT:     -10.1      0.000      0.000
REMARK SMILES NC(=O)c1ccc(NC(=O)Cc2ccccc2C(=O)OCCOCCOCCOCCOC(=O)c2ccc(-c3c4nc(c(-c5c(F)cc(S(=O)(=O)[O-])cc5F)c5ccc([nH]5)c(-c5c(F)cc(S(=O)(=O)[O-])cc5F)c5nc(c(-c6c(F)cc(S(=O)(=O)[O-])cc6F)c6ccc3[nH]6)C=C5)C=C4)cc2)cc1
REMARK SMILES IDX 25 1 24 2 23 3 22 4 21 5 20 6 18 7 19 8 17 9 12 10 13 11
REMARK SMILES IDX 14 12 16 13 15 14 11 15 9 16 8 17 10 19 7 20 4 21 5 22
REMARK SMILES IDX 102 23 6 24 101 25 2 26 1 27 3 30 26 31 27 32 28 33 29 34
REMARK SMILES IDX 30 35 31 36 32 37 33 38 34 39 35 40 36 41 100 42 37 43 99 44
REMARK SMILES IDX 38 45 39 46 40 47 93 48 41 49 98 50 92 51 94 52 42 53 97 54
REMARK SMILES IDX 91 55 90 56 43 58 77 59 56 60 76 61 57 62 60 63 75 64 95 65
REMARK SMILES IDX 58 66 59 67 74 69 96 70 61 71 44 72 45 73 54 74 46 75 47 76
REMARK SMILES IDX 53 77 55 78 48 79 49 80 50 81 51 82 52 83 78 84 79 85 88 86
REMARK SMILES IDX 80 87 81 88 87 89 89 90 82 91 83 92 84 93 85 94 86 95 62 96
REMARK SMILES IDX 63 97 72 98 64 99 65 100 71 101 73 102 66 103 67 104 68 105
REMARK SMILES IDX 69 106 70 107
REMARK H PARENT 8 18 1 28 1 29 94 57 60 68
REMARK Flexibility Score: inf
ROOT
ATOM      1  C   UNL A   1      34.253  20.057  25.103  1.00  0.00     0.188 C 
ENDROOT
BRANCH   1   2
ATOM      2  C   UNL A   1      32.866  19.380  25.089  1.00  0.00     0.188 C 
BRANCH   2   3
ATOM      3  O   UNL A   1      31.949  19.945  24.167  1.00  0.00    -0.376 OA
BRANCH   3   4
ATOM      4  C   UNL A   1      32.388  20.216  22.852  1.00  0.00     0.202 C 
BRANCH   4   5
ATOM      5  C   UNL A   1      31.911  21.478  22.136  1.00  0.00     0.261 C 
BRANCH   5   6
ATOM      6  O   UNL A   1      31.414  22.576  22.919  1.00  0.00    -0.460 OA
BRANCH   6   7
ATOM      7  C   UNL A   1      32.167  23.655  23.188  1.00  0.00     0.338 C 
ATOM      8  O   UNL A   1      32.229  24.664  22.506  1.00  0.00    -0.246 OA
BRANCH   7   9
ATOM      9  C   UNL A   1      32.826  23.496  24.521  1.00  0.00     0.063 A 
ATOM     10  C   UNL A   1      32.196  23.075  25.716  1.00  0.00    -0.024 A 
ATOM     11  C   UNL A   1      32.977  23.035  26.895  1.00  0.00     0.005 A 
ATOM     12  C   UNL A   1      34.328  23.388  26.897  1.00  0.00     0.000 A 
ATOM     13  C   UNL A   1      34.195  23.841  24.539  1.00  0.00     0.016 A 
ATOM     14  C   UNL A   1      34.938  23.792  25.718  1.00  0.00     0.001 A 
BRANCH  10  15
ATOM     15  C   UNL A   1      30.732  22.687  25.859  1.00  0.00     0.136 C 
BRANCH  15  16
ATOM     16  C   UNL A   1      29.948  23.517  26.865  1.00  0.00     0.228 C 
ATOM     17  N   UNL A   1      29.612  24.829  26.664  1.00  0.00    -0.326 N 
ATOM     18  H   UNL A   1      29.067  25.219  27.386  1.00  0.00     0.169 HD
ATOM     19  O   UNL A   1      29.511  22.976  27.890  1.00  0.00    -0.274 OA
BRANCH  17  20
ATOM     20  C   UNL A   1      29.896  25.723  25.622  1.00  0.00     0.041 A 
ATOM     21  C   UNL A   1      30.325  27.862  23.874  1.00  0.00     0.039 A 
ATOM     22  C   UNL A   1      29.298  26.960  23.630  1.00  0.00     0.016 A 
ATOM     23  C   UNL A   1      31.249  27.599  24.879  1.00  0.00     0.016 A 
ATOM     24  C   UNL A   1      29.088  25.887  24.508  1.00  0.00     0.027 A 
ATOM     25  C   UNL A   1      31.052  26.504  25.729  1.00  0.00     0.027 A 
BRANCH  21  26
ATOM     26  C   UNL A   1      30.334  29.152  23.160  1.00  0.00     0.248 C 
ATOM     27  N   UNL A   1      30.230  30.268  23.934  1.00  0.00    -0.366 N 
ATOM     28  H   UNL A   1      30.231  31.159  23.515  1.00  0.00     0.159 HD
ATOM     29  H   UNL A   1      30.155  30.183  24.911  1.00  0.00     0.159 HD
ATOM     30  O   UNL A   1      30.435  29.205  21.942  1.00  0.00    -0.270 OA
ENDBRANCH  21  26
ENDBRANCH  17  20
ENDBRANCH  15  16
ENDBRANCH  10  15
ENDBRANCH   7   9
ENDBRANCH   6   7
ENDBRANCH   5   6
ENDBRANCH   4   5
ENDBRANCH   3   4
ENDBRANCH   2   3
ENDBRANCH   1   2
BRANCH   1  31
ATOM     31  O   UNL A   1      35.344  19.284  24.631  1.00  0.00    -0.377 OA
BRANCH  31  32
ATOM     32  C   UNL A   1      36.685  19.651  24.951  1.00  0.00     0.188 C 
BRANCH  32  33
ATOM     33  C   UNL A   1      37.149  21.122  25.038  1.00  0.00     0.188 C 
BRANCH  33  34
ATOM     34  O   UNL A   1      38.550  21.312  25.003  1.00  0.00    -0.376 OA
BRANCH  34  35
ATOM     35  C   UNL A   1      39.341  20.951  26.116  1.00  0.00     0.202 C 
BRANCH  35  36
ATOM     36  C   UNL A   1      40.050  19.590  26.117  1.00  0.00     0.261 C 
BRANCH  36  37
ATOM     37  O   UNL A   1      41.273  19.497  25.379  1.00  0.00    -0.460 OA
BRANCH  37  38
ATOM     38  C   UNL A   1      42.429  19.546  26.072  1.00  0.00     0.338 C 
ATOM     39  O   UNL A   1      43.217  18.630  26.253  1.00  0.00    -0.246 OA
BRANCH  38  40
ATOM     40  C   UNL A   1      42.684  20.964  26.400  1.00  0.00     0.060 A 
ATOM     41  C   UNL A   1      42.788  21.901  25.363  1.00  0.00     0.016 A 
ATOM     42  C   UNL A   1      42.792  21.365  27.733  1.00  0.00     0.016 A 
ATOM     43  C   UNL A   1      43.045  23.239  25.656  1.00  0.00     0.010 A 
ATOM     44  C   UNL A   1      43.080  22.698  28.025  1.00  0.00     0.010 A 
ATOM     45  C   UNL A   1      43.249  23.629  26.985  1.00  0.00    -0.014 A 
BRANCH  45  46
ATOM     46  C   UNL A   1      43.889  24.934  27.268  1.00  0.00     0.031 A 
ATOM     47  C   UNL A   1      43.006  26.056  27.740  1.00  0.00     0.074 A 
ATOM     48  C   UNL A   1      45.214  25.115  27.129  1.00  0.00     0.049 A 
ATOM     49  N   UNL A   1      43.306  27.302  27.989  1.00  0.00    -0.248 NA
ATOM     50  C   UNL A   1      41.587  25.723  27.954  1.00  0.00     0.031 C 
ATOM     51  C   UNL A   1      46.170  24.086  26.726  1.00  0.00     0.029 A 
ATOM     52  N   UNL A   1      45.977  26.241  27.300  1.00  0.00    -0.354 N 
ATOM     53  C   UNL A   1      42.114  27.905  28.376  1.00  0.00     0.074 A 
ATOM     54  C   UNL A   1      41.081  26.896  28.299  1.00  0.00     0.031 C 
ATOM     55  C   UNL A   1      47.396  24.635  26.663  1.00  0.00     0.029 A 
ATOM     56  C   UNL A   1      47.303  26.059  26.984  1.00  0.00     0.049 A 
ATOM     57  H   UNL A   1      45.612  27.097  27.619  1.00  0.00     0.167 HD
ATOM     58  C   UNL A   1      41.903  29.183  28.764  1.00  0.00     0.037 A 
ATOM     59  C   UNL A   1      48.313  26.950  26.933  1.00  0.00     0.037 A 
ATOM     60  C   UNL A   1      42.939  30.180  28.828  1.00  0.00     0.049 A 
ATOM     61  C   UNL A   1      48.041  28.389  27.297  1.00  0.00     0.074 A 
ATOM     62  C   UNL A   1      42.839  31.501  29.222  1.00  0.00     0.029 A 
ATOM     63  N   UNL A   1      44.264  29.966  28.475  1.00  0.00    -0.354 N 
ATOM     64  N   UNL A   1      46.916  28.946  27.682  1.00  0.00    -0.248 NA
ATOM     65  C   UNL A   1      49.176  29.320  27.224  1.00  0.00     0.031 C 
ATOM     66  C   UNL A   1      44.088  32.103  29.048  1.00  0.00     0.029 A 
ATOM     67  C   UNL A   1      44.986  31.140  28.612  1.00  0.00     0.049 A 
ATOM     68  H   UNL A   1      44.637  29.107  28.171  1.00  0.00     0.167 HD
ATOM     69  C   UNL A   1      47.214  30.284  27.926  1.00  0.00     0.074 A 
ATOM     70  C   UNL A   1      48.628  30.449  27.653  1.00  0.00     0.031 C 
ATOM     71  C   UNL A   1      46.396  31.284  28.341  1.00  0.00     0.037 A 
BRANCH  58  72
ATOM     72  C   UNL A   1      40.493  29.582  29.106  1.00  0.00     0.058 A 
ATOM     73  C   UNL A   1      40.086  29.824  30.428  1.00  0.00     0.135 A 
ATOM     74  C   UNL A   1      39.534  29.732  28.089  1.00  0.00     0.135 A 
ATOM     75  F   UNL A   1      40.952  29.673  31.442  1.00  0.00    -0.206 F 
ATOM     76  C   UNL A   1      38.773  30.170  30.732  1.00  0.00     0.059 A 
ATOM     77  C   UNL A   1      38.225  30.109  28.368  1.00  0.00     0.059 A 
ATOM     78  F   UNL A   1      39.866  29.506  26.808  1.00  0.00    -0.206 F 
ATOM     79  C   UNL A   1      37.850  30.311  29.695  1.00  0.00     0.060 A 
BRANCH  79  80
ATOM     80  S   UNL A   1      36.151  30.759  30.107  1.00  0.00     0.124 S 
ATOM     81  O   UNL A   1      35.427  30.255  28.944  1.00  0.00    -0.237 OA
ATOM     82  O   UNL A   1      35.931  30.032  31.353  1.00  0.00    -0.237 OA
ATOM     83  O   UNL A   1      36.202  32.212  30.232  1.00  0.00    -0.744 OA
ENDBRANCH  79  80
ENDBRANCH  58  72
BRANCH  59  84
ATOM     84  C   UNL A   1      49.670  26.511  26.510  1.00  0.00     0.058 A 
ATOM     85  C   UNL A   1      50.548  25.890  27.411  1.00  0.00     0.135 A 
ATOM     86  C   UNL A   1      50.113  26.692  25.190  1.00  0.00     0.135 A 
ATOM     87  F   UNL A   1      50.177  25.707  28.688  1.00  0.00    -0.206 F 
ATOM     88  C   UNL A   1      51.815  25.469  27.023  1.00  0.00     0.059 A 
ATOM     89  C   UNL A   1      51.366  26.253  24.770  1.00  0.00     0.059 A 
ATOM     90  F   UNL A   1      49.311  27.275  24.285  1.00  0.00    -0.206 F 
ATOM     91  C   UNL A   1      52.212  25.647  25.697  1.00  0.00     0.060 A 
BRANCH  91  92
ATOM     92  S   UNL A   1      53.832  25.031  25.190  1.00  0.00     0.124 S 
ATOM     93  O   UNL A   1      53.912  25.507  23.813  1.00  0.00    -0.237 OA
ATOM     94  O   UNL A   1      54.719  25.688  26.145  1.00  0.00    -0.237 OA
ATOM     95  O   UNL A   1      53.709  23.586  25.353  1.00  0.00    -0.744 OA
ENDBRANCH  91  92
ENDBRANCH  59  84
BRANCH  71  96
ATOM     96  C   UNL A   1      47.010  32.640  28.571  1.00  0.00     0.058 A 
ATOM     97  C   UNL A   1      47.571  33.003  29.805  1.00  0.00     0.135 A 
ATOM     98  C   UNL A   1      47.093  33.567  27.517  1.00  0.00     0.135 A 
ATOM     99  F   UNL A   1      47.517  32.158  30.847  1.00  0.00    -0.206 F 
ATOM    100  C   UNL A   1      48.170  34.245  29.994  1.00  0.00     0.059 A 
ATOM    101  C   UNL A   1      47.716  34.800  27.674  1.00  0.00     0.059 A 
ATOM    102  F   UNL A   1      46.584  33.267  26.311  1.00  0.00    -0.206 F 
ATOM    103  C   UNL A   1      48.241  35.135  28.921  1.00  0.00     0.060 A 
BRANCH 103 104
ATOM    104  S   UNL A   1      49.050  36.730  29.171  1.00  0.00     0.124 S 
ATOM    105  O   UNL A   1      49.870  36.462  30.349  1.00  0.00    -0.237 OA
ATOM    106  O   UNL A   1      49.778  36.909  27.919  1.00  0.00    -0.237 OA
ATOM    107  O   UNL A   1      47.935  37.649  29.379  1.00  0.00    -0.744 OA
ENDBRANCH 103 104
ENDBRANCH  71  96
ENDBRANCH  45  46
ENDBRANCH  38  40
ENDBRANCH  37  38
ENDBRANCH  36  37
ENDBRANCH  35  36
ENDBRANCH  34  35
ENDBRANCH  33  34
ENDBRANCH  32  33
ENDBRANCH  31  32
ENDBRANCH   1  31
TORSDOF 27
ENDMDL
MODEL 2
REMARK VINA RESULT:     -10.0      1.329      8.282
REMARK SMILES NC(=O)c1ccc(NC(=O)Cc2ccccc2C(=O)OCCOCCOCCOCCOC(=O)c2ccc(-c3c4nc(c(-c5c(F)cc(S(=O)(=O)[O-])cc5F)c5ccc([nH]5)c(-c5c(F)cc(S(=O)(=O)[O-])cc5F)c5nc(c(-c6c(F)cc(S(=O)(=O)[O-])cc6F)c6ccc3[nH]6)C=C5)C=C4)cc2)cc1
REMARK SMILES IDX 25 1 24 2 23 3 22 4 21 5 20 6 18 7 19 8 17 9 12 10 13 11
REMARK SMILES IDX 14 12 16 13 15 14 11 15 9 16 8 17 10 19 7 20 4 21 5 22
REMARK SMILES IDX 102 23 6 24 101 25 2 26 1 27 3 30 26 31 27 32 28 33 29 34
REMARK SMILES IDX 30 35 31 36 32 37 33 38 34 39 35 40 36 41 100 42 37 43 99 44
REMARK SMILES IDX 38 45 39 46 40 47 93 48 41 49 98 50 92 51 94 52 42 53 97 54
REMARK SMILES IDX 91 55 90 56 43 58 77 59 56 60 76 61 57 62 60 63 75 64 95 65
REMARK SMILES IDX 58 66 59 67 74 69 96 70 61 71 44 72 45 73 54 74 46 75 47 76
REMARK SMILES IDX 53 77 55 78 48 79 49 80 50 81 51 82 52 83 78 84 79 85 88 86
REMARK SMILES IDX 80 87 81 88 87 89 89 90 82 91 83 92 84 93 85 94 86 95 62 96
REMARK SMILES IDX 63 97 72 98 64 99 65 100 71 101 73 102 66 103 67 104 68 105
REMARK SMILES IDX 69 106 70 107
REMARK H PARENT 8 18 1 28 1 29 94 57 60 68
REMARK Flexibility Score: inf
ROOT
ATOM      1  C   UNL A   1      34.273  20.642  25.561  1.00  0.00     0.188 C 
ENDROOT
BRANCH   1   2
ATOM      2  C   UNL A   1      32.858  20.313  25.041  1.00  0.00     0.188 C 
BRANCH   2   3
ATOM      3  O   UNL A   1      31.814  21.000  25.710  1.00  0.00    -0.376 OA
BRANCH   3   4
ATOM      4  C   UNL A   1      31.525  22.329  25.331  1.00  0.00     0.202 C 
BRANCH   4   5
ATOM      5  C   UNL A   1      31.385  23.412  26.399  1.00  0.00     0.261 C 
BRANCH   5   6
ATOM      6  O   UNL A   1      31.788  24.755  26.086  1.00  0.00    -0.460 OA
BRANCH   6   7
ATOM      7  C   UNL A   1      30.925  25.783  26.120  1.00  0.00     0.338 C 
ATOM      8  O   UNL A   1      29.750  25.710  26.440  1.00  0.00    -0.246 OA
BRANCH   7   9
ATOM      9  C   UNL A   1      31.644  27.062  25.834  1.00  0.00     0.063 A 
ATOM     10  C   UNL A   1      31.182  28.109  25.002  1.00  0.00    -0.024 A 
ATOM     11  C   UNL A   1      32.030  29.224  24.812  1.00  0.00     0.005 A 
ATOM     12  C   UNL A   1      33.283  29.311  25.423  1.00  0.00     0.000 A 
ATOM     13  C   UNL A   1      32.909  27.169  26.451  1.00  0.00     0.016 A 
ATOM     14  C   UNL A   1      33.724  28.282  26.243  1.00  0.00     0.001 A 
BRANCH  10  15
ATOM     15  C   UNL A   1      29.854  28.132  24.261  1.00  0.00     0.136 C 
BRANCH  15  16
ATOM     16  C   UNL A   1      29.949  28.536  22.796  1.00  0.00     0.228 C 
ATOM     17  N   UNL A   1      30.825  27.965  21.911  1.00  0.00    -0.326 N 
ATOM     18  H   UNL A   1      30.738  28.302  20.989  1.00  0.00     0.169 HD
ATOM     19  O   UNL A   1      29.149  29.363  22.341  1.00  0.00    -0.274 OA
BRANCH  17  20
ATOM     20  C   UNL A   1      31.820  26.990  22.069  1.00  0.00     0.041 A 
ATOM     21  C   UNL A   1      33.649  25.033  22.865  1.00  0.00     0.039 A 
ATOM     22  C   UNL A   1      34.097  26.296  22.499  1.00  0.00     0.016 A 
ATOM     23  C   UNL A   1      32.319  24.687  22.661  1.00  0.00     0.016 A 
ATOM     24  C   UNL A   1      33.176  27.274  22.098  1.00  0.00     0.027 A 
ATOM     25  C   UNL A   1      31.412  25.661  22.224  1.00  0.00     0.027 A 
BRANCH  21  26
ATOM     26  C   UNL A   1      34.560  24.132  23.595  1.00  0.00     0.248 C 
ATOM     27  N   UNL A   1      34.581  24.268  24.951  1.00  0.00    -0.366 N 
ATOM     28  H   UNL A   1      35.168  23.695  25.494  1.00  0.00     0.159 HD
ATOM     29  H   UNL A   1      34.009  24.940  25.386  1.00  0.00     0.159 HD
ATOM     30  O   UNL A   1      35.248  23.309  23.008  1.00  0.00    -0.270 OA
ENDBRANCH  21  26
ENDBRANCH  17  20
ENDBRANCH  15  16
ENDBRANCH  10  15
ENDBRANCH   7   9
ENDBRANCH   6   7
ENDBRANCH   5   6
ENDBRANCH   4   5
ENDBRANCH   3   4
ENDBRANCH   2   3
ENDBRANCH   1   2
BRANCH   1  31
ATOM     31  O   UNL A   1      35.325  20.612  24.610  1.00  0.00    -0.377 OA
BRANCH  31  32
ATOM     32  C   UNL A   1      36.686  20.678  25.031  1.00  0.00     0.188 C 
BRANCH  32  33
ATOM     33  C   UNL A   1      37.387  22.010  25.381  1.00  0.00     0.188 C 
BRANCH  33  34
ATOM     34  O   UNL A   1      38.798  21.944  25.447  1.00  0.00    -0.376 OA
BRANCH  34  35
ATOM     35  C   UNL A   1      39.425  21.051  26.344  1.00  0.00     0.202 C 
BRANCH  35  36
ATOM     36  C   UNL A   1      39.929  19.700  25.819  1.00  0.00     0.261 C 
BRANCH  36  37
ATOM     37  O   UNL A   1      41.309  19.626  25.445  1.00  0.00    -0.460 OA
BRANCH  37  38
ATOM     38  C   UNL A   1      42.218  19.461  26.428  1.00  0.00     0.338 C 
ATOM     39  O   UNL A   1      42.562  18.407  26.943  1.00  0.00    -0.246 OA
BRANCH  38  40
ATOM     40  C   UNL A   1      42.883  20.764  26.633  1.00  0.00     0.060 A 
ATOM     41  C   UNL A   1      42.882  21.343  27.910  1.00  0.00     0.016 A 
ATOM     42  C   UNL A   1      43.530  21.394  25.567  1.00  0.00     0.016 A 
ATOM     43  C   UNL A   1      43.492  22.579  28.115  1.00  0.00     0.010 A 
ATOM     44  C   UNL A   1      44.112  22.646  25.766  1.00  0.00     0.010 A 
ATOM     45  C   UNL A   1      44.057  23.260  27.030  1.00  0.00    -0.014 A 
BRANCH  45  46
ATOM     46  C   UNL A   1      44.353  24.705  27.155  1.00  0.00     0.031 A 
ATOM     47  C   UNL A   1      45.771  25.149  26.923  1.00  0.00     0.074 A 
ATOM     48  C   UNL A   1      43.393  25.599  27.448  1.00  0.00     0.049 A 
ATOM     49  N   UNL A   1      46.300  26.338  27.036  1.00  0.00    -0.248 NA
ATOM     50  C   UNL A   1      46.723  24.102  26.510  1.00  0.00     0.031 C 
ATOM     51  C   UNL A   1      41.979  25.288  27.644  1.00  0.00     0.029 A 
ATOM     52  N   UNL A   1      43.474  26.954  27.643  1.00  0.00    -0.354 N 
ATOM     53  C   UNL A   1      47.646  26.181  26.723  1.00  0.00     0.074 A 
ATOM     54  C   UNL A   1      47.859  24.778  26.444  1.00  0.00     0.031 C 
ATOM     55  C   UNL A   1      41.325  26.422  27.952  1.00  0.00     0.029 A 
ATOM     56  C   UNL A   1      42.280  27.528  28.010  1.00  0.00     0.049 A 
ATOM     57  H   UNL A   1      44.306  27.467  27.531  1.00  0.00     0.167 HD
ATOM     58  C   UNL A   1      48.614  27.124  26.668  1.00  0.00     0.037 A 
ATOM     59  C   UNL A   1      42.003  28.795  28.378  1.00  0.00     0.037 A 
ATOM     60  C   UNL A   1      48.390  28.516  26.956  1.00  0.00     0.049 A 
ATOM     61  C   UNL A   1      43.113  29.817  28.384  1.00  0.00     0.074 A 
ATOM     62  C   UNL A   1      49.296  29.559  26.916  1.00  0.00     0.029 A 
ATOM     63  N   UNL A   1      47.174  29.056  27.350  1.00  0.00    -0.354 N 
ATOM     64  N   UNL A   1      44.378  29.665  28.066  1.00  0.00    -0.248 NA
ATOM     65  C   UNL A   1      42.759  31.183  28.795  1.00  0.00     0.031 C 
ATOM     66  C   UNL A   1      48.645  30.718  27.347  1.00  0.00     0.029 A 
ATOM     67  C   UNL A   1      47.313  30.413  27.588  1.00  0.00     0.049 A 
ATOM     68  H   UNL A   1      46.335  28.549  27.447  1.00  0.00     0.167 HD
ATOM     69  C   UNL A   1      44.963  30.921  28.209  1.00  0.00     0.074 A 
ATOM     70  C   UNL A   1      43.909  31.821  28.633  1.00  0.00     0.031 C 
ATOM     71  C   UNL A   1      46.251  31.296  28.004  1.00  0.00     0.037 A 
BRANCH  58  72
ATOM     72  C   UNL A   1      50.007  26.670  26.326  1.00  0.00     0.058 A 
ATOM     73  C   UNL A   1      50.484  26.656  25.006  1.00  0.00     0.135 A 
ATOM     74  C   UNL A   1      50.883  26.249  27.342  1.00  0.00     0.135 A 
ATOM     75  F   UNL A   1      49.684  27.024  23.992  1.00  0.00    -0.206 F 
ATOM     76  C   UNL A   1      51.767  26.213  24.701  1.00  0.00     0.059 A 
ATOM     77  C   UNL A   1      52.181  25.833  27.063  1.00  0.00     0.059 A 
ATOM     78  F   UNL A   1      50.478  26.235  28.621  1.00  0.00    -0.206 F 
ATOM     79  C   UNL A   1      52.608  25.804  25.736  1.00  0.00     0.060 A 
BRANCH  79  80
ATOM     80  S   UNL A   1      54.269  25.230  25.324  1.00  0.00     0.124 S 
ATOM     81  O   UNL A   1      54.013  23.845  24.941  1.00  0.00    -0.237 OA
ATOM     82  O   UNL A   1      54.646  26.128  24.237  1.00  0.00    -0.237 OA
ATOM     83  O   UNL A   1      55.011  25.410  26.568  1.00  0.00    -0.744 OA
ENDBRANCH  79  80
ENDBRANCH  58  72
BRANCH  59  84
ATOM     84  C   UNL A   1      40.620  29.165  28.783  1.00  0.00     0.058 A 
ATOM     85  C   UNL A   1      40.266  29.289  30.134  1.00  0.00     0.135 A 
ATOM     86  C   UNL A   1      39.624  29.413  27.823  1.00  0.00     0.135 A 
ATOM     87  F   UNL A   1      41.177  29.048  31.090  1.00  0.00    -0.206 F 
ATOM     88  C   UNL A   1      38.977  29.642  30.522  1.00  0.00     0.059 A 
ATOM     89  C   UNL A   1      38.336  29.795  28.186  1.00  0.00     0.059 A 
ATOM     90  F   UNL A   1      39.910  29.314  26.516  1.00  0.00    -0.206 F 
ATOM     91  C   UNL A   1      38.021  29.901  29.539  1.00  0.00     0.060 A 
BRANCH  91  92
ATOM     92  S   UNL A   1      36.372  30.427  30.057  1.00  0.00     0.124 S 
ATOM     93  O   UNL A   1      35.602  30.231  28.833  1.00  0.00    -0.237 OA
ATOM     94  O   UNL A   1      36.086  29.500  31.147  1.00  0.00    -0.237 OA
ATOM     95  O   UNL A   1      36.573  31.815  30.461  1.00  0.00    -0.744 OA
ENDBRANCH  91  92
ENDBRANCH  59  84
BRANCH  71  96
ATOM     96  C   UNL A   1      46.593  32.750  28.192  1.00  0.00     0.058 A 
ATOM     97  C   UNL A   1      47.118  33.242  29.397  1.00  0.00     0.135 A 
ATOM     98  C   UNL A   1      46.450  33.654  27.125  1.00  0.00     0.135 A 
ATOM     99  F   UNL A   1      47.272  32.424  30.451  1.00  0.00    -0.206 F 
ATOM    100  C   UNL A   1      47.466  34.581  29.546  1.00  0.00     0.059 A 
ATOM    101  C   UNL A   1      46.823  34.989  27.241  1.00  0.00     0.059 A 
ATOM    102  F   UNL A   1      45.964  33.236  25.945  1.00  0.00    -0.206 F 
ATOM    103  C   UNL A   1      47.319  35.446  28.460  1.00  0.00     0.060 A 
BRANCH 103 104
ATOM    104  S   UNL A   1      47.805  37.174  28.657  1.00  0.00     0.124 S 
ATOM    105  O   UNL A   1      46.517  37.855  28.560  1.00  0.00    -0.237 OA
ATOM    106  O   UNL A   1      48.424  37.173  29.979  1.00  0.00    -0.237 OA
ATOM    107  O   UNL A   1      48.720  37.400  27.542  1.00  0.00    -0.744 OA
ENDBRANCH 103 104
ENDBRANCH  71  96
ENDBRANCH  45  46
ENDBRANCH  38  40
ENDBRANCH  37  38
ENDBRANCH  36  37
ENDBRANCH  35  36
ENDBRANCH  34  35
ENDBRANCH  33  34
ENDBRANCH  32  33
ENDBRANCH  31  32
ENDBRANCH   1  31
TORSDOF 27
ENDMDL
MODEL 3
REMARK VINA RESULT:      -9.0      5.874     10.496
REMARK SMILES NC(=O)c1ccc(NC(=O)Cc2ccccc2C(=O)OCCOCCOCCOCCOC(=O)c2ccc(-c3c4nc(c(-c5c(F)cc(S(=O)(=O)[O-])cc5F)c5ccc([nH]5)c(-c5c(F)cc(S(=O)(=O)[O-])cc5F)c5nc(c(-c6c(F)cc(S(=O)(=O)[O-])cc6F)c6ccc3[nH]6)C=C5)C=C4)cc2)cc1
REMARK SMILES IDX 25 1 24 2 23 3 22 4 21 5 20 6 18 7 19 8 17 9 12 10 13 11
REMARK SMILES IDX 14 12 16 13 15 14 11 15 9 16 8 17 10 19 7 20 4 21 5 22
REMARK SMILES IDX 102 23 6 24 101 25 2 26 1 27 3 30 26 31 27 32 28 33 29 34
REMARK SMILES IDX 30 35 31 36 32 37 33 38 34 39 35 40 36 41 100 42 37 43 99 44
REMARK SMILES IDX 38 45 39 46 40 47 93 48 41 49 98 50 92 51 94 52 42 53 97 54
REMARK SMILES IDX 91 55 90 56 43 58 77 59 56 60 76 61 57 62 60 63 75 64 95 65
REMARK SMILES IDX 58 66 59 67 74 69 96 70 61 71 44 72 45 73 54 74 46 75 47 76
REMARK SMILES IDX 53 77 55 78 48 79 49 80 50 81 51 82 52 83 78 84 79 85 88 86
REMARK SMILES IDX 80 87 81 88 87 89 89 90 82 91 83 92 84 93 85 94 86 95 62 96
REMARK SMILES IDX 63 97 72 98 64 99 65 100 71 101 73 102 66 103 67 104 68 105
REMARK SMILES IDX 69 106 70 107
REMARK H PARENT 8 18 1 28 1 29 94 57 60 68
REMARK Flexibility Score: inf
ROOT
ATOM      1  C   UNL A   1      35.517  22.277  26.772  1.00  0.00     0.188 C 
ENDROOT
BRANCH   1   2
ATOM      2  C   UNL A   1      34.238  21.416  26.709  1.00  0.00     0.188 C 
BRANCH   2   3
ATOM      3  O   UNL A   1      33.158  21.915  27.480  1.00  0.00    -0.376 OA
BRANCH   3   4
ATOM      4  C   UNL A   1      32.148  22.660  26.833  1.00  0.00     0.202 C 
BRANCH   4   5
ATOM      5  C   UNL A   1      32.411  24.111  26.435  1.00  0.00     0.261 C 
BRANCH   5   6
ATOM      6  O   UNL A   1      31.454  24.789  25.604  1.00  0.00    -0.460 OA
BRANCH   6   7
ATOM      7  C   UNL A   1      30.511  25.594  26.119  1.00  0.00     0.338 C 
ATOM      8  O   UNL A   1      29.482  25.224  26.660  1.00  0.00    -0.246 OA
BRANCH   7   9
ATOM      9  C   UNL A   1      30.964  27.017  26.051  1.00  0.00     0.063 A 
ATOM     10  C   UNL A   1      30.735  27.914  24.980  1.00  0.00    -0.024 A 
ATOM     11  C   UNL A   1      31.288  29.211  25.076  1.00  0.00     0.005 A 
ATOM     12  C   UNL A   1      32.032  29.616  26.186  1.00  0.00     0.000 A 
ATOM     13  C   UNL A   1      31.711  27.444  27.169  1.00  0.00     0.016 A 
ATOM     14  C   UNL A   1      32.245  28.731  27.235  1.00  0.00     0.001 A 
BRANCH  10  15
ATOM     15  C   UNL A   1      29.965  27.597  23.707  1.00  0.00     0.136 C 
BRANCH  15  16
ATOM     16  C   UNL A   1      30.515  28.256  22.449  1.00  0.00     0.228 C 
ATOM     17  N   UNL A   1      31.603  27.785  21.763  1.00  0.00    -0.326 N 
ATOM     18  H   UNL A   1      31.811  28.294  20.946  1.00  0.00     0.169 HD
ATOM     19  O   UNL A   1      29.914  29.221  21.958  1.00  0.00    -0.274 OA
BRANCH  17  20
ATOM     20  C   UNL A   1      32.475  26.715  22.004  1.00  0.00     0.041 A 
ATOM     21  C   UNL A   1      33.800  24.339  22.645  1.00  0.00     0.039 A 
ATOM     22  C   UNL A   1      34.045  25.492  23.380  1.00  0.00     0.016 A 
ATOM     23  C   UNL A   1      33.040  24.410  21.484  1.00  0.00     0.016 A 
ATOM     24  C   UNL A   1      33.380  26.681  23.054  1.00  0.00     0.027 A 
ATOM     25  C   UNL A   1      32.408  25.613  21.144  1.00  0.00     0.027 A 
BRANCH  21  26
ATOM     26  C   UNL A   1      34.229  23.036  23.187  1.00  0.00     0.248 C 
ATOM     27  N   UNL A   1      35.574  22.835  23.273  1.00  0.00    -0.366 N 
ATOM     28  H   UNL A   1      35.923  21.985  23.627  1.00  0.00     0.159 HD
ATOM     29  H   UNL A   1      36.196  23.539  22.981  1.00  0.00     0.159 HD
ATOM     30  O   UNL A   1      33.416  22.194  23.540  1.00  0.00    -0.270 OA
ENDBRANCH  21  26
ENDBRANCH  17  20
ENDBRANCH  15  16
ENDBRANCH  10  15
ENDBRANCH   7   9
ENDBRANCH   6   7
ENDBRANCH   5   6
ENDBRANCH   4   5
ENDBRANCH   3   4
ENDBRANCH   2   3
ENDBRANCH   1   2
BRANCH   1  31
ATOM     31  O   UNL A   1      36.519  22.001  25.807  1.00  0.00    -0.377 OA
BRANCH  31  32
ATOM     32  C   UNL A   1      37.862  22.437  26.012  1.00  0.00     0.188 C 
BRANCH  32  33
ATOM     33  C   UNL A   1      38.215  23.874  26.456  1.00  0.00     0.188 C 
BRANCH  33  34
ATOM     34  O   UNL A   1      39.590  24.197  26.401  1.00  0.00    -0.376 OA
BRANCH  34  35
ATOM     35  C   UNL A   1      40.563  23.197  26.621  1.00  0.00     0.202 C 
BRANCH  35  36
ATOM     36  C   UNL A   1      41.956  23.363  26.001  1.00  0.00     0.261 C 
BRANCH  36  37
ATOM     37  O   UNL A   1      42.953  23.997  26.810  1.00  0.00    -0.460 OA
BRANCH  37  38
ATOM     38  C   UNL A   1      42.948  23.735  28.133  1.00  0.00     0.338 C 
ATOM     39  O   UNL A   1      43.202  22.668  28.673  1.00  0.00    -0.246 OA
BRANCH  38  40
ATOM     40  C   UNL A   1      42.783  25.024  28.835  1.00  0.00     0.060 A 
ATOM     41  C   UNL A   1      43.720  25.403  29.806  1.00  0.00     0.016 A 
ATOM     42  C   UNL A   1      41.718  25.867  28.509  1.00  0.00     0.016 A 
ATOM     43  C   UNL A   1      43.568  26.608  30.489  1.00  0.00     0.010 A 
ATOM     44  C   UNL A   1      41.550  27.059  29.213  1.00  0.00     0.010 A 
ATOM     45  C   UNL A   1      42.451  27.412  30.234  1.00  0.00    -0.014 A 
BRANCH  45  46
ATOM     46  C   UNL A   1      42.083  28.472  31.200  1.00  0.00     0.031 A 
ATOM     47  C   UNL A   1      42.885  28.567  32.468  1.00  0.00     0.074 A 
ATOM     48  C   UNL A   1      41.083  29.335  30.954  1.00  0.00     0.049 A 
ATOM     49  N   UNL A   1      42.725  29.356  33.497  1.00  0.00    -0.248 NA
ATOM     50  C   UNL A   1      44.022  27.638  32.593  1.00  0.00     0.031 C 
ATOM     51  C   UNL A   1      40.273  29.366  29.738  1.00  0.00     0.029 A 
ATOM     52  N   UNL A   1      40.572  30.344  31.729  1.00  0.00    -0.354 N 
ATOM     53  C   UNL A   1      43.729  29.011  34.394  1.00  0.00     0.074 A 
ATOM     54  C   UNL A   1      44.475  27.922  33.803  1.00  0.00     0.031 C 
ATOM     55  C   UNL A   1      39.350  30.338  29.857  1.00  0.00     0.029 A 
ATOM     56  C   UNL A   1      39.482  30.969  31.170  1.00  0.00     0.049 A 
ATOM     57  H   UNL A   1      40.950  30.598  32.601  1.00  0.00     0.167 HD
ATOM     58  C   UNL A   1      44.007  29.557  35.600  1.00  0.00     0.037 A 
ATOM     59  C   UNL A   1      38.672  31.919  31.677  1.00  0.00     0.037 A 
ATOM     60  C   UNL A   1      43.251  30.636  36.181  1.00  0.00     0.049 A 
ATOM     61  C   UNL A   1      38.953  32.462  33.056  1.00  0.00     0.074 A 
ATOM     62  C   UNL A   1      43.455  31.275  37.389  1.00  0.00     0.029 A 
ATOM     63  N   UNL A   1      42.138  31.225  35.598  1.00  0.00    -0.354 N 
ATOM     64  N   UNL A   1      39.916  32.146  33.890  1.00  0.00    -0.248 NA
ATOM     65  C   UNL A   1      38.038  33.495  33.564  1.00  0.00     0.031 C 
ATOM     66  C   UNL A   1      42.428  32.207  37.566  1.00  0.00     0.029 A 
ATOM     67  C   UNL A   1      41.624  32.199  36.435  1.00  0.00     0.049 A 
ATOM     68  H   UNL A   1      41.768  30.984  34.717  1.00  0.00     0.167 HD
ATOM     69  C   UNL A   1      39.742  32.960  35.006  1.00  0.00     0.074 A 
ATOM     70  C   UNL A   1      38.586  33.791  34.734  1.00  0.00     0.031 C 
ATOM     71  C   UNL A   1      40.474  33.021  36.147  1.00  0.00     0.037 A 
BRANCH  58  72
ATOM     72  C   UNL A   1      45.146  28.966  36.385  1.00  0.00     0.058 A 
ATOM     73  C   UNL A   1      46.448  29.488  36.318  1.00  0.00     0.135 A 
ATOM     74  C   UNL A   1      44.927  27.862  37.228  1.00  0.00     0.135 A 
ATOM     75  F   UNL A   1      46.721  30.526  35.513  1.00  0.00    -0.206 F 
ATOM     76  C   UNL A   1      47.497  28.917  37.032  1.00  0.00     0.059 A 
ATOM     77  C   UNL A   1      45.955  27.297  37.975  1.00  0.00     0.059 A 
ATOM     78  F   UNL A   1      43.704  27.319  37.325  1.00  0.00    -0.206 F 
ATOM     79  C   UNL A   1      47.240  27.823  37.859  1.00  0.00     0.060 A 
BRANCH  79  80
ATOM     80  S   UNL A   1      48.613  27.094  38.777  1.00  0.00     0.124 S 
ATOM     81  O   UNL A   1      48.373  27.615  40.120  1.00  0.00    -0.237 OA
ATOM     82  O   UNL A   1      48.379  25.664  38.602  1.00  0.00    -0.237 OA
ATOM     83  O   UNL A   1      49.794  27.622  38.102  1.00  0.00    -0.744 OA
ENDBRANCH  79  80
ENDBRANCH  58  72
BRANCH  59  84
ATOM     84  C   UNL A   1      37.512  32.406  30.883  1.00  0.00     0.058 A 
ATOM     85  C   UNL A   1      37.628  33.516  30.033  1.00  0.00     0.135 A 
ATOM     86  C   UNL A   1      36.265  31.764  30.949  1.00  0.00     0.135 A 
ATOM     87  F   UNL A   1      38.795  34.173  29.945  1.00  0.00    -0.206 F 
ATOM     88  C   UNL A   1      36.552  33.975  29.281  1.00  0.00     0.059 A 
ATOM     89  C   UNL A   1      35.181  32.187  30.184  1.00  0.00     0.059 A 
ATOM     90  F   UNL A   1      36.101  30.694  31.743  1.00  0.00    -0.206 F 
ATOM     91  C   UNL A   1      35.334  33.297  29.357  1.00  0.00     0.060 A 
BRANCH  91  92
ATOM     92  S   UNL A   1      33.966  33.861  28.320  1.00  0.00     0.124 S 
ATOM     93  O   UNL A   1      33.173  34.632  29.272  1.00  0.00    -0.237 OA
ATOM     94  O   UNL A   1      34.661  34.632  27.294  1.00  0.00    -0.237 OA
ATOM     95  O   UNL A   1      33.361  32.617  27.856  1.00  0.00    -0.744 OA
ENDBRANCH  91  92
ENDBRANCH  59  84
BRANCH  71  96
ATOM     96  C   UNL A   1      40.078  34.046  37.177  1.00  0.00     0.058 A 
ATOM     97  C   UNL A   1      39.204  33.741  38.232  1.00  0.00     0.135 A 
ATOM     98  C   UNL A   1      40.634  35.337  37.140  1.00  0.00     0.135 A 
ATOM     99  F   UNL A   1      38.641  32.525  38.314  1.00  0.00    -0.206 F 
ATOM    100  C   UNL A   1      38.876  34.686  39.200  1.00  0.00     0.059 A 
ATOM    101  C   UNL A   1      40.346  36.285  38.115  1.00  0.00     0.059 A 
ATOM    102  F   UNL A   1      41.486  35.679  36.160  1.00  0.00    -0.206 F 
ATOM    103  C   UNL A   1      39.455  35.955  39.135  1.00  0.00     0.060 A 
BRANCH 103 104
ATOM    104  S   UNL A   1      39.046  37.159  40.416  1.00  0.00     0.124 S 
ATOM    105  O   UNL A   1      38.292  36.340  41.360  1.00  0.00    -0.237 OA
ATOM    106  O   UNL A   1      40.364  37.596  40.864  1.00  0.00    -0.237 OA
ATOM    107  O   UNL A   1      38.268  38.167  39.700  1.00  0.00    -0.744 OA
ENDBRANCH 103 104
ENDBRANCH  71  96
ENDBRANCH  45  46
ENDBRANCH  38  40
ENDBRANCH  37  38
ENDBRANCH  36  37
ENDBRANCH  35  36
ENDBRANCH  34  35
ENDBRANCH  33  34
ENDBRANCH  32  33
ENDBRANCH  31  32
ENDBRANCH   1  31
TORSDOF 27
ENDMDL
