MODEL 1
REMARK VINA RESULT:      -9.8      0.000      0.000
REMARK SMILES O=C(Cc1ccccc1Nc1c(Cl)cccc1C(F)(F)F)OCCOCCOCCOCCOC(=O)c1ccc(-c2c3nc(c(-c4c(F)cc(S(=O)(=O)[O-])cc4F)c4ccc([nH]4)c(-c4c(F)cc(S(=O)(=O)[O-])cc4F)c4nc(c(-c5c(F)cc(S(=O)(=O)[O-])cc5F)c5ccc2[nH]5)C=C4)C=C3)cc1
REMARK SMILES IDX 27 1 26 2 25 3 24 4 23 5 22 6 2 7 1 8 3 9 4 10 5 11 9 12
REMARK SMILES IDX 6 13 8 14 7 15 10 16 11 18 12 19 17 20 13 21 14 22 16 23
REMARK SMILES IDX 15 24 18 25 19 26 20 27 21 28 28 29 29 30 30 31 31 32 32 33
REMARK SMILES IDX 33 34 34 35 35 36 36 37 37 38 38 39 102 40 39 41 101 42
REMARK SMILES IDX 40 43 41 44 42 45 95 46 43 47 100 48 94 49 96 50 44 51 99 52
REMARK SMILES IDX 93 53 92 54 45 56 79 57 58 58 78 59 59 60 62 61 77 62 97 63
REMARK SMILES IDX 60 64 61 65 76 67 98 68 63 69 46 70 47 71 56 72 48 73 49 74
REMARK SMILES IDX 55 75 57 76 50 77 51 78 52 79 53 80 54 81 80 82 81 83 90 84
REMARK SMILES IDX 82 85 83 86 89 87 91 88 84 89 85 90 86 91 87 92 88 93 64 94
REMARK SMILES IDX 65 95 74 96 66 97 67 98 73 99 75 100 68 101 69 102 70 103
REMARK SMILES IDX 71 104 72 105
REMARK H PARENT 10 17 96 55 62 66
REMARK Flexibility Score: inf
ROOT
ATOM      1  C   UNL A   1      40.149  22.894  27.272  1.00  0.00     0.188 C 
ENDROOT
BRANCH   1   2
ATOM      2  C   UNL A   1      38.899  23.544  26.701  1.00  0.00     0.188 C 
BRANCH   2   3
ATOM      3  O   UNL A   1      38.174  22.804  25.733  1.00  0.00    -0.376 OA
BRANCH   3   4
ATOM      4  C   UNL A   1      37.109  23.377  24.993  1.00  0.00     0.202 C 
BRANCH   4   5
ATOM      5  C   UNL A   1      35.699  23.410  25.563  1.00  0.00     0.261 C 
BRANCH   5   6
ATOM      6  O   UNL A   1      35.099  22.148  25.856  1.00  0.00    -0.463 OA
BRANCH   6   7
ATOM      7  C   UNL A   1      34.109  22.003  26.767  1.00  0.00     0.310 C 
ATOM      8  O   UNL A   1      34.388  21.646  27.911  1.00  0.00    -0.252 OA
BRANCH   7   9
ATOM      9  C   UNL A   1      32.676  22.065  26.289  1.00  0.00     0.160 C 
BRANCH   9  10
ATOM     10  C   UNL A   1      32.473  21.607  24.868  1.00  0.00    -0.013 A 
ATOM     11  C   UNL A   1      32.441  20.222  24.639  1.00  0.00     0.006 A 
ATOM     12  C   UNL A   1      32.302  22.504  23.790  1.00  0.00     0.042 A 
ATOM     13  C   UNL A   1      32.275  19.722  23.354  1.00  0.00     0.000 A 
ATOM     14  C   UNL A   1      32.143  21.981  22.502  1.00  0.00     0.026 A 
ATOM     15  C   UNL A   1      32.129  20.602  22.287  1.00  0.00     0.002 A 
BRANCH  12  16
ATOM     16  N   UNL A   1      32.457  23.892  23.973  1.00  0.00    -0.354 N 
ATOM     17  H   UNL A   1      33.329  24.138  24.357  1.00  0.00     0.167 HD
BRANCH  16  18
ATOM     18  C   UNL A   1      31.619  25.011  23.719  1.00  0.00     0.070 A 
ATOM     19  C   UNL A   1      31.848  25.741  22.516  1.00  0.00     0.065 A 
ATOM     20  C   UNL A   1      30.645  25.508  24.607  1.00  0.00     0.080 A 
ATOM     21  Cl  UNL A   1      33.062  25.218  21.389  1.00  0.00    -0.082 Cl
ATOM     22  C   UNL A   1      31.138  26.899  22.193  1.00  0.00     0.023 A 
ATOM     23  C   UNL A   1      29.926  26.679  24.250  1.00  0.00     0.015 A 
ATOM     24  C   UNL A   1      30.170  27.370  23.064  1.00  0.00     0.002 A 
BRANCH  20  25
ATOM     25  C   UNL A   1      30.305  24.903  25.952  1.00  0.00     0.418 C 
ATOM     26  F   UNL A   1      31.348  24.993  26.831  1.00  0.00    -0.166 F 
ATOM     27  F   UNL A   1      29.268  25.541  26.560  1.00  0.00    -0.166 F 
ATOM     28  F   UNL A   1      29.997  23.580  25.932  1.00  0.00    -0.166 F 
ENDBRANCH  20  25
ENDBRANCH  16  18
ENDBRANCH  12  16
ENDBRANCH   9  10
ENDBRANCH   7   9
ENDBRANCH   6   7
ENDBRANCH   5   6
ENDBRANCH   4   5
ENDBRANCH   3   4
ENDBRANCH   2   3
ENDBRANCH   1   2
BRANCH   1  29
ATOM     29  O   UNL A   1      40.134  21.483  27.132  1.00  0.00    -0.377 OA
BRANCH  29  30
ATOM     30  C   UNL A   1      41.143  20.943  26.295  1.00  0.00     0.188 C 
BRANCH  30  31
ATOM     31  C   UNL A   1      42.597  20.976  26.829  1.00  0.00     0.188 C 
BRANCH  31  32
ATOM     32  O   UNL A   1      43.352  22.178  26.930  1.00  0.00    -0.376 OA
BRANCH  32  33
ATOM     33  C   UNL A   1      44.063  22.665  25.810  1.00  0.00     0.202 C 
BRANCH  33  34
ATOM     34  C   UNL A   1      43.966  24.167  25.517  1.00  0.00     0.261 C 
BRANCH  34  35
ATOM     35  O   UNL A   1      42.860  24.825  26.150  1.00  0.00    -0.460 OA
BRANCH  35  36
ATOM     36  C   UNL A   1      42.668  26.127  25.816  1.00  0.00     0.338 C 
ATOM     37  O   UNL A   1      42.779  26.623  24.707  1.00  0.00    -0.246 OA
BRANCH  36  38
ATOM     38  C   UNL A   1      42.080  26.844  26.977  1.00  0.00     0.060 A 
ATOM     39  C   UNL A   1      42.405  28.201  27.155  1.00  0.00     0.016 A 
ATOM     40  C   UNL A   1      41.173  26.224  27.840  1.00  0.00     0.016 A 
ATOM     41  C   UNL A   1      41.855  28.928  28.213  1.00  0.00     0.010 A 
ATOM     42  C   UNL A   1      40.644  26.942  28.915  1.00  0.00     0.010 A 
ATOM     43  C   UNL A   1      41.017  28.282  29.129  1.00  0.00    -0.014 A 
BRANCH  43  44
ATOM     44  C   UNL A   1      40.785  28.871  30.471  1.00  0.00     0.031 A 
ATOM     45  C   UNL A   1      39.675  29.880  30.582  1.00  0.00     0.074 A 
ATOM     46  C   UNL A   1      41.554  28.583  31.535  1.00  0.00     0.049 A 
ATOM     47  N   UNL A   1      39.372  30.681  31.568  1.00  0.00    -0.248 NA
ATOM     48  C   UNL A   1      38.802  30.014  29.404  1.00  0.00     0.031 C 
ATOM     49  C   UNL A   1      42.628  27.596  31.564  1.00  0.00     0.029 A 
ATOM     50  N   UNL A   1      41.562  29.135  32.792  1.00  0.00    -0.354 N 
ATOM     51  C   UNL A   1      38.295  31.435  31.116  1.00  0.00     0.074 A 
ATOM     52  C   UNL A   1      38.005  31.003  29.767  1.00  0.00     0.031 C 
ATOM     53  C   UNL A   1      43.223  27.642  32.771  1.00  0.00     0.029 A 
ATOM     54  C   UNL A   1      42.598  28.691  33.578  1.00  0.00     0.049 A 
ATOM     55  H   UNL A   1      40.892  29.788  33.101  1.00  0.00     0.167 HD
ATOM     56  C   UNL A   1      37.615  32.410  31.761  1.00  0.00     0.037 A 
ATOM     57  C   UNL A   1      43.018  29.116  34.788  1.00  0.00     0.037 A 
ATOM     58  C   UNL A   1      37.918  32.846  33.094  1.00  0.00     0.049 A 
ATOM     59  C   UNL A   1      42.282  30.238  35.479  1.00  0.00     0.074 A 
ATOM     60  C   UNL A   1      37.280  33.812  33.850  1.00  0.00     0.029 A 
ATOM     61  N   UNL A   1      38.963  32.355  33.865  1.00  0.00    -0.354 N 
ATOM     62  N   UNL A   1      41.249  30.929  35.056  1.00  0.00    -0.248 NA
ATOM     63  C   UNL A   1      42.768  30.639  36.807  1.00  0.00     0.031 C 
ATOM     64  C   UNL A   1      37.970  33.939  35.061  1.00  0.00     0.029 A 
ATOM     65  C   UNL A   1      39.003  33.014  35.080  1.00  0.00     0.049 A 
ATOM     66  H   UNL A   1      39.584  31.644  33.587  1.00  0.00     0.167 HD
ATOM     67  C   UNL A   1      40.946  31.827  36.075  1.00  0.00     0.074 A 
ATOM     68  C   UNL A   1      41.904  31.593  37.136  1.00  0.00     0.031 C 
ATOM     69  C   UNL A   1      39.958  32.757  36.131  1.00  0.00     0.037 A 
BRANCH  56  70
ATOM     70  C   UNL A   1      36.523  33.098  30.993  1.00  0.00     0.058 A 
ATOM     71  C   UNL A   1      36.800  34.051  29.999  1.00  0.00     0.135 A 
ATOM     72  C   UNL A   1      35.177  32.835  31.293  1.00  0.00     0.135 A 
ATOM     73  F   UNL A   1      38.071  34.359  29.693  1.00  0.00    -0.206 F 
ATOM     74  C   UNL A   1      35.783  34.753  29.363  1.00  0.00     0.059 A 
ATOM     75  C   UNL A   1      34.141  33.504  30.648  1.00  0.00     0.059 A 
ATOM     76  F   UNL A   1      34.857  31.939  32.239  1.00  0.00    -0.206 F 
ATOM     77  C   UNL A   1      34.456  34.480  29.704  1.00  0.00     0.060 A 
BRANCH  77  78
ATOM     78  S   UNL A   1      33.145  35.429  28.906  1.00  0.00     0.124 S 
ATOM     79  O   UNL A   1      32.416  35.942  30.061  1.00  0.00    -0.237 OA
ATOM     80  O   UNL A   1      33.896  36.420  28.141  1.00  0.00    -0.237 OA
ATOM     81  O   UNL A   1      32.440  34.431  28.110  1.00  0.00    -0.744 OA
ENDBRANCH  77  78
ENDBRANCH  56  70
BRANCH  57  82
ATOM     82  C   UNL A   1      44.218  28.492  35.405  1.00  0.00     0.058 A 
ATOM     83  C   UNL A   1      44.115  27.327  36.177  1.00  0.00     0.135 A 
ATOM     84  C   UNL A   1      45.500  29.024  35.192  1.00  0.00     0.135 A 
ATOM     85  F   UNL A   1      42.910  26.791  36.424  1.00  0.00    -0.206 F 
ATOM     86  C   UNL A   1      45.241  26.702  36.706  1.00  0.00     0.059 A 
ATOM     87  C   UNL A   1      46.642  28.406  35.691  1.00  0.00     0.059 A 
ATOM     88  F   UNL A   1      45.653  30.136  34.456  1.00  0.00    -0.206 F 
ATOM     89  C   UNL A   1      46.501  27.242  36.446  1.00  0.00     0.060 A 
BRANCH  89  90
ATOM     90  S   UNL A   1      47.961  26.359  37.043  1.00  0.00     0.124 S 
ATOM     91  O   UNL A   1      47.357  25.220  37.727  1.00  0.00    -0.237 OA
ATOM     92  O   UNL A   1      48.663  26.058  35.798  1.00  0.00    -0.237 OA
ATOM     93  O   UNL A   1      48.616  27.339  37.903  1.00  0.00    -0.744 OA
ENDBRANCH  89  90
ENDBRANCH  57  82
BRANCH  69  94
ATOM     94  C   UNL A   1      39.818  33.567  37.389  1.00  0.00     0.058 A 
ATOM     95  C   UNL A   1      40.434  34.818  37.537  1.00  0.00     0.135 A 
ATOM     96  C   UNL A   1      38.963  33.130  38.415  1.00  0.00     0.135 A 
ATOM     97  F   UNL A   1      41.263  35.280  36.589  1.00  0.00    -0.206 F 
ATOM     98  C   UNL A   1      40.207  35.609  38.660  1.00  0.00     0.059 A 
ATOM     99  C   UNL A   1      38.703  33.914  39.535  1.00  0.00     0.059 A 
ATOM    100  F   UNL A   1      38.341  31.944  38.316  1.00  0.00    -0.206 F 
ATOM    101  C   UNL A   1      39.333  35.153  39.649  1.00  0.00     0.060 A 
BRANCH 101 102
ATOM    102  S   UNL A   1      38.992  36.218  41.067  1.00  0.00     0.124 S 
ATOM    103  O   UNL A   1      38.821  37.516  40.425  1.00  0.00    -0.237 OA
ATOM    104  O   UNL A   1      37.782  35.621  41.624  1.00  0.00    -0.237 OA
ATOM    105  O   UNL A   1      40.189  36.078  41.893  1.00  0.00    -0.744 OA
ENDBRANCH 101 102
ENDBRANCH  69  94
ENDBRANCH  43  44
ENDBRANCH  36  38
ENDBRANCH  35  36
ENDBRANCH  34  35
ENDBRANCH  33  34
ENDBRANCH  32  33
ENDBRANCH  31  32
ENDBRANCH  30  31
ENDBRANCH  29  30
ENDBRANCH   1  29
TORSDOF 27
ENDMDL
MODEL 2
REMARK VINA RESULT:      -9.8      1.230      2.681
REMARK SMILES O=C(Cc1ccccc1Nc1c(Cl)cccc1C(F)(F)F)OCCOCCOCCOCCOC(=O)c1ccc(-c2c3nc(c(-c4c(F)cc(S(=O)(=O)[O-])cc4F)c4ccc([nH]4)c(-c4c(F)cc(S(=O)(=O)[O-])cc4F)c4nc(c(-c5c(F)cc(S(=O)(=O)[O-])cc5F)c5ccc2[nH]5)C=C4)C=C3)cc1
REMARK SMILES IDX 27 1 26 2 25 3 24 4 23 5 22 6 2 7 1 8 3 9 4 10 5 11 9 12
REMARK SMILES IDX 6 13 8 14 7 15 10 16 11 18 12 19 17 20 13 21 14 22 16 23
REMARK SMILES IDX 15 24 18 25 19 26 20 27 21 28 28 29 29 30 30 31 31 32 32 33
REMARK SMILES IDX 33 34 34 35 35 36 36 37 37 38 38 39 102 40 39 41 101 42
REMARK SMILES IDX 40 43 41 44 42 45 95 46 43 47 100 48 94 49 96 50 44 51 99 52
REMARK SMILES IDX 93 53 92 54 45 56 79 57 58 58 78 59 59 60 62 61 77 62 97 63
REMARK SMILES IDX 60 64 61 65 76 67 98 68 63 69 46 70 47 71 56 72 48 73 49 74
REMARK SMILES IDX 55 75 57 76 50 77 51 78 52 79 53 80 54 81 80 82 81 83 90 84
REMARK SMILES IDX 82 85 83 86 89 87 91 88 84 89 85 90 86 91 87 92 88 93 64 94
REMARK SMILES IDX 65 95 74 96 66 97 67 98 73 99 75 100 68 101 69 102 70 103
REMARK SMILES IDX 71 104 72 105
REMARK H PARENT 10 17 96 55 62 66
REMARK Flexibility Score: inf
ROOT
ATOM      1  C   UNL A   1      39.029  22.054  25.797  1.00  0.00     0.188 C 
ENDROOT
BRANCH   1   2
ATOM      2  C   UNL A   1      37.512  22.137  25.745  1.00  0.00     0.188 C 
BRANCH   2   3
ATOM      3  O   UNL A   1      36.935  22.632  24.548  1.00  0.00    -0.376 OA
BRANCH   3   4
ATOM      4  C   UNL A   1      35.744  23.401  24.550  1.00  0.00     0.202 C 
BRANCH   4   5
ATOM      5  C   UNL A   1      34.924  23.564  23.279  1.00  0.00     0.261 C 
BRANCH   5   6
ATOM      6  O   UNL A   1      34.728  24.900  22.813  1.00  0.00    -0.463 OA
BRANCH   6   7
ATOM      7  C   UNL A   1      33.623  25.282  22.133  1.00  0.00     0.310 C 
ATOM      8  O   UNL A   1      33.671  26.279  21.412  1.00  0.00    -0.252 OA
BRANCH   7   9
ATOM      9  C   UNL A   1      32.310  24.607  22.455  1.00  0.00     0.160 C 
BRANCH   9  10
ATOM     10  C   UNL A   1      31.592  25.180  23.649  1.00  0.00    -0.013 A 
ATOM     11  C   UNL A   1      31.609  26.577  23.798  1.00  0.00     0.006 A 
ATOM     12  C   UNL A   1      30.906  24.379  24.590  1.00  0.00     0.042 A 
ATOM     13  C   UNL A   1      30.984  27.179  24.882  1.00  0.00     0.000 A 
ATOM     14  C   UNL A   1      30.289  25.004  25.678  1.00  0.00     0.026 A 
ATOM     15  C   UNL A   1      30.328  26.392  25.823  1.00  0.00     0.002 A 
BRANCH  12  16
ATOM     16  N   UNL A   1      30.980  22.974  24.533  1.00  0.00    -0.354 N 
ATOM     17  H   UNL A   1      30.141  22.552  24.238  1.00  0.00     0.167 HD
BRANCH  16  18
ATOM     18  C   UNL A   1      32.011  22.037  24.812  1.00  0.00     0.070 A 
ATOM     19  C   UNL A   1      32.358  21.119  23.777  1.00  0.00     0.065 A 
ATOM     20  C   UNL A   1      32.650  21.886  26.058  1.00  0.00     0.080 A 
ATOM     21  Cl  UNL A   1      31.584  21.210  22.225  1.00  0.00    -0.082 Cl
ATOM     22  C   UNL A   1      33.304  20.107  23.957  1.00  0.00     0.023 A 
ATOM     23  C   UNL A   1      33.619  20.859  26.212  1.00  0.00     0.015 A 
ATOM     24  C   UNL A   1      33.940  19.978  25.180  1.00  0.00     0.002 A 
BRANCH  20  25
ATOM     25  C   UNL A   1      32.372  22.727  27.285  1.00  0.00     0.418 C 
ATOM     26  F   UNL A   1      32.770  24.024  27.117  1.00  0.00    -0.166 F 
ATOM     27  F   UNL A   1      31.044  22.794  27.576  1.00  0.00    -0.166 F 
ATOM     28  F   UNL A   1      33.004  22.327  28.419  1.00  0.00    -0.166 F 
ENDBRANCH  20  25
ENDBRANCH  16  18
ENDBRANCH  12  16
ENDBRANCH   9  10
ENDBRANCH   7   9
ENDBRANCH   6   7
ENDBRANCH   5   6
ENDBRANCH   4   5
ENDBRANCH   3   4
ENDBRANCH   2   3
ENDBRANCH   1   2
BRANCH   1  29
ATOM     29  O   UNL A   1      39.483  21.076  26.719  1.00  0.00    -0.377 OA
BRANCH  29  30
ATOM     30  C   UNL A   1      40.511  20.223  26.245  1.00  0.00     0.188 C 
BRANCH  30  31
ATOM     31  C   UNL A   1      41.925  20.416  26.849  1.00  0.00     0.188 C 
BRANCH  31  32
ATOM     32  O   UNL A   1      42.494  21.701  27.078  1.00  0.00    -0.376 OA
BRANCH  32  33
ATOM     33  C   UNL A   1      43.476  22.208  26.197  1.00  0.00     0.202 C 
BRANCH  33  34
ATOM     34  C   UNL A   1      43.525  23.729  26.003  1.00  0.00     0.261 C 
BRANCH  34  35
ATOM     35  O   UNL A   1      42.404  24.434  26.555  1.00  0.00    -0.460 OA
BRANCH  35  36
ATOM     36  C   UNL A   1      42.230  25.709  26.125  1.00  0.00     0.338 C 
ATOM     37  O   UNL A   1      42.303  26.111  24.975  1.00  0.00    -0.246 OA
BRANCH  36  38
ATOM     38  C   UNL A   1      41.710  26.533  27.246  1.00  0.00     0.060 A 
ATOM     39  C   UNL A   1      42.179  27.853  27.375  1.00  0.00     0.016 A 
ATOM     40  C   UNL A   1      40.731  26.052  28.119  1.00  0.00     0.016 A 
ATOM     41  C   UNL A   1      41.700  28.678  28.395  1.00  0.00     0.010 A 
ATOM     42  C   UNL A   1      40.271  26.867  29.156  1.00  0.00     0.010 A 
ATOM     43  C   UNL A   1      40.786  28.166  29.323  1.00  0.00    -0.014 A 
BRANCH  43  44
ATOM     44  C   UNL A   1      40.604  28.832  30.636  1.00  0.00     0.031 A 
ATOM     45  C   UNL A   1      39.528  29.879  30.719  1.00  0.00     0.074 A 
ATOM     46  C   UNL A   1      41.390  28.576  31.696  1.00  0.00     0.049 A 
ATOM     47  N   UNL A   1      39.273  30.739  31.668  1.00  0.00    -0.248 NA
ATOM     48  C   UNL A   1      38.631  29.978  29.555  1.00  0.00     0.031 C 
ATOM     49  C   UNL A   1      42.434  27.559  31.754  1.00  0.00     0.029 A 
ATOM     50  N   UNL A   1      41.446  29.193  32.922  1.00  0.00    -0.354 N 
ATOM     51  C   UNL A   1      38.209  31.502  31.200  1.00  0.00     0.074 A 
ATOM     52  C   UNL A   1      37.874  31.009  29.884  1.00  0.00     0.031 C 
ATOM     53  C   UNL A   1      43.060  27.649  32.942  1.00  0.00     0.029 A 
ATOM     54  C   UNL A   1      42.486  28.758  33.706  1.00  0.00     0.049 A 
ATOM     55  H   UNL A   1      40.803  29.881  33.211  1.00  0.00     0.167 HD
ATOM     56  C   UNL A   1      37.574  32.530  31.809  1.00  0.00     0.037 A 
ATOM     57  C   UNL A   1      42.949  29.233  34.882  1.00  0.00     0.037 A 
ATOM     58  C   UNL A   1      37.923  33.026  33.109  1.00  0.00     0.049 A 
ATOM     59  C   UNL A   1      42.263  30.411  35.529  1.00  0.00     0.074 A 
ATOM     60  C   UNL A   1      37.333  34.049  33.827  1.00  0.00     0.029 A 
ATOM     61  N   UNL A   1      38.971  32.543  33.881  1.00  0.00    -0.354 N 
ATOM     62  N   UNL A   1      41.241  31.111  35.094  1.00  0.00    -0.248 NA
ATOM     63  C   UNL A   1      42.793  30.866  36.823  1.00  0.00     0.031 C 
ATOM     64  C   UNL A   1      38.055  34.218  35.013  1.00  0.00     0.029 A 
ATOM     65  C   UNL A   1      39.061  33.264  35.058  1.00  0.00     0.049 A 
ATOM     66  H   UNL A   1      39.564  31.800  33.627  1.00  0.00     0.167 HD
ATOM     67  C   UNL A   1      40.990  32.071  36.071  1.00  0.00     0.074 A 
ATOM     68  C   UNL A   1      41.967  31.862  37.120  1.00  0.00     0.031 C 
ATOM     69  C   UNL A   1      40.033  33.032  36.099  1.00  0.00     0.037 A 
BRANCH  56  70
ATOM     70  C   UNL A   1      36.485  33.211  31.030  1.00  0.00     0.058 A 
ATOM     71  C   UNL A   1      36.764  34.040  29.931  1.00  0.00     0.135 A 
ATOM     72  C   UNL A   1      35.144  33.069  31.422  1.00  0.00     0.135 A 
ATOM     73  F   UNL A   1      38.032  34.231  29.532  1.00  0.00    -0.206 F 
ATOM     74  C   UNL A   1      35.757  34.743  29.279  1.00  0.00     0.059 A 
ATOM     75  C   UNL A   1      34.118  33.740  30.765  1.00  0.00     0.059 A 
ATOM     76  F   UNL A   1      34.825  32.295  32.470  1.00  0.00    -0.206 F 
ATOM     77  C   UNL A   1      34.438  34.595  29.711  1.00  0.00     0.060 A 
BRANCH  77  78
ATOM     78  S   UNL A   1      33.145  35.546  28.888  1.00  0.00     0.124 S 
ATOM     79  O   UNL A   1      32.384  36.047  30.028  1.00  0.00    -0.237 OA
ATOM     80  O   UNL A   1      33.912  36.546  28.151  1.00  0.00    -0.237 OA
ATOM     81  O   UNL A   1      32.464  34.552  28.065  1.00  0.00    -0.744 OA
ENDBRANCH  77  78
ENDBRANCH  56  70
BRANCH  57  82
ATOM     82  C   UNL A   1      44.144  28.605  35.504  1.00  0.00     0.058 A 
ATOM     83  C   UNL A   1      45.409  29.200  35.409  1.00  0.00     0.135 A 
ATOM     84  C   UNL A   1      44.034  27.419  36.248  1.00  0.00     0.135 A 
ATOM     85  F   UNL A   1      45.570  30.324  34.694  1.00  0.00    -0.206 F 
ATOM     86  C   UNL A   1      46.522  28.651  36.040  1.00  0.00     0.059 A 
ATOM     87  C   UNL A   1      45.126  26.863  36.907  1.00  0.00     0.059 A 
ATOM     88  F   UNL A   1      42.843  26.812  36.373  1.00  0.00    -0.206 F 
ATOM     89  C   UNL A   1      46.367  27.490  36.798  1.00  0.00     0.060 A 
BRANCH  89  90
ATOM     90  S   UNL A   1      47.794  26.850  37.704  1.00  0.00     0.124 S 
ATOM     91  O   UNL A   1      47.394  25.469  37.948  1.00  0.00    -0.237 OA
ATOM     92  O   UNL A   1      48.874  27.043  36.741  1.00  0.00    -0.237 OA
ATOM     93  O   UNL A   1      47.855  27.709  38.883  1.00  0.00    -0.744 OA
ENDBRANCH  89  90
ENDBRANCH  57  82
BRANCH  69  94
ATOM     94  C   UNL A   1      39.948  33.911  37.316  1.00  0.00     0.058 A 
ATOM     95  C   UNL A   1      40.676  35.105  37.419  1.00  0.00     0.135 A 
ATOM     96  C   UNL A   1      39.037  33.605  38.341  1.00  0.00     0.135 A 
ATOM     97  F   UNL A   1      41.561  35.441  36.469  1.00  0.00    -0.206 F 
ATOM     98  C   UNL A   1      40.505  35.967  38.500  1.00  0.00     0.059 A 
ATOM     99  C   UNL A   1      38.833  34.463  39.418  1.00  0.00     0.059 A 
ATOM    100  F   UNL A   1      38.308  32.479  38.284  1.00  0.00    -0.206 F 
ATOM    101  C   UNL A   1      39.574  35.642  39.489  1.00  0.00     0.060 A 
BRANCH 101 102
ATOM    102  S   UNL A   1      39.311  36.801  40.849  1.00  0.00     0.124 S 
ATOM    103  O   UNL A   1      38.520  37.841  40.200  1.00  0.00    -0.237 OA
ATOM    104  O   UNL A   1      38.602  35.981  41.826  1.00  0.00    -0.237 OA
ATOM    105  O   UNL A   1      40.666  37.189  41.232  1.00  0.00    -0.744 OA
ENDBRANCH 101 102
ENDBRANCH  69  94
ENDBRANCH  43  44
ENDBRANCH  36  38
ENDBRANCH  35  36
ENDBRANCH  34  35
ENDBRANCH  33  34
ENDBRANCH  32  33
ENDBRANCH  31  32
ENDBRANCH  30  31
ENDBRANCH  29  30
ENDBRANCH   1  29
TORSDOF 27
ENDMDL
MODEL 3
REMARK VINA RESULT:      -9.5      5.865     11.911
REMARK SMILES O=C(Cc1ccccc1Nc1c(Cl)cccc1C(F)(F)F)OCCOCCOCCOCCOC(=O)c1ccc(-c2c3nc(c(-c4c(F)cc(S(=O)(=O)[O-])cc4F)c4ccc([nH]4)c(-c4c(F)cc(S(=O)(=O)[O-])cc4F)c4nc(c(-c5c(F)cc(S(=O)(=O)[O-])cc5F)c5ccc2[nH]5)C=C4)C=C3)cc1
REMARK SMILES IDX 27 1 26 2 25 3 24 4 23 5 22 6 2 7 1 8 3 9 4 10 5 11 9 12
REMARK SMILES IDX 6 13 8 14 7 15 10 16 11 18 12 19 17 20 13 21 14 22 16 23
REMARK SMILES IDX 15 24 18 25 19 26 20 27 21 28 28 29 29 30 30 31 31 32 32 33
REMARK SMILES IDX 33 34 34 35 35 36 36 37 37 38 38 39 102 40 39 41 101 42
REMARK SMILES IDX 40 43 41 44 42 45 95 46 43 47 100 48 94 49 96 50 44 51 99 52
REMARK SMILES IDX 93 53 92 54 45 56 79 57 58 58 78 59 59 60 62 61 77 62 97 63
REMARK SMILES IDX 60 64 61 65 76 67 98 68 63 69 46 70 47 71 56 72 48 73 49 74
REMARK SMILES IDX 55 75 57 76 50 77 51 78 52 79 53 80 54 81 80 82 81 83 90 84
REMARK SMILES IDX 82 85 83 86 89 87 91 88 84 89 85 90 86 91 87 92 88 93 64 94
REMARK SMILES IDX 65 95 74 96 66 97 67 98 73 99 75 100 68 101 69 102 70 103
REMARK SMILES IDX 71 104 72 105
REMARK H PARENT 10 17 96 55 62 66
REMARK Flexibility Score: inf
ROOT
ATOM      1  C   UNL A   1      33.145  30.819  27.093  1.00  0.00     0.188 C 
ENDROOT
BRANCH   1   2
ATOM      2  C   UNL A   1      33.186  29.404  26.540  1.00  0.00     0.188 C 
BRANCH   2   3
ATOM      3  O   UNL A   1      33.068  29.260  25.134  1.00  0.00    -0.376 OA
BRANCH   3   4
ATOM      4  C   UNL A   1      34.187  28.967  24.313  1.00  0.00     0.202 C 
BRANCH   4   5
ATOM      5  C   UNL A   1      33.999  28.586  22.853  1.00  0.00     0.261 C 
BRANCH   5   6
ATOM      6  O   UNL A   1      33.116  27.495  22.586  1.00  0.00    -0.463 OA
BRANCH   6   7
ATOM      7  C   UNL A   1      33.534  26.210  22.539  1.00  0.00     0.310 C 
ATOM      8  O   UNL A   1      33.557  25.620  21.459  1.00  0.00    -0.252 OA
BRANCH   7   9
ATOM      9  C   UNL A   1      33.745  25.473  23.843  1.00  0.00     0.160 C 
BRANCH   9  10
ATOM     10  C   UNL A   1      32.475  25.135  24.579  1.00  0.00    -0.013 A 
ATOM     11  C   UNL A   1      31.841  26.176  25.277  1.00  0.00     0.006 A 
ATOM     12  C   UNL A   1      31.908  23.840  24.577  1.00  0.00     0.042 A 
ATOM     13  C   UNL A   1      30.676  25.938  25.994  1.00  0.00     0.000 A 
ATOM     14  C   UNL A   1      30.738  23.620  25.311  1.00  0.00     0.026 A 
ATOM     15  C   UNL A   1      30.127  24.660  26.013  1.00  0.00     0.002 A 
BRANCH  12  16
ATOM     16  N   UNL A   1      32.588  22.755  23.992  1.00  0.00    -0.354 N 
ATOM     17  H   UNL A   1      33.028  22.984  23.142  1.00  0.00     0.167 HD
BRANCH  16  18
ATOM     18  C   UNL A   1      32.774  21.398  24.371  1.00  0.00     0.070 A 
ATOM     19  C   UNL A   1      32.404  20.398  23.424  1.00  0.00     0.065 A 
ATOM     20  C   UNL A   1      33.206  20.966  25.640  1.00  0.00     0.080 A 
ATOM     21  Cl  UNL A   1      31.820  20.848  21.852  1.00  0.00    -0.082 Cl
ATOM     22  C   UNL A   1      32.473  19.033  23.709  1.00  0.00     0.023 A 
ATOM     23  C   UNL A   1      33.282  19.572  25.901  1.00  0.00     0.015 A 
ATOM     24  C   UNL A   1      32.916  18.617  24.954  1.00  0.00     0.002 A 
BRANCH  20  25
ATOM     25  C   UNL A   1      33.584  21.879  26.786  1.00  0.00     0.418 C 
ATOM     26  F   UNL A   1      32.487  22.317  27.474  1.00  0.00    -0.166 F 
ATOM     27  F   UNL A   1      34.361  21.253  27.712  1.00  0.00    -0.166 F 
ATOM     28  F   UNL A   1      34.234  23.018  26.432  1.00  0.00    -0.166 F 
ENDBRANCH  20  25
ENDBRANCH  16  18
ENDBRANCH  12  16
ENDBRANCH   9  10
ENDBRANCH   7   9
ENDBRANCH   6   7
ENDBRANCH   5   6
ENDBRANCH   4   5
ENDBRANCH   3   4
ENDBRANCH   2   3
ENDBRANCH   1   2
BRANCH   1  29
ATOM     29  O   UNL A   1      34.405  31.238  27.594  1.00  0.00    -0.377 OA
BRANCH  29  30
ATOM     30  C   UNL A   1      34.393  32.440  28.345  1.00  0.00     0.188 C 
BRANCH  30  31
ATOM     31  C   UNL A   1      34.867  32.357  29.819  1.00  0.00     0.188 C 
BRANCH  31  32
ATOM     32  O   UNL A   1      35.776  33.293  30.387  1.00  0.00    -0.376 OA
BRANCH  32  33
ATOM     33  C   UNL A   1      36.196  33.147  31.729  1.00  0.00     0.202 C 
BRANCH  33  34
ATOM     34  C   UNL A   1      37.612  32.605  31.964  1.00  0.00     0.261 C 
BRANCH  34  35
ATOM     35  O   UNL A   1      37.660  31.358  32.672  1.00  0.00    -0.460 OA
BRANCH  35  36
ATOM     36  C   UNL A   1      37.266  30.261  31.977  1.00  0.00     0.338 C 
ATOM     37  O   UNL A   1      36.130  29.829  31.871  1.00  0.00    -0.246 OA
BRANCH  36  38
ATOM     38  C   UNL A   1      38.406  29.767  31.162  1.00  0.00     0.060 A 
ATOM     39  C   UNL A   1      39.475  29.139  31.825  1.00  0.00     0.016 A 
ATOM     40  C   UNL A   1      38.402  29.853  29.767  1.00  0.00     0.016 A 
ATOM     41  C   UNL A   1      40.557  28.632  31.102  1.00  0.00     0.010 A 
ATOM     42  C   UNL A   1      39.496  29.370  29.045  1.00  0.00     0.010 A 
ATOM     43  C   UNL A   1      40.595  28.798  29.713  1.00  0.00    -0.014 A 
BRANCH  43  44
ATOM     44  C   UNL A   1      41.882  28.687  28.984  1.00  0.00     0.031 A 
ATOM     45  C   UNL A   1      42.216  27.340  28.404  1.00  0.00     0.074 A 
ATOM     46  C   UNL A   1      42.753  29.706  28.887  1.00  0.00     0.049 A 
ATOM     47  N   UNL A   1      43.335  26.909  27.887  1.00  0.00    -0.248 NA
ATOM     48  C   UNL A   1      41.137  26.338  28.434  1.00  0.00     0.031 C 
ATOM     49  C   UNL A   1      42.528  31.065  29.368  1.00  0.00     0.029 A 
ATOM     50  N   UNL A   1      44.028  29.731  28.376  1.00  0.00    -0.354 N 
ATOM     51  C   UNL A   1      43.104  25.577  27.563  1.00  0.00     0.074 A 
ATOM     52  C   UNL A   1      41.745  25.271  27.948  1.00  0.00     0.031 C 
ATOM     53  C   UNL A   1      43.648  31.785  29.169  1.00  0.00     0.029 A 
ATOM     54  C   UNL A   1      44.678  30.923  28.587  1.00  0.00     0.049 A 
ATOM     55  H   UNL A   1      44.437  28.968  27.906  1.00  0.00     0.167 HD
ATOM     56  C   UNL A   1      43.952  24.683  27.003  1.00  0.00     0.037 A 
ATOM     57  C   UNL A   1      45.968  31.261  28.375  1.00  0.00     0.037 A 
ATOM     58  C   UNL A   1      45.306  24.989  26.639  1.00  0.00     0.049 A 
ATOM     59  C   UNL A   1      46.918  30.242  27.797  1.00  0.00     0.074 A 
ATOM     60  C   UNL A   1      46.245  24.165  26.048  1.00  0.00     0.029 A 
ATOM     61  N   UNL A   1      45.920  26.216  26.849  1.00  0.00    -0.354 N 
ATOM     62  N   UNL A   1      46.686  28.992  27.468  1.00  0.00    -0.248 NA
ATOM     63  C   UNL A   1      48.303  30.676  27.562  1.00  0.00     0.031 C 
ATOM     64  C   UNL A   1      47.444  24.879  25.944  1.00  0.00     0.029 A 
ATOM     65  C   UNL A   1      47.234  26.165  26.421  1.00  0.00     0.049 A 
ATOM     66  H   UNL A   1      45.486  27.005  27.245  1.00  0.00     0.167 HD
ATOM     67  C   UNL A   1      47.887  28.499  26.965  1.00  0.00     0.074 A 
ATOM     68  C   UNL A   1      48.844  29.585  27.032  1.00  0.00     0.031 C 
ATOM     69  C   UNL A   1      48.170  27.262  26.483  1.00  0.00     0.037 A 
BRANCH  56  70
ATOM     70  C   UNL A   1      43.440  23.284  26.820  1.00  0.00     0.058 A 
ATOM     71  C   UNL A   1      43.180  22.438  27.912  1.00  0.00     0.135 A 
ATOM     72  C   UNL A   1      43.251  22.765  25.529  1.00  0.00     0.135 A 
ATOM     73  F   UNL A   1      43.370  22.877  29.167  1.00  0.00    -0.206 F 
ATOM     74  C   UNL A   1      42.801  21.113  27.729  1.00  0.00     0.059 A 
ATOM     75  C   UNL A   1      42.843  21.451  25.323  1.00  0.00     0.059 A 
ATOM     76  F   UNL A   1      43.491  23.529  24.452  1.00  0.00    -0.206 F 
ATOM     77  C   UNL A   1      42.646  20.626  26.430  1.00  0.00     0.060 A 
BRANCH  77  78
ATOM     78  S   UNL A   1      42.197  18.893  26.203  1.00  0.00     0.124 S 
ATOM     79  O   UNL A   1      43.080  18.508  25.107  1.00  0.00    -0.237 OA
ATOM     80  O   UNL A   1      42.515  18.314  27.505  1.00  0.00    -0.237 OA
ATOM     81  O   UNL A   1      40.777  18.951  25.875  1.00  0.00    -0.744 OA
ENDBRANCH  77  78
ENDBRANCH  56  70
BRANCH  57  82
ATOM     82  C   UNL A   1      46.435  32.622  28.746  1.00  0.00     0.058 A 
ATOM     83  C   UNL A   1      46.942  32.893  30.025  1.00  0.00     0.135 A 
ATOM     84  C   UNL A   1      46.430  33.669  27.810  1.00  0.00     0.135 A 
ATOM     85  F   UNL A   1      46.952  31.931  30.960  1.00  0.00    -0.206 F 
ATOM     86  C   UNL A   1      47.439  34.149  30.361  1.00  0.00     0.059 A 
ATOM     87  C   UNL A   1      46.942  34.927  28.114  1.00  0.00     0.059 A 
ATOM     88  F   UNL A   1      45.959  33.459  26.571  1.00  0.00    -0.206 F 
ATOM     89  C   UNL A   1      47.448  35.155  29.393  1.00  0.00     0.060 A 
BRANCH  89  90
ATOM     90  S   UNL A   1      48.198  36.747  29.806  1.00  0.00     0.124 S 
ATOM     91  O   UNL A   1      47.199  37.683  29.303  1.00  0.00    -0.237 OA
ATOM     92  O   UNL A   1      48.317  36.657  31.259  1.00  0.00    -0.237 OA
ATOM     93  O   UNL A   1      49.463  36.719  29.078  1.00  0.00    -0.744 OA
ENDBRANCH  89  90
ENDBRANCH  57  82
BRANCH  69  94
ATOM     94  C   UNL A   1      49.550  27.010  25.943  1.00  0.00     0.058 A 
ATOM     95  C   UNL A   1      49.881  27.269  24.606  1.00  0.00     0.135 A 
ATOM     96  C   UNL A   1      50.581  26.609  26.810  1.00  0.00     0.135 A 
ATOM     97  F   UNL A   1      48.933  27.649  23.736  1.00  0.00    -0.206 F 
ATOM     98  C   UNL A   1      51.188  27.138  24.144  1.00  0.00     0.059 A 
ATOM     99  C   UNL A   1      51.898  26.495  26.376  1.00  0.00     0.059 A 
ATOM    100  F   UNL A   1      50.318  26.360  28.103  1.00  0.00    -0.206 F 
ATOM    101  C   UNL A   1      52.191  26.760  25.039  1.00  0.00     0.060 A 
BRANCH 101 102
ATOM    102  S   UNL A   1      53.894  26.662  24.445  1.00  0.00     0.124 S 
ATOM    103  O   UNL A   1      54.475  25.701  25.376  1.00  0.00    -0.237 OA
ATOM    104  O   UNL A   1      53.720  26.193  23.074  1.00  0.00    -0.237 OA
ATOM    105  O   UNL A   1      54.378  28.034  24.575  1.00  0.00    -0.744 OA
ENDBRANCH 101 102
ENDBRANCH  69  94
ENDBRANCH  43  44
ENDBRANCH  36  38
ENDBRANCH  35  36
ENDBRANCH  34  35
ENDBRANCH  33  34
ENDBRANCH  32  33
ENDBRANCH  31  32
ENDBRANCH  30  31
ENDBRANCH  29  30
ENDBRANCH   1  29
TORSDOF 27
ENDMDL
