MODEL 1
REMARK VINA RESULT:      -9.5      0.000      0.000
REMARK SMILES CCC[NH2+][C@@]1(C(=O)OCCOCCOCCOCCOC(=O)c2ccc(-c3c4nc(c(-c5c(F)cc(S(=O)(=O)[O-])cc5F)c5ccc([nH]5)c(-c5c(F)cc(S(=O)(=O)[O-])cc5F)c5nc(c(-c6c(F)cc(S(=O)(=O)[O-])cc6F)c6ccc3[nH]6)C=C5)C=C4)cc2)CCC[C@H](n2nc(C)c(C)c2C)C1
REMARK SMILES IDX 14 1 13 2 12 3 11 4 10 5 9 6 8 7 6 8 7 9 5 10 89 11 101 12
REMARK SMILES IDX 90 13 92 14 91 15 4 16 3 19 2 20 1 21 93 22 94 23 99 24
REMARK SMILES IDX 95 25 97 26 100 27 96 28 98 29 15 30 16 31 17 32 18 33 19 34
REMARK SMILES IDX 20 35 21 36 22 37 23 38 24 39 88 40 25 41 87 42 26 43 27 44
REMARK SMILES IDX 28 45 81 46 29 47 86 48 80 49 82 50 30 51 85 52 79 53 78 54
REMARK SMILES IDX 31 56 65 57 44 58 64 59 45 60 48 61 63 62 83 63 46 64 47 65
REMARK SMILES IDX 62 67 84 68 49 69 32 70 33 71 42 72 34 73 35 74 41 75 43 76
REMARK SMILES IDX 36 77 37 78 38 79 39 80 40 81 66 82 67 83 76 84 68 85 69 86
REMARK SMILES IDX 75 87 77 88 70 89 71 90 72 91 73 92 74 93 50 94 51 95 60 96
REMARK SMILES IDX 52 97 53 98 59 99 61 100 54 101 55 102 56 103 57 104 58 105
REMARK H PARENT 4 17 4 18 82 55 48 66
REMARK Flexibility Score: inf
ROOT
ATOM      1  O   UNL A   1      42.030  19.180  27.541  1.00  0.00    -0.377 OA
ENDROOT
BRANCH   1   2
ATOM      2  C   UNL A   1      41.261  20.370  27.517  1.00  0.00     0.188 C 
BRANCH   2   3
ATOM      3  C   UNL A   1      40.295  20.715  26.364  1.00  0.00     0.188 C 
BRANCH   3   4
ATOM      4  O   UNL A   1      39.095  21.405  26.627  1.00  0.00    -0.376 OA
BRANCH   4   5
ATOM      5  C   UNL A   1      38.974  22.789  26.232  1.00  0.00     0.202 C 
BRANCH   5   6
ATOM      6  C   UNL A   1      37.669  23.493  25.707  1.00  0.00     0.261 C 
BRANCH   6   7
ATOM      7  O   UNL A   1      36.439  22.768  25.976  1.00  0.00    -0.459 OA
BRANCH   7   8
ATOM      8  C   UNL A   1      35.648  22.336  24.965  1.00  0.00     0.368 C 
ATOM      9  O   UNL A   1      35.874  21.290  24.355  1.00  0.00    -0.245 OA
BRANCH   8  10
ATOM     10  C   UNL A   1      34.232  23.106  24.836  1.00  0.00     0.196 C 
ATOM     11  C   UNL A   1      33.703  23.367  26.275  1.00  0.00     0.081 C 
ATOM     12  C   UNL A   1      32.978  22.561  24.055  1.00  0.00     0.108 C 
ATOM     13  C   UNL A   1      32.946  22.174  26.883  1.00  0.00     0.009 C 
ATOM     14  C   UNL A   1      32.146  21.340  24.653  1.00  0.00     0.114 C 
ATOM     15  C   UNL A   1      31.727  21.754  26.061  1.00  0.00     0.028 C 
BRANCH  10  16
ATOM     16  N   UNL A   1      34.627  24.492  24.264  1.00  0.00    -0.332 N 
ATOM     17  H   UNL A   1      35.605  24.462  23.979  1.00  0.00     0.347 HD
ATOM     18  H   UNL A   1      34.012  24.687  23.474  1.00  0.00     0.347 HD
BRANCH  16  19
ATOM     19  C   UNL A   1      34.453  25.575  25.244  1.00  0.00     0.261 C 
BRANCH  19  20
ATOM     20  C   UNL A   1      33.306  26.583  25.069  1.00  0.00     0.058 C 
ATOM     21  C   UNL A   1      32.827  27.184  26.390  1.00  0.00     0.010 C 
ENDBRANCH  19  20
ENDBRANCH  16  19
ENDBRANCH  10  16
BRANCH  14  22
ATOM     22  N   UNL A   1      32.686  19.968  24.661  1.00  0.00    -0.266 N 
ATOM     23  N   UNL A   1      32.502  19.113  25.709  1.00  0.00    -0.178 NA
ATOM     24  C   UNL A   1      32.951  19.213  23.568  1.00  0.00     0.039 A 
ATOM     25  C   UNL A   1      32.982  17.935  25.248  1.00  0.00     0.063 A 
ATOM     26  C   UNL A   1      33.540  18.040  23.958  1.00  0.00    -0.007 A 
ATOM     27  C   UNL A   1      32.207  19.450  22.365  1.00  0.00     0.066 C 
ATOM     28  C   UNL A   1      32.655  16.623  25.856  1.00  0.00     0.069 C 
ATOM     29  C   UNL A   1      34.088  16.940  23.120  1.00  0.00     0.048 C 
ENDBRANCH  14  22
ENDBRANCH   8  10
ENDBRANCH   7   8
ENDBRANCH   6   7
ENDBRANCH   5   6
ENDBRANCH   4   5
ENDBRANCH   3   4
ENDBRANCH   2   3
ENDBRANCH   1   2
BRANCH   1  30
ATOM     30  C   UNL A   1      42.422  18.470  26.370  1.00  0.00     0.188 C 
BRANCH  30  31
ATOM     31  C   UNL A   1      43.887  18.185  26.166  1.00  0.00     0.188 C 
BRANCH  31  32
ATOM     32  O   UNL A   1      44.241  18.141  24.804  1.00  0.00    -0.376 OA
BRANCH  32  33
ATOM     33  C   UNL A   1      45.095  19.172  24.335  1.00  0.00     0.202 C 
BRANCH  33  34
ATOM     34  C   UNL A   1      45.116  20.563  25.012  1.00  0.00     0.261 C 
BRANCH  34  35
ATOM     35  O   UNL A   1      43.994  21.465  24.874  1.00  0.00    -0.460 OA
BRANCH  35  36
ATOM     36  C   UNL A   1      44.193  22.723  24.417  1.00  0.00     0.338 C 
ATOM     37  O   UNL A   1      44.606  23.038  23.324  1.00  0.00    -0.246 OA
BRANCH  36  38
ATOM     38  C   UNL A   1      43.662  23.695  25.420  1.00  0.00     0.060 A 
ATOM     39  C   UNL A   1      43.986  25.051  25.280  1.00  0.00     0.016 A 
ATOM     40  C   UNL A   1      42.903  23.277  26.517  1.00  0.00     0.016 A 
ATOM     41  C   UNL A   1      43.609  25.976  26.266  1.00  0.00     0.010 A 
ATOM     42  C   UNL A   1      42.547  24.200  27.517  1.00  0.00     0.010 A 
ATOM     43  C   UNL A   1      42.939  25.548  27.423  1.00  0.00    -0.014 A 
BRANCH  43  44
ATOM     44  C   UNL A   1      42.877  26.453  28.613  1.00  0.00     0.031 A 
ATOM     45  C   UNL A   1      44.034  26.449  29.572  1.00  0.00     0.074 A 
ATOM     46  C   UNL A   1      41.851  27.294  28.844  1.00  0.00     0.049 A 
ATOM     47  N   UNL A   1      44.199  27.140  30.668  1.00  0.00    -0.248 NA
ATOM     48  C   UNL A   1      45.127  25.512  29.275  1.00  0.00     0.031 C 
ATOM     49  C   UNL A   1      40.638  27.336  28.050  1.00  0.00     0.029 A 
ATOM     50  N   UNL A   1      41.656  28.270  29.795  1.00  0.00    -0.354 N 
ATOM     51  C   UNL A   1      45.393  26.694  31.217  1.00  0.00     0.074 A 
ATOM     52  C   UNL A   1      45.907  25.669  30.334  1.00  0.00     0.031 C 
ATOM     53  C   UNL A   1      39.866  28.351  28.473  1.00  0.00     0.029 A 
ATOM     54  C   UNL A   1      40.483  28.977  29.636  1.00  0.00     0.049 A 
ATOM     55  H   UNL A   1      42.297  28.449  30.521  1.00  0.00     0.167 HD
ATOM     56  C   UNL A   1      45.997  27.093  32.360  1.00  0.00     0.037 A 
ATOM     57  C   UNL A   1      39.941  29.982  30.360  1.00  0.00     0.037 A 
ATOM     58  C   UNL A   1      45.477  28.107  33.242  1.00  0.00     0.049 A 
ATOM     59  C   UNL A   1      40.637  30.412  31.625  1.00  0.00     0.074 A 
ATOM     60  C   UNL A   1      46.029  28.584  34.418  1.00  0.00     0.029 A 
ATOM     61  N   UNL A   1      44.285  28.793  33.054  1.00  0.00    -0.354 N 
ATOM     62  N   UNL A   1      41.776  29.990  32.121  1.00  0.00    -0.248 NA
ATOM     63  C   UNL A   1      39.956  31.415  32.457  1.00  0.00     0.031 C 
ATOM     64  C   UNL A   1      45.146  29.517  34.969  1.00  0.00     0.029 A 
ATOM     65  C   UNL A   1      44.076  29.675  34.104  1.00  0.00     0.049 A 
ATOM     66  H   UNL A   1      43.678  28.671  32.289  1.00  0.00     0.167 HD
ATOM     67  C   UNL A   1      41.947  30.675  33.320  1.00  0.00     0.074 A 
ATOM     68  C   UNL A   1      40.813  31.565  33.458  1.00  0.00     0.031 C 
ATOM     69  C   UNL A   1      42.946  30.563  34.229  1.00  0.00     0.037 A 
BRANCH  56  70
ATOM     70  C   UNL A   1      47.270  26.392  32.746  1.00  0.00     0.058 A 
ATOM     71  C   UNL A   1      47.269  25.242  33.550  1.00  0.00     0.135 A 
ATOM     72  C   UNL A   1      48.508  26.870  32.287  1.00  0.00     0.135 A 
ATOM     73  F   UNL A   1      46.116  24.757  34.037  1.00  0.00    -0.206 F 
ATOM     74  C   UNL A   1      48.452  24.605  33.906  1.00  0.00     0.059 A 
ATOM     75  C   UNL A   1      49.701  26.231  32.604  1.00  0.00     0.059 A 
ATOM     76  F   UNL A   1      48.566  27.972  31.522  1.00  0.00    -0.206 F 
ATOM     77  C   UNL A   1      49.664  25.106  33.425  1.00  0.00     0.060 A 
BRANCH  77  78
ATOM     78  S   UNL A   1      51.188  24.260  33.888  1.00  0.00     0.124 S 
ATOM     79  O   UNL A   1      51.736  23.910  32.582  1.00  0.00    -0.237 OA
ATOM     80  O   UNL A   1      51.908  25.296  34.621  1.00  0.00    -0.237 OA
ATOM     81  O   UNL A   1      50.722  23.134  34.694  1.00  0.00    -0.744 OA
ENDBRANCH  77  78
ENDBRANCH  56  70
BRANCH  57  82
ATOM     82  C   UNL A   1      38.649  30.621  29.955  1.00  0.00     0.058 A 
ATOM     83  C   UNL A   1      37.430  29.926  30.049  1.00  0.00     0.135 A 
ATOM     84  C   UNL A   1      38.602  31.927  29.442  1.00  0.00     0.135 A 
ATOM     85  F   UNL A   1      37.411  28.663  30.507  1.00  0.00    -0.206 F 
ATOM     86  C   UNL A   1      36.224  30.494  29.642  1.00  0.00     0.059 A 
ATOM     87  C   UNL A   1      37.405  32.533  29.069  1.00  0.00     0.059 A 
ATOM     88  F   UNL A   1      39.732  32.640  29.317  1.00  0.00    -0.206 F 
ATOM     89  C   UNL A   1      36.221  31.803  29.160  1.00  0.00     0.060 A 
BRANCH  89  90
ATOM     90  S   UNL A   1      34.648  32.551  28.676  1.00  0.00     0.124 S 
ATOM     91  O   UNL A   1      34.141  33.028  29.958  1.00  0.00    -0.237 OA
ATOM     92  O   UNL A   1      35.075  33.583  27.736  1.00  0.00    -0.237 OA
ATOM     93  O   UNL A   1      33.915  31.438  28.083  1.00  0.00    -0.744 OA
ENDBRANCH  89  90
ENDBRANCH  57  82
BRANCH  69  94
ATOM     94  C   UNL A   1      42.886  31.457  35.439  1.00  0.00     0.058 A 
ATOM     95  C   UNL A   1      43.402  32.763  35.427  1.00  0.00     0.135 A 
ATOM     96  C   UNL A   1      42.259  31.012  36.615  1.00  0.00     0.135 A 
ATOM     97  F   UNL A   1      44.017  33.236  34.332  1.00  0.00    -0.206 F 
ATOM     98  C   UNL A   1      43.323  33.586  36.547  1.00  0.00     0.059 A 
ATOM     99  C   UNL A   1      42.141  31.829  37.735  1.00  0.00     0.059 A 
ATOM    100  F   UNL A   1      41.740  29.776  36.679  1.00  0.00    -0.206 F 
ATOM    101  C   UNL A   1      42.688  33.110  37.696  1.00  0.00     0.060 A 
BRANCH 101 102
ATOM    102  S   UNL A   1      42.569  34.197  39.132  1.00  0.00     0.124 S 
ATOM    103  O   UNL A   1      43.040  33.325  40.202  1.00  0.00    -0.237 OA
ATOM    104  O   UNL A   1      43.460  35.293  38.768  1.00  0.00    -0.237 OA
ATOM    105  O   UNL A   1      41.151  34.541  39.182  1.00  0.00    -0.744 OA
ENDBRANCH 101 102
ENDBRANCH  69  94
ENDBRANCH  43  44
ENDBRANCH  36  38
ENDBRANCH  35  36
ENDBRANCH  34  35
ENDBRANCH  33  34
ENDBRANCH  32  33
ENDBRANCH  31  32
ENDBRANCH  30  31
ENDBRANCH   1  30
TORSDOF 27
ENDMDL
MODEL 2
REMARK VINA RESULT:      -9.4      1.197      3.384
REMARK SMILES CCC[NH2+][C@@]1(C(=O)OCCOCCOCCOCCOC(=O)c2ccc(-c3c4nc(c(-c5c(F)cc(S(=O)(=O)[O-])cc5F)c5ccc([nH]5)c(-c5c(F)cc(S(=O)(=O)[O-])cc5F)c5nc(c(-c6c(F)cc(S(=O)(=O)[O-])cc6F)c6ccc3[nH]6)C=C5)C=C4)cc2)CCC[C@H](n2nc(C)c(C)c2C)C1
REMARK SMILES IDX 14 1 13 2 12 3 11 4 10 5 9 6 8 7 6 8 7 9 5 10 89 11 101 12
REMARK SMILES IDX 90 13 92 14 91 15 4 16 3 19 2 20 1 21 93 22 94 23 99 24
REMARK SMILES IDX 95 25 97 26 100 27 96 28 98 29 15 30 16 31 17 32 18 33 19 34
REMARK SMILES IDX 20 35 21 36 22 37 23 38 24 39 88 40 25 41 87 42 26 43 27 44
REMARK SMILES IDX 28 45 81 46 29 47 86 48 80 49 82 50 30 51 85 52 79 53 78 54
REMARK SMILES IDX 31 56 65 57 44 58 64 59 45 60 48 61 63 62 83 63 46 64 47 65
REMARK SMILES IDX 62 67 84 68 49 69 32 70 33 71 42 72 34 73 35 74 41 75 43 76
REMARK SMILES IDX 36 77 37 78 38 79 39 80 40 81 66 82 67 83 76 84 68 85 69 86
REMARK SMILES IDX 75 87 77 88 70 89 71 90 72 91 73 92 74 93 50 94 51 95 60 96
REMARK SMILES IDX 52 97 53 98 59 99 61 100 54 101 55 102 56 103 57 104 58 105
REMARK H PARENT 4 17 4 18 82 55 48 66
REMARK Flexibility Score: inf
ROOT
ATOM      1  O   UNL A   1      40.809  19.919  27.317  1.00  0.00    -0.377 OA
ENDROOT
BRANCH   1   2
ATOM      2  C   UNL A   1      40.412  21.276  27.421  1.00  0.00     0.188 C 
BRANCH   2   3
ATOM      3  C   UNL A   1      39.756  22.042  26.253  1.00  0.00     0.188 C 
BRANCH   3   4
ATOM      4  O   UNL A   1      38.354  22.061  26.115  1.00  0.00    -0.376 OA
BRANCH   4   5
ATOM      5  C   UNL A   1      37.708  23.253  25.616  1.00  0.00     0.202 C 
BRANCH   5   6
ATOM      6  C   UNL A   1      36.825  23.353  24.318  1.00  0.00     0.261 C 
BRANCH   6   7
ATOM      7  O   UNL A   1      35.699  24.265  24.419  1.00  0.00    -0.459 OA
BRANCH   7   8
ATOM      8  C   UNL A   1      34.544  23.885  25.016  1.00  0.00     0.368 C 
ATOM      9  O   UNL A   1      34.258  24.219  26.166  1.00  0.00    -0.245 OA
BRANCH   8  10
ATOM     10  C   UNL A   1      33.444  23.248  24.018  1.00  0.00     0.196 C 
ATOM     11  C   UNL A   1      33.809  23.683  22.571  1.00  0.00     0.081 C 
ATOM     12  C   UNL A   1      31.891  23.491  24.116  1.00  0.00     0.108 C 
ATOM     13  C   UNL A   1      33.279  25.076  22.190  1.00  0.00     0.009 C 
ATOM     14  C   UNL A   1      31.288  24.911  23.713  1.00  0.00     0.114 C 
ATOM     15  C   UNL A   1      31.757  25.187  22.287  1.00  0.00     0.028 C 
BRANCH  10  16
ATOM     16  N   UNL A   1      33.727  21.725  24.095  1.00  0.00    -0.332 N 
ATOM     17  H   UNL A   1      34.367  21.472  23.342  1.00  0.00     0.347 HD
ATOM     18  H   UNL A   1      34.131  21.531  25.011  1.00  0.00     0.347 HD
BRANCH  16  19
ATOM     19  C   UNL A   1      32.503  20.918  23.965  1.00  0.00     0.261 C 
BRANCH  19  20
ATOM     20  C   UNL A   1      32.445  19.517  24.593  1.00  0.00     0.058 C 
ATOM     21  C   UNL A   1      32.382  18.396  23.558  1.00  0.00     0.010 C 
ENDBRANCH  19  20
ENDBRANCH  16  19
ENDBRANCH  10  16
BRANCH  14  22
ATOM     22  N   UNL A   1      31.487  26.101  24.559  1.00  0.00    -0.266 N 
ATOM     23  N   UNL A   1      31.653  27.352  24.038  1.00  0.00    -0.178 NA
ATOM     24  C   UNL A   1      31.052  26.252  25.833  1.00  0.00     0.039 A 
ATOM     25  C   UNL A   1      31.617  28.158  25.123  1.00  0.00     0.063 A 
ATOM     26  C   UNL A   1      31.512  27.442  26.332  1.00  0.00    -0.007 A 
ATOM     27  C   UNL A   1      29.893  25.524  26.260  1.00  0.00     0.066 C 
ATOM     28  C   UNL A   1      31.365  29.617  25.053  1.00  0.00     0.069 C 
ATOM     29  C   UNL A   1      31.373  28.001  27.703  1.00  0.00     0.048 C 
ENDBRANCH  14  22
ENDBRANCH   8  10
ENDBRANCH   7   8
ENDBRANCH   6   7
ENDBRANCH   5   6
ENDBRANCH   4   5
ENDBRANCH   3   4
ENDBRANCH   2   3
ENDBRANCH   1   2
BRANCH   1  30
ATOM     30  C   UNL A   1      41.455  19.370  26.173  1.00  0.00     0.188 C 
BRANCH  30  31
ATOM     31  C   UNL A   1      42.798  18.715  26.359  1.00  0.00     0.188 C 
BRANCH  31  32
ATOM     32  O   UNL A   1      43.328  18.225  25.150  1.00  0.00    -0.376 OA
BRANCH  32  33
ATOM     33  C   UNL A   1      44.407  18.953  24.586  1.00  0.00     0.202 C 
BRANCH  33  34
ATOM     34  C   UNL A   1      44.708  20.405  25.027  1.00  0.00     0.261 C 
BRANCH  34  35
ATOM     35  O   UNL A   1      43.883  21.500  24.568  1.00  0.00    -0.460 OA
BRANCH  35  36
ATOM     36  C   UNL A   1      44.430  22.722  24.373  1.00  0.00     0.338 C 
ATOM     37  O   UNL A   1      45.147  23.055  23.456  1.00  0.00    -0.246 OA
BRANCH  36  38
ATOM     38  C   UNL A   1      43.878  23.670  25.387  1.00  0.00     0.060 A 
ATOM     39  C   UNL A   1      44.135  25.039  25.238  1.00  0.00     0.016 A 
ATOM     40  C   UNL A   1      43.165  23.219  26.502  1.00  0.00     0.016 A 
ATOM     41  C   UNL A   1      43.739  25.947  26.233  1.00  0.00     0.010 A 
ATOM     42  C   UNL A   1      42.790  24.127  27.509  1.00  0.00     0.010 A 
ATOM     43  C   UNL A   1      43.117  25.491  27.405  1.00  0.00    -0.014 A 
BRANCH  43  44
ATOM     44  C   UNL A   1      43.040  26.395  28.595  1.00  0.00     0.031 A 
ATOM     45  C   UNL A   1      44.198  26.412  29.552  1.00  0.00     0.074 A 
ATOM     46  C   UNL A   1      41.999  27.217  28.828  1.00  0.00     0.049 A 
ATOM     47  N   UNL A   1      44.353  27.105  30.648  1.00  0.00    -0.248 NA
ATOM     48  C   UNL A   1      45.308  25.494  29.253  1.00  0.00     0.031 C 
ATOM     49  C   UNL A   1      40.784  27.238  28.036  1.00  0.00     0.029 A 
ATOM     50  N   UNL A   1      41.788  28.190  29.779  1.00  0.00    -0.354 N 
ATOM     51  C   UNL A   1      45.555  26.681  31.195  1.00  0.00     0.074 A 
ATOM     52  C   UNL A   1      46.086  25.666  30.311  1.00  0.00     0.031 C 
ATOM     53  C   UNL A   1      39.995  28.238  28.461  1.00  0.00     0.029 A 
ATOM     54  C   UNL A   1      40.603  28.875  29.623  1.00  0.00     0.049 A 
ATOM     55  H   UNL A   1      42.427  28.380  30.504  1.00  0.00     0.167 HD
ATOM     56  C   UNL A   1      46.154  27.090  32.338  1.00  0.00     0.037 A 
ATOM     57  C   UNL A   1      40.043  29.870  30.348  1.00  0.00     0.037 A 
ATOM     58  C   UNL A   1      45.617  28.094  33.220  1.00  0.00     0.049 A 
ATOM     59  C   UNL A   1      40.734  30.312  31.612  1.00  0.00     0.074 A 
ATOM     60  C   UNL A   1      46.162  28.581  34.395  1.00  0.00     0.029 A 
ATOM     61  N   UNL A   1      44.413  28.759  33.035  1.00  0.00    -0.354 N 
ATOM     62  N   UNL A   1      41.881  29.910  32.106  1.00  0.00    -0.248 NA
ATOM     63  C   UNL A   1      40.036  31.302  32.445  1.00  0.00     0.031 C 
ATOM     64  C   UNL A   1      45.264  29.497  34.949  1.00  0.00     0.029 A 
ATOM     65  C   UNL A   1      44.189  29.636  34.085  1.00  0.00     0.049 A 
ATOM     66  H   UNL A   1      43.807  28.626  32.270  1.00  0.00     0.167 HD
ATOM     67  C   UNL A   1      42.041  30.598  33.305  1.00  0.00     0.074 A 
ATOM     68  C   UNL A   1      40.892  31.467  33.445  1.00  0.00     0.031 C 
ATOM     69  C   UNL A   1      43.044  30.504  34.212  1.00  0.00     0.037 A 
BRANCH  56  70
ATOM     70  C   UNL A   1      47.440  26.413  32.721  1.00  0.00     0.058 A 
ATOM     71  C   UNL A   1      48.690  26.922  32.337  1.00  0.00     0.135 A 
ATOM     72  C   UNL A   1      47.419  25.244  33.500  1.00  0.00     0.135 A 
ATOM     73  F   UNL A   1      48.768  28.021  31.571  1.00  0.00    -0.206 F 
ATOM     74  C   UNL A   1      49.873  26.283  32.691  1.00  0.00     0.059 A 
ATOM     75  C   UNL A   1      48.590  24.607  33.893  1.00  0.00     0.059 A 
ATOM     76  F   UNL A   1      46.250  24.710  33.886  1.00  0.00    -0.206 F 
ATOM     77  C   UNL A   1      49.812  25.127  33.472  1.00  0.00     0.060 A 
BRANCH  77  78
ATOM     78  S   UNL A   1      51.358  24.318  33.932  1.00  0.00     0.124 S 
ATOM     79  O   UNL A   1      51.286  23.087  33.152  1.00  0.00    -0.237 OA
ATOM     80  O   UNL A   1      52.357  25.288  33.494  1.00  0.00    -0.237 OA
ATOM     81  O   UNL A   1      51.240  24.152  35.378  1.00  0.00    -0.744 OA
ENDBRANCH  77  78
ENDBRANCH  56  70
BRANCH  57  82
ATOM     82  C   UNL A   1      38.739  30.485  29.945  1.00  0.00     0.058 A 
ATOM     83  C   UNL A   1      37.539  29.755  30.003  1.00  0.00     0.135 A 
ATOM     84  C   UNL A   1      38.663  31.805  29.471  1.00  0.00     0.135 A 
ATOM     85  F   UNL A   1      37.549  28.479  30.422  1.00  0.00    -0.206 F 
ATOM     86  C   UNL A   1      36.323  30.302  29.597  1.00  0.00     0.059 A 
ATOM     87  C   UNL A   1      37.454  32.388  29.101  1.00  0.00     0.059 A 
ATOM     88  F   UNL A   1      39.774  32.552  29.382  1.00  0.00    -0.206 F 
ATOM     89  C   UNL A   1      36.290  31.625  29.154  1.00  0.00     0.060 A 
BRANCH  89  90
ATOM     90  S   UNL A   1      34.703  32.344  28.672  1.00  0.00     0.124 S 
ATOM     91  O   UNL A   1      35.119  33.357  27.708  1.00  0.00    -0.237 OA
ATOM     92  O   UNL A   1      33.999  31.190  28.120  1.00  0.00    -0.237 OA
ATOM     93  O   UNL A   1      34.168  32.853  29.931  1.00  0.00    -0.744 OA
ENDBRANCH  89  90
ENDBRANCH  57  82
BRANCH  69  94
ATOM     94  C   UNL A   1      42.970  31.397  35.423  1.00  0.00     0.058 A 
ATOM     95  C   UNL A   1      43.488  32.701  35.419  1.00  0.00     0.135 A 
ATOM     96  C   UNL A   1      42.327  30.951  36.589  1.00  0.00     0.135 A 
ATOM     97  F   UNL A   1      44.118  33.175  34.333  1.00  0.00    -0.206 F 
ATOM     98  C   UNL A   1      43.396  33.523  36.539  1.00  0.00     0.059 A 
ATOM     99  C   UNL A   1      42.195  31.766  37.710  1.00  0.00     0.059 A 
ATOM    100  F   UNL A   1      41.804  29.716  36.645  1.00  0.00    -0.206 F 
ATOM    101  C   UNL A   1      42.746  33.047  37.679  1.00  0.00     0.060 A 
BRANCH 101 102
ATOM    102  S   UNL A   1      42.609  34.132  39.115  1.00  0.00     0.124 S 
ATOM    103  O   UNL A   1      43.992  34.563  39.292  1.00  0.00    -0.237 OA
ATOM    104  O   UNL A   1      41.681  35.156  38.645  1.00  0.00    -0.237 OA
ATOM    105  O   UNL A   1      42.087  33.253  40.157  1.00  0.00    -0.744 OA
ENDBRANCH 101 102
ENDBRANCH  69  94
ENDBRANCH  43  44
ENDBRANCH  36  38
ENDBRANCH  35  36
ENDBRANCH  34  35
ENDBRANCH  33  34
ENDBRANCH  32  33
ENDBRANCH  31  32
ENDBRANCH  30  31
ENDBRANCH   1  30
TORSDOF 27
ENDMDL
MODEL 3
REMARK VINA RESULT:      -9.4      2.508      8.519
REMARK SMILES CCC[NH2+][C@@]1(C(=O)OCCOCCOCCOCCOC(=O)c2ccc(-c3c4nc(c(-c5c(F)cc(S(=O)(=O)[O-])cc5F)c5ccc([nH]5)c(-c5c(F)cc(S(=O)(=O)[O-])cc5F)c5nc(c(-c6c(F)cc(S(=O)(=O)[O-])cc6F)c6ccc3[nH]6)C=C5)C=C4)cc2)CCC[C@H](n2nc(C)c(C)c2C)C1
REMARK SMILES IDX 14 1 13 2 12 3 11 4 10 5 9 6 8 7 6 8 7 9 5 10 89 11 101 12
REMARK SMILES IDX 90 13 92 14 91 15 4 16 3 19 2 20 1 21 93 22 94 23 99 24
REMARK SMILES IDX 95 25 97 26 100 27 96 28 98 29 15 30 16 31 17 32 18 33 19 34
REMARK SMILES IDX 20 35 21 36 22 37 23 38 24 39 88 40 25 41 87 42 26 43 27 44
REMARK SMILES IDX 28 45 81 46 29 47 86 48 80 49 82 50 30 51 85 52 79 53 78 54
REMARK SMILES IDX 31 56 65 57 44 58 64 59 45 60 48 61 63 62 83 63 46 64 47 65
REMARK SMILES IDX 62 67 84 68 49 69 32 70 33 71 42 72 34 73 35 74 41 75 43 76
REMARK SMILES IDX 36 77 37 78 38 79 39 80 40 81 66 82 67 83 76 84 68 85 69 86
REMARK SMILES IDX 75 87 77 88 70 89 71 90 72 91 73 92 74 93 50 94 51 95 60 96
REMARK SMILES IDX 52 97 53 98 59 99 61 100 54 101 55 102 56 103 57 104 58 105
REMARK H PARENT 4 17 4 18 82 55 48 66
REMARK Flexibility Score: inf
ROOT
ATOM      1  O   UNL A   1      42.256  20.278  27.113  1.00  0.00    -0.377 OA
ENDROOT
BRANCH   1   2
ATOM      2  C   UNL A   1      41.244  21.252  27.300  1.00  0.00     0.188 C 
BRANCH   2   3
ATOM      3  C   UNL A   1      40.212  21.601  26.206  1.00  0.00     0.188 C 
BRANCH   3   4
ATOM      4  O   UNL A   1      39.110  20.754  25.975  1.00  0.00    -0.376 OA
BRANCH   4   5
ATOM      5  C   UNL A   1      38.101  21.152  25.022  1.00  0.00     0.202 C 
BRANCH   5   6
ATOM      6  C   UNL A   1      36.566  20.815  25.103  1.00  0.00     0.261 C 
BRANCH   6   7
ATOM      7  O   UNL A   1      35.688  21.861  24.608  1.00  0.00    -0.459 OA
BRANCH   7   8
ATOM      8  C   UNL A   1      35.289  22.876  25.411  1.00  0.00     0.368 C 
ATOM      9  O   UNL A   1      36.024  23.359  26.273  1.00  0.00    -0.245 OA
BRANCH   8  10
ATOM     10  C   UNL A   1      33.926  23.611  24.947  1.00  0.00     0.196 C 
ATOM     11  C   UNL A   1      33.075  23.877  26.221  1.00  0.00     0.081 C 
ATOM     12  C   UNL A   1      32.898  23.027  23.908  1.00  0.00     0.108 C 
ATOM     13  C   UNL A   1      32.222  22.674  26.659  1.00  0.00     0.009 C 
ATOM     14  C   UNL A   1      31.974  21.794  24.320  1.00  0.00     0.114 C 
ATOM     15  C   UNL A   1      31.234  22.216  25.586  1.00  0.00     0.028 C 
BRANCH  10  16
ATOM     16  N   UNL A   1      34.414  24.999  24.457  1.00  0.00    -0.332 N 
ATOM     17  H   UNL A   1      34.895  25.467  25.224  1.00  0.00     0.347 HD
ATOM     18  H   UNL A   1      35.036  24.846  23.663  1.00  0.00     0.347 HD
BRANCH  16  19
ATOM     19  C   UNL A   1      33.307  25.854  24.000  1.00  0.00     0.261 C 
BRANCH  19  20
ATOM     20  C   UNL A   1      33.297  26.378  22.555  1.00  0.00     0.058 C 
ATOM     21  C   UNL A   1      31.968  26.142  21.839  1.00  0.00     0.010 C 
ENDBRANCH  19  20
ENDBRANCH  16  19
ENDBRANCH  10  16
BRANCH  14  22
ATOM     22  N   UNL A   1      32.526  20.436  24.475  1.00  0.00    -0.266 N 
ATOM     23  N   UNL A   1      32.324  19.686  25.598  1.00  0.00    -0.178 NA
ATOM     24  C   UNL A   1      32.823  19.580  23.469  1.00  0.00     0.039 A 
ATOM     25  C   UNL A   1      32.825  18.474  25.267  1.00  0.00     0.063 A 
ATOM     26  C   UNL A   1      33.413  18.457  23.987  1.00  0.00    -0.007 A 
ATOM     27  C   UNL A   1      32.107  19.688  22.232  1.00  0.00     0.066 C 
ATOM     28  C   UNL A   1      32.495  17.225  25.994  1.00  0.00     0.069 C 
ATOM     29  C   UNL A   1      33.991  17.286  23.275  1.00  0.00     0.048 C 
ENDBRANCH  14  22
ENDBRANCH   8  10
ENDBRANCH   7   8
ENDBRANCH   6   7
ENDBRANCH   5   6
ENDBRANCH   4   5
ENDBRANCH   3   4
ENDBRANCH   2   3
ENDBRANCH   1   2
BRANCH   1  30
ATOM     30  C   UNL A   1      42.869  20.006  25.856  1.00  0.00     0.188 C 
BRANCH  30  31
ATOM     31  C   UNL A   1      44.075  20.817  25.462  1.00  0.00     0.188 C 
BRANCH  31  32
ATOM     32  O   UNL A   1      43.840  21.612  24.324  1.00  0.00    -0.376 OA
BRANCH  32  33
ATOM     33  C   UNL A   1      43.909  23.018  24.504  1.00  0.00     0.202 C 
BRANCH  33  34
ATOM     34  C   UNL A   1      43.481  23.674  25.839  1.00  0.00     0.261 C 
BRANCH  34  35
ATOM     35  O   UNL A   1      43.071  25.060  25.879  1.00  0.00    -0.460 OA
BRANCH  35  36
ATOM     36  C   UNL A   1      43.910  25.998  26.377  1.00  0.00     0.338 C 
ATOM     37  O   UNL A   1      45.025  26.253  25.982  1.00  0.00    -0.246 OA
BRANCH  36  38
ATOM     38  C   UNL A   1      43.183  26.804  27.404  1.00  0.00     0.060 A 
ATOM     39  C   UNL A   1      43.336  28.196  27.398  1.00  0.00     0.016 A 
ATOM     40  C   UNL A   1      42.407  26.200  28.397  1.00  0.00     0.016 A 
ATOM     41  C   UNL A   1      42.769  28.977  28.418  1.00  0.00     0.010 A 
ATOM     42  C   UNL A   1      41.860  26.980  29.432  1.00  0.00     0.010 A 
ATOM     43  C   UNL A   1      42.077  28.369  29.477  1.00  0.00    -0.014 A 
BRANCH  43  44
ATOM     44  C   UNL A   1      41.809  29.152  30.723  1.00  0.00     0.031 A 
ATOM     45  C   UNL A   1      40.568  29.997  30.781  1.00  0.00     0.074 A 
ATOM     46  C   UNL A   1      42.609  29.107  31.806  1.00  0.00     0.049 A 
ATOM     47  N   UNL A   1      40.134  30.761  31.747  1.00  0.00    -0.248 NA
ATOM     48  C   UNL A   1      39.730  30.013  29.571  1.00  0.00     0.031 C 
ATOM     49  C   UNL A   1      43.877  28.405  31.854  1.00  0.00     0.029 A 
ATOM     50  N   UNL A   1      42.484  29.647  33.066  1.00  0.00    -0.354 N 
ATOM     51  C   UNL A   1      38.996  31.382  31.252  1.00  0.00     0.074 A 
ATOM     52  C   UNL A   1      38.811  30.908  29.897  1.00  0.00     0.031 C 
ATOM     53  C   UNL A   1      44.370  28.465  33.102  1.00  0.00     0.029 A 
ATOM     54  C   UNL A   1      43.501  29.295  33.927  1.00  0.00     0.049 A 
ATOM     55  H   UNL A   1      41.736  30.231  33.329  1.00  0.00     0.167 HD
ATOM     56  C   UNL A   1      38.187  32.277  31.867  1.00  0.00     0.037 A 
ATOM     57  C   UNL A   1      43.737  29.628  35.216  1.00  0.00     0.037 A 
ATOM     58  C   UNL A   1      38.380  32.753  33.212  1.00  0.00     0.049 A 
ATOM     59  C   UNL A   1      42.818  30.622  35.880  1.00  0.00     0.074 A 
ATOM     60  C   UNL A   1      37.604  33.652  33.922  1.00  0.00     0.029 A 
ATOM     61  N   UNL A   1      39.423  32.381  34.049  1.00  0.00    -0.354 N 
ATOM     62  N   UNL A   1      41.735  31.187  35.401  1.00  0.00    -0.248 NA
ATOM     63  C   UNL A   1      43.176  31.062  37.236  1.00  0.00     0.031 C 
ATOM     64  C   UNL A   1      38.205  33.866  35.165  1.00  0.00     0.029 A 
ATOM     65  C   UNL A   1      39.321  33.049  35.261  1.00  0.00     0.049 A 
ATOM     66  H   UNL A   1      40.132  31.739  33.817  1.00  0.00     0.167 HD
ATOM     67  C   UNL A   1      41.284  32.048  36.396  1.00  0.00     0.074 A 
ATOM     68  C   UNL A   1      42.190  31.904  37.517  1.00  0.00     0.031 C 
ATOM     69  C   UNL A   1      40.224  32.893  36.374  1.00  0.00     0.037 A 
BRANCH  56  70
ATOM     70  C   UNL A   1      37.045  32.834  31.066  1.00  0.00     0.058 A 
ATOM     71  C   UNL A   1      35.722  32.405  31.261  1.00  0.00     0.135 A 
ATOM     72  C   UNL A   1      37.276  33.828  30.101  1.00  0.00     0.135 A 
ATOM     73  F   UNL A   1      35.448  31.439  32.152  1.00  0.00    -0.206 F 
ATOM     74  C   UNL A   1      34.674  32.923  30.509  1.00  0.00     0.059 A 
ATOM     75  C   UNL A   1      36.238  34.383  29.361  1.00  0.00     0.059 A 
ATOM     76  F   UNL A   1      38.522  34.268  29.869  1.00  0.00    -0.206 F 
ATOM     77  C   UNL A   1      34.942  33.914  29.563  1.00  0.00     0.060 A 
BRANCH  77  78
ATOM     78  S   UNL A   1      33.566  34.583  28.606  1.00  0.00     0.124 S 
ATOM     79  O   UNL A   1      34.189  35.738  27.969  1.00  0.00    -0.237 OA
ATOM     80  O   UNL A   1      33.237  33.471  27.719  1.00  0.00    -0.237 OA
ATOM     81  O   UNL A   1      32.562  34.891  29.620  1.00  0.00    -0.744 OA
ENDBRANCH  77  78
ENDBRANCH  56  70
BRANCH  57  82
ATOM     82  C   UNL A   1      44.914  29.076  35.958  1.00  0.00     0.058 A 
ATOM     83  C   UNL A   1      46.166  29.714  35.920  1.00  0.00     0.135 A 
ATOM     84  C   UNL A   1      44.824  27.888  36.701  1.00  0.00     0.135 A 
ATOM     85  F   UNL A   1      46.324  30.840  35.205  1.00  0.00    -0.206 F 
ATOM     86  C   UNL A   1      47.280  29.192  36.575  1.00  0.00     0.059 A 
ATOM     87  C   UNL A   1      45.911  27.369  37.401  1.00  0.00     0.059 A 
ATOM     88  F   UNL A   1      43.660  27.224  36.770  1.00  0.00    -0.206 F 
ATOM     89  C   UNL A   1      47.139  28.021  37.321  1.00  0.00     0.060 A 
BRANCH  89  90
ATOM     90  S   UNL A   1      48.576  27.374  38.207  1.00  0.00     0.124 S 
ATOM     91  O   UNL A   1      49.241  28.602  38.629  1.00  0.00    -0.237 OA
ATOM     92  O   UNL A   1      47.954  26.588  39.268  1.00  0.00    -0.237 OA
ATOM     93  O   UNL A   1      49.276  26.596  37.190  1.00  0.00    -0.744 OA
ENDBRANCH  89  90
ENDBRANCH  57  82
BRANCH  69  94
ATOM     94  C   UNL A   1      39.953  33.699  37.617  1.00  0.00     0.058 A 
ATOM     95  C   UNL A   1      40.648  34.885  37.902  1.00  0.00     0.135 A 
ATOM     96  C   UNL A   1      38.948  33.298  38.512  1.00  0.00     0.135 A 
ATOM     97  F   UNL A   1      41.623  35.310  37.083  1.00  0.00    -0.206 F 
ATOM     98  C   UNL A   1      40.374  35.631  39.044  1.00  0.00     0.059 A 
ATOM     99  C   UNL A   1      38.635  34.045  39.644  1.00  0.00     0.059 A 
ATOM    100  F   UNL A   1      38.245  32.177  38.284  1.00  0.00    -0.206 F 
ATOM    101  C   UNL A   1      39.364  35.204  39.909  1.00  0.00     0.060 A 
BRANCH 101 102
ATOM    102  S   UNL A   1      39.001  36.195  41.374  1.00  0.00     0.124 S 
ATOM    103  O   UNL A   1      37.864  35.477  41.940  1.00  0.00    -0.237 OA
ATOM    104  O   UNL A   1      40.247  36.105  42.127  1.00  0.00    -0.237 OA
ATOM    105  O   UNL A   1      38.700  37.514  40.826  1.00  0.00    -0.744 OA
ENDBRANCH 101 102
ENDBRANCH  69  94
ENDBRANCH  43  44
ENDBRANCH  36  38
ENDBRANCH  35  36
ENDBRANCH  34  35
ENDBRANCH  33  34
ENDBRANCH  32  33
ENDBRANCH  31  32
ENDBRANCH  30  31
ENDBRANCH   1  30
TORSDOF 27
ENDMDL
