MODEL 1
REMARK VINA RESULT:      -9.5      0.000      0.000
REMARK SMILES O=C(Cc1ccccc1-c1ccn(C(F)F)c(=O)c1)OCCOCCOCCOCCOC(=O)c1ccc(-c2c3nc(c(-c4c(F)cc(S(=O)(=O)[O-])cc4F)c4ccc([nH]4)c(-c4c(F)cc(S(=O)(=O)[O-])cc4F)c4nc(c(-c5c(F)cc(S(=O)(=O)[O-])cc5F)c5ccc2[nH]5)C=C4)C=C3)cc1
REMARK SMILES IDX 26 1 25 2 24 3 23 4 22 5 21 6 20 7 2 8 1 9 3 10 4 11 5 12
REMARK SMILES IDX 9 13 6 14 8 15 7 16 10 17 11 18 19 19 12 20 17 21 13 22
REMARK SMILES IDX 18 23 14 24 15 25 16 26 27 27 28 28 29 29 30 30 31 31 32 32
REMARK SMILES IDX 33 33 34 34 35 35 36 36 100 37 37 38 99 39 38 40 39 41 40 42
REMARK SMILES IDX 93 43 41 44 98 45 92 46 94 47 42 48 97 49 91 50 90 51 43 53
REMARK SMILES IDX 77 54 56 55 76 56 57 57 60 58 75 59 95 60 58 61 59 62 74 64
REMARK SMILES IDX 96 65 61 66 44 67 45 68 54 69 46 70 47 71 53 72 55 73 48 74
REMARK SMILES IDX 49 75 50 76 51 77 52 78 78 79 79 80 88 81 80 82 81 83 87 84
REMARK SMILES IDX 89 85 82 86 83 87 84 88 85 89 86 90 62 91 63 92 72 93 64 94
REMARK SMILES IDX 65 95 71 96 73 97 66 98 67 99 68 100 69 101 70 102
REMARK H PARENT 94 52 60 63
REMARK Flexibility Score: inf
ROOT
ATOM      1  O   UNL A   1      37.701  22.112  24.852  1.00  0.00    -0.377 OA
ENDROOT
BRANCH   1   2
ATOM      2  C   UNL A   1      36.915  22.142  23.671  1.00  0.00     0.188 C 
BRANCH   2   3
ATOM      3  C   UNL A   1      35.974  23.341  23.560  1.00  0.00     0.188 C 
BRANCH   3   4
ATOM      4  O   UNL A   1      34.958  23.324  22.575  1.00  0.00    -0.376 OA
BRANCH   4   5
ATOM      5  C   UNL A   1      33.604  23.690  22.742  1.00  0.00     0.202 C 
BRANCH   5   6
ATOM      6  C   UNL A   1      33.006  25.008  22.269  1.00  0.00     0.261 C 
BRANCH   6   7
ATOM      7  O   UNL A   1      33.460  26.220  22.885  1.00  0.00    -0.463 OA
BRANCH   7   8
ATOM      8  C   UNL A   1      32.998  27.470  22.705  1.00  0.00     0.310 C 
ATOM      9  O   UNL A   1      33.707  28.289  22.119  1.00  0.00    -0.252 OA
BRANCH   8  10
ATOM     10  C   UNL A   1      31.713  27.912  23.358  1.00  0.00     0.158 C 
BRANCH  10  11
ATOM     11  C   UNL A   1      31.754  28.473  24.753  1.00  0.00    -0.029 A 
ATOM     12  C   UNL A   1      31.650  29.871  24.906  1.00  0.00     0.005 A 
ATOM     13  C   UNL A   1      31.959  27.650  25.895  1.00  0.00    -0.014 A 
ATOM     14  C   UNL A   1      31.723  30.461  26.161  1.00  0.00     0.000 A 
ATOM     15  C   UNL A   1      32.083  28.288  27.144  1.00  0.00     0.009 A 
ATOM     16  C   UNL A   1      31.954  29.672  27.279  1.00  0.00     0.001 A 
BRANCH  13  17
ATOM     17  C   UNL A   1      31.982  26.147  25.884  1.00  0.00    -0.011 A 
ATOM     18  C   UNL A   1      30.865  25.289  25.511  1.00  0.00     0.027 A 
ATOM     19  C   UNL A   1      33.120  25.535  26.277  1.00  0.00     0.080 A 
ATOM     20  C   UNL A   1      30.960  23.953  25.582  1.00  0.00     0.095 A 
ATOM     21  C   UNL A   1      33.270  24.054  26.288  1.00  0.00     0.255 A 
ATOM     22  N   UNL A   1      32.136  23.334  25.963  1.00  0.00    -0.258 N 
ATOM     23  O   UNL A   1      34.369  23.578  26.555  1.00  0.00    -0.269 OA
BRANCH  22  24
ATOM     24  C   UNL A   1      32.250  21.897  25.971  1.00  0.00     0.451 C 
ATOM     25  F   UNL A   1      31.162  21.325  25.395  1.00  0.00    -0.185 F 
ATOM     26  F   UNL A   1      33.346  21.474  25.298  1.00  0.00    -0.185 F 
ENDBRANCH  22  24
ENDBRANCH  13  17
ENDBRANCH  10  11
ENDBRANCH   8  10
ENDBRANCH   7   8
ENDBRANCH   6   7
ENDBRANCH   5   6
ENDBRANCH   4   5
ENDBRANCH   3   4
ENDBRANCH   2   3
ENDBRANCH   1   2
BRANCH   1  27
ATOM     27  C   UNL A   1      37.583  23.280  25.646  1.00  0.00     0.188 C 
BRANCH  27  28
ATOM     28  C   UNL A   1      38.899  23.740  26.304  1.00  0.00     0.188 C 
BRANCH  28  29
ATOM     29  O   UNL A   1      39.550  22.946  27.281  1.00  0.00    -0.376 OA
BRANCH  29  30
ATOM     30  C   UNL A   1      40.862  22.451  27.075  1.00  0.00     0.202 C 
BRANCH  30  31
ATOM     31  C   UNL A   1      41.953  23.196  26.285  1.00  0.00     0.261 C 
BRANCH  31  32
ATOM     32  O   UNL A   1      41.843  24.615  26.179  1.00  0.00    -0.460 OA
BRANCH  32  33
ATOM     33  C   UNL A   1      42.917  25.331  26.586  1.00  0.00     0.338 C 
ATOM     34  O   UNL A   1      44.002  25.413  26.036  1.00  0.00    -0.246 OA
BRANCH  33  35
ATOM     35  C   UNL A   1      42.484  26.182  27.713  1.00  0.00     0.060 A 
ATOM     36  C   UNL A   1      43.339  27.206  28.150  1.00  0.00     0.016 A 
ATOM     37  C   UNL A   1      41.221  26.022  28.285  1.00  0.00     0.016 A 
ATOM     38  C   UNL A   1      42.924  28.086  29.147  1.00  0.00     0.010 A 
ATOM     39  C   UNL A   1      40.827  26.873  29.319  1.00  0.00     0.010 A 
ATOM     40  C   UNL A   1      41.679  27.901  29.761  1.00  0.00    -0.014 A 
BRANCH  40  41
ATOM     41  C   UNL A   1      41.338  28.657  30.986  1.00  0.00     0.031 A 
ATOM     42  C   UNL A   1      40.196  29.631  30.914  1.00  0.00     0.074 A 
ATOM     43  C   UNL A   1      42.041  28.505  32.122  1.00  0.00     0.049 A 
ATOM     44  N   UNL A   1      39.795  30.501  31.801  1.00  0.00    -0.248 NA
ATOM     45  C   UNL A   1      39.404  29.626  29.671  1.00  0.00     0.031 C 
ATOM     46  C   UNL A   1      43.138  27.557  32.319  1.00  0.00     0.029 A 
ATOM     47  N   UNL A   1      41.954  29.171  33.319  1.00  0.00    -0.354 N 
ATOM     48  C   UNL A   1      38.722  31.163  31.217  1.00  0.00     0.074 A 
ATOM     49  C   UNL A   1      38.532  30.595  29.901  1.00  0.00     0.031 C 
ATOM     50  C   UNL A   1      43.649  27.732  33.551  1.00  0.00     0.029 A 
ATOM     51  C   UNL A   1      42.944  28.830  34.212  1.00  0.00     0.049 A 
ATOM     52  H   UNL A   1      41.250  29.830  33.520  1.00  0.00     0.167 HD
ATOM     53  C   UNL A   1      37.970  32.159  31.735  1.00  0.00     0.037 A 
ATOM     54  C   UNL A   1      43.270  29.378  35.400  1.00  0.00     0.037 A 
ATOM     55  C   UNL A   1      38.163  32.711  33.049  1.00  0.00     0.049 A 
ATOM     56  C   UNL A   1      42.459  30.541  35.922  1.00  0.00     0.074 A 
ATOM     57  C   UNL A   1      37.419  33.689  33.685  1.00  0.00     0.029 A 
ATOM     58  N   UNL A   1      39.180  32.349  33.918  1.00  0.00    -0.354 N 
ATOM     59  N   UNL A   1      41.410  31.122  35.388  1.00  0.00    -0.248 NA
ATOM     60  C   UNL A   1      42.878  31.130  37.203  1.00  0.00     0.031 C 
ATOM     61  C   UNL A   1      38.027  33.966  34.912  1.00  0.00     0.029 A 
ATOM     62  C   UNL A   1      39.112  33.118  35.067  1.00  0.00     0.049 A 
ATOM     63  H   UNL A   1      39.851  31.651  33.744  1.00  0.00     0.167 HD
ATOM     64  C   UNL A   1      41.037  32.128  36.274  1.00  0.00     0.074 A 
ATOM     65  C   UNL A   1      41.955  32.063  37.391  1.00  0.00     0.031 C 
ATOM     66  C   UNL A   1      40.030  33.031  36.174  1.00  0.00     0.037 A 
BRANCH  53  67
ATOM     67  C   UNL A   1      36.887  32.750  30.879  1.00  0.00     0.058 A 
ATOM     68  C   UNL A   1      35.552  32.329  30.976  1.00  0.00     0.135 A 
ATOM     69  C   UNL A   1      37.180  33.820  30.018  1.00  0.00     0.135 A 
ATOM     70  F   UNL A   1      35.224  31.294  31.764  1.00  0.00    -0.206 F 
ATOM     71  C   UNL A   1      34.542  32.956  30.253  1.00  0.00     0.059 A 
ATOM     72  C   UNL A   1      36.183  34.477  29.305  1.00  0.00     0.059 A 
ATOM     73  F   UNL A   1      38.444  34.250  29.881  1.00  0.00    -0.206 F 
ATOM     74  C   UNL A   1      34.866  34.038  29.431  1.00  0.00     0.060 A 
BRANCH  74  75
ATOM     75  S   UNL A   1      33.533  34.885  28.557  1.00  0.00     0.124 S 
ATOM     76  O   UNL A   1      34.264  35.941  27.864  1.00  0.00    -0.237 OA
ATOM     77  O   UNL A   1      32.996  33.824  27.710  1.00  0.00    -0.237 OA
ATOM     78  O   UNL A   1      32.651  35.334  29.631  1.00  0.00    -0.744 OA
ENDBRANCH  74  75
ENDBRANCH  53  67
BRANCH  54  79
ATOM     79  C   UNL A   1      44.457  28.893  36.160  1.00  0.00     0.058 A 
ATOM     80  C   UNL A   1      45.732  29.440  35.952  1.00  0.00     0.135 A 
ATOM     81  C   UNL A   1      44.349  27.829  37.071  1.00  0.00     0.135 A 
ATOM     82  F   UNL A   1      45.894  30.449  35.082  1.00  0.00    -0.206 F 
ATOM     83  C   UNL A   1      46.859  28.931  36.590  1.00  0.00     0.059 A 
ATOM     84  C   UNL A   1      45.456  27.325  37.747  1.00  0.00     0.059 A 
ATOM     85  F   UNL A   1      43.153  27.271  37.317  1.00  0.00    -0.206 F 
ATOM     86  C   UNL A   1      46.711  27.870  37.485  1.00  0.00     0.060 A 
BRANCH  86  87
ATOM     87  S   UNL A   1      48.179  27.225  38.316  1.00  0.00     0.124 S 
ATOM     88  O   UNL A   1      49.241  27.665  37.419  1.00  0.00    -0.237 OA
ATOM     89  O   UNL A   1      48.116  27.895  39.611  1.00  0.00    -0.237 OA
ATOM     90  O   UNL A   1      47.936  25.785  38.352  1.00  0.00    -0.744 OA
ENDBRANCH  86  87
ENDBRANCH  54  79
BRANCH  66  91
ATOM     91  C   UNL A   1      39.847  34.008  37.303  1.00  0.00     0.058 A 
ATOM     92  C   UNL A   1      39.063  33.697  38.424  1.00  0.00     0.135 A 
ATOM     93  C   UNL A   1      40.530  35.236  37.302  1.00  0.00     0.135 A 
ATOM     94  F   UNL A   1      38.383  32.541  38.474  1.00  0.00    -0.206 F 
ATOM     95  C   UNL A   1      38.949  34.575  39.497  1.00  0.00     0.059 A 
ATOM     96  C   UNL A   1      40.456  36.115  38.377  1.00  0.00     0.059 A 
ATOM     97  F   UNL A   1      41.305  35.578  36.259  1.00  0.00    -0.206 F 
ATOM     98  C   UNL A   1      39.657  35.779  39.469  1.00  0.00     0.060 A 
BRANCH  98  99
ATOM     99  S   UNL A   1      39.541  36.883  40.892  1.00  0.00     0.124 S 
ATOM    100  O   UNL A   1      40.803  37.610  40.805  1.00  0.00    -0.237 OA
ATOM    101  O   UNL A   1      38.341  37.656  40.590  1.00  0.00    -0.237 OA
ATOM    102  O   UNL A   1      39.422  35.967  42.023  1.00  0.00    -0.744 OA
ENDBRANCH  98  99
ENDBRANCH  66  91
ENDBRANCH  40  41
ENDBRANCH  33  35
ENDBRANCH  32  33
ENDBRANCH  31  32
ENDBRANCH  30  31
ENDBRANCH  29  30
ENDBRANCH  28  29
ENDBRANCH  27  28
ENDBRANCH   1  27
TORSDOF 26
ENDMDL
MODEL 2
REMARK VINA RESULT:      -9.2      6.009     11.725
REMARK SMILES O=C(Cc1ccccc1-c1ccn(C(F)F)c(=O)c1)OCCOCCOCCOCCOC(=O)c1ccc(-c2c3nc(c(-c4c(F)cc(S(=O)(=O)[O-])cc4F)c4ccc([nH]4)c(-c4c(F)cc(S(=O)(=O)[O-])cc4F)c4nc(c(-c5c(F)cc(S(=O)(=O)[O-])cc5F)c5ccc2[nH]5)C=C4)C=C3)cc1
REMARK SMILES IDX 26 1 25 2 24 3 23 4 22 5 21 6 20 7 2 8 1 9 3 10 4 11 5 12
REMARK SMILES IDX 9 13 6 14 8 15 7 16 10 17 11 18 19 19 12 20 17 21 13 22
REMARK SMILES IDX 18 23 14 24 15 25 16 26 27 27 28 28 29 29 30 30 31 31 32 32
REMARK SMILES IDX 33 33 34 34 35 35 36 36 100 37 37 38 99 39 38 40 39 41 40 42
REMARK SMILES IDX 93 43 41 44 98 45 92 46 94 47 42 48 97 49 91 50 90 51 43 53
REMARK SMILES IDX 77 54 56 55 76 56 57 57 60 58 75 59 95 60 58 61 59 62 74 64
REMARK SMILES IDX 96 65 61 66 44 67 45 68 54 69 46 70 47 71 53 72 55 73 48 74
REMARK SMILES IDX 49 75 50 76 51 77 52 78 78 79 79 80 88 81 80 82 81 83 87 84
REMARK SMILES IDX 89 85 82 86 83 87 84 88 85 89 86 90 62 91 63 92 72 93 64 94
REMARK SMILES IDX 65 95 71 96 73 97 66 98 67 99 68 100 69 101 70 102
REMARK H PARENT 94 52 60 63
REMARK Flexibility Score: inf
ROOT
ATOM      1  O   UNL A   1      33.972  30.852  27.350  1.00  0.00    -0.377 OA
ENDROOT
BRANCH   1   2
ATOM      2  C   UNL A   1      33.235  30.029  26.460  1.00  0.00     0.188 C 
BRANCH   2   3
ATOM      3  C   UNL A   1      31.776  30.442  26.268  1.00  0.00     0.188 C 
BRANCH   3   4
ATOM      4  O   UNL A   1      31.245  30.485  24.957  1.00  0.00    -0.376 OA
BRANCH   4   5
ATOM      5  C   UNL A   1      30.686  29.411  24.228  1.00  0.00     0.202 C 
BRANCH   5   6
ATOM      6  C   UNL A   1      31.498  28.294  23.588  1.00  0.00     0.261 C 
BRANCH   6   7
ATOM      7  O   UNL A   1      32.713  27.885  24.228  1.00  0.00    -0.463 OA
BRANCH   7   8
ATOM      8  C   UNL A   1      33.346  26.701  24.136  1.00  0.00     0.310 C 
ATOM      9  O   UNL A   1      33.579  26.234  23.021  1.00  0.00    -0.252 OA
BRANCH   8  10
ATOM     10  C   UNL A   1      33.612  25.878  25.372  1.00  0.00     0.158 C 
BRANCH  10  11
ATOM     11  C   UNL A   1      32.602  24.849  25.798  1.00  0.00    -0.029 A 
ATOM     12  C   UNL A   1      31.262  25.262  25.951  1.00  0.00     0.005 A 
ATOM     13  C   UNL A   1      32.968  23.511  26.111  1.00  0.00    -0.014 A 
ATOM     14  C   UNL A   1      30.284  24.376  26.383  1.00  0.00     0.000 A 
ATOM     15  C   UNL A   1      31.962  22.656  26.598  1.00  0.00     0.009 A 
ATOM     16  C   UNL A   1      30.636  23.077  26.720  1.00  0.00     0.001 A 
BRANCH  13  17
ATOM     17  C   UNL A   1      34.332  22.916  25.894  1.00  0.00    -0.011 A 
ATOM     18  C   UNL A   1      34.605  21.513  25.615  1.00  0.00     0.027 A 
ATOM     19  C   UNL A   1      35.398  23.740  25.990  1.00  0.00     0.080 A 
ATOM     20  C   UNL A   1      35.861  21.059  25.488  1.00  0.00     0.095 A 
ATOM     21  C   UNL A   1      36.794  23.271  25.775  1.00  0.00     0.255 A 
ATOM     22  N   UNL A   1      36.945  21.914  25.565  1.00  0.00    -0.258 N 
ATOM     23  O   UNL A   1      37.698  24.101  25.774  1.00  0.00    -0.269 OA
BRANCH  22  24
ATOM     24  C   UNL A   1      38.287  21.430  25.359  1.00  0.00     0.451 C 
ATOM     25  F   UNL A   1      39.026  21.561  26.490  1.00  0.00    -0.185 F 
ATOM     26  F   UNL A   1      38.304  20.123  25.002  1.00  0.00    -0.185 F 
ENDBRANCH  22  24
ENDBRANCH  13  17
ENDBRANCH  10  11
ENDBRANCH   8  10
ENDBRANCH   7   8
ENDBRANCH   6   7
ENDBRANCH   5   6
ENDBRANCH   4   5
ENDBRANCH   3   4
ENDBRANCH   2   3
ENDBRANCH   1   2
BRANCH   1  27
ATOM     27  C   UNL A   1      33.245  31.969  27.829  1.00  0.00     0.188 C 
BRANCH  27  28
ATOM     28  C   UNL A   1      34.120  33.164  28.259  1.00  0.00     0.188 C 
BRANCH  28  29
ATOM     29  O   UNL A   1      34.782  33.179  29.511  1.00  0.00    -0.376 OA
BRANCH  29  30
ATOM     30  C   UNL A   1      36.019  32.513  29.699  1.00  0.00     0.202 C 
BRANCH  30  31
ATOM     31  C   UNL A   1      37.010  32.833  30.833  1.00  0.00     0.261 C 
BRANCH  31  32
ATOM     32  O   UNL A   1      37.252  31.818  31.807  1.00  0.00    -0.460 OA
BRANCH  32  33
ATOM     33  C   UNL A   1      37.102  30.540  31.390  1.00  0.00     0.338 C 
ATOM     34  O   UNL A   1      36.081  29.874  31.399  1.00  0.00    -0.246 OA
BRANCH  33  35
ATOM     35  C   UNL A   1      38.352  30.144  30.709  1.00  0.00     0.060 A 
ATOM     36  C   UNL A   1      39.491  29.889  31.489  1.00  0.00     0.016 A 
ATOM     37  C   UNL A   1      38.384  29.954  29.327  1.00  0.00     0.016 A 
ATOM     38  C   UNL A   1      40.660  29.424  30.890  1.00  0.00     0.010 A 
ATOM     39  C   UNL A   1      39.571  29.537  28.722  1.00  0.00     0.010 A 
ATOM     40  C   UNL A   1      40.715  29.280  29.499  1.00  0.00    -0.014 A 
BRANCH  40  41
ATOM     41  C   UNL A   1      42.013  29.041  28.830  1.00  0.00     0.031 A 
ATOM     42  C   UNL A   1      42.297  27.654  28.324  1.00  0.00     0.074 A 
ATOM     43  C   UNL A   1      42.926  30.020  28.702  1.00  0.00     0.049 A 
ATOM     44  N   UNL A   1      43.402  27.165  27.832  1.00  0.00    -0.248 NA
ATOM     45  C   UNL A   1      41.184  26.690  28.389  1.00  0.00     0.031 C 
ATOM     46  C   UNL A   1      42.740  31.411  29.114  1.00  0.00     0.029 A 
ATOM     47  N   UNL A   1      44.208  29.983  28.213  1.00  0.00    -0.354 N 
ATOM     48  C   UNL A   1      43.128  25.832  27.550  1.00  0.00     0.074 A 
ATOM     49  C   UNL A   1      41.754  25.588  27.924  1.00  0.00     0.031 C 
ATOM     50  C   UNL A   1      43.883  32.086  28.898  1.00  0.00     0.029 A 
ATOM     51  C   UNL A   1      44.893  31.166  28.372  1.00  0.00     0.049 A 
ATOM     52  H   UNL A   1      44.601  29.186  27.789  1.00  0.00     0.167 HD
ATOM     53  C   UNL A   1      43.956  24.898  27.031  1.00  0.00     0.037 A 
ATOM     54  C   UNL A   1      46.194  31.454  28.166  1.00  0.00     0.037 A 
ATOM     55  C   UNL A   1      45.320  25.155  26.656  1.00  0.00     0.049 A 
ATOM     56  C   UNL A   1      47.114  30.370  27.656  1.00  0.00     0.074 A 
ATOM     57  C   UNL A   1      46.226  24.285  26.073  1.00  0.00     0.029 A 
ATOM     58  N   UNL A   1      45.981  26.359  26.842  1.00  0.00    -0.354 N 
ATOM     59  N   UNL A   1      46.832  29.127  27.338  1.00  0.00    -0.248 NA
ATOM     60  C   UNL A   1      48.532  30.721  27.484  1.00  0.00     0.031 C 
ATOM     61  C   UNL A   1      47.454  24.944  25.969  1.00  0.00     0.029 A 
ATOM     62  C   UNL A   1      47.296  26.243  26.429  1.00  0.00     0.049 A 
ATOM     63  H   UNL A   1      45.575  27.174  27.214  1.00  0.00     0.167 HD
ATOM     64  C   UNL A   1      48.031  28.559  26.914  1.00  0.00     0.074 A 
ATOM     65  C   UNL A   1      49.036  29.598  26.991  1.00  0.00     0.031 C 
ATOM     66  C   UNL A   1      48.281  27.291  26.504  1.00  0.00     0.037 A 
BRANCH  53  67
ATOM     67  C   UNL A   1      43.434  23.500  26.866  1.00  0.00     0.058 A 
ATOM     68  C   UNL A   1      42.957  23.027  25.634  1.00  0.00     0.135 A 
ATOM     69  C   UNL A   1      43.504  22.595  27.937  1.00  0.00     0.135 A 
ATOM     70  F   UNL A   1      42.847  23.859  24.587  1.00  0.00    -0.206 F 
ATOM     71  C   UNL A   1      42.574  21.701  25.468  1.00  0.00     0.059 A 
ATOM     72  C   UNL A   1      43.150  21.259  27.787  1.00  0.00     0.059 A 
ATOM     73  F   UNL A   1      43.942  23.002  29.139  1.00  0.00    -0.206 F 
ATOM     74  C   UNL A   1      42.688  20.821  26.547  1.00  0.00     0.060 A 
BRANCH  74  75
ATOM     75  S   UNL A   1      42.255  19.087  26.293  1.00  0.00     0.124 S 
ATOM     76  O   UNL A   1      40.915  19.200  25.727  1.00  0.00    -0.237 OA
ATOM     77  O   UNL A   1      43.297  18.640  25.373  1.00  0.00    -0.237 OA
ATOM     78  O   UNL A   1      42.322  18.518  27.636  1.00  0.00    -0.744 OA
ENDBRANCH  74  75
ENDBRANCH  53  67
BRANCH  54  79
ATOM     79  C   UNL A   1      46.736  32.801  28.499  1.00  0.00     0.058 A 
ATOM     80  C   UNL A   1      46.810  33.818  27.536  1.00  0.00     0.135 A 
ATOM     81  C   UNL A   1      47.245  33.081  29.778  1.00  0.00     0.135 A 
ATOM     82  F   UNL A   1      46.351  33.599  26.294  1.00  0.00    -0.206 F 
ATOM     83  C   UNL A   1      47.398  35.048  27.815  1.00  0.00     0.059 A 
ATOM     84  C   UNL A   1      47.808  34.315  30.091  1.00  0.00     0.059 A 
ATOM     85  F   UNL A   1      47.194  32.149  30.743  1.00  0.00    -0.206 F 
ATOM     86  C   UNL A   1      47.897  35.286  29.097  1.00  0.00     0.060 A 
BRANCH  86  87
ATOM     87  S   UNL A   1      48.648  36.890  29.451  1.00  0.00     0.124 S 
ATOM     88  O   UNL A   1      48.524  36.958  30.903  1.00  0.00    -0.237 OA
ATOM     89  O   UNL A   1      50.001  36.714  28.932  1.00  0.00    -0.237 OA
ATOM     90  O   UNL A   1      47.813  37.823  28.700  1.00  0.00    -0.744 OA
ENDBRANCH  86  87
ENDBRANCH  54  79
BRANCH  66  91
ATOM     91  C   UNL A   1      49.685  26.954  26.084  1.00  0.00     0.058 A 
ATOM     92  C   UNL A   1      50.584  26.327  26.962  1.00  0.00     0.135 A 
ATOM     93  C   UNL A   1      50.112  27.185  24.766  1.00  0.00     0.135 A 
ATOM     94  F   UNL A   1      50.231  26.089  28.235  1.00  0.00    -0.206 F 
ATOM     95  C   UNL A   1      51.860  25.955  26.552  1.00  0.00     0.059 A 
ATOM     96  C   UNL A   1      51.372  26.793  24.325  1.00  0.00     0.059 A 
ATOM     97  F   UNL A   1      49.288  27.771  23.882  1.00  0.00    -0.206 F 
ATOM     98  C   UNL A   1      52.243  26.185  25.228  1.00  0.00     0.060 A 
BRANCH  98  99
ATOM     99  S   UNL A   1      53.882  25.648  24.698  1.00  0.00     0.124 S 
ATOM    100  O   UNL A   1      53.852  25.971  23.275  1.00  0.00    -0.237 OA
ATOM    101  O   UNL A   1      54.761  26.476  25.517  1.00  0.00    -0.237 OA
ATOM    102  O   UNL A   1      53.894  24.224  25.017  1.00  0.00    -0.744 OA
ENDBRANCH  98  99
ENDBRANCH  66  91
ENDBRANCH  40  41
ENDBRANCH  33  35
ENDBRANCH  32  33
ENDBRANCH  31  32
ENDBRANCH  30  31
ENDBRANCH  29  30
ENDBRANCH  28  29
ENDBRANCH  27  28
ENDBRANCH   1  27
TORSDOF 26
ENDMDL
MODEL 3
REMARK VINA RESULT:      -9.0      3.909      6.235
REMARK SMILES O=C(Cc1ccccc1-c1ccn(C(F)F)c(=O)c1)OCCOCCOCCOCCOC(=O)c1ccc(-c2c3nc(c(-c4c(F)cc(S(=O)(=O)[O-])cc4F)c4ccc([nH]4)c(-c4c(F)cc(S(=O)(=O)[O-])cc4F)c4nc(c(-c5c(F)cc(S(=O)(=O)[O-])cc5F)c5ccc2[nH]5)C=C4)C=C3)cc1
REMARK SMILES IDX 26 1 25 2 24 3 23 4 22 5 21 6 20 7 2 8 1 9 3 10 4 11 5 12
REMARK SMILES IDX 9 13 6 14 8 15 7 16 10 17 11 18 19 19 12 20 17 21 13 22
REMARK SMILES IDX 18 23 14 24 15 25 16 26 27 27 28 28 29 29 30 30 31 31 32 32
REMARK SMILES IDX 33 33 34 34 35 35 36 36 100 37 37 38 99 39 38 40 39 41 40 42
REMARK SMILES IDX 93 43 41 44 98 45 92 46 94 47 42 48 97 49 91 50 90 51 43 53
REMARK SMILES IDX 77 54 56 55 76 56 57 57 60 58 75 59 95 60 58 61 59 62 74 64
REMARK SMILES IDX 96 65 61 66 44 67 45 68 54 69 46 70 47 71 53 72 55 73 48 74
REMARK SMILES IDX 49 75 50 76 51 77 52 78 78 79 79 80 88 81 80 82 81 83 87 84
REMARK SMILES IDX 89 85 82 86 83 87 84 88 85 89 86 90 62 91 63 92 72 93 64 94
REMARK SMILES IDX 65 95 71 96 73 97 66 98 67 99 68 100 69 101 70 102
REMARK H PARENT 94 52 60 63
REMARK Flexibility Score: inf
ROOT
ATOM      1  O   UNL A   1      49.251  29.262  29.296  1.00  0.00    -0.377 OA
ENDROOT
BRANCH   1   2
ATOM      2  C   UNL A   1      48.948  29.347  27.912  1.00  0.00     0.188 C 
BRANCH   2   3
ATOM      3  C   UNL A   1      47.523  29.796  27.597  1.00  0.00     0.188 C 
BRANCH   3   4
ATOM      4  O   UNL A   1      47.028  29.628  26.281  1.00  0.00    -0.376 OA
BRANCH   4   5
ATOM      5  C   UNL A   1      46.909  28.417  25.563  1.00  0.00     0.202 C 
BRANCH   5   6
ATOM      6  C   UNL A   1      45.618  27.623  25.427  1.00  0.00     0.261 C 
BRANCH   6   7
ATOM      7  O   UNL A   1      44.373  28.321  25.563  1.00  0.00    -0.463 OA
BRANCH   7   8
ATOM      8  C   UNL A   1      43.126  27.817  25.529  1.00  0.00     0.310 C 
ATOM      9  O   UNL A   1      42.415  28.050  24.551  1.00  0.00    -0.252 OA
BRANCH   8  10
ATOM     10  C   UNL A   1      42.548  27.127  26.739  1.00  0.00     0.158 C 
BRANCH  10  11
ATOM     11  C   UNL A   1      41.165  27.495  27.202  1.00  0.00    -0.029 A 
ATOM     12  C   UNL A   1      40.824  28.863  27.239  1.00  0.00     0.005 A 
ATOM     13  C   UNL A   1      40.234  26.521  27.658  1.00  0.00    -0.014 A 
ATOM     14  C   UNL A   1      39.579  29.277  27.696  1.00  0.00     0.000 A 
ATOM     15  C   UNL A   1      39.005  26.982  28.165  1.00  0.00     0.009 A 
ATOM     16  C   UNL A   1      38.675  28.339  28.172  1.00  0.00     0.001 A 
BRANCH  13  17
ATOM     17  C   UNL A   1      40.430  25.032  27.574  1.00  0.00    -0.011 A 
ATOM     18  C   UNL A   1      41.484  24.282  28.243  1.00  0.00     0.027 A 
ATOM     19  C   UNL A   1      39.576  24.331  26.796  1.00  0.00     0.080 A 
ATOM     20  C   UNL A   1      41.614  22.958  28.068  1.00  0.00     0.095 A 
ATOM     21  C   UNL A   1      39.657  22.852  26.652  1.00  0.00     0.255 A 
ATOM     22  N   UNL A   1      40.723  22.244  27.288  1.00  0.00    -0.258 N 
ATOM     23  O   UNL A   1      38.781  22.277  26.014  1.00  0.00    -0.269 OA
BRANCH  22  24
ATOM     24  C   UNL A   1      40.829  20.812  27.162  1.00  0.00     0.451 C 
ATOM     25  F   UNL A   1      41.312  20.472  25.940  1.00  0.00    -0.185 F 
ATOM     26  F   UNL A   1      41.654  20.283  28.096  1.00  0.00    -0.185 F 
ENDBRANCH  22  24
ENDBRANCH  13  17
ENDBRANCH  10  11
ENDBRANCH   8  10
ENDBRANCH   7   8
ENDBRANCH   6   7
ENDBRANCH   5   6
ENDBRANCH   4   5
ENDBRANCH   3   4
ENDBRANCH   2   3
ENDBRANCH   1   2
BRANCH   1  27
ATOM     27  C   UNL A   1      48.711  28.116  29.929  1.00  0.00     0.188 C 
BRANCH  27  28
ATOM     28  C   UNL A   1      49.435  26.797  29.588  1.00  0.00     0.188 C 
BRANCH  28  29
ATOM     29  O   UNL A   1      48.720  25.661  29.135  1.00  0.00    -0.376 OA
BRANCH  29  30
ATOM     30  C   UNL A   1      48.487  25.439  27.755  1.00  0.00     0.202 C 
BRANCH  30  31
ATOM     31  C   UNL A   1      47.315  24.609  27.198  1.00  0.00     0.261 C 
BRANCH  31  32
ATOM     32  O   UNL A   1      45.991  25.048  27.500  1.00  0.00    -0.460 OA
BRANCH  32  33
ATOM     33  C   UNL A   1      45.319  24.329  28.428  1.00  0.00     0.338 C 
ATOM     34  O   UNL A   1      45.221  23.115  28.495  1.00  0.00    -0.246 OA
BRANCH  33  35
ATOM     35  C   UNL A   1      44.892  25.262  29.491  1.00  0.00     0.060 A 
ATOM     36  C   UNL A   1      44.336  24.734  30.667  1.00  0.00     0.016 A 
ATOM     37  C   UNL A   1      45.103  26.636  29.363  1.00  0.00     0.016 A 
ATOM     38  C   UNL A   1      44.009  25.577  31.727  1.00  0.00     0.010 A 
ATOM     39  C   UNL A   1      44.727  27.485  30.406  1.00  0.00     0.010 A 
ATOM     40  C   UNL A   1      44.170  26.960  31.586  1.00  0.00    -0.014 A 
BRANCH  40  41
ATOM     41  C   UNL A   1      43.590  27.880  32.590  1.00  0.00     0.031 A 
ATOM     42  C   UNL A   1      42.306  28.578  32.243  1.00  0.00     0.074 A 
ATOM     43  C   UNL A   1      44.203  28.112  33.765  1.00  0.00     0.049 A 
ATOM     44  N   UNL A   1      41.678  29.523  32.889  1.00  0.00    -0.248 NA
ATOM     45  C   UNL A   1      41.644  28.155  30.996  1.00  0.00     0.031 C 
ATOM     46  C   UNL A   1      45.428  27.457  34.226  1.00  0.00     0.029 A 
ATOM     47  N   UNL A   1      43.891  28.988  34.774  1.00  0.00    -0.354 N 
ATOM     48  C   UNL A   1      40.562  29.826  32.118  1.00  0.00     0.074 A 
ATOM     49  C   UNL A   1      40.597  28.965  30.957  1.00  0.00     0.031 C 
ATOM     50  C   UNL A   1      45.785  27.986  35.410  1.00  0.00     0.029 A 
ATOM     51  C   UNL A   1      44.839  29.043  35.769  1.00  0.00     0.049 A 
ATOM     52  H   UNL A   1      43.066  29.527  34.785  1.00  0.00     0.167 HD
ATOM     53  C   UNL A   1      39.602  30.745  32.359  1.00  0.00     0.037 A 
ATOM     54  C   UNL A   1      44.954  29.884  36.817  1.00  0.00     0.037 A 
ATOM     55  C   UNL A   1      39.575  31.591  33.521  1.00  0.00     0.049 A 
ATOM     56  C   UNL A   1      43.906  30.952  37.021  1.00  0.00     0.074 A 
ATOM     57  C   UNL A   1      38.614  32.520  33.881  1.00  0.00     0.029 A 
ATOM     58  N   UNL A   1      40.556  31.627  34.499  1.00  0.00    -0.354 N 
ATOM     59  N   UNL A   1      42.824  31.193  36.317  1.00  0.00    -0.248 NA
ATOM     60  C   UNL A   1      44.096  31.871  38.154  1.00  0.00     0.031 C 
ATOM     61  C   UNL A   1      39.049  33.165  35.042  1.00  0.00     0.029 A 
ATOM     62  C   UNL A   1      40.248  32.594  35.439  1.00  0.00     0.049 A 
ATOM     63  H   UNL A   1      41.353  31.050  34.521  1.00  0.00     0.167 HD
ATOM     64  C   UNL A   1      42.200  32.275  36.933  1.00  0.00     0.074 A 
ATOM     65  C   UNL A   1      43.009  32.627  38.081  1.00  0.00     0.031 C 
ATOM     66  C   UNL A   1      41.062  32.924  36.581  1.00  0.00     0.037 A 
BRANCH  53  67
ATOM     67  C   UNL A   1      38.514  30.921  31.338  1.00  0.00     0.058 A 
ATOM     68  C   UNL A   1      37.297  30.229  31.425  1.00  0.00     0.135 A 
ATOM     69  C   UNL A   1      38.663  31.868  30.312  1.00  0.00     0.135 A 
ATOM     70  F   UNL A   1      37.116  29.295  32.372  1.00  0.00    -0.206 F 
ATOM     71  C   UNL A   1      36.259  30.477  30.534  1.00  0.00     0.059 A 
ATOM     72  C   UNL A   1      37.630  32.150  29.425  1.00  0.00     0.059 A 
ATOM     73  F   UNL A   1      39.813  32.546  30.179  1.00  0.00    -0.206 F 
ATOM     74  C   UNL A   1      36.430  31.450  29.546  1.00  0.00     0.060 A 
BRANCH  74  75
ATOM     75  S   UNL A   1      35.047  31.810  28.443  1.00  0.00     0.124 S 
ATOM     76  O   UNL A   1      35.644  32.784  27.535  1.00  0.00    -0.237 OA
ATOM     77  O   UNL A   1      34.760  30.499  27.869  1.00  0.00    -0.237 OA
ATOM     78  O   UNL A   1      34.023  32.337  29.341  1.00  0.00    -0.744 OA
ENDBRANCH  74  75
ENDBRANCH  53  67
BRANCH  54  79
ATOM     79  C   UNL A   1      46.134  29.810  37.725  1.00  0.00     0.058 A 
ATOM     80  C   UNL A   1      46.082  29.097  38.932  1.00  0.00     0.135 A 
ATOM     81  C   UNL A   1      47.321  30.499  37.429  1.00  0.00     0.135 A 
ATOM     82  F   UNL A   1      44.967  28.432  39.271  1.00  0.00    -0.206 F 
ATOM     83  C   UNL A   1      47.148  29.098  39.828  1.00  0.00     0.059 A 
ATOM     84  C   UNL A   1      48.412  30.488  38.292  1.00  0.00     0.059 A 
ATOM     85  F   UNL A   1      47.431  31.191  36.284  1.00  0.00    -0.206 F 
ATOM     86  C   UNL A   1      48.309  29.800  39.499  1.00  0.00     0.060 A 
BRANCH  86  87
ATOM     87  S   UNL A   1      49.690  29.786  40.663  1.00  0.00     0.124 S 
ATOM     88  O   UNL A   1      49.051  29.273  41.869  1.00  0.00    -0.237 OA
ATOM     89  O   UNL A   1      50.634  28.886  40.007  1.00  0.00    -0.237 OA
ATOM     90  O   UNL A   1      50.101  31.186  40.711  1.00  0.00    -0.744 OA
ENDBRANCH  86  87
ENDBRANCH  54  79
BRANCH  66  91
ATOM     91  C   UNL A   1      40.608  34.065  37.449  1.00  0.00     0.058 A 
ATOM     92  C   UNL A   1      39.851  33.849  38.610  1.00  0.00     0.135 A 
ATOM     93  C   UNL A   1      41.003  35.383  37.161  1.00  0.00     0.135 A 
ATOM     94  F   UNL A   1      39.440  32.611  38.930  1.00  0.00    -0.206 F 
ATOM     95  C   UNL A   1      39.489  34.899  39.448  1.00  0.00     0.059 A 
ATOM     96  C   UNL A   1      40.678  36.444  38.000  1.00  0.00     0.059 A 
ATOM     97  F   UNL A   1      41.738  35.644  36.068  1.00  0.00    -0.206 F 
ATOM     98  C   UNL A   1      39.914  36.193  39.138  1.00  0.00     0.060 A 
BRANCH  98  99
ATOM     99  S   UNL A   1      39.481  37.537  40.263  1.00  0.00     0.124 S 
ATOM    100  O   UNL A   1      40.785  38.135  40.524  1.00  0.00    -0.237 OA
ATOM    101  O   UNL A   1      38.566  38.336  39.454  1.00  0.00    -0.237 OA
ATOM    102  O   UNL A   1      38.869  36.849  41.396  1.00  0.00    -0.744 OA
ENDBRANCH  98  99
ENDBRANCH  66  91
ENDBRANCH  40  41
ENDBRANCH  33  35
ENDBRANCH  32  33
ENDBRANCH  31  32
ENDBRANCH  30  31
ENDBRANCH  29  30
ENDBRANCH  28  29
ENDBRANCH  27  28
ENDBRANCH   1  27
TORSDOF 26
ENDMDL
