MODEL 1
REMARK VINA RESULT:     -10.3      0.000      0.000
REMARK SMILES C[C@@H]1[C@H](C)CCC[C@H]1NC(=O)C[N@@H+]1CCC[C@@H]1C(=O)OCCOCCOCCOCCOC(=O)c1ccc(-c2c3nc(c(-c4c(F)cc(S(=O)(=O)[O-])cc4F)c4ccc([nH]4)c(-c4c(F)cc(S(=O)(=O)[O-])cc4F)c4nc(c(-c5c(F)cc(S(=O)(=O)[O-])cc5F)c5ccc2[nH]5)C=C4)C=C3)cc1
REMARK SMILES IDX 26 1 25 2 24 3 23 4 22 5 21 6 20 7 18 8 19 9 17 10 13 11
REMARK SMILES IDX 14 12 15 14 16 15 12 16 10 17 9 18 11 20 8 21 1 22 2 23 3 24
REMARK SMILES IDX 4 25 5 26 7 27 6 28 27 29 28 30 29 31 30 32 31 33 32 34
REMARK SMILES IDX 33 35 34 36 35 37 36 38 100 39 37 40 99 41 38 42 39 43 40 44
REMARK SMILES IDX 93 45 41 46 98 47 92 48 94 49 42 50 97 51 91 52 90 53 43 55
REMARK SMILES IDX 77 56 56 57 76 58 57 59 60 60 75 61 95 62 58 63 59 64 74 66
REMARK SMILES IDX 96 67 61 68 44 69 45 70 54 71 46 72 47 73 53 74 55 75 48 76
REMARK SMILES IDX 49 77 50 78 51 79 52 80 78 81 79 82 88 83 80 84 81 85 87 86
REMARK SMILES IDX 89 87 82 88 83 89 84 90 85 91 86 92 62 93 63 94 72 95 64 96
REMARK SMILES IDX 65 97 71 98 73 99 66 100 67 101 68 102 69 103 70 104
REMARK H PARENT 13 13 9 19 94 54 60 65
REMARK Flexibility Score: inf
ROOT
ATOM      1  O   UNL A   1      41.538  21.117  25.725  1.00  0.00    -0.377 OA
ENDROOT
BRANCH   1   2
ATOM      2  C   UNL A   1      40.369  21.026  26.506  1.00  0.00     0.188 C 
BRANCH   2   3
ATOM      3  C   UNL A   1      39.600  22.342  26.694  1.00  0.00     0.188 C 
BRANCH   3   4
ATOM      4  O   UNL A   1      38.545  22.748  25.837  1.00  0.00    -0.376 OA
BRANCH   4   5
ATOM      5  C   UNL A   1      37.507  23.645  26.203  1.00  0.00     0.202 C 
BRANCH   5   6
ATOM      6  C   UNL A   1      36.373  24.090  25.269  1.00  0.00     0.261 C 
BRANCH   6   7
ATOM      7  O   UNL A   1      35.409  23.101  24.912  1.00  0.00    -0.459 OA
BRANCH   7   8
ATOM      8  C   UNL A   1      35.215  22.957  23.582  1.00  0.00     0.365 C 
ATOM      9  O   UNL A   1      36.088  23.092  22.726  1.00  0.00    -0.245 OA
BRANCH   8  10
ATOM     10  C   UNL A   1      33.780  22.562  23.225  1.00  0.00     0.295 C 
ATOM     11  N   UNL A   1      32.905  23.688  22.838  1.00  0.00    -0.315 N 
ATOM     12  C   UNL A   1      31.588  23.446  23.401  1.00  0.00     0.263 C 
ATOM     13  H   UNL A   1      32.812  23.691  21.821  1.00  0.00     0.349 HD
ATOM     14  C   UNL A   1      31.802  22.580  24.622  1.00  0.00     0.068 C 
ATOM     15  C   UNL A   1      32.972  21.717  24.222  1.00  0.00     0.083 C 
BRANCH  11  16
ATOM     16  C   UNL A   1      33.458  25.054  22.854  1.00  0.00     0.364 C 
BRANCH  16  17
ATOM     17  C   UNL A   1      32.939  26.015  21.770  1.00  0.00     0.275 C 
ATOM     18  N   UNL A   1      32.056  26.999  22.083  1.00  0.00    -0.348 N 
ATOM     19  H   UNL A   1      32.064  27.798  21.509  1.00  0.00     0.163 HD
ATOM     20  O   UNL A   1      33.276  25.927  20.588  1.00  0.00    -0.268 OA
BRANCH  18  21
ATOM     21  C   UNL A   1      31.105  26.987  23.175  1.00  0.00     0.085 C 
ATOM     22  C   UNL A   1      31.010  26.914  25.686  1.00  0.00     0.010 C 
ATOM     23  C   UNL A   1      31.774  27.466  24.477  1.00  0.00     0.011 C 
ATOM     24  C   UNL A   1      31.959  29.001  24.485  1.00  0.00    -0.009 C 
ATOM     25  C   UNL A   1      32.549  29.510  25.800  1.00  0.00     0.008 C 
ATOM     26  C   UNL A   1      30.656  29.736  24.146  1.00  0.00     0.004 C 
ATOM     27  C   UNL A   1      29.859  27.780  22.776  1.00  0.00     0.025 C 
ATOM     28  C   UNL A   1      30.090  29.284  22.803  1.00  0.00     0.002 C 
ENDBRANCH  18  21
ENDBRANCH  16  17
ENDBRANCH  11  16
ENDBRANCH   8  10
ENDBRANCH   7   8
ENDBRANCH   6   7
ENDBRANCH   5   6
ENDBRANCH   4   5
ENDBRANCH   3   4
ENDBRANCH   2   3
ENDBRANCH   1   2
BRANCH   1  29
ATOM     29  C   UNL A   1      42.668  20.360  26.134  1.00  0.00     0.188 C 
BRANCH  29  30
ATOM     30  C   UNL A   1      44.003  20.563  25.389  1.00  0.00     0.188 C 
BRANCH  30  31
ATOM     31  O   UNL A   1      44.584  21.848  25.559  1.00  0.00    -0.376 OA
BRANCH  31  32
ATOM     32  C   UNL A   1      44.188  22.916  24.714  1.00  0.00     0.202 C 
BRANCH  32  33
ATOM     33  C   UNL A   1      43.837  24.275  25.345  1.00  0.00     0.261 C 
BRANCH  33  34
ATOM     34  O   UNL A   1      42.632  24.347  26.121  1.00  0.00    -0.460 OA
BRANCH  34  35
ATOM     35  C   UNL A   1      41.832  25.424  25.959  1.00  0.00     0.338 C 
ATOM     36  O   UNL A   1      41.138  25.681  25.000  1.00  0.00    -0.246 OA
BRANCH  35  37
ATOM     37  C   UNL A   1      41.785  26.140  27.256  1.00  0.00     0.060 A 
ATOM     38  C   UNL A   1      40.723  25.886  28.134  1.00  0.00     0.016 A 
ATOM     39  C   UNL A   1      42.784  27.054  27.600  1.00  0.00     0.016 A 
ATOM     40  C   UNL A   1      40.629  26.582  29.339  1.00  0.00     0.010 A 
ATOM     41  C   UNL A   1      42.674  27.771  28.795  1.00  0.00     0.010 A 
ATOM     42  C   UNL A   1      41.574  27.568  29.647  1.00  0.00    -0.014 A 
BRANCH  42  43
ATOM     43  C   UNL A   1      41.289  28.542  30.729  1.00  0.00     0.031 A 
ATOM     44  C   UNL A   1      42.132  28.476  31.975  1.00  0.00     0.074 A 
ATOM     45  C   UNL A   1      40.327  29.471  30.607  1.00  0.00     0.049 A 
ATOM     46  N   UNL A   1      42.045  29.175  33.075  1.00  0.00    -0.248 NA
ATOM     47  C   UNL A   1      43.216  27.480  31.977  1.00  0.00     0.031 C 
ATOM     48  C   UNL A   1      39.486  29.669  29.428  1.00  0.00     0.029 A 
ATOM     49  N   UNL A   1      39.892  30.421  31.496  1.00  0.00    -0.354 N 
ATOM     50  C   UNL A   1      43.050  28.691  33.907  1.00  0.00     0.074 A 
ATOM     51  C   UNL A   1      43.714  27.624  33.195  1.00  0.00     0.031 C 
ATOM     52  C   UNL A   1      38.629  30.677  29.672  1.00  0.00     0.029 A 
ATOM     53  C   UNL A   1      38.835  31.167  31.034  1.00  0.00     0.049 A 
ATOM     54  H   UNL A   1      40.301  30.556  32.382  1.00  0.00     0.167 HD
ATOM     55  C   UNL A   1      43.389  29.104  35.151  1.00  0.00     0.037 A 
ATOM     56  C   UNL A   1      38.106  32.119  31.651  1.00  0.00     0.037 A 
ATOM     57  C   UNL A   1      42.720  30.169  35.853  1.00  0.00     0.049 A 
ATOM     58  C   UNL A   1      38.449  32.509  33.068  1.00  0.00     0.074 A 
ATOM     59  C   UNL A   1      43.001  30.683  37.105  1.00  0.00     0.029 A 
ATOM     60  N   UNL A   1      41.624  30.871  35.368  1.00  0.00    -0.354 N 
ATOM     61  N   UNL A   1      39.414  32.064  33.837  1.00  0.00    -0.248 NA
ATOM     62  C   UNL A   1      37.603  33.532  33.699  1.00  0.00     0.031 C 
ATOM     63  C   UNL A   1      42.035  31.649  37.406  1.00  0.00     0.029 A 
ATOM     64  C   UNL A   1      41.194  31.788  36.313  1.00  0.00     0.049 A 
ATOM     65  H   UNL A   1      41.214  30.737  34.484  1.00  0.00     0.167 HD
ATOM     66  C   UNL A   1      39.314  32.776  35.029  1.00  0.00     0.074 A 
ATOM     67  C   UNL A   1      38.196  33.685  34.876  1.00  0.00     0.031 C 
ATOM     68  C   UNL A   1      40.080  32.691  36.146  1.00  0.00     0.037 A 
BRANCH  55  69
ATOM     69  C   UNL A   1      44.498  28.365  35.850  1.00  0.00     0.058 A 
ATOM     70  C   UNL A   1      44.288  27.134  36.494  1.00  0.00     0.135 A 
ATOM     71  C   UNL A   1      45.797  28.898  35.871  1.00  0.00     0.135 A 
ATOM     72  F   UNL A   1      43.063  26.586  36.524  1.00  0.00    -0.206 F 
ATOM     73  C   UNL A   1      45.317  26.480  37.165  1.00  0.00     0.059 A 
ATOM     74  C   UNL A   1      46.848  28.244  36.507  1.00  0.00     0.059 A 
ATOM     75  F   UNL A   1      46.055  30.074  35.275  1.00  0.00    -0.206 F 
ATOM     76  C   UNL A   1      46.593  27.045  37.168  1.00  0.00     0.060 A 
BRANCH  76  77
ATOM     77  S   UNL A   1      47.913  26.193  38.056  1.00  0.00     0.124 S 
ATOM     78  O   UNL A   1      47.387  24.832  38.123  1.00  0.00    -0.237 OA
ATOM     79  O   UNL A   1      49.058  26.386  37.172  1.00  0.00    -0.237 OA
ATOM     80  O   UNL A   1      47.980  26.901  39.330  1.00  0.00    -0.744 OA
ENDBRANCH  76  77
ENDBRANCH  55  69
BRANCH  56  81
ATOM     81  C   UNL A   1      36.978  32.772  30.933  1.00  0.00     0.058 A 
ATOM     82  C   UNL A   1      37.213  33.772  29.976  1.00  0.00     0.135 A 
ATOM     83  C   UNL A   1      35.646  32.403  31.176  1.00  0.00     0.135 A 
ATOM     84  F   UNL A   1      38.468  34.172  29.720  1.00  0.00    -0.206 F 
ATOM     85  C   UNL A   1      36.170  34.384  29.290  1.00  0.00     0.059 A 
ATOM     86  C   UNL A   1      34.587  32.982  30.483  1.00  0.00     0.059 A 
ATOM     87  F   UNL A   1      35.365  31.450  32.078  1.00  0.00    -0.206 F 
ATOM     88  C   UNL A   1      34.859  33.974  29.544  1.00  0.00     0.060 A 
BRANCH  88  89
ATOM     89  S   UNL A   1      33.519  34.726  28.593  1.00  0.00     0.124 S 
ATOM     90  O   UNL A   1      33.186  33.659  27.656  1.00  0.00    -0.237 OA
ATOM     91  O   UNL A   1      32.529  34.999  29.629  1.00  0.00    -0.237 OA
ATOM     92  O   UNL A   1      34.145  35.908  28.007  1.00  0.00    -0.744 OA
ENDBRANCH  88  89
ENDBRANCH  56  81
BRANCH  68  93
ATOM     93  C   UNL A   1      39.771  33.632  37.281  1.00  0.00     0.058 A 
ATOM     94  C   UNL A   1      38.837  33.313  38.279  1.00  0.00     0.135 A 
ATOM     95  C   UNL A   1      40.468  34.846  37.404  1.00  0.00     0.135 A 
ATOM     96  F   UNL A   1      38.138  32.168  38.211  1.00  0.00    -0.206 F 
ATOM     97  C   UNL A   1      38.586  34.174  39.343  1.00  0.00     0.059 A 
ATOM     98  C   UNL A   1      40.258  35.707  38.477  1.00  0.00     0.059 A 
ATOM     99  F   UNL A   1      41.382  35.197  36.485  1.00  0.00    -0.206 F 
ATOM    100  C   UNL A   1      39.305  35.368  39.435  1.00  0.00     0.060 A 
BRANCH 100 101
ATOM    101  S   UNL A   1      38.993  36.459  40.840  1.00  0.00     0.124 S 
ATOM    102  O   UNL A   1      40.320  36.551  41.441  1.00  0.00    -0.237 OA
ATOM    103  O   UNL A   1      38.505  37.672  40.190  1.00  0.00    -0.237 OA
ATOM    104  O   UNL A   1      37.999  35.731  41.623  1.00  0.00    -0.744 OA
ENDBRANCH 100 101
ENDBRANCH  68  93
ENDBRANCH  42  43
ENDBRANCH  35  37
ENDBRANCH  34  35
ENDBRANCH  33  34
ENDBRANCH  32  33
ENDBRANCH  31  32
ENDBRANCH  30  31
ENDBRANCH  29  30
ENDBRANCH   1  29
TORSDOF 26
ENDMDL
MODEL 2
REMARK VINA RESULT:     -10.1      0.777      7.935
REMARK SMILES C[C@@H]1[C@H](C)CCC[C@H]1NC(=O)C[N@@H+]1CCC[C@@H]1C(=O)OCCOCCOCCOCCOC(=O)c1ccc(-c2c3nc(c(-c4c(F)cc(S(=O)(=O)[O-])cc4F)c4ccc([nH]4)c(-c4c(F)cc(S(=O)(=O)[O-])cc4F)c4nc(c(-c5c(F)cc(S(=O)(=O)[O-])cc5F)c5ccc2[nH]5)C=C4)C=C3)cc1
REMARK SMILES IDX 26 1 25 2 24 3 23 4 22 5 21 6 20 7 18 8 19 9 17 10 13 11
REMARK SMILES IDX 14 12 15 14 16 15 12 16 10 17 9 18 11 20 8 21 1 22 2 23 3 24
REMARK SMILES IDX 4 25 5 26 7 27 6 28 27 29 28 30 29 31 30 32 31 33 32 34
REMARK SMILES IDX 33 35 34 36 35 37 36 38 100 39 37 40 99 41 38 42 39 43 40 44
REMARK SMILES IDX 93 45 41 46 98 47 92 48 94 49 42 50 97 51 91 52 90 53 43 55
REMARK SMILES IDX 77 56 56 57 76 58 57 59 60 60 75 61 95 62 58 63 59 64 74 66
REMARK SMILES IDX 96 67 61 68 44 69 45 70 54 71 46 72 47 73 53 74 55 75 48 76
REMARK SMILES IDX 49 77 50 78 51 79 52 80 78 81 79 82 88 83 80 84 81 85 87 86
REMARK SMILES IDX 89 87 82 88 83 89 84 90 85 91 86 92 62 93 63 94 72 95 64 96
REMARK SMILES IDX 65 97 71 98 73 99 66 100 67 101 68 102 69 103 70 104
REMARK H PARENT 13 13 9 19 94 54 60 65
REMARK Flexibility Score: inf
ROOT
ATOM      1  O   UNL A   1      42.530  21.470  25.439  1.00  0.00    -0.377 OA
ENDROOT
BRANCH   1   2
ATOM      2  C   UNL A   1      41.389  21.152  26.203  1.00  0.00     0.188 C 
BRANCH   2   3
ATOM      3  C   UNL A   1      40.500  22.345  26.584  1.00  0.00     0.188 C 
BRANCH   3   4
ATOM      4  O   UNL A   1      39.180  22.512  26.093  1.00  0.00    -0.376 OA
BRANCH   4   5
ATOM      5  C   UNL A   1      38.377  23.663  26.309  1.00  0.00     0.202 C 
BRANCH   5   6
ATOM      6  C   UNL A   1      36.895  23.773  25.926  1.00  0.00     0.261 C 
BRANCH   6   7
ATOM      7  O   UNL A   1      36.301  22.629  25.316  1.00  0.00    -0.459 OA
BRANCH   7   8
ATOM      8  C   UNL A   1      35.965  22.793  24.016  1.00  0.00     0.365 C 
ATOM      9  O   UNL A   1      36.698  23.280  23.158  1.00  0.00    -0.245 OA
BRANCH   8  10
ATOM     10  C   UNL A   1      34.566  22.267  23.689  1.00  0.00     0.295 C 
ATOM     11  N   UNL A   1      33.494  23.286  23.734  1.00  0.00    -0.315 N 
ATOM     12  C   UNL A   1      32.315  22.670  24.316  1.00  0.00     0.263 C 
ATOM     13  H   UNL A   1      33.264  23.554  22.778  1.00  0.00     0.349 HD
ATOM     14  C   UNL A   1      32.814  21.550  25.201  1.00  0.00     0.068 C 
ATOM     15  C   UNL A   1      34.029  21.050  24.459  1.00  0.00     0.083 C 
BRANCH  11  16
ATOM     16  C   UNL A   1      33.846  24.668  24.106  1.00  0.00     0.364 C 
BRANCH  16  17
ATOM     17  C   UNL A   1      33.559  25.752  23.053  1.00  0.00     0.275 C 
ATOM     18  N   UNL A   1      32.859  26.869  23.384  1.00  0.00    -0.348 N 
ATOM     19  H   UNL A   1      33.037  27.677  22.850  1.00  0.00     0.163 HD
ATOM     20  O   UNL A   1      33.923  25.653  21.881  1.00  0.00    -0.268 OA
BRANCH  18  21
ATOM     21  C   UNL A   1      31.876  26.988  24.442  1.00  0.00     0.085 C 
ATOM     22  C   UNL A   1      31.708  27.295  26.931  1.00  0.00     0.010 C 
ATOM     23  C   UNL A   1      32.490  27.685  25.670  1.00  0.00     0.011 C 
ATOM     24  C   UNL A   1      32.622  29.209  25.447  1.00  0.00    -0.009 C 
ATOM     25  C   UNL A   1      33.155  29.935  26.682  1.00  0.00     0.008 C 
ATOM     26  C   UNL A   1      31.306  29.834  24.967  1.00  0.00     0.004 C 
ATOM     27  C   UNL A   1      30.616  27.663  23.895  1.00  0.00     0.025 C 
ATOM     28  C   UNL A   1      30.796  29.161  23.696  1.00  0.00     0.002 C 
ENDBRANCH  18  21
ENDBRANCH  16  17
ENDBRANCH  11  16
ENDBRANCH   8  10
ENDBRANCH   7   8
ENDBRANCH   6   7
ENDBRANCH   5   6
ENDBRANCH   4   5
ENDBRANCH   3   4
ENDBRANCH   2   3
ENDBRANCH   1   2
BRANCH   1  29
ATOM     29  C   UNL A   1      43.690  20.669  25.617  1.00  0.00     0.188 C 
BRANCH  29  30
ATOM     30  C   UNL A   1      45.042  21.200  25.100  1.00  0.00     0.188 C 
BRANCH  30  31
ATOM     31  O   UNL A   1      45.811  21.898  26.069  1.00  0.00    -0.376 OA
BRANCH  31  32
ATOM     32  C   UNL A   1      45.737  23.313  26.138  1.00  0.00     0.202 C 
BRANCH  32  33
ATOM     33  C   UNL A   1      45.042  23.965  27.346  1.00  0.00     0.261 C 
BRANCH  33  34
ATOM     34  O   UNL A   1      43.612  24.071  27.302  1.00  0.00    -0.460 OA
BRANCH  34  35
ATOM     35  C   UNL A   1      43.068  25.095  26.607  1.00  0.00     0.338 C 
ATOM     36  O   UNL A   1      42.904  25.159  25.409  1.00  0.00    -0.246 OA
BRANCH  35  37
ATOM     37  C   UNL A   1      42.508  26.051  27.592  1.00  0.00     0.060 A 
ATOM     38  C   UNL A   1      43.110  27.308  27.736  1.00  0.00     0.016 A 
ATOM     39  C   UNL A   1      41.399  25.705  28.367  1.00  0.00     0.016 A 
ATOM     40  C   UNL A   1      42.632  28.207  28.690  1.00  0.00     0.010 A 
ATOM     41  C   UNL A   1      40.939  26.594  29.341  1.00  0.00     0.010 A 
ATOM     42  C   UNL A   1      41.581  27.831  29.534  1.00  0.00    -0.014 A 
BRANCH  42  43
ATOM     43  C   UNL A   1      41.311  28.619  30.761  1.00  0.00     0.031 A 
ATOM     44  C   UNL A   1      40.162  29.592  30.733  1.00  0.00     0.074 A 
ATOM     45  C   UNL A   1      42.046  28.466  31.875  1.00  0.00     0.049 A 
ATOM     46  N   UNL A   1      39.759  30.430  31.651  1.00  0.00    -0.248 NA
ATOM     47  C   UNL A   1      39.364  29.624  29.496  1.00  0.00     0.031 C 
ATOM     48  C   UNL A   1      43.144  27.517  32.041  1.00  0.00     0.029 A 
ATOM     49  N   UNL A   1      41.977  29.119  33.080  1.00  0.00    -0.354 N 
ATOM     50  C   UNL A   1      38.675  31.102  31.096  1.00  0.00     0.074 A 
ATOM     51  C   UNL A   1      38.501  30.592  29.755  1.00  0.00     0.031 C 
ATOM     52  C   UNL A   1      43.654  27.656  33.279  1.00  0.00     0.029 A 
ATOM     53  C   UNL A   1      42.943  28.727  33.975  1.00  0.00     0.049 A 
ATOM     54  H   UNL A   1      41.299  29.804  33.285  1.00  0.00     0.167 HD
ATOM     55  C   UNL A   1      37.893  32.054  31.658  1.00  0.00     0.037 A 
ATOM     56  C   UNL A   1      43.231  29.197  35.206  1.00  0.00     0.037 A 
ATOM     57  C   UNL A   1      38.076  32.555  32.995  1.00  0.00     0.049 A 
ATOM     58  C   UNL A   1      42.398  30.315  35.783  1.00  0.00     0.074 A 
ATOM     59  C   UNL A   1      37.325  33.500  33.670  1.00  0.00     0.029 A 
ATOM     60  N   UNL A   1      39.093  32.164  33.856  1.00  0.00    -0.354 N 
ATOM     61  N   UNL A   1      41.361  30.926  35.261  1.00  0.00    -0.248 NA
ATOM     62  C   UNL A   1      42.776  30.806  37.116  1.00  0.00     0.031 C 
ATOM     63  C   UNL A   1      37.926  33.730  34.911  1.00  0.00     0.029 A 
ATOM     64  C   UNL A   1      39.011  32.877  35.041  1.00  0.00     0.049 A 
ATOM     65  H   UNL A   1      39.773  31.481  33.654  1.00  0.00     0.167 HD
ATOM     66  C   UNL A   1      40.940  31.849  36.216  1.00  0.00     0.074 A 
ATOM     67  C   UNL A   1      41.833  31.711  37.348  1.00  0.00     0.031 C 
ATOM     68  C   UNL A   1      39.906  32.727  36.163  1.00  0.00     0.037 A 
BRANCH  55  69
ATOM     69  C   UNL A   1      36.806  32.652  30.806  1.00  0.00     0.058 A 
ATOM     70  C   UNL A   1      35.462  32.258  30.922  1.00  0.00     0.135 A 
ATOM     71  C   UNL A   1      37.115  33.642  29.860  1.00  0.00     0.135 A 
ATOM     72  F   UNL A   1      35.110  31.301  31.795  1.00  0.00    -0.206 F 
ATOM     73  C   UNL A   1      34.474  32.795  30.103  1.00  0.00     0.059 A 
ATOM     74  C   UNL A   1      36.138  34.219  29.055  1.00  0.00     0.059 A 
ATOM     75  F   UNL A   1      38.383  34.056  29.704  1.00  0.00    -0.206 F 
ATOM     76  C   UNL A   1      34.823  33.774  29.171  1.00  0.00     0.060 A 
BRANCH  76  77
ATOM     77  S   UNL A   1      33.532  34.450  28.105  1.00  0.00     0.124 S 
ATOM     78  O   UNL A   1      34.325  35.122  27.079  1.00  0.00    -0.237 OA
ATOM     79  O   UNL A   1      32.824  33.249  27.674  1.00  0.00    -0.237 OA
ATOM     80  O   UNL A   1      32.783  35.332  28.994  1.00  0.00    -0.744 OA
ENDBRANCH  76  77
ENDBRANCH  55  69
BRANCH  56  81
ATOM     81  C   UNL A   1      44.360  28.611  35.979  1.00  0.00     0.058 A 
ATOM     82  C   UNL A   1      44.150  27.546  36.869  1.00  0.00     0.135 A 
ATOM     83  C   UNL A   1      45.671  29.092  35.835  1.00  0.00     0.135 A 
ATOM     84  F   UNL A   1      42.913  27.063  37.055  1.00  0.00    -0.206 F 
ATOM     85  C   UNL A   1      45.197  26.982  37.590  1.00  0.00     0.059 A 
ATOM     86  C   UNL A   1      46.738  28.526  36.525  1.00  0.00     0.059 A 
ATOM     87  F   UNL A   1      45.928  30.106  34.995  1.00  0.00    -0.206 F 
ATOM     88  C   UNL A   1      46.490  27.473  37.404  1.00  0.00     0.060 A 
BRANCH  88  89
ATOM     89  S   UNL A   1      47.851  26.683  38.292  1.00  0.00     0.124 S 
ATOM     90  O   UNL A   1      49.012  27.316  37.678  1.00  0.00    -0.237 OA
ATOM     91  O   UNL A   1      47.572  27.062  39.673  1.00  0.00    -0.237 OA
ATOM     92  O   UNL A   1      47.671  25.266  37.990  1.00  0.00    -0.744 OA
ENDBRANCH  88  89
ENDBRANCH  56  81
BRANCH  68  93
ATOM     93  C   UNL A   1      39.648  33.580  37.377  1.00  0.00     0.058 A 
ATOM     94  C   UNL A   1      38.826  33.147  38.430  1.00  0.00     0.135 A 
ATOM     95  C   UNL A   1      40.284  34.825  37.516  1.00  0.00     0.135 A 
ATOM     96  F   UNL A   1      38.189  31.969  38.350  1.00  0.00    -0.206 F 
ATOM     97  C   UNL A   1      38.623  33.930  39.563  1.00  0.00     0.059 A 
ATOM     98  C   UNL A   1      40.123  35.609  38.655  1.00  0.00     0.059 A 
ATOM     99  F   UNL A   1      41.092  35.284  36.546  1.00  0.00    -0.206 F 
ATOM    100  C   UNL A   1      39.280  35.158  39.668  1.00  0.00     0.060 A 
BRANCH 100 101
ATOM    101  S   UNL A   1      39.035  36.145  41.160  1.00  0.00     0.124 S 
ATOM    102  O   UNL A   1      40.230  35.816  41.930  1.00  0.00    -0.237 OA
ATOM    103  O   UNL A   1      38.975  37.503  40.629  1.00  0.00    -0.237 OA
ATOM    104  O   UNL A   1      37.779  35.635  41.703  1.00  0.00    -0.744 OA
ENDBRANCH 100 101
ENDBRANCH  68  93
ENDBRANCH  42  43
ENDBRANCH  35  37
ENDBRANCH  34  35
ENDBRANCH  33  34
ENDBRANCH  32  33
ENDBRANCH  31  32
ENDBRANCH  30  31
ENDBRANCH  29  30
ENDBRANCH   1  29
TORSDOF 26
ENDMDL
MODEL 3
REMARK VINA RESULT:      -9.8      5.206     11.412
REMARK SMILES C[C@@H]1[C@H](C)CCC[C@H]1NC(=O)C[N@@H+]1CCC[C@@H]1C(=O)OCCOCCOCCOCCOC(=O)c1ccc(-c2c3nc(c(-c4c(F)cc(S(=O)(=O)[O-])cc4F)c4ccc([nH]4)c(-c4c(F)cc(S(=O)(=O)[O-])cc4F)c4nc(c(-c5c(F)cc(S(=O)(=O)[O-])cc5F)c5ccc2[nH]5)C=C4)C=C3)cc1
REMARK SMILES IDX 26 1 25 2 24 3 23 4 22 5 21 6 20 7 18 8 19 9 17 10 13 11
REMARK SMILES IDX 14 12 15 14 16 15 12 16 10 17 9 18 11 20 8 21 1 22 2 23 3 24
REMARK SMILES IDX 4 25 5 26 7 27 6 28 27 29 28 30 29 31 30 32 31 33 32 34
REMARK SMILES IDX 33 35 34 36 35 37 36 38 100 39 37 40 99 41 38 42 39 43 40 44
REMARK SMILES IDX 93 45 41 46 98 47 92 48 94 49 42 50 97 51 91 52 90 53 43 55
REMARK SMILES IDX 77 56 56 57 76 58 57 59 60 60 75 61 95 62 58 63 59 64 74 66
REMARK SMILES IDX 96 67 61 68 44 69 45 70 54 71 46 72 47 73 53 74 55 75 48 76
REMARK SMILES IDX 49 77 50 78 51 79 52 80 78 81 79 82 88 83 80 84 81 85 87 86
REMARK SMILES IDX 89 87 82 88 83 89 84 90 85 91 86 92 62 93 63 94 72 95 64 96
REMARK SMILES IDX 65 97 71 98 73 99 66 100 67 101 68 102 69 103 70 104
REMARK H PARENT 13 13 9 19 94 54 60 65
REMARK Flexibility Score: inf
ROOT
ATOM      1  O   UNL A   1      29.153  32.473  22.917  1.00  0.00    -0.377 OA
ENDROOT
BRANCH   1   2
ATOM      2  C   UNL A   1      28.051  32.161  22.095  1.00  0.00     0.188 C 
BRANCH   2   3
ATOM      3  C   UNL A   1      28.248  30.958  21.161  1.00  0.00     0.188 C 
BRANCH   3   4
ATOM      4  O   UNL A   1      28.733  29.704  21.610  1.00  0.00    -0.376 OA
BRANCH   4   5
ATOM      5  C   UNL A   1      30.105  29.386  21.791  1.00  0.00     0.202 C 
BRANCH   5   6
ATOM      6  C   UNL A   1      30.622  28.063  22.372  1.00  0.00     0.261 C 
BRANCH   6   7
ATOM      7  O   UNL A   1      31.082  28.090  23.722  1.00  0.00    -0.459 OA
BRANCH   7   8
ATOM      8  C   UNL A   1      32.407  27.866  23.871  1.00  0.00     0.365 C 
ATOM      9  O   UNL A   1      33.274  28.222  23.075  1.00  0.00    -0.245 OA
BRANCH   8  10
ATOM     10  C   UNL A   1      32.749  27.141  25.175  1.00  0.00     0.295 C 
ATOM     11  N   UNL A   1      32.722  25.665  25.090  1.00  0.00    -0.315 N 
ATOM     12  C   UNL A   1      32.151  25.155  26.324  1.00  0.00     0.263 C 
ATOM     13  H   UNL A   1      33.683  25.327  25.030  1.00  0.00     0.349 HD
ATOM     14  C   UNL A   1      31.255  26.249  26.860  1.00  0.00     0.068 C 
ATOM     15  C   UNL A   1      31.979  27.508  26.454  1.00  0.00     0.083 C 
BRANCH  11  16
ATOM     16  C   UNL A   1      32.353  25.036  23.809  1.00  0.00     0.364 C 
BRANCH  16  17
ATOM     17  C   UNL A   1      33.510  24.466  22.970  1.00  0.00     0.275 C 
ATOM     18  N   UNL A   1      34.253  23.426  23.431  1.00  0.00    -0.348 N 
ATOM     19  H   UNL A   1      34.677  22.851  22.754  1.00  0.00     0.163 HD
ATOM     20  O   UNL A   1      33.825  24.928  21.872  1.00  0.00    -0.268 OA
BRANCH  18  21
ATOM     21  C   UNL A   1      34.483  23.082  24.819  1.00  0.00     0.085 C 
ATOM     22  C   UNL A   1      33.567  21.625  26.651  1.00  0.00     0.010 C 
ATOM     23  C   UNL A   1      33.850  21.716  25.147  1.00  0.00     0.011 C 
ATOM     24  C   UNL A   1      34.697  20.552  24.585  1.00  0.00    -0.009 C 
ATOM     25  C   UNL A   1      34.133  19.184  24.965  1.00  0.00     0.008 C 
ATOM     26  C   UNL A   1      36.172  20.670  24.989  1.00  0.00     0.004 C 
ATOM     27  C   UNL A   1      35.978  23.176  25.128  1.00  0.00     0.025 C 
ATOM     28  C   UNL A   1      36.767  22.007  24.557  1.00  0.00     0.002 C 
ENDBRANCH  18  21
ENDBRANCH  16  17
ENDBRANCH  11  16
ENDBRANCH   8  10
ENDBRANCH   7   8
ENDBRANCH   6   7
ENDBRANCH   5   6
ENDBRANCH   4   5
ENDBRANCH   3   4
ENDBRANCH   2   3
ENDBRANCH   1   2
BRANCH   1  29
ATOM     29  C   UNL A   1      29.146  31.978  24.249  1.00  0.00     0.188 C 
BRANCH  29  30
ATOM     30  C   UNL A   1      30.398  31.245  24.772  1.00  0.00     0.188 C 
BRANCH  30  31
ATOM     31  O   UNL A   1      31.005  31.849  25.905  1.00  0.00    -0.376 OA
BRANCH  31  32
ATOM     32  C   UNL A   1      31.783  31.059  26.790  1.00  0.00     0.202 C 
BRANCH  32  33
ATOM     33  C   UNL A   1      33.137  31.603  27.279  1.00  0.00     0.261 C 
BRANCH  33  34
ATOM     34  O   UNL A   1      33.943  30.729  28.083  1.00  0.00    -0.460 OA
BRANCH  34  35
ATOM     35  C   UNL A   1      34.747  31.283  29.018  1.00  0.00     0.338 C 
ATOM     36  O   UNL A   1      34.435  32.093  29.863  1.00  0.00    -0.246 OA
BRANCH  35  37
ATOM     37  C   UNL A   1      36.044  30.567  28.967  1.00  0.00     0.060 A 
ATOM     38  C   UNL A   1      36.621  30.123  30.165  1.00  0.00     0.016 A 
ATOM     39  C   UNL A   1      36.682  30.337  27.747  1.00  0.00     0.016 A 
ATOM     40  C   UNL A   1      37.863  29.489  30.150  1.00  0.00     0.010 A 
ATOM     41  C   UNL A   1      37.940  29.727  27.735  1.00  0.00     0.010 A 
ATOM     42  C   UNL A   1      38.553  29.340  28.941  1.00  0.00    -0.014 A 
BRANCH  42  43
ATOM     43  C   UNL A   1      39.997  29.003  28.959  1.00  0.00     0.031 A 
ATOM     44  C   UNL A   1      40.967  30.083  29.358  1.00  0.00     0.074 A 
ATOM     45  C   UNL A   1      40.439  27.772  28.651  1.00  0.00     0.049 A 
ATOM     46  N   UNL A   1      42.272  30.055  29.398  1.00  0.00    -0.248 NA
ATOM     47  C   UNL A   1      40.379  31.371  29.760  1.00  0.00     0.031 C 
ATOM     48  C   UNL A   1      39.593  26.631  28.306  1.00  0.00     0.029 A 
ATOM     49  N   UNL A   1      41.718  27.281  28.574  1.00  0.00    -0.354 N 
ATOM     50  C   UNL A   1      42.663  31.324  29.811  1.00  0.00     0.074 A 
ATOM     51  C   UNL A   1      41.458  32.104  29.982  1.00  0.00     0.031 C 
ATOM     52  C   UNL A   1      40.380  25.571  28.046  1.00  0.00     0.029 A 
ATOM     53  C   UNL A   1      41.781  25.970  28.169  1.00  0.00     0.049 A 
ATOM     54  H   UNL A   1      42.515  27.818  28.790  1.00  0.00     0.167 HD
ATOM     55  C   UNL A   1      43.913  31.794  30.032  1.00  0.00     0.037 A 
ATOM     56  C   UNL A   1      42.851  25.191  27.906  1.00  0.00     0.037 A 
ATOM     57  C   UNL A   1      45.107  31.009  29.858  1.00  0.00     0.049 A 
ATOM     58  C   UNL A   1      44.238  25.759  28.081  1.00  0.00     0.074 A 
ATOM     59  C   UNL A   1      46.420  31.380  30.079  1.00  0.00     0.029 A 
ATOM     60  N   UNL A   1      45.134  29.697  29.403  1.00  0.00    -0.354 N 
ATOM     61  N   UNL A   1      44.597  26.952  28.494  1.00  0.00    -0.248 NA
ATOM     62  C   UNL A   1      45.365  24.874  27.752  1.00  0.00     0.031 C 
ATOM     63  C   UNL A   1      47.245  30.317  29.694  1.00  0.00     0.029 A 
ATOM     64  C   UNL A   1      46.443  29.257  29.301  1.00  0.00     0.049 A 
ATOM     65  H   UNL A   1      44.339  29.159  29.185  1.00  0.00     0.167 HD
ATOM     66  C   UNL A   1      45.989  26.949  28.510  1.00  0.00     0.074 A 
ATOM     67  C   UNL A   1      46.406  25.634  28.069  1.00  0.00     0.031 C 
ATOM     68  C   UNL A   1      46.845  27.942  28.863  1.00  0.00     0.037 A 
BRANCH  55  69
ATOM     69  C   UNL A   1      44.052  33.238  30.432  1.00  0.00     0.058 A 
ATOM     70  C   UNL A   1      44.085  33.643  31.777  1.00  0.00     0.135 A 
ATOM     71  C   UNL A   1      44.161  34.235  29.449  1.00  0.00     0.135 A 
ATOM     72  F   UNL A   1      43.965  32.736  32.760  1.00  0.00    -0.206 F 
ATOM     73  C   UNL A   1      44.179  34.985  32.131  1.00  0.00     0.059 A 
ATOM     74  C   UNL A   1      44.291  35.581  29.780  1.00  0.00     0.059 A 
ATOM     75  F   UNL A   1      44.133  33.908  28.148  1.00  0.00    -0.206 F 
ATOM     76  C   UNL A   1      44.279  35.947  31.124  1.00  0.00     0.060 A 
BRANCH  76  77
ATOM     77  S   UNL A   1      44.385  37.685  31.599  1.00  0.00     0.124 S 
ATOM     78  O   UNL A   1      45.831  37.887  31.645  1.00  0.00    -0.237 OA
ATOM     79  O   UNL A   1      43.688  38.350  30.502  1.00  0.00    -0.237 OA
ATOM     80  O   UNL A   1      43.706  37.729  32.889  1.00  0.00    -0.744 OA
ENDBRANCH  76  77
ENDBRANCH  55  69
BRANCH  56  81
ATOM     81  C   UNL A   1      42.654  23.788  27.451  1.00  0.00     0.058 A 
ATOM     82  C   UNL A   1      42.631  23.468  26.085  1.00  0.00     0.135 A 
ATOM     83  C   UNL A   1      42.499  22.738  28.370  1.00  0.00     0.135 A 
ATOM     84  F   UNL A   1      42.757  24.439  25.168  1.00  0.00    -0.206 F 
ATOM     85  C   UNL A   1      42.458  22.160  25.646  1.00  0.00     0.059 A 
ATOM     86  C   UNL A   1      42.352  21.418  27.955  1.00  0.00     0.059 A 
ATOM     87  F   UNL A   1      42.517  22.988  29.688  1.00  0.00    -0.206 F 
ATOM     88  C   UNL A   1      42.329  21.139  26.589  1.00  0.00     0.060 A 
BRANCH  88  89
ATOM     89  S   UNL A   1      42.178  19.436  26.006  1.00  0.00     0.124 S 
ATOM     90  O   UNL A   1      40.763  19.366  25.660  1.00  0.00    -0.237 OA
ATOM     91  O   UNL A   1      43.112  19.416  24.885  1.00  0.00    -0.237 OA
ATOM     92  O   UNL A   1      42.585  18.647  27.165  1.00  0.00    -0.744 OA
ENDBRANCH  88  89
ENDBRANCH  56  81
BRANCH  68  93
ATOM     93  C   UNL A   1      48.320  27.639  28.833  1.00  0.00     0.058 A 
ATOM     94  C   UNL A   1      48.986  27.074  29.931  1.00  0.00     0.135 A 
ATOM     95  C   UNL A   1      49.065  27.864  27.663  1.00  0.00     0.135 A 
ATOM     96  F   UNL A   1      48.326  26.842  31.076  1.00  0.00    -0.206 F 
ATOM     97  C   UNL A   1      50.343  26.766  29.879  1.00  0.00     0.059 A 
ATOM     98  C   UNL A   1      50.414  27.532  27.577  1.00  0.00     0.059 A 
ATOM     99  F   UNL A   1      48.477  28.391  26.576  1.00  0.00    -0.206 F 
ATOM    100  C   UNL A   1      51.047  26.995  28.695  1.00  0.00     0.060 A 
BRANCH 100 101
ATOM    101  S   UNL A   1      52.798  26.557  28.632  1.00  0.00     0.124 S 
ATOM    102  O   UNL A   1      52.811  25.546  27.580  1.00  0.00    -0.237 OA
ATOM    103  O   UNL A   1      53.426  27.832  28.296  1.00  0.00    -0.237 OA
ATOM    104  O   UNL A   1      53.075  26.064  29.978  1.00  0.00    -0.744 OA
ENDBRANCH 100 101
ENDBRANCH  68  93
ENDBRANCH  42  43
ENDBRANCH  35  37
ENDBRANCH  34  35
ENDBRANCH  33  34
ENDBRANCH  32  33
ENDBRANCH  31  32
ENDBRANCH  30  31
ENDBRANCH  29  30
ENDBRANCH   1  29
TORSDOF 26
ENDMDL
