MODEL 1
REMARK VINA RESULT:      -7.8      0.000      0.000
REMARK SMILES O=C(NCc1ccc(C(=O)OCCOCCOCCOCCOC(=O)c2ccc(-c3c4nc(c(-c5c(F)cc(S(=O)(=O)[O-])cc5F)c5ccc([nH]5)c(-c5c(F)cc(S(=O)(=O)[O-])cc5F)c5nc(c(-c6c(F)cc(S(=O)(=O)[O-])cc6F)c6ccc3[nH]6)C=C5)C=C4)cc2)o1)Nc1ccc(F)c(Cl)c1
REMARK SMILES IDX 17 1 16 2 15 3 14 4 13 5 12 6 11 7 9 8 10 9 8 10 5 11 6 12
REMARK SMILES IDX 92 13 7 14 4 15 3 16 1 17 2 18 93 19 94 22 95 23 101 24
REMARK SMILES IDX 96 25 99 26 97 27 100 28 98 29 18 30 19 31 20 32 21 33 22 34
REMARK SMILES IDX 23 35 24 36 25 37 26 38 27 39 91 40 28 41 90 42 29 43 30 44
REMARK SMILES IDX 31 45 84 46 32 47 89 48 83 49 85 50 33 51 88 52 82 53 81 54
REMARK SMILES IDX 34 56 68 57 47 58 67 59 48 60 51 61 66 62 86 63 49 64 50 65
REMARK SMILES IDX 65 67 87 68 52 69 35 70 36 71 45 72 37 73 38 74 44 75 46 76
REMARK SMILES IDX 39 77 40 78 41 79 42 80 43 81 69 82 70 83 79 84 71 85 72 86
REMARK SMILES IDX 78 87 80 88 73 89 74 90 75 91 76 92 77 93 53 94 54 95 63 96
REMARK SMILES IDX 55 97 56 98 62 99 64 100 57 101 58 102 59 103 60 104 61 105
REMARK H PARENT 3 20 93 21 85 55 51 66
REMARK Flexibility Score: inf
ROOT
ATOM      1  O   UNL A   1      32.922  35.554  30.862  1.00  0.00    -0.377 OA
ENDROOT
BRANCH   1   2
ATOM      2  C   UNL A   1      33.976  34.966  31.611  1.00  0.00     0.188 C 
BRANCH   2   3
ATOM      3  C   UNL A   1      33.480  33.805  32.487  1.00  0.00     0.188 C 
BRANCH   3   4
ATOM      4  O   UNL A   1      34.350  33.537  33.585  1.00  0.00    -0.376 OA
BRANCH   4   5
ATOM      5  C   UNL A   1      35.231  34.581  33.986  1.00  0.00     0.202 C 
BRANCH   5   6
ATOM      6  C   UNL A   1      36.653  34.205  34.438  1.00  0.00     0.261 C 
BRANCH   6   7
ATOM      7  O   UNL A   1      37.656  34.135  33.414  1.00  0.00    -0.457 OA
BRANCH   7   8
ATOM      8  C   UNL A   1      37.816  32.985  32.711  1.00  0.00     0.374 C 
ATOM      9  O   UNL A   1      37.174  32.678  31.715  1.00  0.00    -0.242 OA
BRANCH   8  10
ATOM     10  C   UNL A   1      38.961  32.285  33.255  1.00  0.00     0.211 A 
ATOM     11  C   UNL A   1      40.336  30.569  33.472  1.00  0.00     0.124 A 
ATOM     12  C   UNL A   1      40.979  31.653  34.032  1.00  0.00     0.048 A 
ATOM     13  O   UNL A   1      39.094  30.936  33.034  1.00  0.00    -0.452 OA
ATOM     14  C   UNL A   1      40.099  32.751  33.896  1.00  0.00     0.058 A 
BRANCH  11  15
ATOM     15  C   UNL A   1      40.750  29.159  33.250  1.00  0.00     0.193 C 
BRANCH  15  16
ATOM     16  N   UNL A   1      42.198  29.090  33.233  1.00  0.00    -0.331 N 
ATOM     17  O   UNL A   1      44.271  28.408  33.603  1.00  0.00    -0.248 OA
ATOM     18  C   UNL A   1      43.072  28.165  33.707  1.00  0.00     0.319 C 
ATOM     19  N   UNL A   1      42.535  27.034  34.258  1.00  0.00    -0.308 N 
ATOM     20  H   UNL A   1      42.629  29.858  32.795  1.00  0.00     0.165 HD
ATOM     21  H   UNL A   1      41.564  26.912  34.146  1.00  0.00     0.171 HD
BRANCH  19  22
ATOM     22  C   UNL A   1      43.216  26.020  34.970  1.00  0.00     0.044 A 
ATOM     23  C   UNL A   1      43.801  26.380  36.194  1.00  0.00     0.029 A 
ATOM     24  C   UNL A   1      43.358  24.705  34.512  1.00  0.00     0.049 A 
ATOM     25  C   UNL A   1      44.506  25.440  36.952  1.00  0.00     0.043 A 
ATOM     26  C   UNL A   1      44.065  23.766  35.271  1.00  0.00     0.078 A 
ATOM     27  C   UNL A   1      44.633  24.137  36.486  1.00  0.00     0.141 A 
ATOM     28  Cl  UNL A   1      44.232  22.153  34.688  1.00  0.00    -0.081 Cl
ATOM     29  F   UNL A   1      45.313  23.251  37.229  1.00  0.00    -0.205 F 
ENDBRANCH  19  22
ENDBRANCH  15  16
ENDBRANCH  11  15
ENDBRANCH   8  10
ENDBRANCH   7   8
ENDBRANCH   6   7
ENDBRANCH   5   6
ENDBRANCH   4   5
ENDBRANCH   3   4
ENDBRANCH   2   3
ENDBRANCH   1   2
BRANCH   1  30
ATOM     30  C   UNL A   1      33.290  36.641  30.012  1.00  0.00     0.188 C 
BRANCH  30  31
ATOM     31  C   UNL A   1      34.012  36.341  28.684  1.00  0.00     0.188 C 
BRANCH  31  32
ATOM     32  O   UNL A   1      33.572  35.128  28.064  1.00  0.00    -0.376 OA
BRANCH  32  33
ATOM     33  C   UNL A   1      34.484  34.034  28.105  1.00  0.00     0.202 C 
BRANCH  33  34
ATOM     34  C   UNL A   1      33.835  32.709  28.526  1.00  0.00     0.261 C 
BRANCH  34  35
ATOM     35  O   UNL A   1      34.755  31.720  29.016  1.00  0.00    -0.460 OA
BRANCH  35  36
ATOM     36  C   UNL A   1      34.815  30.554  28.336  1.00  0.00     0.338 C 
ATOM     37  O   UNL A   1      33.956  30.078  27.617  1.00  0.00    -0.246 OA
BRANCH  36  38
ATOM     38  C   UNL A   1      36.188  30.025  28.459  1.00  0.00     0.060 A 
ATOM     39  C   UNL A   1      36.618  29.568  29.710  1.00  0.00     0.016 A 
ATOM     40  C   UNL A   1      37.046  30.000  27.357  1.00  0.00     0.016 A 
ATOM     41  C   UNL A   1      37.930  29.125  29.872  1.00  0.00     0.010 A 
ATOM     42  C   UNL A   1      38.363  29.569  27.523  1.00  0.00     0.010 A 
ATOM     43  C   UNL A   1      38.820  29.164  28.789  1.00  0.00    -0.014 A 
BRANCH  43  44
ATOM     44  C   UNL A   1      40.269  28.962  29.014  1.00  0.00     0.031 A 
ATOM     45  C   UNL A   1      40.865  27.624  28.672  1.00  0.00     0.074 A 
ATOM     46  C   UNL A   1      41.039  29.940  29.519  1.00  0.00     0.049 A 
ATOM     47  N   UNL A   1      42.096  27.204  28.809  1.00  0.00    -0.248 NA
ATOM     48  C   UNL A   1      39.946  26.626  28.099  1.00  0.00     0.031 C 
ATOM     49  C   UNL A   1      40.578  31.281  29.875  1.00  0.00     0.029 A 
ATOM     50  N   UNL A   1      42.374  29.947  29.831  1.00  0.00    -0.354 N 
ATOM     51  C   UNL A   1      42.100  25.896  28.342  1.00  0.00     0.074 A 
ATOM     52  C   UNL A   1      40.745  25.581  27.946  1.00  0.00     0.031 C 
ATOM     53  C   UNL A   1      41.615  31.978  30.372  1.00  0.00     0.029 A 
ATOM     54  C   UNL A   1      42.804  31.127  30.390  1.00  0.00     0.049 A 
ATOM     55  H   UNL A   1      42.970  29.180  29.669  1.00  0.00     0.167 HD
ATOM     56  C   UNL A   1      43.141  25.036  28.243  1.00  0.00     0.037 A 
ATOM     57  C   UNL A   1      44.014  31.470  30.873  1.00  0.00     0.037 A 
ATOM     58  C   UNL A   1      44.485  25.347  28.651  1.00  0.00     0.049 A 
ATOM     59  C   UNL A   1      45.147  30.481  30.806  1.00  0.00     0.074 A 
ATOM     60  C   UNL A   1      45.614  24.553  28.573  1.00  0.00     0.029 A 
ATOM     61  N   UNL A   1      44.877  26.547  29.226  1.00  0.00    -0.354 N 
ATOM     62  N   UNL A   1      45.149  29.260  30.324  1.00  0.00    -0.248 NA
ATOM     63  C   UNL A   1      46.444  30.915  31.344  1.00  0.00     0.031 C 
ATOM     64  C   UNL A   1      46.684  25.257  29.140  1.00  0.00     0.029 A 
ATOM     65  C   UNL A   1      46.228  26.506  29.531  1.00  0.00     0.049 A 
ATOM     66  H   UNL A   1      44.284  27.314  29.393  1.00  0.00     0.167 HD
ATOM     67  C   UNL A   1      46.449  28.789  30.480  1.00  0.00     0.074 A 
ATOM     68  C   UNL A   1      47.208  29.859  31.095  1.00  0.00     0.031 C 
ATOM     69  C   UNL A   1      46.968  27.582  30.143  1.00  0.00     0.037 A 
BRANCH  56  70
ATOM     70  C   UNL A   1      42.850  23.669  27.695  1.00  0.00     0.058 A 
ATOM     71  C   UNL A   1      42.557  22.586  28.540  1.00  0.00     0.135 A 
ATOM     72  C   UNL A   1      42.868  23.437  26.312  1.00  0.00     0.135 A 
ATOM     73  F   UNL A   1      42.548  22.751  29.872  1.00  0.00    -0.206 F 
ATOM     74  C   UNL A   1      42.326  21.312  28.032  1.00  0.00     0.059 A 
ATOM     75  C   UNL A   1      42.616  22.177  25.780  1.00  0.00     0.059 A 
ATOM     76  F   UNL A   1      43.148  24.438  25.462  1.00  0.00    -0.206 F 
ATOM     77  C   UNL A   1      42.364  21.116  26.651  1.00  0.00     0.060 A 
BRANCH  77  78
ATOM     78  S   UNL A   1      42.082  19.455  26.004  1.00  0.00     0.124 S 
ATOM     79  O   UNL A   1      40.658  19.505  25.687  1.00  0.00    -0.237 OA
ATOM     80  O   UNL A   1      42.984  19.406  24.857  1.00  0.00    -0.237 OA
ATOM     81  O   UNL A   1      42.447  18.589  27.121  1.00  0.00    -0.744 OA
ENDBRANCH  77  78
ENDBRANCH  56  70
BRANCH  57  82
ATOM     82  C   UNL A   1      44.215  32.818  31.469  1.00  0.00     0.058 A 
ATOM     83  C   UNL A   1      44.232  32.999  32.859  1.00  0.00     0.135 A 
ATOM     84  C   UNL A   1      44.408  33.945  30.657  1.00  0.00     0.135 A 
ATOM     85  F   UNL A   1      44.039  31.951  33.675  1.00  0.00    -0.206 F 
ATOM     86  C   UNL A   1      44.432  34.253  33.427  1.00  0.00     0.059 A 
ATOM     87  C   UNL A   1      44.631  35.207  31.201  1.00  0.00     0.059 A 
ATOM     88  F   UNL A   1      44.407  33.821  29.321  1.00  0.00    -0.206 F 
ATOM     89  C   UNL A   1      44.635  35.351  32.588  1.00  0.00     0.060 A 
BRANCH  89  90
ATOM     90  S   UNL A   1      44.964  36.964  33.333  1.00  0.00     0.124 S 
ATOM     91  O   UNL A   1      43.792  37.724  32.917  1.00  0.00    -0.237 OA
ATOM     92  O   UNL A   1      45.045  36.636  34.753  1.00  0.00    -0.237 OA
ATOM     93  O   UNL A   1      46.228  37.363  32.718  1.00  0.00    -0.744 OA
ENDBRANCH  89  90
ENDBRANCH  57  82
BRANCH  69  94
ATOM     94  C   UNL A   1      48.430  27.357  30.408  1.00  0.00     0.058 A 
ATOM     95  C   UNL A   1      49.408  27.677  29.454  1.00  0.00     0.135 A 
ATOM     96  C   UNL A   1      48.861  26.873  31.654  1.00  0.00     0.135 A 
ATOM     97  F   UNL A   1      49.048  28.138  28.246  1.00  0.00    -0.206 F 
ATOM     98  C   UNL A   1      50.763  27.507  29.719  1.00  0.00     0.059 A 
ATOM     99  C   UNL A   1      50.212  26.717  31.948  1.00  0.00     0.059 A 
ATOM    100  F   UNL A   1      47.966  26.563  32.605  1.00  0.00    -0.206 F 
ATOM    101  C   UNL A   1      51.156  27.026  30.969  1.00  0.00     0.060 A 
BRANCH 101 102
ATOM    102  S   UNL A   1      52.919  26.844  31.318  1.00  0.00     0.124 S 
ATOM    103  O   UNL A   1      53.095  27.776  32.426  1.00  0.00    -0.237 OA
ATOM    104  O   UNL A   1      53.029  25.428  31.656  1.00  0.00    -0.237 OA
ATOM    105  O   UNL A   1      53.554  27.232  30.062  1.00  0.00    -0.744 OA
ENDBRANCH 101 102
ENDBRANCH  69  94
ENDBRANCH  43  44
ENDBRANCH  36  38
ENDBRANCH  35  36
ENDBRANCH  34  35
ENDBRANCH  33  34
ENDBRANCH  32  33
ENDBRANCH  31  32
ENDBRANCH  30  31
ENDBRANCH   1  30
TORSDOF 26
ENDMDL
MODEL 2
REMARK VINA RESULT:      -7.8      3.601      6.168
REMARK SMILES O=C(NCc1ccc(C(=O)OCCOCCOCCOCCOC(=O)c2ccc(-c3c4nc(c(-c5c(F)cc(S(=O)(=O)[O-])cc5F)c5ccc([nH]5)c(-c5c(F)cc(S(=O)(=O)[O-])cc5F)c5nc(c(-c6c(F)cc(S(=O)(=O)[O-])cc6F)c6ccc3[nH]6)C=C5)C=C4)cc2)o1)Nc1ccc(F)c(Cl)c1
REMARK SMILES IDX 17 1 16 2 15 3 14 4 13 5 12 6 11 7 9 8 10 9 8 10 5 11 6 12
REMARK SMILES IDX 92 13 7 14 4 15 3 16 1 17 2 18 93 19 94 22 95 23 101 24
REMARK SMILES IDX 96 25 99 26 97 27 100 28 98 29 18 30 19 31 20 32 21 33 22 34
REMARK SMILES IDX 23 35 24 36 25 37 26 38 27 39 91 40 28 41 90 42 29 43 30 44
REMARK SMILES IDX 31 45 84 46 32 47 89 48 83 49 85 50 33 51 88 52 82 53 81 54
REMARK SMILES IDX 34 56 68 57 47 58 67 59 48 60 51 61 66 62 86 63 49 64 50 65
REMARK SMILES IDX 65 67 87 68 52 69 35 70 36 71 45 72 37 73 38 74 44 75 46 76
REMARK SMILES IDX 39 77 40 78 41 79 42 80 43 81 69 82 70 83 79 84 71 85 72 86
REMARK SMILES IDX 78 87 80 88 73 89 74 90 75 91 76 92 77 93 53 94 54 95 63 96
REMARK SMILES IDX 55 97 56 98 62 99 64 100 57 101 58 102 59 103 60 104 61 105
REMARK H PARENT 3 20 93 21 85 55 51 66
REMARK Flexibility Score: inf
ROOT
ATOM      1  O   UNL A   1      32.831  35.789  30.302  1.00  0.00    -0.377 OA
ENDROOT
BRANCH   1   2
ATOM      2  C   UNL A   1      33.872  35.317  31.146  1.00  0.00     0.188 C 
BRANCH   2   3
ATOM      3  C   UNL A   1      33.353  34.946  32.544  1.00  0.00     0.188 C 
BRANCH   3   4
ATOM      4  O   UNL A   1      34.407  34.639  33.456  1.00  0.00    -0.376 OA
BRANCH   4   5
ATOM      5  C   UNL A   1      35.700  35.149  33.149  1.00  0.00     0.202 C 
BRANCH   5   6
ATOM      6  C   UNL A   1      36.892  34.176  33.161  1.00  0.00     0.261 C 
BRANCH   6   7
ATOM      7  O   UNL A   1      37.035  33.319  32.019  1.00  0.00    -0.457 OA
BRANCH   7   8
ATOM      8  C   UNL A   1      38.252  32.798  31.720  1.00  0.00     0.374 C 
ATOM      9  O   UNL A   1      38.652  31.698  32.081  1.00  0.00    -0.242 OA
BRANCH   8  10
ATOM     10  C   UNL A   1      38.906  33.699  30.793  1.00  0.00     0.211 A 
ATOM     11  C   UNL A   1      40.641  34.748  29.916  1.00  0.00     0.124 A 
ATOM     12  C   UNL A   1      39.614  34.869  29.004  1.00  0.00     0.048 A 
ATOM     13  O   UNL A   1      40.208  34.073  31.023  1.00  0.00    -0.452 OA
ATOM     14  C   UNL A   1      38.502  34.201  29.565  1.00  0.00     0.058 A 
BRANCH  11  15
ATOM     15  C   UNL A   1      42.064  35.176  29.890  1.00  0.00     0.193 C 
BRANCH  15  16
ATOM     16  N   UNL A   1      42.540  35.152  28.521  1.00  0.00    -0.331 N 
ATOM     17  O   UNL A   1      43.144  35.812  26.497  1.00  0.00    -0.248 OA
ATOM     18  C   UNL A   1      42.807  36.141  27.630  1.00  0.00     0.319 C 
ATOM     19  N   UNL A   1      42.680  37.427  28.080  1.00  0.00    -0.308 N 
ATOM     20  H   UNL A   1      42.700  34.246  28.170  1.00  0.00     0.165 HD
ATOM     21  H   UNL A   1      42.539  37.539  29.048  1.00  0.00     0.171 HD
BRANCH  19  22
ATOM     22  C   UNL A   1      42.726  38.613  27.312  1.00  0.00     0.044 A 
ATOM     23  C   UNL A   1      41.501  39.155  26.895  1.00  0.00     0.029 A 
ATOM     24  C   UNL A   1      43.914  39.248  26.929  1.00  0.00     0.049 A 
ATOM     25  C   UNL A   1      41.462  40.318  26.119  1.00  0.00     0.043 A 
ATOM     26  C   UNL A   1      43.873  40.410  26.150  1.00  0.00     0.078 A 
ATOM     27  C   UNL A   1      42.649  40.939  25.751  1.00  0.00     0.141 A 
ATOM     28  Cl  UNL A   1      45.345  41.175  25.686  1.00  0.00    -0.081 Cl
ATOM     29  F   UNL A   1      42.589  42.053  25.007  1.00  0.00    -0.205 F 
ENDBRANCH  19  22
ENDBRANCH  15  16
ENDBRANCH  11  15
ENDBRANCH   8  10
ENDBRANCH   7   8
ENDBRANCH   6   7
ENDBRANCH   5   6
ENDBRANCH   4   5
ENDBRANCH   3   4
ENDBRANCH   2   3
ENDBRANCH   1   2
BRANCH   1  30
ATOM     30  C   UNL A   1      33.246  36.525  29.151  1.00  0.00     0.188 C 
BRANCH  30  31
ATOM     31  C   UNL A   1      34.102  35.819  28.081  1.00  0.00     0.188 C 
BRANCH  31  32
ATOM     32  O   UNL A   1      33.894  34.403  28.036  1.00  0.00    -0.376 OA
BRANCH  32  33
ATOM     33  C   UNL A   1      35.044  33.592  28.262  1.00  0.00     0.202 C 
BRANCH  33  34
ATOM     34  C   UNL A   1      34.735  32.278  28.991  1.00  0.00     0.261 C 
BRANCH  34  35
ATOM     35  O   UNL A   1      35.877  31.437  29.223  1.00  0.00    -0.460 OA
BRANCH  35  36
ATOM     36  C   UNL A   1      35.811  30.175  28.746  1.00  0.00     0.338 C 
ATOM     37  O   UNL A   1      34.821  29.590  28.350  1.00  0.00    -0.246 OA
BRANCH  36  38
ATOM     38  C   UNL A   1      37.191  29.669  28.606  1.00  0.00     0.060 A 
ATOM     39  C   UNL A   1      37.836  29.163  29.741  1.00  0.00     0.016 A 
ATOM     40  C   UNL A   1      37.847  29.711  27.374  1.00  0.00     0.016 A 
ATOM     41  C   UNL A   1      39.161  28.739  29.654  1.00  0.00     0.010 A 
ATOM     42  C   UNL A   1      39.177  29.300  27.290  1.00  0.00     0.010 A 
ATOM     43  C   UNL A   1      39.850  28.846  28.438  1.00  0.00    -0.014 A 
BRANCH  43  44
ATOM     44  C   UNL A   1      41.319  28.662  28.401  1.00  0.00     0.031 A 
ATOM     45  C   UNL A   1      41.860  27.302  28.057  1.00  0.00     0.074 A 
ATOM     46  C   UNL A   1      42.155  29.677  28.675  1.00  0.00     0.049 A 
ATOM     47  N   UNL A   1      43.101  26.894  27.993  1.00  0.00    -0.248 NA
ATOM     48  C   UNL A   1      40.865  26.261  27.747  1.00  0.00     0.031 C 
ATOM     49  C   UNL A   1      41.749  31.042  29.006  1.00  0.00     0.029 A 
ATOM     50  N   UNL A   1      43.525  29.710  28.729  1.00  0.00    -0.354 N 
ATOM     51  C   UNL A   1      43.037  25.553  27.636  1.00  0.00     0.074 A 
ATOM     52  C   UNL A   1      41.637  25.208  27.527  1.00  0.00     0.031 C 
ATOM     53  C   UNL A   1      42.850  31.776  29.244  1.00  0.00     0.029 A 
ATOM     54  C   UNL A   1      44.034  30.930  29.104  1.00  0.00     0.049 A 
ATOM     55  H   UNL A   1      44.091  28.932  28.518  1.00  0.00     0.167 HD
ATOM     56  C   UNL A   1      44.055  24.688  27.410  1.00  0.00     0.037 A 
ATOM     57  C   UNL A   1      45.308  31.310  29.323  1.00  0.00     0.037 A 
ATOM     58  C   UNL A   1      45.446  25.031  27.533  1.00  0.00     0.049 A 
ATOM     59  C   UNL A   1      46.423  30.319  29.120  1.00  0.00     0.074 A 
ATOM     60  C   UNL A   1      46.552  24.233  27.305  1.00  0.00     0.029 A 
ATOM     61  N   UNL A   1      45.921  26.272  27.929  1.00  0.00    -0.354 N 
ATOM     62  N   UNL A   1      46.353  29.064  28.742  1.00  0.00    -0.248 NA
ATOM     63  C   UNL A   1      47.791  30.794  29.369  1.00  0.00     0.031 C 
ATOM     64  C   UNL A   1      47.698  24.981  27.604  1.00  0.00     0.029 A 
ATOM     65  C   UNL A   1      47.305  26.256  27.976  1.00  0.00     0.049 A 
ATOM     66  H   UNL A   1      45.358  27.050  28.144  1.00  0.00     0.167 HD
ATOM     67  C   UNL A   1      47.666  28.607  28.687  1.00  0.00     0.074 A 
ATOM     68  C   UNL A   1      48.510  29.722  29.063  1.00  0.00     0.031 C 
ATOM     69  C   UNL A   1      48.131  27.377  28.353  1.00  0.00     0.037 A 
BRANCH  56  70
ATOM     70  C   UNL A   1      43.686  23.283  27.034  1.00  0.00     0.058 A 
ATOM     71  C   UNL A   1      43.906  22.787  25.738  1.00  0.00     0.135 A 
ATOM     72  C   UNL A   1      43.104  22.422  27.977  1.00  0.00     0.135 A 
ATOM     73  F   UNL A   1      44.440  23.577  24.795  1.00  0.00    -0.206 F 
ATOM     74  C   UNL A   1      43.529  21.497  25.382  1.00  0.00     0.059 A 
ATOM     75  C   UNL A   1      42.741  21.120  27.649  1.00  0.00     0.059 A 
ATOM     76  F   UNL A   1      42.869  22.849  29.228  1.00  0.00    -0.206 F 
ATOM     77  C   UNL A   1      42.941  20.672  26.343  1.00  0.00     0.060 A 
BRANCH  77  78
ATOM     78  S   UNL A   1      42.436  19.007  25.864  1.00  0.00     0.124 S 
ATOM     79  O   UNL A   1      43.142  18.844  24.596  1.00  0.00    -0.237 OA
ATOM     80  O   UNL A   1      42.932  18.197  26.972  1.00  0.00    -0.237 OA
ATOM     81  O   UNL A   1      40.983  19.107  25.766  1.00  0.00    -0.744 OA
ENDBRANCH  77  78
ENDBRANCH  56  70
BRANCH  57  82
ATOM     82  C   UNL A   1      45.596  32.700  29.764  1.00  0.00     0.058 A 
ATOM     83  C   UNL A   1      45.639  33.033  31.125  1.00  0.00     0.135 A 
ATOM     84  C   UNL A   1      45.850  33.717  28.831  1.00  0.00     0.135 A 
ATOM     85  F   UNL A   1      45.391  32.097  32.053  1.00  0.00    -0.206 F 
ATOM     86  C   UNL A   1      45.921  34.328  31.549  1.00  0.00     0.059 A 
ATOM     87  C   UNL A   1      46.154  35.015  29.230  1.00  0.00     0.059 A 
ATOM     88  F   UNL A   1      45.828  33.446  27.517  1.00  0.00    -0.206 F 
ATOM     89  C   UNL A   1      46.182  35.312  30.592  1.00  0.00     0.060 A 
BRANCH  89  90
ATOM     90  S   UNL A   1      46.616  36.974  31.152  1.00  0.00     0.124 S 
ATOM     91  O   UNL A   1      45.550  37.772  30.559  1.00  0.00    -0.237 OA
ATOM     92  O   UNL A   1      46.576  36.830  32.604  1.00  0.00    -0.237 OA
ATOM     93  O   UNL A   1      47.948  37.178  30.587  1.00  0.00    -0.744 OA
ENDBRANCH  89  90
ENDBRANCH  57  82
BRANCH  69  94
ATOM     94  C   UNL A   1      49.620  27.174  28.354  1.00  0.00     0.058 A 
ATOM     95  C   UNL A   1      50.298  26.705  29.490  1.00  0.00     0.135 A 
ATOM     96  C   UNL A   1      50.368  27.394  27.185  1.00  0.00     0.135 A 
ATOM     97  F   UNL A   1      49.629  26.485  30.632  1.00  0.00    -0.206 F 
ATOM     98  C   UNL A   1      51.670  26.479  29.472  1.00  0.00     0.059 A 
ATOM     99  C   UNL A   1      51.737  27.152  27.141  1.00  0.00     0.059 A 
ATOM    100  F   UNL A   1      49.765  27.832  26.069  1.00  0.00    -0.206 F 
ATOM    101  C   UNL A   1      52.382  26.705  28.293  1.00  0.00     0.060 A 
BRANCH 101 102
ATOM    102  S   UNL A   1      54.157  26.372  28.271  1.00  0.00     0.124 S 
ATOM    103  O   UNL A   1      54.251  25.357  27.226  1.00  0.00    -0.237 OA
ATOM    104  O   UNL A   1      54.719  27.678  27.938  1.00  0.00    -0.237 OA
ATOM    105  O   UNL A   1      54.432  25.907  29.627  1.00  0.00    -0.744 OA
ENDBRANCH 101 102
ENDBRANCH  69  94
ENDBRANCH  43  44
ENDBRANCH  36  38
ENDBRANCH  35  36
ENDBRANCH  34  35
ENDBRANCH  33  34
ENDBRANCH  32  33
ENDBRANCH  31  32
ENDBRANCH  30  31
ENDBRANCH   1  30
TORSDOF 26
ENDMDL
MODEL 3
REMARK VINA RESULT:      -7.8      4.061     10.691
REMARK SMILES O=C(NCc1ccc(C(=O)OCCOCCOCCOCCOC(=O)c2ccc(-c3c4nc(c(-c5c(F)cc(S(=O)(=O)[O-])cc5F)c5ccc([nH]5)c(-c5c(F)cc(S(=O)(=O)[O-])cc5F)c5nc(c(-c6c(F)cc(S(=O)(=O)[O-])cc6F)c6ccc3[nH]6)C=C5)C=C4)cc2)o1)Nc1ccc(F)c(Cl)c1
REMARK SMILES IDX 17 1 16 2 15 3 14 4 13 5 12 6 11 7 9 8 10 9 8 10 5 11 6 12
REMARK SMILES IDX 92 13 7 14 4 15 3 16 1 17 2 18 93 19 94 22 95 23 101 24
REMARK SMILES IDX 96 25 99 26 97 27 100 28 98 29 18 30 19 31 20 32 21 33 22 34
REMARK SMILES IDX 23 35 24 36 25 37 26 38 27 39 91 40 28 41 90 42 29 43 30 44
REMARK SMILES IDX 31 45 84 46 32 47 89 48 83 49 85 50 33 51 88 52 82 53 81 54
REMARK SMILES IDX 34 56 68 57 47 58 67 59 48 60 51 61 66 62 86 63 49 64 50 65
REMARK SMILES IDX 65 67 87 68 52 69 35 70 36 71 45 72 37 73 38 74 44 75 46 76
REMARK SMILES IDX 39 77 40 78 41 79 42 80 43 81 69 82 70 83 79 84 71 85 72 86
REMARK SMILES IDX 78 87 80 88 73 89 74 90 75 91 76 92 77 93 53 94 54 95 63 96
REMARK SMILES IDX 55 97 56 98 62 99 64 100 57 101 58 102 59 103 60 104 61 105
REMARK H PARENT 3 20 93 21 85 55 51 66
REMARK Flexibility Score: inf
ROOT
ATOM      1  O   UNL A   1      43.938  23.114  26.702  1.00  0.00    -0.377 OA
ENDROOT
BRANCH   1   2
ATOM      2  C   UNL A   1      43.779  23.896  25.527  1.00  0.00     0.188 C 
BRANCH   2   3
ATOM      3  C   UNL A   1      45.078  23.970  24.708  1.00  0.00     0.188 C 
BRANCH   3   4
ATOM      4  O   UNL A   1      45.621  25.288  24.661  1.00  0.00    -0.376 OA
BRANCH   4   5
ATOM      5  C   UNL A   1      45.365  26.137  25.775  1.00  0.00     0.202 C 
BRANCH   5   6
ATOM      6  C   UNL A   1      44.640  27.471  25.528  1.00  0.00     0.261 C 
BRANCH   6   7
ATOM      7  O   UNL A   1      44.827  28.497  26.514  1.00  0.00    -0.457 OA
BRANCH   7   8
ATOM      8  C   UNL A   1      45.564  29.595  26.206  1.00  0.00     0.374 C 
ATOM      9  O   UNL A   1      46.337  29.678  25.260  1.00  0.00    -0.242 OA
BRANCH   8  10
ATOM     10  C   UNL A   1      45.157  30.667  27.092  1.00  0.00     0.211 A 
ATOM     11  C   UNL A   1      45.439  32.556  28.203  1.00  0.00     0.124 A 
ATOM     12  C   UNL A   1      44.083  32.307  28.199  1.00  0.00     0.048 A 
ATOM     13  O   UNL A   1      46.102  31.543  27.567  1.00  0.00    -0.452 OA
ATOM     14  C   UNL A   1      43.901  31.097  27.491  1.00  0.00     0.058 A 
BRANCH  11  15
ATOM     15  C   UNL A   1      46.253  33.684  28.724  1.00  0.00     0.193 C 
BRANCH  15  16
ATOM     16  N   UNL A   1      46.541  34.600  27.638  1.00  0.00    -0.331 N 
ATOM     17  O   UNL A   1      46.388  36.301  26.230  1.00  0.00    -0.248 OA
ATOM     18  C   UNL A   1      45.960  35.764  27.249  1.00  0.00     0.319 C 
ATOM     19  N   UNL A   1      44.947  36.241  28.034  1.00  0.00    -0.308 N 
ATOM     20  H   UNL A   1      47.301  34.327  27.077  1.00  0.00     0.165 HD
ATOM     21  H   UNL A   1      44.806  35.781  28.893  1.00  0.00     0.171 HD
BRANCH  19  22
ATOM     22  C   UNL A   1      44.078  37.320  27.751  1.00  0.00     0.044 A 
ATOM     23  C   UNL A   1      42.827  37.007  27.197  1.00  0.00     0.029 A 
ATOM     24  C   UNL A   1      44.407  38.664  27.966  1.00  0.00     0.049 A 
ATOM     25  C   UNL A   1      41.917  38.018  26.874  1.00  0.00     0.043 A 
ATOM     26  C   UNL A   1      43.495  39.674  27.640  1.00  0.00     0.078 A 
ATOM     27  C   UNL A   1      42.256  39.346  27.098  1.00  0.00     0.141 A 
ATOM     28  Cl  UNL A   1      43.920  41.322  27.909  1.00  0.00    -0.081 Cl
ATOM     29  F   UNL A   1      41.368  40.300  26.781  1.00  0.00    -0.205 F 
ENDBRANCH  19  22
ENDBRANCH  15  16
ENDBRANCH  11  15
ENDBRANCH   8  10
ENDBRANCH   7   8
ENDBRANCH   6   7
ENDBRANCH   5   6
ENDBRANCH   4   5
ENDBRANCH   3   4
ENDBRANCH   2   3
ENDBRANCH   1   2
BRANCH   1  30
ATOM     30  C   UNL A   1      42.990  23.352  27.743  1.00  0.00     0.188 C 
BRANCH  30  31
ATOM     31  C   UNL A   1      42.026  22.220  28.150  1.00  0.00     0.188 C 
BRANCH  31  32
ATOM     32  O   UNL A   1      42.158  21.048  27.338  1.00  0.00    -0.376 OA
BRANCH  32  33
ATOM     33  C   UNL A   1      41.096  20.797  26.421  1.00  0.00     0.202 C 
BRANCH  33  34
ATOM     34  C   UNL A   1      39.813  21.575  26.740  1.00  0.00     0.261 C 
BRANCH  34  35
ATOM     35  O   UNL A   1      39.454  22.567  25.764  1.00  0.00    -0.460 OA
BRANCH  35  36
ATOM     36  C   UNL A   1      38.545  23.492  26.142  1.00  0.00     0.338 C 
ATOM     37  O   UNL A   1      37.335  23.417  26.041  1.00  0.00    -0.246 OA
BRANCH  36  38
ATOM     38  C   UNL A   1      39.256  24.554  26.881  1.00  0.00     0.060 A 
ATOM     39  C   UNL A   1      38.974  24.725  28.242  1.00  0.00     0.016 A 
ATOM     40  C   UNL A   1      40.175  25.383  26.234  1.00  0.00     0.016 A 
ATOM     41  C   UNL A   1      39.581  25.761  28.950  1.00  0.00     0.010 A 
ATOM     42  C   UNL A   1      40.772  26.428  26.940  1.00  0.00     0.010 A 
ATOM     43  C   UNL A   1      40.449  26.643  28.292  1.00  0.00    -0.014 A 
BRANCH  43  44
ATOM     44  C   UNL A   1      40.877  27.895  28.957  1.00  0.00     0.031 A 
ATOM     45  C   UNL A   1      42.283  27.980  29.484  1.00  0.00     0.074 A 
ATOM     46  C   UNL A   1      40.035  28.933  29.096  1.00  0.00     0.049 A 
ATOM     47  N   UNL A   1      42.871  28.955  30.126  1.00  0.00    -0.248 NA
ATOM     48  C   UNL A   1      43.137  26.802  29.259  1.00  0.00     0.031 C 
ATOM     49  C   UNL A   1      38.655  28.973  28.612  1.00  0.00     0.029 A 
ATOM     50  N   UNL A   1      40.218  30.150  29.700  1.00  0.00    -0.354 N 
ATOM     51  C   UNL A   1      44.162  28.511  30.382  1.00  0.00     0.074 A 
ATOM     52  C   UNL A   1      44.263  27.168  29.854  1.00  0.00     0.031 C 
ATOM     53  C   UNL A   1      38.111  30.155  28.954  1.00  0.00     0.029 A 
ATOM     54  C   UNL A   1      39.094  30.942  29.697  1.00  0.00     0.049 A 
ATOM     55  H   UNL A   1      41.073  30.431  30.098  1.00  0.00     0.167 HD
ATOM     56  C   UNL A   1      45.176  29.167  30.994  1.00  0.00     0.037 A 
ATOM     57  C   UNL A   1      38.884  32.155  30.246  1.00  0.00     0.037 A 
ATOM     58  C   UNL A   1      45.069  30.496  31.531  1.00  0.00     0.049 A 
ATOM     59  C   UNL A   1      40.009  32.845  30.971  1.00  0.00     0.074 A 
ATOM     60  C   UNL A   1      46.044  31.256  32.151  1.00  0.00     0.029 A 
ATOM     61  N   UNL A   1      43.911  31.260  31.522  1.00  0.00    -0.354 N 
ATOM     62  N   UNL A   1      41.239  32.432  31.171  1.00  0.00    -0.248 NA
ATOM     63  C   UNL A   1      39.720  34.167  31.544  1.00  0.00     0.031 C 
ATOM     64  C   UNL A   1      45.465  32.465  32.555  1.00  0.00     0.029 A 
ATOM     65  C   UNL A   1      44.140  32.475  32.147  1.00  0.00     0.049 A 
ATOM     66  H   UNL A   1      43.053  30.981  31.128  1.00  0.00     0.167 HD
ATOM     67  C   UNL A   1      41.875  33.452  31.872  1.00  0.00     0.074 A 
ATOM     68  C   UNL A   1      40.897  34.504  32.055  1.00  0.00     0.031 C 
ATOM     69  C   UNL A   1      43.154  33.512  32.320  1.00  0.00     0.037 A 
BRANCH  56  70
ATOM     70  C   UNL A   1      46.478  28.433  31.135  1.00  0.00     0.058 A 
ATOM     71  C   UNL A   1      46.768  27.660  32.271  1.00  0.00     0.135 A 
ATOM     72  C   UNL A   1      47.450  28.506  30.125  1.00  0.00     0.135 A 
ATOM     73  F   UNL A   1      45.880  27.575  33.274  1.00  0.00    -0.206 F 
ATOM     74  C   UNL A   1      47.990  27.013  32.416  1.00  0.00     0.059 A 
ATOM     75  C   UNL A   1      48.670  27.848  30.238  1.00  0.00     0.059 A 
ATOM     76  F   UNL A   1      47.224  29.236  29.021  1.00  0.00    -0.206 F 
ATOM     77  C   UNL A   1      48.938  27.118  31.397  1.00  0.00     0.060 A 
BRANCH  77  78
ATOM     78  S   UNL A   1      50.528  26.290  31.605  1.00  0.00     0.124 S 
ATOM     79  O   UNL A   1      50.292  25.029  30.909  1.00  0.00    -0.237 OA
ATOM     80  O   UNL A   1      51.451  27.212  30.949  1.00  0.00    -0.237 OA
ATOM     81  O   UNL A   1      50.672  26.191  33.054  1.00  0.00    -0.744 OA
ENDBRANCH  77  78
ENDBRANCH  56  70
BRANCH  57  82
ATOM     82  C   UNL A   1      37.547  32.793  30.130  1.00  0.00     0.058 A 
ATOM     83  C   UNL A   1      36.601  32.681  31.159  1.00  0.00     0.135 A 
ATOM     84  C   UNL A   1      37.198  33.541  28.996  1.00  0.00     0.135 A 
ATOM     85  F   UNL A   1      36.885  31.966  32.258  1.00  0.00    -0.206 F 
ATOM     86  C   UNL A   1      35.351  33.286  31.067  1.00  0.00     0.059 A 
ATOM     87  C   UNL A   1      35.962  34.172  28.889  1.00  0.00     0.059 A 
ATOM     88  F   UNL A   1      38.072  33.683  27.988  1.00  0.00    -0.206 F 
ATOM     89  C   UNL A   1      35.043  34.034  29.929  1.00  0.00     0.060 A 
BRANCH  89  90
ATOM     90  S   UNL A   1      33.446  34.875  29.848  1.00  0.00     0.124 S 
ATOM     91  O   UNL A   1      32.962  34.718  31.215  1.00  0.00    -0.237 OA
ATOM     92  O   UNL A   1      33.829  36.227  29.456  1.00  0.00    -0.237 OA
ATOM     93  O   UNL A   1      32.723  34.117  28.830  1.00  0.00    -0.744 OA
ENDBRANCH  89  90
ENDBRANCH  57  82
BRANCH  69  94
ATOM     94  C   UNL A   1      43.581  34.765  33.032  1.00  0.00     0.058 A 
ATOM     95  C   UNL A   1      44.014  35.900  32.329  1.00  0.00     0.135 A 
ATOM     96  C   UNL A   1      43.497  34.851  34.432  1.00  0.00     0.135 A 
ATOM     97  F   UNL A   1      44.116  35.867  30.991  1.00  0.00    -0.206 F 
ATOM     98  C   UNL A   1      44.367  37.072  32.991  1.00  0.00     0.059 A 
ATOM     99  C   UNL A   1      43.824  36.021  35.111  1.00  0.00     0.059 A 
ATOM    100  F   UNL A   1      43.078  33.798  35.150  1.00  0.00    -0.206 F 
ATOM    101  C   UNL A   1      44.269  37.123  34.382  1.00  0.00     0.060 A 
BRANCH 101 102
ATOM    102  S   UNL A   1      44.695  38.660  35.228  1.00  0.00     0.124 S 
ATOM    103  O   UNL A   1      46.147  38.676  35.093  1.00  0.00    -0.237 OA
ATOM    104  O   UNL A   1      43.974  39.660  34.445  1.00  0.00    -0.237 OA
ATOM    105  O   UNL A   1      44.190  38.453  36.582  1.00  0.00    -0.744 OA
ENDBRANCH 101 102
ENDBRANCH  69  94
ENDBRANCH  43  44
ENDBRANCH  36  38
ENDBRANCH  35  36
ENDBRANCH  34  35
ENDBRANCH  33  34
ENDBRANCH  32  33
ENDBRANCH  31  32
ENDBRANCH  30  31
ENDBRANCH   1  30
TORSDOF 26
ENDMDL
