MODEL 1
REMARK VINA RESULT:      -8.5      0.000      0.000
REMARK SMILES Cc1cccc(C)c1Nc1ccccc1CC(=O)OCCOCCOCCOCCOC(=O)c1ccc(-c2c3nc(c(-c4c(F)cc(S(=O)(=O)[O-])cc4F)c4ccc([nH]4)c(-c4c(F)cc(S(=O)(=O)[O-])cc4F)c4nc(c(-c5c(F)cc(S(=O)(=O)[O-])cc5F)c5ccc2[nH]5)C=C4)C=C3)cc1
REMARK SMILES IDX 25 1 24 2 23 3 22 4 21 5 20 6 19 7 17 8 18 9 16 10 15 11
REMARK SMILES IDX 10 12 11 13 12 14 14 15 13 16 9 17 8 19 1 20 2 21 3 22 4 23
REMARK SMILES IDX 6 24 5 25 7 26 26 27 27 28 28 29 29 30 30 31 31 32 32 33
REMARK SMILES IDX 33 34 34 35 35 36 99 37 36 38 98 39 37 40 38 41 39 42 92 43
REMARK SMILES IDX 40 44 97 45 91 46 93 47 41 48 96 49 90 50 89 51 42 53 76 54
REMARK SMILES IDX 55 55 75 56 56 57 59 58 74 59 94 60 57 61 58 62 73 64 95 65
REMARK SMILES IDX 60 66 43 67 44 68 53 69 45 70 46 71 52 72 54 73 47 74 48 75
REMARK SMILES IDX 49 76 50 77 51 78 77 79 78 80 87 81 79 82 80 83 86 84 88 85
REMARK SMILES IDX 81 86 82 87 83 88 84 89 85 90 61 91 62 92 71 93 63 94 64 95
REMARK SMILES IDX 70 96 72 97 65 98 66 99 67 100 68 101 69 102
REMARK H PARENT 9 18 93 52 59 63
REMARK Flexibility Score: inf
ROOT
ATOM      1  O   UNL A   1      44.681  41.897  25.771  1.00  0.00    -0.377 OA
ENDROOT
BRANCH   1   2
ATOM      2  C   UNL A   1      44.800  43.032  24.941  1.00  0.00     0.188 C 
BRANCH   2   3
ATOM      3  C   UNL A   1      43.525  43.367  24.137  1.00  0.00     0.188 C 
BRANCH   3   4
ATOM      4  O   UNL A   1      43.588  43.805  22.780  1.00  0.00    -0.376 OA
BRANCH   4   5
ATOM      5  C   UNL A   1      43.918  42.873  21.762  1.00  0.00     0.202 C 
BRANCH   5   6
ATOM      6  C   UNL A   1      44.077  43.436  20.334  1.00  0.00     0.261 C 
BRANCH   6   7
ATOM      7  O   UNL A   1      44.455  44.832  20.249  1.00  0.00    -0.463 OA
BRANCH   7   8
ATOM      8  C   UNL A   1      45.592  45.113  19.575  1.00  0.00     0.310 C 
ATOM      9  O   UNL A   1      46.712  44.972  20.068  1.00  0.00    -0.252 OA
BRANCH   8  10
ATOM     10  C   UNL A   1      45.457  45.471  18.103  1.00  0.00     0.160 C 
BRANCH  10  11
ATOM     11  C   UNL A   1      44.205  46.054  17.441  1.00  0.00    -0.013 A 
ATOM     12  C   UNL A   1      44.016  47.423  17.174  1.00  0.00     0.042 A 
ATOM     13  C   UNL A   1      42.779  47.875  16.657  1.00  0.00     0.026 A 
ATOM     14  C   UNL A   1      41.788  46.983  16.262  1.00  0.00     0.002 A 
ATOM     15  C   UNL A   1      43.224  45.168  16.935  1.00  0.00     0.006 A 
ATOM     16  C   UNL A   1      42.033  45.622  16.356  1.00  0.00     0.000 A 
BRANCH  12  17
ATOM     17  N   UNL A   1      45.065  48.359  17.163  1.00  0.00    -0.355 N 
ATOM     18  H   UNL A   1      45.010  49.028  16.442  1.00  0.00     0.167 HD
BRANCH  17  19
ATOM     19  C   UNL A   1      46.189  48.499  18.011  1.00  0.00     0.044 A 
ATOM     20  C   UNL A   1      47.624  47.981  15.968  1.00  0.00     0.046 C 
ATOM     21  C   UNL A   1      47.467  48.407  17.406  1.00  0.00    -0.027 A 
ATOM     22  C   UNL A   1      48.611  48.789  18.121  1.00  0.00     0.005 A 
ATOM     23  C   UNL A   1      48.509  49.250  19.429  1.00  0.00     0.001 A 
ATOM     24  C   UNL A   1      46.106  48.871  19.382  1.00  0.00    -0.027 A 
ATOM     25  C   UNL A   1      47.271  49.279  20.056  1.00  0.00     0.005 A 
ATOM     26  C   UNL A   1      44.827  48.938  20.180  1.00  0.00     0.046 C 
ENDBRANCH  17  19
ENDBRANCH  12  17
ENDBRANCH  10  11
ENDBRANCH   8  10
ENDBRANCH   7   8
ENDBRANCH   6   7
ENDBRANCH   5   6
ENDBRANCH   4   5
ENDBRANCH   3   4
ENDBRANCH   2   3
ENDBRANCH   1   2
BRANCH   1  27
ATOM     27  C   UNL A   1      45.797  41.625  26.584  1.00  0.00     0.188 C 
BRANCH  27  28
ATOM     28  C   UNL A   1      45.452  40.963  27.925  1.00  0.00     0.188 C 
BRANCH  28  29
ATOM     29  O   UNL A   1      46.609  40.591  28.669  1.00  0.00    -0.376 OA
BRANCH  29  30
ATOM     30  C   UNL A   1      46.450  40.063  29.973  1.00  0.00     0.202 C 
BRANCH  30  31
ATOM     31  C   UNL A   1      46.298  38.541  30.149  1.00  0.00     0.261 C 
BRANCH  31  32
ATOM     32  O   UNL A   1      46.963  37.693  29.207  1.00  0.00    -0.460 OA
BRANCH  32  33
ATOM     33  C   UNL A   1      47.993  36.937  29.658  1.00  0.00     0.338 C 
ATOM     34  O   UNL A   1      48.919  37.308  30.338  1.00  0.00    -0.246 OA
BRANCH  33  35
ATOM     35  C   UNL A   1      47.667  35.519  29.347  1.00  0.00     0.060 A 
ATOM     36  C   UNL A   1      46.916  35.243  28.196  1.00  0.00     0.016 A 
ATOM     37  C   UNL A   1      48.138  34.475  30.146  1.00  0.00     0.016 A 
ATOM     38  C   UNL A   1      46.620  33.924  27.851  1.00  0.00     0.010 A 
ATOM     39  C   UNL A   1      47.805  33.155  29.822  1.00  0.00     0.010 A 
ATOM     40  C   UNL A   1      47.020  32.877  28.689  1.00  0.00    -0.014 A 
BRANCH  40  41
ATOM     41  C   UNL A   1      46.418  31.533  28.509  1.00  0.00     0.031 A 
ATOM     42  C   UNL A   1      47.280  30.456  27.908  1.00  0.00     0.074 A 
ATOM     43  C   UNL A   1      45.159  31.261  28.895  1.00  0.00     0.049 A 
ATOM     44  N   UNL A   1      46.983  29.217  27.616  1.00  0.00    -0.248 NA
ATOM     45  C   UNL A   1      48.669  30.832  27.592  1.00  0.00     0.031 C 
ATOM     46  C   UNL A   1      44.246  32.207  29.534  1.00  0.00     0.029 A 
ATOM     47  N   UNL A   1      44.428  30.102  28.797  1.00  0.00    -0.354 N 
ATOM     48  C   UNL A   1      48.142  28.670  27.080  1.00  0.00     0.074 A 
ATOM     49  C   UNL A   1      49.138  29.717  27.057  1.00  0.00     0.031 C 
ATOM     50  C   UNL A   1      43.069  31.593  29.755  1.00  0.00     0.029 A 
ATOM     51  C   UNL A   1      43.135  30.223  29.245  1.00  0.00     0.049 A 
ATOM     52  H   UNL A   1      44.798  29.263  28.438  1.00  0.00     0.167 HD
ATOM     53  C   UNL A   1      48.358  27.405  26.649  1.00  0.00     0.037 A 
ATOM     54  C   UNL A   1      42.118  29.337  29.221  1.00  0.00     0.037 A 
ATOM     55  C   UNL A   1      47.358  26.371  26.667  1.00  0.00     0.049 A 
ATOM     56  C   UNL A   1      42.359  27.955  28.663  1.00  0.00     0.074 A 
ATOM     57  C   UNL A   1      47.477  25.053  26.264  1.00  0.00     0.029 A 
ATOM     58  N   UNL A   1      46.050  26.541  27.097  1.00  0.00    -0.354 N 
ATOM     59  N   UNL A   1      43.466  27.440  28.180  1.00  0.00    -0.248 NA
ATOM     60  C   UNL A   1      41.215  27.032  28.651  1.00  0.00     0.031 C 
ATOM     61  C   UNL A   1      46.226  24.443  26.393  1.00  0.00     0.029 A 
ATOM     62  C   UNL A   1      45.343  25.361  26.940  1.00  0.00     0.049 A 
ATOM     63  H   UNL A   1      45.679  27.378  27.459  1.00  0.00     0.167 HD
ATOM     64  C   UNL A   1      43.158  26.126  27.836  1.00  0.00     0.074 A 
ATOM     65  C   UNL A   1      41.765  25.923  28.177  1.00  0.00     0.031 C 
ATOM     66  C   UNL A   1      43.957  25.172  27.292  1.00  0.00     0.037 A 
BRANCH  53  67
ATOM     67  C   UNL A   1      49.717  27.082  26.091  1.00  0.00     0.058 A 
ATOM     68  C   UNL A   1      50.002  27.191  24.720  1.00  0.00     0.135 A 
ATOM     69  C   UNL A   1      50.756  26.678  26.945  1.00  0.00     0.135 A 
ATOM     70  F   UNL A   1      49.040  27.550  23.854  1.00  0.00    -0.206 F 
ATOM     71  C   UNL A   1      51.262  26.890  24.213  1.00  0.00     0.059 A 
ATOM     72  C   UNL A   1      52.032  26.401  26.464  1.00  0.00     0.059 A 
ATOM     73  F   UNL A   1      50.536  26.549  28.263  1.00  0.00    -0.206 F 
ATOM     74  C   UNL A   1      52.272  26.498  25.095  1.00  0.00     0.060 A 
BRANCH  74  75
ATOM     75  S   UNL A   1      53.904  26.119  24.422  1.00  0.00     0.124 S 
ATOM     76  O   UNL A   1      54.769  26.902  25.299  1.00  0.00    -0.237 OA
ATOM     77  O   UNL A   1      53.978  24.671  24.587  1.00  0.00    -0.237 OA
ATOM     78  O   UNL A   1      53.820  26.586  23.043  1.00  0.00    -0.744 OA
ENDBRANCH  74  75
ENDBRANCH  53  67
BRANCH  54  79
ATOM     79  C   UNL A   1      40.772  29.729  29.724  1.00  0.00     0.058 A 
ATOM     80  C   UNL A   1      40.526  29.904  31.094  1.00  0.00     0.135 A 
ATOM     81  C   UNL A   1      39.698  29.926  28.840  1.00  0.00     0.135 A 
ATOM     82  F   UNL A   1      41.513  29.710  31.981  1.00  0.00    -0.206 F 
ATOM     83  C   UNL A   1      39.264  30.245  31.572  1.00  0.00     0.059 A 
ATOM     84  C   UNL A   1      38.435  30.296  29.291  1.00  0.00     0.059 A 
ATOM     85  F   UNL A   1      39.877  29.776  27.518  1.00  0.00    -0.206 F 
ATOM     86  C   UNL A   1      38.225  30.444  30.661  1.00  0.00     0.060 A 
BRANCH  86  87
ATOM     87  S   UNL A   1      36.604  30.935  31.289  1.00  0.00     0.124 S 
ATOM     88  O   UNL A   1      36.163  29.713  31.953  1.00  0.00    -0.237 OA
ATOM     89  O   UNL A   1      36.943  32.052  32.165  1.00  0.00    -0.237 OA
ATOM     90  O   UNL A   1      35.870  31.295  30.080  1.00  0.00    -0.744 OA
ENDBRANCH  86  87
ENDBRANCH  54  79
BRANCH  66  91
ATOM     91  C   UNL A   1      43.363  23.807  27.067  1.00  0.00     0.058 A 
ATOM     92  C   UNL A   1      42.845  23.417  25.821  1.00  0.00     0.135 A 
ATOM     93  C   UNL A   1      43.373  22.852  28.097  1.00  0.00     0.135 A 
ATOM     94  F   UNL A   1      42.807  24.291  24.802  1.00  0.00    -0.206 F 
ATOM     95  C   UNL A   1      42.333  22.140  25.614  1.00  0.00     0.059 A 
ATOM     96  C   UNL A   1      42.897  21.559  27.903  1.00  0.00     0.059 A 
ATOM     97  F   UNL A   1      43.870  23.165  29.305  1.00  0.00    -0.206 F 
ATOM     98  C   UNL A   1      42.369  21.216  26.661  1.00  0.00     0.060 A 
BRANCH  98  99
ATOM     99  S   UNL A   1      41.734  19.552  26.367  1.00  0.00     0.124 S 
ATOM    100  O   UNL A   1      42.525  19.134  25.214  1.00  0.00    -0.237 OA
ATOM    101  O   UNL A   1      42.040  18.876  27.623  1.00  0.00    -0.237 OA
ATOM    102  O   UNL A   1      40.314  19.769  26.108  1.00  0.00    -0.744 OA
ENDBRANCH  98  99
ENDBRANCH  66  91
ENDBRANCH  40  41
ENDBRANCH  33  35
ENDBRANCH  32  33
ENDBRANCH  31  32
ENDBRANCH  30  31
ENDBRANCH  29  30
ENDBRANCH  28  29
ENDBRANCH  27  28
ENDBRANCH   1  27
TORSDOF 26
ENDMDL
MODEL 2
REMARK VINA RESULT:      -8.4      7.679     13.521
REMARK SMILES Cc1cccc(C)c1Nc1ccccc1CC(=O)OCCOCCOCCOCCOC(=O)c1ccc(-c2c3nc(c(-c4c(F)cc(S(=O)(=O)[O-])cc4F)c4ccc([nH]4)c(-c4c(F)cc(S(=O)(=O)[O-])cc4F)c4nc(c(-c5c(F)cc(S(=O)(=O)[O-])cc5F)c5ccc2[nH]5)C=C4)C=C3)cc1
REMARK SMILES IDX 25 1 24 2 23 3 22 4 21 5 20 6 19 7 17 8 18 9 16 10 15 11
REMARK SMILES IDX 10 12 11 13 12 14 14 15 13 16 9 17 8 19 1 20 2 21 3 22 4 23
REMARK SMILES IDX 6 24 5 25 7 26 26 27 27 28 28 29 29 30 30 31 31 32 32 33
REMARK SMILES IDX 33 34 34 35 35 36 99 37 36 38 98 39 37 40 38 41 39 42 92 43
REMARK SMILES IDX 40 44 97 45 91 46 93 47 41 48 96 49 90 50 89 51 42 53 76 54
REMARK SMILES IDX 55 55 75 56 56 57 59 58 74 59 94 60 57 61 58 62 73 64 95 65
REMARK SMILES IDX 60 66 43 67 44 68 53 69 45 70 46 71 52 72 54 73 47 74 48 75
REMARK SMILES IDX 49 76 50 77 51 78 77 79 78 80 87 81 79 82 80 83 86 84 88 85
REMARK SMILES IDX 81 86 82 87 83 88 84 89 85 90 61 91 62 92 71 93 63 94 64 95
REMARK SMILES IDX 70 96 72 97 65 98 66 99 67 100 68 101 69 102
REMARK H PARENT 9 18 93 52 59 63
REMARK Flexibility Score: inf
ROOT
ATOM      1  O   UNL A   1      37.242  32.416  36.195  1.00  0.00    -0.377 OA
ENDROOT
BRANCH   1   2
ATOM      2  C   UNL A   1      37.640  32.734  34.879  1.00  0.00     0.188 C 
BRANCH   2   3
ATOM      3  C   UNL A   1      36.576  32.425  33.803  1.00  0.00     0.188 C 
BRANCH   3   4
ATOM      4  O   UNL A   1      36.764  31.387  32.840  1.00  0.00    -0.376 OA
BRANCH   4   5
ATOM      5  C   UNL A   1      37.383  30.173  33.236  1.00  0.00     0.202 C 
BRANCH   5   6
ATOM      6  C   UNL A   1      37.626  29.127  32.127  1.00  0.00     0.261 C 
BRANCH   6   7
ATOM      7  O   UNL A   1      36.710  29.178  31.006  1.00  0.00    -0.463 OA
BRANCH   7   8
ATOM      8  C   UNL A   1      37.067  29.965  29.967  1.00  0.00     0.310 C 
ATOM      9  O   UNL A   1      36.251  30.429  29.170  1.00  0.00    -0.252 OA
BRANCH   8  10
ATOM     10  C   UNL A   1      38.522  30.400  29.892  1.00  0.00     0.160 C 
BRANCH  10  11
ATOM     11  C   UNL A   1      39.585  29.794  28.971  1.00  0.00    -0.013 A 
ATOM     12  C   UNL A   1      40.972  29.979  29.134  1.00  0.00     0.042 A 
ATOM     13  C   UNL A   1      41.868  29.466  28.168  1.00  0.00     0.026 A 
ATOM     14  C   UNL A   1      41.429  28.650  27.131  1.00  0.00     0.002 A 
ATOM     15  C   UNL A   1      39.181  28.879  27.969  1.00  0.00     0.006 A 
ATOM     16  C   UNL A   1      40.086  28.317  27.061  1.00  0.00     0.000 A 
BRANCH  12  17
ATOM     17  N   UNL A   1      41.553  30.439  30.329  1.00  0.00    -0.355 N 
ATOM     18  H   UNL A   1      42.036  31.292  30.247  1.00  0.00     0.167 HD
BRANCH  17  19
ATOM     19  C   UNL A   1      41.561  29.880  31.629  1.00  0.00     0.044 A 
ATOM     20  C   UNL A   1      40.671  32.125  32.451  1.00  0.00     0.046 C 
ATOM     21  C   UNL A   1      41.035  30.678  32.675  1.00  0.00    -0.027 A 
ATOM     22  C   UNL A   1      40.771  30.106  33.928  1.00  0.00     0.005 A 
ATOM     23  C   UNL A   1      41.030  28.761  34.163  1.00  0.00     0.001 A 
ATOM     24  C   UNL A   1      41.921  28.532  31.911  1.00  0.00    -0.027 A 
ATOM     25  C   UNL A   1      41.610  27.985  33.168  1.00  0.00     0.005 A 
ATOM     26  C   UNL A   1      42.560  27.587  30.923  1.00  0.00     0.046 C 
ENDBRANCH  17  19
ENDBRANCH  12  17
ENDBRANCH  10  11
ENDBRANCH   8  10
ENDBRANCH   7   8
ENDBRANCH   6   7
ENDBRANCH   5   6
ENDBRANCH   4   5
ENDBRANCH   3   4
ENDBRANCH   2   3
ENDBRANCH   1   2
BRANCH   1  27
ATOM     27  C   UNL A   1      38.278  32.387  37.147  1.00  0.00     0.188 C 
BRANCH  27  28
ATOM     28  C   UNL A   1      38.663  33.765  37.701  1.00  0.00     0.188 C 
BRANCH  28  29
ATOM     29  O   UNL A   1      38.845  33.759  39.114  1.00  0.00    -0.376 OA
BRANCH  29  30
ATOM     30  C   UNL A   1      39.847  34.583  39.684  1.00  0.00     0.202 C 
BRANCH  30  31
ATOM     31  C   UNL A   1      40.806  33.979  40.725  1.00  0.00     0.261 C 
BRANCH  31  32
ATOM     32  O   UNL A   1      42.159  33.738  40.322  1.00  0.00    -0.460 OA
BRANCH  32  33
ATOM     33  C   UNL A   1      42.546  32.451  40.152  1.00  0.00     0.338 C 
ATOM     34  O   UNL A   1      42.412  31.546  40.941  1.00  0.00    -0.246 OA
BRANCH  33  35
ATOM     35  C   UNL A   1      42.969  32.301  38.734  1.00  0.00     0.060 A 
ATOM     36  C   UNL A   1      42.002  31.957  37.780  1.00  0.00     0.016 A 
ATOM     37  C   UNL A   1      44.288  32.546  38.342  1.00  0.00     0.016 A 
ATOM     38  C   UNL A   1      42.353  31.843  36.435  1.00  0.00     0.010 A 
ATOM     39  C   UNL A   1      44.647  32.389  36.999  1.00  0.00     0.010 A 
ATOM     40  C   UNL A   1      43.688  32.009  36.045  1.00  0.00    -0.014 A 
BRANCH  40  41
ATOM     41  C   UNL A   1      44.112  31.552  34.699  1.00  0.00     0.031 A 
ATOM     42  C   UNL A   1      44.513  30.109  34.546  1.00  0.00     0.074 A 
ATOM     43  C   UNL A   1      44.111  32.375  33.636  1.00  0.00     0.049 A 
ATOM     44  N   UNL A   1      44.953  29.475  33.491  1.00  0.00    -0.248 NA
ATOM     45  C   UNL A   1      44.403  29.270  35.751  1.00  0.00     0.031 C 
ATOM     46  C   UNL A   1      43.697  33.777  33.650  1.00  0.00     0.029 A 
ATOM     47  N   UNL A   1      44.482  32.147  32.333  1.00  0.00    -0.354 N 
ATOM     48  C   UNL A   1      45.176  28.167  33.906  1.00  0.00     0.074 A 
ATOM     49  C   UNL A   1      44.854  28.105  35.313  1.00  0.00     0.031 C 
ATOM     50  C   UNL A   1      43.853  34.289  32.416  1.00  0.00     0.029 A 
ATOM     51  C   UNL A   1      44.408  33.262  31.533  1.00  0.00     0.049 A 
ATOM     52  H   UNL A   1      44.775  31.267  32.004  1.00  0.00     0.167 HD
ATOM     53  C   UNL A   1      45.606  27.112  33.177  1.00  0.00     0.037 A 
ATOM     54  C   UNL A   1      44.770  33.436  30.245  1.00  0.00     0.037 A 
ATOM     55  C   UNL A   1      45.934  27.185  31.778  1.00  0.00     0.049 A 
ATOM     56  C   UNL A   1      45.323  32.264  29.472  1.00  0.00     0.074 A 
ATOM     57  C   UNL A   1      46.368  26.171  30.943  1.00  0.00     0.029 A 
ATOM     58  N   UNL A   1      45.878  28.339  31.010  1.00  0.00    -0.354 N 
ATOM     59  N   UNL A   1      45.508  31.025  29.867  1.00  0.00    -0.248 NA
ATOM     60  C   UNL A   1      45.713  32.510  28.076  1.00  0.00     0.031 C 
ATOM     61  C   UNL A   1      46.633  26.724  29.687  1.00  0.00     0.029 A 
ATOM     62  C   UNL A   1      46.298  28.070  29.719  1.00  0.00     0.049 A 
ATOM     63  H   UNL A   1      45.582  29.220  31.335  1.00  0.00     0.167 HD
ATOM     64  C   UNL A   1      46.005  30.340  28.761  1.00  0.00     0.074 A 
ATOM     65  C   UNL A   1      46.081  31.299  27.678  1.00  0.00     0.031 C 
ATOM     66  C   UNL A   1      46.361  29.035  28.649  1.00  0.00     0.037 A 
BRANCH  53  67
ATOM     67  C   UNL A   1      45.780  25.799  33.888  1.00  0.00     0.058 A 
ATOM     68  C   UNL A   1      44.743  24.856  33.974  1.00  0.00     0.135 A 
ATOM     69  C   UNL A   1      47.013  25.469  34.475  1.00  0.00     0.135 A 
ATOM     70  F   UNL A   1      43.535  25.128  33.453  1.00  0.00    -0.206 F 
ATOM     71  C   UNL A   1      44.914  23.644  34.635  1.00  0.00     0.059 A 
ATOM     72  C   UNL A   1      47.216  24.249  35.114  1.00  0.00     0.059 A 
ATOM     73  F   UNL A   1      48.036  26.336  34.430  1.00  0.00    -0.206 F 
ATOM     74  C   UNL A   1      46.157  23.349  35.200  1.00  0.00     0.060 A 
BRANCH  74  75
ATOM     75  S   UNL A   1      46.365  21.768  36.046  1.00  0.00     0.124 S 
ATOM     76  O   UNL A   1      45.858  22.081  37.378  1.00  0.00    -0.237 OA
ATOM     77  O   UNL A   1      45.533  20.876  35.245  1.00  0.00    -0.237 OA
ATOM     78  O   UNL A   1      47.801  21.524  35.963  1.00  0.00    -0.744 OA
ENDBRANCH  74  75
ENDBRANCH  53  67
BRANCH  54  79
ATOM     79  C   UNL A   1      44.642  34.775  29.606  1.00  0.00     0.058 A 
ATOM     80  C   UNL A   1      43.453  35.173  28.977  1.00  0.00     0.135 A 
ATOM     81  C   UNL A   1      45.714  35.682  29.602  1.00  0.00     0.135 A 
ATOM     82  F   UNL A   1      42.404  34.337  28.938  1.00  0.00    -0.206 F 
ATOM     83  C   UNL A   1      43.334  36.413  28.356  1.00  0.00     0.059 A 
ATOM     84  C   UNL A   1      45.611  36.938  29.013  1.00  0.00     0.059 A 
ATOM     85  F   UNL A   1      46.875  35.355  30.192  1.00  0.00    -0.206 F 
ATOM     86  C   UNL A   1      44.419  37.292  28.383  1.00  0.00     0.060 A 
BRANCH  86  87
ATOM     87  S   UNL A   1      44.238  38.917  27.617  1.00  0.00     0.124 S 
ATOM     88  O   UNL A   1      44.177  39.789  28.785  1.00  0.00    -0.237 OA
ATOM     89  O   UNL A   1      45.452  39.010  26.812  1.00  0.00    -0.237 OA
ATOM     90  O   UNL A   1      42.998  38.794  26.857  1.00  0.00    -0.744 OA
ENDBRANCH  86  87
ENDBRANCH  54  79
BRANCH  66  91
ATOM     91  C   UNL A   1      46.828  28.549  27.302  1.00  0.00     0.058 A 
ATOM     92  C   UNL A   1      45.929  28.245  26.268  1.00  0.00     0.135 A 
ATOM     93  C   UNL A   1      48.202  28.450  27.024  1.00  0.00     0.135 A 
ATOM     94  F   UNL A   1      44.605  28.319  26.480  1.00  0.00    -0.206 F 
ATOM     95  C   UNL A   1      46.374  27.834  25.015  1.00  0.00     0.059 A 
ATOM     96  C   UNL A   1      48.669  28.073  25.768  1.00  0.00     0.059 A 
ATOM     97  F   UNL A   1      49.108  28.743  27.971  1.00  0.00    -0.206 F 
ATOM     98  C   UNL A   1      47.747  27.756  24.774  1.00  0.00     0.060 A 
BRANCH  98  99
ATOM     99  S   UNL A   1      48.310  27.255  23.133  1.00  0.00     0.124 S 
ATOM    100  O   UNL A   1      48.247  25.801  23.231  1.00  0.00    -0.237 OA
ATOM    101  O   UNL A   1      47.317  27.875  22.261  1.00  0.00    -0.237 OA
ATOM    102  O   UNL A   1      49.653  27.821  23.046  1.00  0.00    -0.744 OA
ENDBRANCH  98  99
ENDBRANCH  66  91
ENDBRANCH  40  41
ENDBRANCH  33  35
ENDBRANCH  32  33
ENDBRANCH  31  32
ENDBRANCH  30  31
ENDBRANCH  29  30
ENDBRANCH  28  29
ENDBRANCH  27  28
ENDBRANCH   1  27
TORSDOF 26
ENDMDL
MODEL 3
REMARK VINA RESULT:      -8.2     11.825     17.023
REMARK SMILES Cc1cccc(C)c1Nc1ccccc1CC(=O)OCCOCCOCCOCCOC(=O)c1ccc(-c2c3nc(c(-c4c(F)cc(S(=O)(=O)[O-])cc4F)c4ccc([nH]4)c(-c4c(F)cc(S(=O)(=O)[O-])cc4F)c4nc(c(-c5c(F)cc(S(=O)(=O)[O-])cc5F)c5ccc2[nH]5)C=C4)C=C3)cc1
REMARK SMILES IDX 25 1 24 2 23 3 22 4 21 5 20 6 19 7 17 8 18 9 16 10 15 11
REMARK SMILES IDX 10 12 11 13 12 14 14 15 13 16 9 17 8 19 1 20 2 21 3 22 4 23
REMARK SMILES IDX 6 24 5 25 7 26 26 27 27 28 28 29 29 30 30 31 31 32 32 33
REMARK SMILES IDX 33 34 34 35 35 36 99 37 36 38 98 39 37 40 38 41 39 42 92 43
REMARK SMILES IDX 40 44 97 45 91 46 93 47 41 48 96 49 90 50 89 51 42 53 76 54
REMARK SMILES IDX 55 55 75 56 56 57 59 58 74 59 94 60 57 61 58 62 73 64 95 65
REMARK SMILES IDX 60 66 43 67 44 68 53 69 45 70 46 71 52 72 54 73 47 74 48 75
REMARK SMILES IDX 49 76 50 77 51 78 77 79 78 80 87 81 79 82 80 83 86 84 88 85
REMARK SMILES IDX 81 86 82 87 83 88 84 89 85 90 61 91 62 92 71 93 63 94 64 95
REMARK SMILES IDX 70 96 72 97 65 98 66 99 67 100 68 101 69 102
REMARK H PARENT 9 18 93 52 59 63
REMARK Flexibility Score: inf
ROOT
ATOM      1  O   UNL A   1      34.898  30.562  27.977  1.00  0.00    -0.377 OA
ENDROOT
BRANCH   1   2
ATOM      2  C   UNL A   1      33.682  31.191  27.634  1.00  0.00     0.188 C 
BRANCH   2   3
ATOM      3  C   UNL A   1      32.772  30.350  26.712  1.00  0.00     0.188 C 
BRANCH   3   4
ATOM      4  O   UNL A   1      31.705  29.557  27.233  1.00  0.00    -0.376 OA
BRANCH   4   5
ATOM      5  C   UNL A   1      31.955  28.210  27.605  1.00  0.00     0.202 C 
BRANCH   5   6
ATOM      6  C   UNL A   1      32.211  27.212  26.456  1.00  0.00     0.261 C 
BRANCH   6   7
ATOM      7  O   UNL A   1      31.791  25.848  26.704  1.00  0.00    -0.463 OA
BRANCH   7   8
ATOM      8  C   UNL A   1      32.681  24.876  26.404  1.00  0.00     0.310 C 
ATOM      9  O   UNL A   1      32.451  23.680  26.589  1.00  0.00    -0.252 OA
BRANCH   8  10
ATOM     10  C   UNL A   1      33.947  25.294  25.673  1.00  0.00     0.160 C 
BRANCH  10  11
ATOM     11  C   UNL A   1      34.977  24.341  25.060  1.00  0.00    -0.013 A 
ATOM     12  C   UNL A   1      34.890  23.814  23.756  1.00  0.00     0.042 A 
ATOM     13  C   UNL A   1      35.834  22.857  23.320  1.00  0.00     0.026 A 
ATOM     14  C   UNL A   1      36.943  22.526  24.092  1.00  0.00     0.002 A 
ATOM     15  C   UNL A   1      36.166  24.064  25.777  1.00  0.00     0.006 A 
ATOM     16  C   UNL A   1      37.133  23.170  25.304  1.00  0.00     0.000 A 
BRANCH  12  17
ATOM     17  N   UNL A   1      34.058  24.356  22.760  1.00  0.00    -0.355 N 
ATOM     18  H   UNL A   1      34.485  24.454  21.879  1.00  0.00     0.167 HD
BRANCH  17  19
ATOM     19  C   UNL A   1      32.710  24.785  22.813  1.00  0.00     0.044 A 
ATOM     20  C   UNL A   1      32.083  22.329  23.098  1.00  0.00     0.046 C 
ATOM     21  C   UNL A   1      31.731  23.796  23.076  1.00  0.00    -0.027 A 
ATOM     22  C   UNL A   1      30.420  24.176  23.398  1.00  0.00     0.005 A 
ATOM     23  C   UNL A   1      30.064  25.519  23.453  1.00  0.00     0.001 A 
ATOM     24  C   UNL A   1      32.311  26.150  22.768  1.00  0.00    -0.027 A 
ATOM     25  C   UNL A   1      30.997  26.495  23.130  1.00  0.00     0.005 A 
ATOM     26  C   UNL A   1      33.223  27.304  22.427  1.00  0.00     0.046 C 
ENDBRANCH  17  19
ENDBRANCH  12  17
ENDBRANCH  10  11
ENDBRANCH   8  10
ENDBRANCH   7   8
ENDBRANCH   6   7
ENDBRANCH   5   6
ENDBRANCH   4   5
ENDBRANCH   3   4
ENDBRANCH   2   3
ENDBRANCH   1   2
BRANCH   1  27
ATOM     27  C   UNL A   1      36.029  31.399  27.975  1.00  0.00     0.188 C 
BRANCH  27  28
ATOM     28  C   UNL A   1      36.170  32.271  29.230  1.00  0.00     0.188 C 
BRANCH  28  29
ATOM     29  O   UNL A   1      35.968  31.540  30.435  1.00  0.00    -0.376 OA
BRANCH  29  30
ATOM     30  C   UNL A   1      35.172  32.106  31.461  1.00  0.00     0.202 C 
BRANCH  30  31
ATOM     31  C   UNL A   1      34.858  33.612  31.419  1.00  0.00     0.261 C 
BRANCH  31  32
ATOM     32  O   UNL A   1      35.886  34.517  31.836  1.00  0.00    -0.460 OA
BRANCH  32  33
ATOM     33  C   UNL A   1      35.882  34.919  33.131  1.00  0.00     0.338 C 
ATOM     34  O   UNL A   1      35.012  35.539  33.692  1.00  0.00    -0.246 OA
BRANCH  33  35
ATOM     35  C   UNL A   1      37.046  34.274  33.795  1.00  0.00     0.060 A 
ATOM     36  C   UNL A   1      36.804  33.243  34.713  1.00  0.00     0.016 A 
ATOM     37  C   UNL A   1      38.357  34.643  33.481  1.00  0.00     0.016 A 
ATOM     38  C   UNL A   1      37.871  32.588  35.330  1.00  0.00     0.010 A 
ATOM     39  C   UNL A   1      39.424  34.016  34.133  1.00  0.00     0.010 A 
ATOM     40  C   UNL A   1      39.184  33.006  35.081  1.00  0.00    -0.014 A 
BRANCH  40  41
ATOM     41  C   UNL A   1      40.272  32.554  35.983  1.00  0.00     0.031 A 
ATOM     42  C   UNL A   1      41.222  31.508  35.462  1.00  0.00     0.074 A 
ATOM     43  C   UNL A   1      40.439  33.073  37.212  1.00  0.00     0.049 A 
ATOM     44  N   UNL A   1      42.227  30.926  36.059  1.00  0.00    -0.248 NA
ATOM     45  C   UNL A   1      41.003  31.061  34.075  1.00  0.00     0.031 C 
ATOM     46  C   UNL A   1      39.615  34.124  37.806  1.00  0.00     0.029 A 
ATOM     47  N   UNL A   1      41.360  32.776  38.186  1.00  0.00    -0.354 N 
ATOM     48  C   UNL A   1      42.756  30.041  35.126  1.00  0.00     0.074 A 
ATOM     49  C   UNL A   1      41.944  30.141  33.935  1.00  0.00     0.031 C 
ATOM     50  C   UNL A   1      40.059  34.372  39.052  1.00  0.00     0.029 A 
ATOM     51  C   UNL A   1      41.175  33.477  39.354  1.00  0.00     0.049 A 
ATOM     52  H   UNL A   1      42.085  32.122  38.059  1.00  0.00     0.167 HD
ATOM     53  C   UNL A   1      43.827  29.223  35.250  1.00  0.00     0.037 A 
ATOM     54  C   UNL A   1      41.820  33.385  40.536  1.00  0.00     0.037 A 
ATOM     55  C   UNL A   1      44.625  29.123  36.444  1.00  0.00     0.049 A 
ATOM     56  C   UNL A   1      42.962  32.408  40.678  1.00  0.00     0.074 A 
ATOM     57  C   UNL A   1      45.738  28.333  36.669  1.00  0.00     0.029 A 
ATOM     58  N   UNL A   1      44.386  29.824  37.617  1.00  0.00    -0.354 N 
ATOM     59  N   UNL A   1      43.470  31.594  39.782  1.00  0.00    -0.248 NA
ATOM     60  C   UNL A   1      43.622  32.340  41.990  1.00  0.00     0.031 C 
ATOM     61  C   UNL A   1      46.135  28.511  37.998  1.00  0.00     0.029 A 
ATOM     62  C   UNL A   1      45.312  29.463  38.580  1.00  0.00     0.049 A 
ATOM     63  H   UNL A   1      43.665  30.481  37.745  1.00  0.00     0.167 HD
ATOM     64  C   UNL A   1      44.526  30.941  40.412  1.00  0.00     0.074 A 
ATOM     65  C   UNL A   1      44.591  31.464  41.761  1.00  0.00     0.031 C 
ATOM     66  C   UNL A   1      45.369  29.999  39.918  1.00  0.00     0.037 A 
BRANCH  53  67
ATOM     67  C   UNL A   1      44.174  28.348  34.078  1.00  0.00     0.058 A 
ATOM     68  C   UNL A   1      45.056  28.770  33.070  1.00  0.00     0.135 A 
ATOM     69  C   UNL A   1      43.632  27.057  33.973  1.00  0.00     0.135 A 
ATOM     70  F   UNL A   1      45.585  30.004  33.106  1.00  0.00    -0.206 F 
ATOM     71  C   UNL A   1      45.371  27.953  31.989  1.00  0.00     0.059 A 
ATOM     72  C   UNL A   1      43.956  26.210  32.918  1.00  0.00     0.059 A 
ATOM     73  F   UNL A   1      42.777  26.605  34.904  1.00  0.00    -0.206 F 
ATOM     74  C   UNL A   1      44.817  26.672  31.924  1.00  0.00     0.060 A 
BRANCH  74  75
ATOM     75  S   UNL A   1      45.242  25.620  30.520  1.00  0.00     0.124 S 
ATOM     76  O   UNL A   1      44.816  24.309  30.998  1.00  0.00    -0.237 OA
ATOM     77  O   UNL A   1      44.438  26.196  29.447  1.00  0.00    -0.237 OA
ATOM     78  O   UNL A   1      46.684  25.800  30.384  1.00  0.00    -0.744 OA
ENDBRANCH  74  75
ENDBRANCH  53  67
BRANCH  54  79
ATOM     79  C   UNL A   1      41.393  34.226  41.688  1.00  0.00     0.058 A 
ATOM     80  C   UNL A   1      40.461  33.760  42.627  1.00  0.00     0.135 A 
ATOM     81  C   UNL A   1      41.902  35.523  41.867  1.00  0.00     0.135 A 
ATOM     82  F   UNL A   1      39.930  32.535  42.493  1.00  0.00    -0.206 F 
ATOM     83  C   UNL A   1      40.038  34.550  43.692  1.00  0.00     0.059 A 
ATOM     84  C   UNL A   1      41.518  36.322  42.940  1.00  0.00     0.059 A 
ATOM     85  F   UNL A   1      42.800  36.019  41.001  1.00  0.00    -0.206 F 
ATOM     86  C   UNL A   1      40.577  35.830  43.843  1.00  0.00     0.060 A 
BRANCH  86  87
ATOM     87  S   UNL A   1      40.059  36.828  45.256  1.00  0.00     0.124 S 
ATOM     88  O   UNL A   1      41.341  37.169  45.862  1.00  0.00    -0.237 OA
ATOM     89  O   UNL A   1      39.346  37.925  44.608  1.00  0.00    -0.237 OA
ATOM     90  O   UNL A   1      39.221  35.913  46.024  1.00  0.00    -0.744 OA
ENDBRANCH  86  87
ENDBRANCH  54  79
BRANCH  66  91
ATOM     91  C   UNL A   1      46.464  29.496  40.822  1.00  0.00     0.058 A 
ATOM     92  C   UNL A   1      46.301  28.356  41.626  1.00  0.00     0.135 A 
ATOM     93  C   UNL A   1      47.718  30.129  40.834  1.00  0.00     0.135 A 
ATOM     94  F   UNL A   1      45.122  27.714  41.656  1.00  0.00    -0.206 F 
ATOM     95  C   UNL A   1      47.332  27.879  42.428  1.00  0.00     0.059 A 
ATOM     96  C   UNL A   1      48.773  29.650  41.603  1.00  0.00     0.059 A 
ATOM     97  F   UNL A   1      47.935  31.215  40.074  1.00  0.00    -0.206 F 
ATOM     98  C   UNL A   1      48.567  28.530  42.406  1.00  0.00     0.060 A 
BRANCH  98  99
ATOM     99  S   UNL A   1      49.907  27.878  43.426  1.00  0.00     0.124 S 
ATOM    100  O   UNL A   1      49.207  26.884  44.232  1.00  0.00    -0.237 OA
ATOM    101  O   UNL A   1      50.829  27.348  42.426  1.00  0.00    -0.237 OA
ATOM    102  O   UNL A   1      50.385  29.052  44.151  1.00  0.00    -0.744 OA
ENDBRANCH  98  99
ENDBRANCH  66  91
ENDBRANCH  40  41
ENDBRANCH  33  35
ENDBRANCH  32  33
ENDBRANCH  31  32
ENDBRANCH  30  31
ENDBRANCH  29  30
ENDBRANCH  28  29
ENDBRANCH  27  28
ENDBRANCH   1  27
TORSDOF 26
ENDMDL
