MODEL 1
REMARK VINA RESULT:      -9.6      0.000      0.000
REMARK SMILES CC[C@@](O)(C(=O)OCCOCCOCCOCCOC(=O)c1ccc(-c2c3nc(c(-c4c(F)cc(S(=O)(=O)[O-])cc4F)c4ccc([nH]4)c(-c4c(F)cc(S(=O)(=O)[O-])cc4F)c4nc(c(-c5c(F)cc(S(=O)(=O)[O-])cc5F)c5ccc2[nH]5)C=C4)C=C3)cc1)[C@H]1CCc2ccc(OC)cc21
REMARK SMILES IDX 14 1 13 2 12 3 11 4 10 5 9 6 8 7 7 8 5 9 6 10 3 11 2 12 1 13
REMARK SMILES IDX 4 14 88 16 89 17 98 18 90 19 91 20 97 21 92 22 94 23 93 24
REMARK SMILES IDX 95 25 96 26 15 27 16 28 17 29 18 30 19 31 20 32 21 33 22 34
REMARK SMILES IDX 23 35 87 36 24 37 86 38 25 39 26 40 27 41 80 42 28 43 85 44
REMARK SMILES IDX 79 45 81 46 29 47 84 48 78 49 77 50 30 52 64 53 43 54 63 55
REMARK SMILES IDX 44 56 47 57 62 58 82 59 45 60 46 61 61 63 83 64 48 65 31 66
REMARK SMILES IDX 32 67 41 68 33 69 34 70 40 71 42 72 35 73 36 74 37 75 38 76
REMARK SMILES IDX 39 77 65 78 66 79 75 80 67 81 68 82 74 83 76 84 69 85 70 86
REMARK SMILES IDX 71 87 72 88 73 89 49 90 50 91 59 92 51 93 52 94 58 95 60 96
REMARK SMILES IDX 53 97 54 98 55 99 56 100 57 101
REMARK H PARENT 4 15 81 51 47 62
REMARK Flexibility Score: inf
ROOT
ATOM      1  C   UNL A   1      34.615  32.815  28.054  1.00  0.00     0.188 C 
ENDROOT
BRANCH   1   2
ATOM      2  O   UNL A   1      34.118  31.528  28.351  1.00  0.00    -0.377 OA
BRANCH   2   3
ATOM      3  C   UNL A   1      33.773  30.738  27.250  1.00  0.00     0.188 C 
BRANCH   3   4
ATOM      4  C   UNL A   1      32.308  30.883  26.830  1.00  0.00     0.188 C 
BRANCH   4   5
ATOM      5  O   UNL A   1      31.601  29.709  26.485  1.00  0.00    -0.376 OA
BRANCH   5   6
ATOM      6  C   UNL A   1      32.355  28.501  26.499  1.00  0.00     0.202 C 
BRANCH   6   7
ATOM      7  C   UNL A   1      31.610  27.180  26.824  1.00  0.00     0.261 C 
BRANCH   7   8
ATOM      8  O   UNL A   1      32.253  25.945  26.371  1.00  0.00    -0.461 OA
BRANCH   8   9
ATOM      9  C   UNL A   1      31.539  24.779  26.281  1.00  0.00     0.338 C 
ATOM     10  O   UNL A   1      31.175  24.149  27.270  1.00  0.00    -0.249 OA
BRANCH   9  11
ATOM     11  C   UNL A   1      31.272  24.250  24.787  1.00  0.00     0.168 C 
BRANCH  11  12
ATOM     12  C   UNL A   1      32.562  23.786  24.046  1.00  0.00     0.044 C 
ATOM     13  C   UNL A   1      32.419  22.533  23.175  1.00  0.00     0.007 C 
ENDBRANCH  11  12
BRANCH  11  14
ATOM     14  O   UNL A   1      30.448  23.060  24.993  1.00  0.00    -0.378 OA
ATOM     15  H   UNL A   1      31.022  22.286  25.110  1.00  0.00     0.212 HD
ENDBRANCH  11  14
BRANCH  11  16
ATOM     16  C   UNL A   1      30.299  25.212  23.952  1.00  0.00     0.063 C 
ATOM     17  C   UNL A   1      28.980  25.617  24.638  1.00  0.00     0.017 C 
ATOM     18  C   UNL A   1      30.726  26.620  23.516  1.00  0.00    -0.035 A 
ATOM     19  C   UNL A   1      28.376  26.806  23.902  1.00  0.00     0.036 C 
ATOM     20  C   UNL A   1      29.638  27.518  23.566  1.00  0.00    -0.044 A 
ATOM     21  C   UNL A   1      31.936  27.084  23.036  1.00  0.00     0.050 A 
ATOM     22  C   UNL A   1      29.758  28.872  23.288  1.00  0.00     0.008 A 
ATOM     23  C   UNL A   1      32.064  28.448  22.723  1.00  0.00     0.119 A 
ATOM     24  C   UNL A   1      31.002  29.345  22.898  1.00  0.00     0.047 A 
BRANCH  23  25
ATOM     25  O   UNL A   1      33.226  28.997  22.247  1.00  0.00    -0.497 OA
ATOM     26  C   UNL A   1      34.356  28.621  23.030  1.00  0.00     0.278 C 
ENDBRANCH  23  25
ENDBRANCH  11  16
ENDBRANCH   9  11
ENDBRANCH   8   9
ENDBRANCH   7   8
ENDBRANCH   6   7
ENDBRANCH   5   6
ENDBRANCH   4   5
ENDBRANCH   3   4
ENDBRANCH   2   3
ENDBRANCH   1   2
BRANCH   1  27
ATOM     27  C   UNL A   1      34.111  33.987  28.916  1.00  0.00     0.188 C 
BRANCH  27  28
ATOM     28  O   UNL A   1      33.977  33.817  30.336  1.00  0.00    -0.376 OA
BRANCH  28  29
ATOM     29  C   UNL A   1      35.132  33.678  31.168  1.00  0.00     0.202 C 
BRANCH  29  30
ATOM     30  C   UNL A   1      35.464  32.259  31.615  1.00  0.00     0.261 C 
BRANCH  30  31
ATOM     31  O   UNL A   1      36.497  31.715  30.781  1.00  0.00    -0.460 OA
BRANCH  31  32
ATOM     32  C   UNL A   1      36.886  30.455  31.079  1.00  0.00     0.338 C 
ATOM     33  O   UNL A   1      36.181  29.538  31.467  1.00  0.00    -0.246 OA
BRANCH  32  34
ATOM     34  C   UNL A   1      38.274  30.280  30.607  1.00  0.00     0.060 A 
ATOM     35  C   UNL A   1      38.492  30.261  29.221  1.00  0.00     0.016 A 
ATOM     36  C   UNL A   1      39.349  30.205  31.499  1.00  0.00     0.016 A 
ATOM     37  C   UNL A   1      39.782  30.141  28.721  1.00  0.00     0.010 A 
ATOM     38  C   UNL A   1      40.639  30.043  30.997  1.00  0.00     0.010 A 
ATOM     39  C   UNL A   1      40.849  29.972  29.610  1.00  0.00    -0.014 A 
BRANCH  39  40
ATOM     40  C   UNL A   1      42.120  29.435  29.088  1.00  0.00     0.031 A 
ATOM     41  C   UNL A   1      43.277  30.390  28.996  1.00  0.00     0.074 A 
ATOM     42  C   UNL A   1      42.248  28.143  28.746  1.00  0.00     0.049 A 
ATOM     43  N   UNL A   1      44.489  30.187  28.558  1.00  0.00    -0.248 NA
ATOM     44  C   UNL A   1      43.028  31.766  29.465  1.00  0.00     0.031 C 
ATOM     45  C   UNL A   1      41.197  27.131  28.848  1.00  0.00     0.029 A 
ATOM     46  N   UNL A   1      43.323  27.464  28.237  1.00  0.00    -0.354 N 
ATOM     47  C   UNL A   1      45.143  31.406  28.690  1.00  0.00     0.074 A 
ATOM     48  C   UNL A   1      44.190  32.351  29.224  1.00  0.00     0.031 C 
ATOM     49  C   UNL A   1      41.680  25.958  28.401  1.00  0.00     0.029 A 
ATOM     50  C   UNL A   1      43.060  26.146  27.956  1.00  0.00     0.049 A 
ATOM     51  H   UNL A   1      44.202  27.882  28.088  1.00  0.00     0.167 HD
ATOM     52  C   UNL A   1      46.428  31.705  28.398  1.00  0.00     0.037 A 
ATOM     53  C   UNL A   1      43.845  25.213  27.384  1.00  0.00     0.037 A 
ATOM     54  C   UNL A   1      47.358  30.751  27.858  1.00  0.00     0.049 A 
ATOM     55  C   UNL A   1      45.254  25.590  26.998  1.00  0.00     0.074 A 
ATOM     56  C   UNL A   1      48.688  30.936  27.531  1.00  0.00     0.029 A 
ATOM     57  N   UNL A   1      47.048  29.433  27.554  1.00  0.00    -0.354 N 
ATOM     58  N   UNL A   1      45.873  26.738  27.149  1.00  0.00    -0.248 NA
ATOM     59  C   UNL A   1      46.071  24.547  26.364  1.00  0.00     0.031 C 
ATOM     60  C   UNL A   1      49.165  29.746  26.975  1.00  0.00     0.029 A 
ATOM     61  C   UNL A   1      48.152  28.800  27.015  1.00  0.00     0.049 A 
ATOM     62  H   UNL A   1      46.170  29.012  27.701  1.00  0.00     0.167 HD
ATOM     63  C   UNL A   1      47.161  26.545  26.661  1.00  0.00     0.074 A 
ATOM     64  C   UNL A   1      47.233  25.167  26.216  1.00  0.00     0.031 C 
ATOM     65  C   UNL A   1      48.195  27.423  26.589  1.00  0.00     0.037 A 
BRANCH  52  66
ATOM     66  C   UNL A   1      46.880  33.121  28.617  1.00  0.00     0.058 A 
ATOM     67  C   UNL A   1      47.441  33.544  29.833  1.00  0.00     0.135 A 
ATOM     68  C   UNL A   1      46.756  34.070  27.590  1.00  0.00     0.135 A 
ATOM     69  F   UNL A   1      47.556  32.685  30.860  1.00  0.00    -0.206 F 
ATOM     70  C   UNL A   1      47.845  34.860  30.030  1.00  0.00     0.059 A 
ATOM     71  C   UNL A   1      47.178  35.385  27.754  1.00  0.00     0.059 A 
ATOM     72  F   UNL A   1      46.213  33.724  26.412  1.00  0.00    -0.206 F 
ATOM     73  C   UNL A   1      47.710  35.774  28.983  1.00  0.00     0.060 A 
BRANCH  73  74
ATOM     74  S   UNL A   1      48.248  37.476  29.249  1.00  0.00     0.124 S 
ATOM     75  O   UNL A   1      48.059  38.053  27.923  1.00  0.00    -0.237 OA
ATOM     76  O   UNL A   1      47.322  37.937  30.279  1.00  0.00    -0.237 OA
ATOM     77  O   UNL A   1      49.636  37.330  29.679  1.00  0.00    -0.744 OA
ENDBRANCH  73  74
ENDBRANCH  52  66
BRANCH  53  78
ATOM     78  C   UNL A   1      43.322  23.842  27.138  1.00  0.00     0.058 A 
ATOM     79  C   UNL A   1      43.293  22.880  28.158  1.00  0.00     0.135 A 
ATOM     80  C   UNL A   1      42.839  23.465  25.873  1.00  0.00     0.135 A 
ATOM     81  F   UNL A   1      43.753  23.187  29.381  1.00  0.00    -0.206 F 
ATOM     82  C   UNL A   1      42.821  21.591  27.933  1.00  0.00     0.059 A 
ATOM     83  C   UNL A   1      42.336  22.190  25.631  1.00  0.00     0.059 A 
ATOM     84  F   UNL A   1      42.833  24.349  24.864  1.00  0.00    -0.206 F 
ATOM     85  C   UNL A   1      42.341  21.257  26.666  1.00  0.00     0.060 A 
BRANCH  85  86
ATOM     86  S   UNL A   1      41.685  19.594  26.398  1.00  0.00     0.124 S 
ATOM     87  O   UNL A   1      42.413  19.180  25.205  1.00  0.00    -0.237 OA
ATOM     88  O   UNL A   1      42.053  18.919  27.639  1.00  0.00    -0.237 OA
ATOM     89  O   UNL A   1      40.255  19.823  26.218  1.00  0.00    -0.744 OA
ENDBRANCH  85  86
ENDBRANCH  53  78
BRANCH  65  90
ATOM     90  C   UNL A   1      49.502  26.911  26.049  1.00  0.00     0.058 A 
ATOM     91  C   UNL A   1      49.875  27.100  24.710  1.00  0.00     0.135 A 
ATOM     92  C   UNL A   1      50.422  26.281  26.905  1.00  0.00     0.135 A 
ATOM     93  F   UNL A   1      49.031  27.692  23.850  1.00  0.00    -0.206 F 
ATOM     94  C   UNL A   1      51.105  26.661  24.231  1.00  0.00     0.059 A 
ATOM     95  C   UNL A   1      51.669  25.863  26.455  1.00  0.00     0.059 A 
ATOM     96  F   UNL A   1      50.120  26.090  28.199  1.00  0.00    -0.206 F 
ATOM     97  C   UNL A   1      51.996  26.047  25.113  1.00  0.00     0.060 A 
BRANCH  97  98
ATOM     98  S   UNL A   1      53.603  25.514  24.486  1.00  0.00     0.124 S 
ATOM     99  O   UNL A   1      53.548  24.075  24.726  1.00  0.00    -0.237 OA
ATOM    100  O   UNL A   1      53.544  25.927  23.088  1.00  0.00    -0.237 OA
ATOM    101  O   UNL A   1      54.553  26.252  25.313  1.00  0.00    -0.744 OA
ENDBRANCH  97  98
ENDBRANCH  65  90
ENDBRANCH  39  40
ENDBRANCH  32  34
ENDBRANCH  31  32
ENDBRANCH  30  31
ENDBRANCH  29  30
ENDBRANCH  28  29
ENDBRANCH  27  28
ENDBRANCH   1  27
TORSDOF 27
ENDMDL
MODEL 2
REMARK VINA RESULT:      -9.4      1.294      3.037
REMARK SMILES CC[C@@](O)(C(=O)OCCOCCOCCOCCOC(=O)c1ccc(-c2c3nc(c(-c4c(F)cc(S(=O)(=O)[O-])cc4F)c4ccc([nH]4)c(-c4c(F)cc(S(=O)(=O)[O-])cc4F)c4nc(c(-c5c(F)cc(S(=O)(=O)[O-])cc5F)c5ccc2[nH]5)C=C4)C=C3)cc1)[C@H]1CCc2ccc(OC)cc21
REMARK SMILES IDX 14 1 13 2 12 3 11 4 10 5 9 6 8 7 7 8 5 9 6 10 3 11 2 12 1 13
REMARK SMILES IDX 4 14 88 16 89 17 98 18 90 19 91 20 97 21 92 22 94 23 93 24
REMARK SMILES IDX 95 25 96 26 15 27 16 28 17 29 18 30 19 31 20 32 21 33 22 34
REMARK SMILES IDX 23 35 87 36 24 37 86 38 25 39 26 40 27 41 80 42 28 43 85 44
REMARK SMILES IDX 79 45 81 46 29 47 84 48 78 49 77 50 30 52 64 53 43 54 63 55
REMARK SMILES IDX 44 56 47 57 62 58 82 59 45 60 46 61 61 63 83 64 48 65 31 66
REMARK SMILES IDX 32 67 41 68 33 69 34 70 40 71 42 72 35 73 36 74 37 75 38 76
REMARK SMILES IDX 39 77 65 78 66 79 75 80 67 81 68 82 74 83 76 84 69 85 70 86
REMARK SMILES IDX 71 87 72 88 73 89 49 90 50 91 59 92 51 93 52 94 58 95 60 96
REMARK SMILES IDX 53 97 54 98 55 99 56 100 57 101
REMARK H PARENT 4 15 81 51 47 62
REMARK Flexibility Score: inf
ROOT
ATOM      1  C   UNL A   1      35.006  33.052  28.523  1.00  0.00     0.188 C 
ENDROOT
BRANCH   1   2
ATOM      2  O   UNL A   1      34.581  31.719  28.705  1.00  0.00    -0.377 OA
BRANCH   2   3
ATOM      3  C   UNL A   1      34.341  30.990  27.536  1.00  0.00     0.188 C 
BRANCH   3   4
ATOM      4  C   UNL A   1      32.868  30.978  27.117  1.00  0.00     0.188 C 
BRANCH   4   5
ATOM      5  O   UNL A   1      32.361  29.802  26.521  1.00  0.00    -0.376 OA
BRANCH   5   6
ATOM      6  C   UNL A   1      33.316  28.781  26.247  1.00  0.00     0.202 C 
BRANCH   6   7
ATOM      7  C   UNL A   1      32.869  27.303  26.401  1.00  0.00     0.261 C 
BRANCH   7   8
ATOM      8  O   UNL A   1      33.612  26.317  25.615  1.00  0.00    -0.461 OA
BRANCH   8   9
ATOM      9  C   UNL A   1      32.999  25.176  25.169  1.00  0.00     0.338 C 
ATOM     10  O   UNL A   1      32.372  24.428  25.914  1.00  0.00    -0.249 OA
BRANCH   9  11
ATOM     11  C   UNL A   1      33.217  24.842  23.612  1.00  0.00     0.168 C 
BRANCH  11  12
ATOM     12  C   UNL A   1      31.890  24.706  22.807  1.00  0.00     0.044 C 
ATOM     13  C   UNL A   1      30.742  23.988  23.525  1.00  0.00     0.007 C 
ENDBRANCH  11  12
BRANCH  11  14
ATOM     14  O   UNL A   1      33.903  26.029  23.105  1.00  0.00    -0.378 OA
ATOM     15  H   UNL A   1      34.624  26.268  23.709  1.00  0.00     0.212 HD
ENDBRANCH  11  14
BRANCH  11  16
ATOM     16  C   UNL A   1      34.296  23.681  23.371  1.00  0.00     0.063 C 
ATOM     17  C   UNL A   1      35.712  23.935  23.925  1.00  0.00     0.017 C 
ATOM     18  C   UNL A   1      34.116  22.272  23.949  1.00  0.00    -0.035 A 
ATOM     19  C   UNL A   1      36.480  22.620  23.961  1.00  0.00     0.036 C 
ATOM     20  C   UNL A   1      35.356  21.722  24.342  1.00  0.00    -0.044 A 
ATOM     21  C   UNL A   1      32.988  21.482  24.058  1.00  0.00     0.050 A 
ATOM     22  C   UNL A   1      35.478  20.485  24.958  1.00  0.00     0.008 A 
ATOM     23  C   UNL A   1      33.101  20.214  24.655  1.00  0.00     0.119 A 
ATOM     24  C   UNL A   1      34.323  19.741  25.149  1.00  0.00     0.047 A 
BRANCH  23  25
ATOM     25  O   UNL A   1      32.035  19.368  24.811  1.00  0.00    -0.497 OA
ATOM     26  C   UNL A   1      32.373  18.018  24.507  1.00  0.00     0.278 C 
ENDBRANCH  23  25
ENDBRANCH  11  16
ENDBRANCH   9  11
ENDBRANCH   8   9
ENDBRANCH   7   8
ENDBRANCH   6   7
ENDBRANCH   5   6
ENDBRANCH   4   5
ENDBRANCH   3   4
ENDBRANCH   2   3
ENDBRANCH   1   2
BRANCH   1  27
ATOM     27  C   UNL A   1      34.372  34.128  29.424  1.00  0.00     0.188 C 
BRANCH  27  28
ATOM     28  O   UNL A   1      34.195  33.866  30.825  1.00  0.00    -0.376 OA
BRANCH  28  29
ATOM     29  C   UNL A   1      35.323  33.666  31.680  1.00  0.00     0.202 C 
BRANCH  29  30
ATOM     30  C   UNL A   1      35.604  32.223  32.086  1.00  0.00     0.261 C 
BRANCH  30  31
ATOM     31  O   UNL A   1      36.617  31.666  31.236  1.00  0.00    -0.460 OA
BRANCH  31  32
ATOM     32  C   UNL A   1      37.040  30.425  31.567  1.00  0.00     0.338 C 
ATOM     33  O   UNL A   1      36.365  29.508  32.005  1.00  0.00    -0.246 OA
BRANCH  32  34
ATOM     34  C   UNL A   1      38.418  30.263  31.065  1.00  0.00     0.060 A 
ATOM     35  C   UNL A   1      38.631  30.415  29.686  1.00  0.00     0.016 A 
ATOM     36  C   UNL A   1      39.493  30.034  31.930  1.00  0.00     0.016 A 
ATOM     37  C   UNL A   1      39.914  30.314  29.164  1.00  0.00     0.010 A 
ATOM     38  C   UNL A   1      40.775  29.891  31.401  1.00  0.00     0.010 A 
ATOM     39  C   UNL A   1      40.977  29.992  30.014  1.00  0.00    -0.014 A 
BRANCH  39  40
ATOM     40  C   UNL A   1      42.225  29.482  29.417  1.00  0.00     0.031 A 
ATOM     41  C   UNL A   1      43.375  30.444  29.313  1.00  0.00     0.074 A 
ATOM     42  C   UNL A   1      42.341  28.205  29.019  1.00  0.00     0.049 A 
ATOM     43  N   UNL A   1      44.567  30.263  28.814  1.00  0.00    -0.248 NA
ATOM     44  C   UNL A   1      43.144  31.800  29.846  1.00  0.00     0.031 C 
ATOM     45  C   UNL A   1      41.298  27.185  29.126  1.00  0.00     0.029 A 
ATOM     46  N   UNL A   1      43.394  27.551  28.437  1.00  0.00    -0.354 N 
ATOM     47  C   UNL A   1      45.223  31.479  28.966  1.00  0.00     0.074 A 
ATOM     48  C   UNL A   1      44.292  32.399  29.578  1.00  0.00     0.031 C 
ATOM     49  C   UNL A   1      41.763  26.033  28.612  1.00  0.00     0.029 A 
ATOM     50  C   UNL A   1      43.122  26.244  28.115  1.00  0.00     0.049 A 
ATOM     51  H   UNL A   1      44.264  27.977  28.266  1.00  0.00     0.167 HD
ATOM     52  C   UNL A   1      46.494  31.794  28.630  1.00  0.00     0.037 A 
ATOM     53  C   UNL A   1      43.883  25.337  27.474  1.00  0.00     0.037 A 
ATOM     54  C   UNL A   1      47.401  30.866  28.012  1.00  0.00     0.049 A 
ATOM     55  C   UNL A   1      45.273  25.735  27.041  1.00  0.00     0.074 A 
ATOM     56  C   UNL A   1      48.715  31.070  27.636  1.00  0.00     0.029 A 
ATOM     57  N   UNL A   1      47.081  29.560  27.671  1.00  0.00    -0.354 N 
ATOM     58  N   UNL A   1      45.896  26.878  27.211  1.00  0.00    -0.248 NA
ATOM     59  C   UNL A   1      46.064  24.721  26.332  1.00  0.00     0.031 C 
ATOM     60  C   UNL A   1      49.170  29.904  27.013  1.00  0.00     0.029 A 
ATOM     61  C   UNL A   1      48.162  28.953  27.060  1.00  0.00     0.049 A 
ATOM     62  H   UNL A   1      46.211  29.130  27.839  1.00  0.00     0.167 HD
ATOM     63  C   UNL A   1      47.162  26.710  26.660  1.00  0.00     0.074 A 
ATOM     64  C   UNL A   1      47.217  25.351  26.158  1.00  0.00     0.031 C 
ATOM     65  C   UNL A   1      48.189  27.594  26.578  1.00  0.00     0.037 A 
BRANCH  52  66
ATOM     66  C   UNL A   1      46.951  33.202  28.886  1.00  0.00     0.058 A 
ATOM     67  C   UNL A   1      47.546  33.583  30.100  1.00  0.00     0.135 A 
ATOM     68  C   UNL A   1      46.799  34.186  27.895  1.00  0.00     0.135 A 
ATOM     69  F   UNL A   1      47.689  32.690  31.092  1.00  0.00    -0.206 F 
ATOM     70  C   UNL A   1      47.955  34.893  30.331  1.00  0.00     0.059 A 
ATOM     71  C   UNL A   1      47.226  35.495  28.093  1.00  0.00     0.059 A 
ATOM     72  F   UNL A   1      46.224  33.880  26.722  1.00  0.00    -0.206 F 
ATOM     73  C   UNL A   1      47.791  35.842  29.319  1.00  0.00     0.060 A 
BRANCH  73  74
ATOM     74  S   UNL A   1      48.337  37.534  29.629  1.00  0.00     0.124 S 
ATOM     75  O   UNL A   1      47.237  38.052  30.437  1.00  0.00    -0.237 OA
ATOM     76  O   UNL A   1      49.599  37.330  30.334  1.00  0.00    -0.237 OA
ATOM     77  O   UNL A   1      48.455  38.104  28.290  1.00  0.00    -0.744 OA
ENDBRANCH  73  74
ENDBRANCH  52  66
BRANCH  53  78
ATOM     78  C   UNL A   1      43.353  23.975  27.196  1.00  0.00     0.058 A 
ATOM     79  C   UNL A   1      43.388  22.969  28.172  1.00  0.00     0.135 A 
ATOM     80  C   UNL A   1      42.800  23.652  25.945  1.00  0.00     0.135 A 
ATOM     81  F   UNL A   1      43.916  23.223  29.379  1.00  0.00    -0.206 F 
ATOM     82  C   UNL A   1      42.909  21.687  27.916  1.00  0.00     0.059 A 
ATOM     83  C   UNL A   1      42.290  22.385  25.676  1.00  0.00     0.059 A 
ATOM     84  F   UNL A   1      42.732  24.580  24.979  1.00  0.00    -0.206 F 
ATOM     85  C   UNL A   1      42.358  21.406  26.665  1.00  0.00     0.060 A 
BRANCH  85  86
ATOM     86  S   UNL A   1      41.696  19.753  26.360  1.00  0.00     0.124 S 
ATOM     87  O   UNL A   1      42.013  19.074  27.611  1.00  0.00    -0.237 OA
ATOM     88  O   UNL A   1      40.282  20.031  26.123  1.00  0.00    -0.237 OA
ATOM     89  O   UNL A   1      42.443  19.304  25.190  1.00  0.00    -0.744 OA
ENDBRANCH  85  86
ENDBRANCH  53  78
BRANCH  65  90
ATOM     90  C   UNL A   1      49.473  27.110  25.961  1.00  0.00     0.058 A 
ATOM     91  C   UNL A   1      49.707  27.188  24.580  1.00  0.00     0.135 A 
ATOM     92  C   UNL A   1      50.508  26.621  26.777  1.00  0.00     0.135 A 
ATOM     93  F   UNL A   1      48.750  27.643  23.757  1.00  0.00    -0.206 F 
ATOM     94  C   UNL A   1      50.915  26.777  24.026  1.00  0.00     0.059 A 
ATOM     95  C   UNL A   1      51.734  26.235  26.248  1.00  0.00     0.059 A 
ATOM     96  F   UNL A   1      50.340  26.540  28.107  1.00  0.00    -0.206 F 
ATOM     97  C   UNL A   1      51.923  26.305  24.869  1.00  0.00     0.060 A 
BRANCH  97  98
ATOM     98  S   UNL A   1      53.497  25.809  24.139  1.00  0.00     0.124 S 
ATOM     99  O   UNL A   1      54.410  26.793  24.713  1.00  0.00    -0.237 OA
ATOM    100  O   UNL A   1      53.650  24.442  24.627  1.00  0.00    -0.237 OA
ATOM    101  O   UNL A   1      53.262  25.933  22.704  1.00  0.00    -0.744 OA
ENDBRANCH  97  98
ENDBRANCH  65  90
ENDBRANCH  39  40
ENDBRANCH  32  34
ENDBRANCH  31  32
ENDBRANCH  30  31
ENDBRANCH  29  30
ENDBRANCH  28  29
ENDBRANCH  27  28
ENDBRANCH   1  27
TORSDOF 27
ENDMDL
MODEL 3
REMARK VINA RESULT:      -8.9      1.307      2.290
REMARK SMILES CC[C@@](O)(C(=O)OCCOCCOCCOCCOC(=O)c1ccc(-c2c3nc(c(-c4c(F)cc(S(=O)(=O)[O-])cc4F)c4ccc([nH]4)c(-c4c(F)cc(S(=O)(=O)[O-])cc4F)c4nc(c(-c5c(F)cc(S(=O)(=O)[O-])cc5F)c5ccc2[nH]5)C=C4)C=C3)cc1)[C@H]1CCc2ccc(OC)cc21
REMARK SMILES IDX 14 1 13 2 12 3 11 4 10 5 9 6 8 7 7 8 5 9 6 10 3 11 2 12 1 13
REMARK SMILES IDX 4 14 88 16 89 17 98 18 90 19 91 20 97 21 92 22 94 23 93 24
REMARK SMILES IDX 95 25 96 26 15 27 16 28 17 29 18 30 19 31 20 32 21 33 22 34
REMARK SMILES IDX 23 35 87 36 24 37 86 38 25 39 26 40 27 41 80 42 28 43 85 44
REMARK SMILES IDX 79 45 81 46 29 47 84 48 78 49 77 50 30 52 64 53 43 54 63 55
REMARK SMILES IDX 44 56 47 57 62 58 82 59 45 60 46 61 61 63 83 64 48 65 31 66
REMARK SMILES IDX 32 67 41 68 33 69 34 70 40 71 42 72 35 73 36 74 37 75 38 76
REMARK SMILES IDX 39 77 65 78 66 79 75 80 67 81 68 82 74 83 76 84 69 85 70 86
REMARK SMILES IDX 71 87 72 88 73 89 49 90 50 91 59 92 51 93 52 94 58 95 60 96
REMARK SMILES IDX 53 97 54 98 55 99 56 100 57 101
REMARK H PARENT 4 15 81 51 47 62
REMARK Flexibility Score: inf
ROOT
ATOM      1  C   UNL A   1      32.932  30.346  26.963  1.00  0.00     0.188 C 
ENDROOT
BRANCH   1   2
ATOM      2  O   UNL A   1      32.741  30.033  25.601  1.00  0.00    -0.377 OA
BRANCH   2   3
ATOM      3  C   UNL A   1      33.260  28.806  25.177  1.00  0.00     0.188 C 
BRANCH   3   4
ATOM      4  C   UNL A   1      33.024  27.667  26.174  1.00  0.00     0.188 C 
BRANCH   4   5
ATOM      5  O   UNL A   1      34.029  26.682  26.300  1.00  0.00    -0.376 OA
BRANCH   5   6
ATOM      6  C   UNL A   1      34.109  25.735  25.240  1.00  0.00     0.202 C 
BRANCH   6   7
ATOM      7  C   UNL A   1      35.027  24.499  25.433  1.00  0.00     0.261 C 
BRANCH   7   8
ATOM      8  O   UNL A   1      34.353  23.228  25.707  1.00  0.00    -0.461 OA
BRANCH   8   9
ATOM      9  C   UNL A   1      33.954  22.415  24.679  1.00  0.00     0.338 C 
ATOM     10  O   UNL A   1      34.511  22.411  23.585  1.00  0.00    -0.249 OA
BRANCH   9  11
ATOM     11  C   UNL A   1      32.655  21.517  24.978  1.00  0.00     0.168 C 
BRANCH  11  12
ATOM     12  C   UNL A   1      32.498  20.300  24.016  1.00  0.00     0.044 C 
ATOM     13  C   UNL A   1      32.017  20.627  22.598  1.00  0.00     0.007 C 
ENDBRANCH  11  12
BRANCH  11  14
ATOM     14  O   UNL A   1      32.919  20.975  26.310  1.00  0.00    -0.378 OA
ATOM     15  H   UNL A   1      33.763  21.322  26.638  1.00  0.00     0.212 HD
ENDBRANCH  11  14
BRANCH  11  16
ATOM     16  C   UNL A   1      31.333  22.394  25.208  1.00  0.00     0.063 C 
ATOM     17  C   UNL A   1      31.067  22.866  26.651  1.00  0.00     0.017 C 
ATOM     18  C   UNL A   1      31.128  23.750  24.523  1.00  0.00    -0.035 A 
ATOM     19  C   UNL A   1      30.025  23.978  26.630  1.00  0.00     0.036 C 
ATOM     20  C   UNL A   1      30.451  24.651  25.374  1.00  0.00    -0.044 A 
ATOM     21  C   UNL A   1      31.425  24.163  23.238  1.00  0.00     0.050 A 
ATOM     22  C   UNL A   1      30.193  25.971  25.032  1.00  0.00     0.008 A 
ATOM     23  C   UNL A   1      31.144  25.490  22.869  1.00  0.00     0.119 A 
ATOM     24  C   UNL A   1      30.582  26.401  23.772  1.00  0.00     0.047 A 
BRANCH  23  25
ATOM     25  O   UNL A   1      31.411  25.986  21.620  1.00  0.00    -0.497 OA
ATOM     26  C   UNL A   1      32.792  25.885  21.286  1.00  0.00     0.278 C 
ENDBRANCH  23  25
ENDBRANCH  11  16
ENDBRANCH   9  11
ENDBRANCH   8   9
ENDBRANCH   7   8
ENDBRANCH   6   7
ENDBRANCH   5   6
ENDBRANCH   4   5
ENDBRANCH   3   4
ENDBRANCH   2   3
ENDBRANCH   1   2
BRANCH   1  27
ATOM     27  C   UNL A   1      34.153  31.210  27.328  1.00  0.00     0.188 C 
BRANCH  27  28
ATOM     28  O   UNL A   1      34.367  31.594  28.695  1.00  0.00    -0.376 OA
BRANCH  28  29
ATOM     29  C   UNL A   1      34.574  32.964  29.047  1.00  0.00     0.202 C 
BRANCH  29  30
ATOM     30  C   UNL A   1      35.380  33.211  30.318  1.00  0.00     0.261 C 
BRANCH  30  31
ATOM     31  O   UNL A   1      36.010  31.994  30.740  1.00  0.00    -0.460 OA
BRANCH  31  32
ATOM     32  C   UNL A   1      37.118  32.142  31.500  1.00  0.00     0.338 C 
ATOM     33  O   UNL A   1      37.189  32.646  32.609  1.00  0.00    -0.246 OA
BRANCH  32  34
ATOM     34  C   UNL A   1      38.205  31.354  30.885  1.00  0.00     0.060 A 
ATOM     35  C   UNL A   1      39.139  30.754  31.742  1.00  0.00     0.016 A 
ATOM     36  C   UNL A   1      38.271  31.149  29.503  1.00  0.00     0.016 A 
ATOM     37  C   UNL A   1      40.158  29.967  31.221  1.00  0.00     0.010 A 
ATOM     38  C   UNL A   1      39.317  30.394  28.977  1.00  0.00     0.010 A 
ATOM     39  C   UNL A   1      40.282  29.837  29.834  1.00  0.00    -0.014 A 
BRANCH  39  40
ATOM     40  C   UNL A   1      41.568  29.370  29.284  1.00  0.00     0.031 A 
ATOM     41  C   UNL A   1      42.670  30.386  29.169  1.00  0.00     0.074 A 
ATOM     42  C   UNL A   1      41.758  28.086  28.938  1.00  0.00     0.049 A 
ATOM     43  N   UNL A   1      43.881  30.249  28.704  1.00  0.00    -0.248 NA
ATOM     44  C   UNL A   1      42.357  31.746  29.644  1.00  0.00     0.031 C 
ATOM     45  C   UNL A   1      40.766  27.019  29.062  1.00  0.00     0.029 A 
ATOM     46  N   UNL A   1      42.857  27.467  28.405  1.00  0.00    -0.354 N 
ATOM     47  C   UNL A   1      44.471  31.501  28.824  1.00  0.00     0.074 A 
ATOM     48  C   UNL A   1      43.480  32.394  29.379  1.00  0.00     0.031 C 
ATOM     49  C   UNL A   1      41.302  25.874  28.603  1.00  0.00     0.029 A 
ATOM     50  C   UNL A   1      42.660  26.136  28.129  1.00  0.00     0.049 A 
ATOM     51  H   UNL A   1      43.709  27.931  28.238  1.00  0.00     0.167 HD
ATOM     52  C   UNL A   1      45.732  31.869  28.504  1.00  0.00     0.037 A 
ATOM     53  C   UNL A   1      43.482  25.247  27.539  1.00  0.00     0.037 A 
ATOM     54  C   UNL A   1      46.700  30.967  27.943  1.00  0.00     0.049 A 
ATOM     55  C   UNL A   1      44.859  25.700  27.123  1.00  0.00     0.074 A 
ATOM     56  C   UNL A   1      48.010  31.224  27.588  1.00  0.00     0.029 A 
ATOM     57  N   UNL A   1      46.454  29.634  27.645  1.00  0.00    -0.354 N 
ATOM     58  N   UNL A   1      45.419  26.879  27.262  1.00  0.00    -0.248 NA
ATOM     59  C   UNL A   1      45.718  24.702  26.471  1.00  0.00     0.031 C 
ATOM     60  C   UNL A   1      48.539  30.061  27.021  1.00  0.00     0.029 A 
ATOM     61  C   UNL A   1      47.580  29.062  27.081  1.00  0.00     0.049 A 
ATOM     62  H   UNL A   1      45.604  29.166  27.810  1.00  0.00     0.167 HD
ATOM     63  C   UNL A   1      46.705  26.756  26.746  1.00  0.00     0.074 A 
ATOM     64  C   UNL A   1      46.842  25.385  26.298  1.00  0.00     0.031 C 
ATOM     65  C   UNL A   1      47.688  27.689  26.653  1.00  0.00     0.037 A 
BRANCH  52  66
ATOM     66  C   UNL A   1      46.111  33.308  28.716  1.00  0.00     0.058 A 
ATOM     67  C   UNL A   1      45.902  34.285  27.729  1.00  0.00     0.135 A 
ATOM     68  C   UNL A   1      46.685  33.717  29.930  1.00  0.00     0.135 A 
ATOM     69  F   UNL A   1      45.384  33.944  26.538  1.00  0.00    -0.206 F 
ATOM     70  C   UNL A   1      46.268  35.612  27.930  1.00  0.00     0.059 A 
ATOM     71  C   UNL A   1      47.033  35.043  30.164  1.00  0.00     0.059 A 
ATOM     72  F   UNL A   1      46.920  32.822  30.902  1.00  0.00    -0.206 F 
ATOM     73  C   UNL A   1      46.832  35.981  29.153  1.00  0.00     0.060 A 
BRANCH  73  74
ATOM     74  S   UNL A   1      47.291  37.709  29.403  1.00  0.00     0.124 S 
ATOM     75  O   UNL A   1      46.741  37.968  30.730  1.00  0.00    -0.237 OA
ATOM     76  O   UNL A   1      48.747  37.659  29.320  1.00  0.00    -0.237 OA
ATOM     77  O   UNL A   1      46.627  38.400  28.302  1.00  0.00    -0.744 OA
ENDBRANCH  73  74
ENDBRANCH  52  66
BRANCH  53  78
ATOM     78  C   UNL A   1      43.028  23.850  27.302  1.00  0.00     0.058 A 
ATOM     79  C   UNL A   1      43.009  22.906  28.340  1.00  0.00     0.135 A 
ATOM     80  C   UNL A   1      42.605  23.429  26.030  1.00  0.00     0.135 A 
ATOM     81  F   UNL A   1      43.414  23.255  29.571  1.00  0.00    -0.206 F 
ATOM     82  C   UNL A   1      42.602  21.593  28.124  1.00  0.00     0.059 A 
ATOM     83  C   UNL A   1      42.168  22.129  25.797  1.00  0.00     0.059 A 
ATOM     84  F   UNL A   1      42.594  24.294  25.004  1.00  0.00    -0.206 F 
ATOM     85  C   UNL A   1      42.179  21.215  26.849  1.00  0.00     0.060 A 
BRANCH  85  86
ATOM     86  S   UNL A   1      41.607  19.521  26.592  1.00  0.00     0.124 S 
ATOM     87  O   UNL A   1      42.842  18.848  26.208  1.00  0.00    -0.237 OA
ATOM     88  O   UNL A   1      41.073  19.177  27.907  1.00  0.00    -0.237 OA
ATOM     89  O   UNL A   1      40.609  19.660  25.537  1.00  0.00    -0.744 OA
ENDBRANCH  85  86
ENDBRANCH  53  78
BRANCH  65  90
ATOM     90  C   UNL A   1      49.009  27.249  26.084  1.00  0.00     0.058 A 
ATOM     91  C   UNL A   1      49.285  27.324  24.711  1.00  0.00     0.135 A 
ATOM     92  C   UNL A   1      50.034  26.809  26.939  1.00  0.00     0.135 A 
ATOM     93  F   UNL A   1      48.339  27.734  23.852  1.00  0.00    -0.206 F 
ATOM     94  C   UNL A   1      50.526  26.955  24.201  1.00  0.00     0.059 A 
ATOM     95  C   UNL A   1      51.291  26.465  26.454  1.00  0.00     0.059 A 
ATOM     96  F   UNL A   1      49.825  26.733  28.263  1.00  0.00    -0.206 F 
ATOM     97  C   UNL A   1      51.523  26.530  25.081  1.00  0.00     0.060 A 
BRANCH  97  98
ATOM     98  S   UNL A   1      53.139  26.088  24.409  1.00  0.00     0.124 S 
ATOM     99  O   UNL A   1      52.876  26.114  22.974  1.00  0.00    -0.237 OA
ATOM    100  O   UNL A   1      53.991  27.158  24.918  1.00  0.00    -0.237 OA
ATOM    101  O   UNL A   1      53.394  24.768  24.976  1.00  0.00    -0.744 OA
ENDBRANCH  97  98
ENDBRANCH  65  90
ENDBRANCH  39  40
ENDBRANCH  32  34
ENDBRANCH  31  32
ENDBRANCH  30  31
ENDBRANCH  29  30
ENDBRANCH  28  29
ENDBRANCH  27  28
ENDBRANCH   1  27
TORSDOF 27
ENDMDL
