MODEL 1
REMARK VINA RESULT:      -6.5      0.000      0.000
REMARK SMILES C[C@H](NC(=O)N1CCN(/C=C/c2ccccc2)CC1)C(=O)OCCOCCOCCOCCOC(=O)c1ccc(-c2c3nc(c(-c4c(F)cc(S(=O)(=O)[O-])cc4F)c4ccc([nH]4)c(-c4c(F)cc(S(=O)(=O)[O-])cc4F)c4nc(c(-c5c(F)cc(S(=O)(=O)[O-])cc5F)c5ccc2[nH]5)C=C4)C=C3)cc1
REMARK SMILES IDX 28 1 27 2 26 3 25 4 24 5 23 6 22 7 20 8 21 9 2 10 1 11 3 12
REMARK SMILES IDX 4 13 5 15 6 16 7 17 19 18 8 19 18 20 9 21 10 22 11 23 12 24
REMARK SMILES IDX 13 25 17 26 14 27 16 28 15 29 29 30 30 31 31 32 32 33 33 34
REMARK SMILES IDX 34 35 35 36 36 37 37 38 38 39 102 40 39 41 101 42 40 43
REMARK SMILES IDX 41 44 42 45 95 46 43 47 100 48 94 49 96 50 44 51 99 52 93 53
REMARK SMILES IDX 92 54 45 56 79 57 58 58 78 59 59 60 62 61 77 62 97 63 60 64
REMARK SMILES IDX 61 65 76 67 98 68 63 69 46 70 47 71 56 72 48 73 49 74 55 75
REMARK SMILES IDX 57 76 50 77 51 78 52 79 53 80 54 81 80 82 81 83 90 84 82 85
REMARK SMILES IDX 83 86 89 87 91 88 84 89 85 90 86 91 87 92 88 93 64 94 65 95
REMARK SMILES IDX 74 96 66 97 67 98 73 99 75 100 68 101 69 102 70 103 71 104
REMARK SMILES IDX 72 105
REMARK H PARENT 3 14 96 55 62 66
REMARK Flexibility Score: inf
ROOT
ATOM      1  O   UNL A   1      45.137  31.976  32.448  1.00  0.00    -0.377 OA
ENDROOT
BRANCH   1   2
ATOM      2  C   UNL A   1      46.114  31.500  33.347  1.00  0.00     0.188 C 
BRANCH   2   3
ATOM      3  C   UNL A   1      45.595  31.229  34.773  1.00  0.00     0.188 C 
BRANCH   3   4
ATOM      4  O   UNL A   1      44.908  30.029  35.108  1.00  0.00    -0.376 OA
BRANCH   4   5
ATOM      5  C   UNL A   1      44.551  29.734  36.452  1.00  0.00     0.202 C 
BRANCH   5   6
ATOM      6  C   UNL A   1      45.219  28.573  37.215  1.00  0.00     0.261 C 
BRANCH   6   7
ATOM      7  O   UNL A   1      45.082  27.268  36.625  1.00  0.00    -0.462 OA
BRANCH   7   8
ATOM      8  C   UNL A   1      43.820  26.794  36.505  1.00  0.00     0.328 C 
ATOM      9  O   UNL A   1      43.025  26.707  37.437  1.00  0.00    -0.250 OA
BRANCH   8  10
ATOM     10  C   UNL A   1      43.401  26.509  35.038  1.00  0.00     0.190 C 
ATOM     11  C   UNL A   1      42.141  27.281  34.673  1.00  0.00     0.043 C 
BRANCH  10  12
ATOM     12  N   UNL A   1      43.551  25.191  34.391  1.00  0.00    -0.325 N 
ATOM     13  C   UNL A   1      44.221  24.702  33.330  1.00  0.00     0.318 C 
ATOM     14  H   UNL A   1      43.030  24.494  34.852  1.00  0.00     0.166 HD
ATOM     15  O   UNL A   1      43.790  23.657  32.841  1.00  0.00    -0.249 OA
ATOM     16  N   UNL A   1      45.273  25.360  32.807  1.00  0.00    -0.321 N 
ATOM     17  C   UNL A   1      45.522  25.354  31.364  1.00  0.00     0.143 C 
ATOM     18  C   UNL A   1      46.296  26.054  33.560  1.00  0.00     0.143 C 
ATOM     19  C   UNL A   1      45.634  26.808  30.849  1.00  0.00     0.137 C 
ATOM     20  C   UNL A   1      46.323  27.521  33.139  1.00  0.00     0.137 C 
ATOM     21  N   UNL A   1      46.566  27.611  31.686  1.00  0.00    -0.374 N 
BRANCH  21  22
ATOM     22  C   UNL A   1      47.575  28.415  31.205  1.00  0.00     0.081 C 
ATOM     23  C   UNL A   1      48.897  28.363  31.397  1.00  0.00     0.025 C 
BRANCH  23  24
ATOM     24  C   UNL A   1      49.790  29.393  30.856  1.00  0.00    -0.024 A 
ATOM     25  C   UNL A   1      49.444  30.739  30.993  1.00  0.00     0.008 A 
ATOM     26  C   UNL A   1      50.953  29.055  30.144  1.00  0.00     0.008 A 
ATOM     27  C   UNL A   1      50.258  31.733  30.445  1.00  0.00     0.001 A 
ATOM     28  C   UNL A   1      51.768  30.049  29.602  1.00  0.00     0.001 A 
ATOM     29  C   UNL A   1      51.418  31.387  29.753  1.00  0.00     0.000 A 
ENDBRANCH  23  24
ENDBRANCH  21  22
ENDBRANCH  10  12
ENDBRANCH   8  10
ENDBRANCH   7   8
ENDBRANCH   6   7
ENDBRANCH   5   6
ENDBRANCH   4   5
ENDBRANCH   3   4
ENDBRANCH   2   3
ENDBRANCH   1   2
BRANCH   1  30
ATOM     30  C   UNL A   1      44.194  32.890  32.984  1.00  0.00     0.188 C 
BRANCH  30  31
ATOM     31  C   UNL A   1      44.451  34.385  32.709  1.00  0.00     0.188 C 
BRANCH  31  32
ATOM     32  O   UNL A   1      43.764  34.888  31.566  1.00  0.00    -0.376 OA
BRANCH  32  33
ATOM     33  C   UNL A   1      43.507  36.284  31.490  1.00  0.00     0.202 C 
BRANCH  33  34
ATOM     34  C   UNL A   1      44.222  37.076  30.381  1.00  0.00     0.261 C 
BRANCH  34  35
ATOM     35  O   UNL A   1      45.656  37.112  30.444  1.00  0.00    -0.460 OA
BRANCH  35  36
ATOM     36  C   UNL A   1      46.330  36.967  29.283  1.00  0.00     0.338 C 
ATOM     37  O   UNL A   1      46.852  37.848  28.630  1.00  0.00    -0.246 OA
BRANCH  36  38
ATOM     38  C   UNL A   1      46.521  35.522  29.035  1.00  0.00     0.060 A 
ATOM     39  C   UNL A   1      46.241  35.028  27.755  1.00  0.00     0.016 A 
ATOM     40  C   UNL A   1      46.937  34.659  30.053  1.00  0.00     0.016 A 
ATOM     41  C   UNL A   1      46.289  33.658  27.511  1.00  0.00     0.010 A 
ATOM     42  C   UNL A   1      46.964  33.281  29.813  1.00  0.00     0.010 A 
ATOM     43  C   UNL A   1      46.577  32.775  28.559  1.00  0.00    -0.014 A 
BRANCH  43  44
ATOM     44  C   UNL A   1      46.177  31.354  28.411  1.00  0.00     0.031 A 
ATOM     45  C   UNL A   1      44.742  30.997  28.707  1.00  0.00     0.074 A 
ATOM     46  C   UNL A   1      47.029  30.422  27.951  1.00  0.00     0.049 A 
ATOM     47  N   UNL A   1      44.133  29.844  28.616  1.00  0.00    -0.248 NA
ATOM     48  C   UNL A   1      43.875  32.096  29.168  1.00  0.00     0.031 C 
ATOM     49  C   UNL A   1      48.423  30.657  27.582  1.00  0.00     0.029 A 
ATOM     50  N   UNL A   1      46.835  29.085  27.706  1.00  0.00    -0.354 N 
ATOM     51  C   UNL A   1      42.822  30.077  29.019  1.00  0.00     0.074 A 
ATOM     52  C   UNL A   1      42.729  31.470  29.386  1.00  0.00     0.031 C 
ATOM     53  C   UNL A   1      48.961  29.499  27.155  1.00  0.00     0.029 A 
ATOM     54  C   UNL A   1      47.957  28.439  27.244  1.00  0.00     0.049 A 
ATOM     55  H   UNL A   1      45.973  28.631  27.849  1.00  0.00     0.167 HD
ATOM     56  C   UNL A   1      41.783  29.209  29.066  1.00  0.00     0.037 A 
ATOM     57  C   UNL A   1      48.147  27.141  26.938  1.00  0.00     0.037 A 
ATOM     58  C   UNL A   1      41.880  27.824  28.692  1.00  0.00     0.049 A 
ATOM     59  C   UNL A   1      46.989  26.179  27.053  1.00  0.00     0.074 A 
ATOM     60  C   UNL A   1      40.885  26.863  28.685  1.00  0.00     0.029 A 
ATOM     61  N   UNL A   1      43.043  27.199  28.265  1.00  0.00    -0.354 N 
ATOM     62  N   UNL A   1      45.749  26.415  27.414  1.00  0.00    -0.248 NA
ATOM     63  C   UNL A   1      47.255  24.776  26.706  1.00  0.00     0.031 C 
ATOM     64  C   UNL A   1      41.460  25.644  28.313  1.00  0.00     0.029 A 
ATOM     65  C   UNL A   1      42.797  25.859  28.017  1.00  0.00     0.049 A 
ATOM     66  H   UNL A   1      43.916  27.643  28.155  1.00  0.00     0.167 HD
ATOM     67  C   UNL A   1      45.077  25.201  27.291  1.00  0.00     0.074 A 
ATOM     68  C   UNL A   1      46.049  24.236  26.822  1.00  0.00     0.031 C 
ATOM     69  C   UNL A   1      43.773  24.913  27.534  1.00  0.00     0.037 A 
BRANCH  56  70
ATOM     70  C   UNL A   1      40.467  29.727  29.580  1.00  0.00     0.058 A 
ATOM     71  C   UNL A   1      40.233  29.950  30.947  1.00  0.00     0.135 A 
ATOM     72  C   UNL A   1      39.426  30.017  28.684  1.00  0.00     0.135 A 
ATOM     73  F   UNL A   1      41.184  29.669  31.853  1.00  0.00    -0.206 F 
ATOM     74  C   UNL A   1      39.003  30.413  31.409  1.00  0.00     0.059 A 
ATOM     75  C   UNL A   1      38.200  30.511  29.121  1.00  0.00     0.059 A 
ATOM     76  F   UNL A   1      39.592  29.817  27.367  1.00  0.00    -0.206 F 
ATOM     77  C   UNL A   1      37.994  30.690  30.487  1.00  0.00     0.060 A 
BRANCH  77  78
ATOM     78  S   UNL A   1      36.405  31.291  31.100  1.00  0.00     0.124 S 
ATOM     79  O   UNL A   1      36.049  30.247  32.057  1.00  0.00    -0.237 OA
ATOM     80  O   UNL A   1      36.763  32.583  31.676  1.00  0.00    -0.237 OA
ATOM     81  O   UNL A   1      35.577  31.350  29.900  1.00  0.00    -0.744 OA
ENDBRANCH  77  78
ENDBRANCH  56  70
BRANCH  57  82
ATOM     82  C   UNL A   1      49.482  26.667  26.478  1.00  0.00     0.058 A 
ATOM     83  C   UNL A   1      49.891  26.827  25.146  1.00  0.00     0.135 A 
ATOM     84  C   UNL A   1      50.373  26.037  27.362  1.00  0.00     0.135 A 
ATOM     85  F   UNL A   1      49.072  27.413  24.258  1.00  0.00    -0.206 F 
ATOM     86  C   UNL A   1      51.126  26.364  24.700  1.00  0.00     0.059 A 
ATOM     87  C   UNL A   1      51.624  25.592  26.946  1.00  0.00     0.059 A 
ATOM     88  F   UNL A   1      50.036  25.866  28.649  1.00  0.00    -0.206 F 
ATOM     89  C   UNL A   1      51.988  25.752  25.610  1.00  0.00     0.060 A 
BRANCH  89  90
ATOM     90  S   UNL A   1      53.608  25.201  25.033  1.00  0.00     0.124 S 
ATOM     91  O   UNL A   1      53.612  25.685  23.656  1.00  0.00    -0.237 OA
ATOM     92  O   UNL A   1      54.509  25.887  25.953  1.00  0.00    -0.237 OA
ATOM     93  O   UNL A   1      53.547  23.751  25.192  1.00  0.00    -0.744 OA
ENDBRANCH  89  90
ENDBRANCH  57  82
BRANCH  69  94
ATOM     94  C   UNL A   1      43.298  23.517  27.228  1.00  0.00     0.058 A 
ATOM     95  C   UNL A   1      43.047  22.572  28.235  1.00  0.00     0.135 A 
ATOM     96  C   UNL A   1      43.057  23.133  25.898  1.00  0.00     0.135 A 
ATOM     97  F   UNL A   1      43.258  22.885  29.524  1.00  0.00    -0.206 F 
ATOM     98  C   UNL A   1      42.617  21.283  27.932  1.00  0.00     0.059 A 
ATOM     99  C   UNL A   1      42.594  21.861  25.574  1.00  0.00     0.059 A 
ATOM    100  F   UNL A   1      43.263  24.000  24.895  1.00  0.00    -0.206 F 
ATOM    101  C   UNL A   1      42.396  20.937  26.597  1.00  0.00     0.060 A 
BRANCH 101 102
ATOM    102  S   UNL A   1      41.838  19.263  26.216  1.00  0.00     0.124 S 
ATOM    103  O   UNL A   1      42.691  18.920  25.083  1.00  0.00    -0.237 OA
ATOM    104  O   UNL A   1      42.118  18.550  27.459  1.00  0.00    -0.237 OA
ATOM    105  O   UNL A   1      40.422  19.438  25.906  1.00  0.00    -0.744 OA
ENDBRANCH 101 102
ENDBRANCH  69  94
ENDBRANCH  43  44
ENDBRANCH  36  38
ENDBRANCH  35  36
ENDBRANCH  34  35
ENDBRANCH  33  34
ENDBRANCH  32  33
ENDBRANCH  31  32
ENDBRANCH  30  31
ENDBRANCH   1  30
TORSDOF 26
ENDMDL
MODEL 2
REMARK VINA RESULT:      -6.4      3.092      9.053
REMARK SMILES C[C@H](NC(=O)N1CCN(/C=C/c2ccccc2)CC1)C(=O)OCCOCCOCCOCCOC(=O)c1ccc(-c2c3nc(c(-c4c(F)cc(S(=O)(=O)[O-])cc4F)c4ccc([nH]4)c(-c4c(F)cc(S(=O)(=O)[O-])cc4F)c4nc(c(-c5c(F)cc(S(=O)(=O)[O-])cc5F)c5ccc2[nH]5)C=C4)C=C3)cc1
REMARK SMILES IDX 28 1 27 2 26 3 25 4 24 5 23 6 22 7 20 8 21 9 2 10 1 11 3 12
REMARK SMILES IDX 4 13 5 15 6 16 7 17 19 18 8 19 18 20 9 21 10 22 11 23 12 24
REMARK SMILES IDX 13 25 17 26 14 27 16 28 15 29 29 30 30 31 31 32 32 33 33 34
REMARK SMILES IDX 34 35 35 36 36 37 37 38 38 39 102 40 39 41 101 42 40 43
REMARK SMILES IDX 41 44 42 45 95 46 43 47 100 48 94 49 96 50 44 51 99 52 93 53
REMARK SMILES IDX 92 54 45 56 79 57 58 58 78 59 59 60 62 61 77 62 97 63 60 64
REMARK SMILES IDX 61 65 76 67 98 68 63 69 46 70 47 71 56 72 48 73 49 74 55 75
REMARK SMILES IDX 57 76 50 77 51 78 52 79 53 80 54 81 80 82 81 83 90 84 82 85
REMARK SMILES IDX 83 86 89 87 91 88 84 89 85 90 86 91 87 92 88 93 64 94 65 95
REMARK SMILES IDX 74 96 66 97 67 98 73 99 75 100 68 101 69 102 70 103 71 104
REMARK SMILES IDX 72 105
REMARK H PARENT 3 14 96 55 62 66
REMARK Flexibility Score: inf
ROOT
ATOM      1  O   UNL A   1      33.341  36.975  29.812  1.00  0.00    -0.377 OA
ENDROOT
BRANCH   1   2
ATOM      2  C   UNL A   1      32.893  36.847  31.144  1.00  0.00     0.188 C 
BRANCH   2   3
ATOM      3  C   UNL A   1      33.567  35.713  31.941  1.00  0.00     0.188 C 
BRANCH   3   4
ATOM      4  O   UNL A   1      34.635  35.962  32.847  1.00  0.00    -0.376 OA
BRANCH   4   5
ATOM      5  C   UNL A   1      35.485  34.913  33.291  1.00  0.00     0.202 C 
BRANCH   5   6
ATOM      6  C   UNL A   1      36.145  33.946  32.287  1.00  0.00     0.261 C 
BRANCH   6   7
ATOM      7  O   UNL A   1      37.519  34.220  31.957  1.00  0.00    -0.462 OA
BRANCH   7   8
ATOM      8  C   UNL A   1      38.288  33.148  31.653  1.00  0.00     0.328 C 
ATOM      9  O   UNL A   1      38.527  32.774  30.508  1.00  0.00    -0.250 OA
BRANCH   8  10
ATOM     10  C   UNL A   1      38.980  32.510  32.887  1.00  0.00     0.190 C 
ATOM     11  C   UNL A   1      38.127  31.395  33.473  1.00  0.00     0.043 C 
BRANCH  10  12
ATOM     12  N   UNL A   1      39.777  33.283  33.860  1.00  0.00    -0.325 N 
ATOM     13  C   UNL A   1      40.776  33.018  34.723  1.00  0.00     0.318 C 
ATOM     14  H   UNL A   1      39.510  34.230  33.884  1.00  0.00     0.166 HD
ATOM     15  O   UNL A   1      40.912  33.800  35.665  1.00  0.00    -0.249 OA
ATOM     16  N   UNL A   1      41.543  31.920  34.584  1.00  0.00    -0.321 N 
ATOM     17  C   UNL A   1      42.042  31.198  35.757  1.00  0.00     0.143 C 
ATOM     18  C   UNL A   1      42.030  31.381  33.332  1.00  0.00     0.143 C 
ATOM     19  C   UNL A   1      41.643  29.706  35.656  1.00  0.00     0.137 C 
ATOM     20  C   UNL A   1      41.532  29.948  33.175  1.00  0.00     0.137 C 
ATOM     21  N   UNL A   1      41.988  29.141  34.323  1.00  0.00    -0.374 N 
BRANCH  21  22
ATOM     22  C   UNL A   1      42.650  27.952  34.111  1.00  0.00     0.081 C 
ATOM     23  C   UNL A   1      42.620  26.804  34.794  1.00  0.00     0.025 C 
BRANCH  23  24
ATOM     24  C   UNL A   1      43.491  25.678  34.440  1.00  0.00    -0.024 A 
ATOM     25  C   UNL A   1      43.746  25.409  33.093  1.00  0.00     0.008 A 
ATOM     26  C   UNL A   1      44.021  24.823  35.420  1.00  0.00     0.008 A 
ATOM     27  C   UNL A   1      44.536  24.315  32.733  1.00  0.00     0.001 A 
ATOM     28  C   UNL A   1      44.813  23.734  35.060  1.00  0.00     0.001 A 
ATOM     29  C   UNL A   1      45.069  23.481  33.715  1.00  0.00     0.000 A 
ENDBRANCH  23  24
ENDBRANCH  21  22
ENDBRANCH  10  12
ENDBRANCH   8  10
ENDBRANCH   7   8
ENDBRANCH   6   7
ENDBRANCH   5   6
ENDBRANCH   4   5
ENDBRANCH   3   4
ENDBRANCH   2   3
ENDBRANCH   1   2
BRANCH   1  30
ATOM     30  C   UNL A   1      32.979  35.921  28.933  1.00  0.00     0.188 C 
BRANCH  30  31
ATOM     31  C   UNL A   1      34.137  35.130  28.292  1.00  0.00     0.188 C 
BRANCH  31  32
ATOM     32  O   UNL A   1      34.706  34.144  29.149  1.00  0.00    -0.376 OA
BRANCH  32  33
ATOM     33  C   UNL A   1      35.031  32.875  28.599  1.00  0.00     0.202 C 
BRANCH  33  34
ATOM     34  C   UNL A   1      35.244  31.710  29.582  1.00  0.00     0.261 C 
BRANCH  34  35
ATOM     35  O   UNL A   1      36.095  30.644  29.135  1.00  0.00    -0.460 OA
BRANCH  35  36
ATOM     36  C   UNL A   1      36.665  29.869  30.083  1.00  0.00     0.338 C 
ATOM     37  O   UNL A   1      36.185  29.557  31.153  1.00  0.00    -0.246 OA
BRANCH  36  38
ATOM     38  C   UNL A   1      37.896  29.274  29.517  1.00  0.00     0.060 A 
ATOM     39  C   UNL A   1      38.627  28.386  30.314  1.00  0.00     0.016 A 
ATOM     40  C   UNL A   1      38.342  29.610  28.235  1.00  0.00     0.016 A 
ATOM     41  C   UNL A   1      39.854  27.899  29.869  1.00  0.00     0.010 A 
ATOM     42  C   UNL A   1      39.584  29.138  27.798  1.00  0.00     0.010 A 
ATOM     43  C   UNL A   1      40.370  28.334  28.642  1.00  0.00    -0.014 A 
BRANCH  43  44
ATOM     44  C   UNL A   1      41.827  28.189  28.402  1.00  0.00     0.031 A 
ATOM     45  C   UNL A   1      42.726  29.310  28.860  1.00  0.00     0.074 A 
ATOM     46  C   UNL A   1      42.351  27.070  27.873  1.00  0.00     0.049 A 
ATOM     47  N   UNL A   1      44.028  29.411  28.805  1.00  0.00    -0.248 NA
ATOM     48  C   UNL A   1      42.061  30.478  29.464  1.00  0.00     0.031 C 
ATOM     49  C   UNL A   1      41.590  25.899  27.442  1.00  0.00     0.029 A 
ATOM     50  N   UNL A   1      43.658  26.735  27.620  1.00  0.00    -0.354 N 
ATOM     51  C   UNL A   1      44.334  30.652  29.354  1.00  0.00     0.074 A 
ATOM     52  C   UNL A   1      43.083  31.283  29.705  1.00  0.00     0.031 C 
ATOM     53  C   UNL A   1      42.446  24.971  26.977  1.00  0.00     0.029 A 
ATOM     54  C   UNL A   1      43.811  25.491  27.055  1.00  0.00     0.049 A 
ATOM     55  H   UNL A   1      44.415  27.330  27.823  1.00  0.00     0.167 HD
ATOM     56  C   UNL A   1      45.549  31.212  29.559  1.00  0.00     0.037 A 
ATOM     57  C   UNL A   1      44.925  24.855  26.643  1.00  0.00     0.037 A 
ATOM     58  C   UNL A   1      46.791  30.575  29.215  1.00  0.00     0.049 A 
ATOM     59  C   UNL A   1      46.266  25.523  26.830  1.00  0.00     0.074 A 
ATOM     60  C   UNL A   1      48.079  31.046  29.396  1.00  0.00     0.029 A 
ATOM     61  N   UNL A   1      46.902  29.332  28.610  1.00  0.00    -0.354 N 
ATOM     62  N   UNL A   1      46.544  26.687  27.369  1.00  0.00    -0.248 NA
ATOM     63  C   UNL A   1      47.446  24.783  26.362  1.00  0.00     0.031 C 
ATOM     64  C   UNL A   1      48.966  30.116  28.846  1.00  0.00     0.029 A 
ATOM     65  C   UNL A   1      48.235  29.030  28.387  1.00  0.00     0.049 A 
ATOM     66  H   UNL A   1      46.144  28.749  28.372  1.00  0.00     0.167 HD
ATOM     67  C   UNL A   1      47.932  26.796  27.349  1.00  0.00     0.074 A 
ATOM     68  C   UNL A   1      48.434  25.580  26.745  1.00  0.00     0.031 C 
ATOM     69  C   UNL A   1      48.721  27.806  27.799  1.00  0.00     0.037 A 
BRANCH  56  70
ATOM     70  C   UNL A   1      45.587  32.598  30.146  1.00  0.00     0.058 A 
ATOM     71  C   UNL A   1      45.625  32.822  31.532  1.00  0.00     0.135 A 
ATOM     72  C   UNL A   1      45.599  33.720  29.303  1.00  0.00     0.135 A 
ATOM     73  F   UNL A   1      45.593  31.788  32.389  1.00  0.00    -0.206 F 
ATOM     74  C   UNL A   1      45.642  34.111  32.060  1.00  0.00     0.059 A 
ATOM     75  C   UNL A   1      45.648  35.016  29.808  1.00  0.00     0.059 A 
ATOM     76  F   UNL A   1      45.557  33.564  27.970  1.00  0.00    -0.206 F 
ATOM     77  C   UNL A   1      45.654  35.200  31.189  1.00  0.00     0.060 A 
BRANCH  77  78
ATOM     78  S   UNL A   1      45.677  36.865  31.888  1.00  0.00     0.124 S 
ATOM     79  O   UNL A   1      46.724  36.742  32.898  1.00  0.00    -0.237 OA
ATOM     80  O   UNL A   1      46.009  37.685  30.727  1.00  0.00    -0.237 OA
ATOM     81  O   UNL A   1      44.323  37.035  32.406  1.00  0.00    -0.744 OA
ENDBRANCH  77  78
ENDBRANCH  56  70
BRANCH  57  82
ATOM     82  C   UNL A   1      44.831  23.503  26.025  1.00  0.00     0.058 A 
ATOM     83  C   UNL A   1      44.992  23.323  24.644  1.00  0.00     0.135 A 
ATOM     84  C   UNL A   1      44.569  22.365  26.805  1.00  0.00     0.135 A 
ATOM     85  F   UNL A   1      45.232  24.380  23.852  1.00  0.00    -0.206 F 
ATOM     86  C   UNL A   1      44.880  22.068  24.053  1.00  0.00     0.059 A 
ATOM     87  C   UNL A   1      44.482  21.096  26.241  1.00  0.00     0.059 A 
ATOM     88  F   UNL A   1      44.415  22.479  28.132  1.00  0.00    -0.206 F 
ATOM     89  C   UNL A   1      44.629  20.958  24.861  1.00  0.00     0.060 A 
BRANCH  89  90
ATOM     90  S   UNL A   1      44.537  19.328  24.091  1.00  0.00     0.124 S 
ATOM     91  O   UNL A   1      45.794  18.726  24.522  1.00  0.00    -0.237 OA
ATOM     92  O   UNL A   1      43.326  18.775  24.692  1.00  0.00    -0.237 OA
ATOM     93  O   UNL A   1      44.437  19.633  22.667  1.00  0.00    -0.744 OA
ENDBRANCH  89  90
ENDBRANCH  57  82
BRANCH  69  94
ATOM     94  C   UNL A   1      50.213  27.612  27.725  1.00  0.00     0.058 A 
ATOM     95  C   UNL A   1      50.968  28.022  26.616  1.00  0.00     0.135 A 
ATOM     96  C   UNL A   1      50.900  27.034  28.805  1.00  0.00     0.135 A 
ATOM     97  F   UNL A   1      50.365  28.582  25.555  1.00  0.00    -0.206 F 
ATOM     98  C   UNL A   1      52.346  27.826  26.561  1.00  0.00     0.059 A 
ATOM     99  C   UNL A   1      52.281  26.860  28.787  1.00  0.00     0.059 A 
ATOM    100  F   UNL A   1      50.231  26.638  29.899  1.00  0.00    -0.206 F 
ATOM    101  C   UNL A   1      52.992  27.241  27.652  1.00  0.00     0.060 A 
BRANCH 101 102
ATOM    102  S   UNL A   1      54.778  26.992  27.572  1.00  0.00     0.124 S 
ATOM    103  O   UNL A   1      55.106  27.626  26.299  1.00  0.00    -0.237 OA
ATOM    104  O   UNL A   1      55.244  27.690  28.766  1.00  0.00    -0.237 OA
ATOM    105  O   UNL A   1      54.922  25.539  27.606  1.00  0.00    -0.744 OA
ENDBRANCH 101 102
ENDBRANCH  69  94
ENDBRANCH  43  44
ENDBRANCH  36  38
ENDBRANCH  35  36
ENDBRANCH  34  35
ENDBRANCH  33  34
ENDBRANCH  32  33
ENDBRANCH  31  32
ENDBRANCH  30  31
ENDBRANCH   1  30
TORSDOF 26
ENDMDL
MODEL 3
REMARK VINA RESULT:      -6.2      4.171     10.011
REMARK SMILES C[C@H](NC(=O)N1CCN(/C=C/c2ccccc2)CC1)C(=O)OCCOCCOCCOCCOC(=O)c1ccc(-c2c3nc(c(-c4c(F)cc(S(=O)(=O)[O-])cc4F)c4ccc([nH]4)c(-c4c(F)cc(S(=O)(=O)[O-])cc4F)c4nc(c(-c5c(F)cc(S(=O)(=O)[O-])cc5F)c5ccc2[nH]5)C=C4)C=C3)cc1
REMARK SMILES IDX 28 1 27 2 26 3 25 4 24 5 23 6 22 7 20 8 21 9 2 10 1 11 3 12
REMARK SMILES IDX 4 13 5 15 6 16 7 17 19 18 8 19 18 20 9 21 10 22 11 23 12 24
REMARK SMILES IDX 13 25 17 26 14 27 16 28 15 29 29 30 30 31 31 32 32 33 33 34
REMARK SMILES IDX 34 35 35 36 36 37 37 38 38 39 102 40 39 41 101 42 40 43
REMARK SMILES IDX 41 44 42 45 95 46 43 47 100 48 94 49 96 50 44 51 99 52 93 53
REMARK SMILES IDX 92 54 45 56 79 57 58 58 78 59 59 60 62 61 77 62 97 63 60 64
REMARK SMILES IDX 61 65 76 67 98 68 63 69 46 70 47 71 56 72 48 73 49 74 55 75
REMARK SMILES IDX 57 76 50 77 51 78 52 79 53 80 54 81 80 82 81 83 90 84 82 85
REMARK SMILES IDX 83 86 89 87 91 88 84 89 85 90 86 91 87 92 88 93 64 94 65 95
REMARK SMILES IDX 74 96 66 97 67 98 73 99 75 100 68 101 69 102 70 103 71 104
REMARK SMILES IDX 72 105
REMARK H PARENT 3 14 96 55 62 66
REMARK Flexibility Score: inf
ROOT
ATOM      1  O   UNL A   1      33.261  36.694  29.667  1.00  0.00    -0.377 OA
ENDROOT
BRANCH   1   2
ATOM      2  C   UNL A   1      32.616  36.631  30.920  1.00  0.00     0.188 C 
BRANCH   2   3
ATOM      3  C   UNL A   1      33.182  35.564  31.879  1.00  0.00     0.188 C 
BRANCH   3   4
ATOM      4  O   UNL A   1      34.084  35.898  32.927  1.00  0.00    -0.376 OA
BRANCH   4   5
ATOM      5  C   UNL A   1      34.932  34.918  33.510  1.00  0.00     0.202 C 
BRANCH   5   6
ATOM      6  C   UNL A   1      35.738  33.940  32.632  1.00  0.00     0.261 C 
BRANCH   6   7
ATOM      7  O   UNL A   1      37.061  34.368  32.263  1.00  0.00    -0.462 OA
BRANCH   7   8
ATOM      8  C   UNL A   1      37.729  33.570  31.397  1.00  0.00     0.328 C 
ATOM      9  O   UNL A   1      37.673  33.680  30.175  1.00  0.00    -0.250 OA
BRANCH   8  10
ATOM     10  C   UNL A   1      38.710  32.586  32.090  1.00  0.00     0.190 C 
ATOM     11  C   UNL A   1      40.007  32.468  31.304  1.00  0.00     0.043 C 
BRANCH  10  12
ATOM     12  N   UNL A   1      38.273  31.362  32.789  1.00  0.00    -0.325 N 
ATOM     13  C   UNL A   1      38.218  30.942  34.067  1.00  0.00     0.318 C 
ATOM     14  H   UNL A   1      37.939  30.680  32.162  1.00  0.00     0.166 HD
ATOM     15  O   UNL A   1      38.190  29.724  34.246  1.00  0.00    -0.249 OA
ATOM     16  N   UNL A   1      38.247  31.819  35.089  1.00  0.00    -0.321 N 
ATOM     17  C   UNL A   1      38.931  31.490  36.342  1.00  0.00     0.143 C 
ATOM     18  C   UNL A   1      37.573  33.099  35.126  1.00  0.00     0.143 C 
ATOM     19  C   UNL A   1      39.958  32.597  36.679  1.00  0.00     0.137 C 
ATOM     20  C   UNL A   1      38.603  34.204  35.336  1.00  0.00     0.137 C 
ATOM     21  N   UNL A   1      39.349  33.951  36.584  1.00  0.00    -0.374 N 
BRANCH  21  22
ATOM     22  C   UNL A   1      39.459  34.941  37.534  1.00  0.00     0.081 C 
ATOM     23  C   UNL A   1      39.877  34.890  38.802  1.00  0.00     0.025 C 
BRANCH  23  24
ATOM     24  C   UNL A   1      39.822  36.066  39.676  1.00  0.00    -0.024 A 
ATOM     25  C   UNL A   1      40.254  35.956  41.000  1.00  0.00     0.008 A 
ATOM     26  C   UNL A   1      39.283  37.285  39.232  1.00  0.00     0.008 A 
ATOM     27  C   UNL A   1      40.167  37.052  41.860  1.00  0.00     0.001 A 
ATOM     28  C   UNL A   1      39.202  38.381  40.091  1.00  0.00     0.001 A 
ATOM     29  C   UNL A   1      39.644  38.262  41.405  1.00  0.00     0.000 A 
ENDBRANCH  23  24
ENDBRANCH  21  22
ENDBRANCH  10  12
ENDBRANCH   8  10
ENDBRANCH   7   8
ENDBRANCH   6   7
ENDBRANCH   5   6
ENDBRANCH   4   5
ENDBRANCH   3   4
ENDBRANCH   2   3
ENDBRANCH   1   2
BRANCH   1  30
ATOM     30  C   UNL A   1      32.968  35.640  28.764  1.00  0.00     0.188 C 
BRANCH  30  31
ATOM     31  C   UNL A   1      34.164  34.799  28.275  1.00  0.00     0.188 C 
BRANCH  31  32
ATOM     32  O   UNL A   1      34.529  33.744  29.161  1.00  0.00    -0.376 OA
BRANCH  32  33
ATOM     33  C   UNL A   1      34.928  32.500  28.603  1.00  0.00     0.202 C 
BRANCH  33  34
ATOM     34  C   UNL A   1      35.159  31.329  29.577  1.00  0.00     0.261 C 
BRANCH  34  35
ATOM     35  O   UNL A   1      36.054  30.298  29.135  1.00  0.00    -0.460 OA
BRANCH  35  36
ATOM     36  C   UNL A   1      36.733  29.619  30.085  1.00  0.00     0.338 C 
ATOM     37  O   UNL A   1      36.338  29.334  31.197  1.00  0.00    -0.246 OA
BRANCH  36  38
ATOM     38  C   UNL A   1      37.970  29.083  29.477  1.00  0.00     0.060 A 
ATOM     39  C   UNL A   1      38.760  28.216  30.242  1.00  0.00     0.016 A 
ATOM     40  C   UNL A   1      38.366  29.452  28.189  1.00  0.00     0.016 A 
ATOM     41  C   UNL A   1      39.993  27.786  29.758  1.00  0.00     0.010 A 
ATOM     42  C   UNL A   1      39.613  29.037  27.711  1.00  0.00     0.010 A 
ATOM     43  C   UNL A   1      40.456  28.257  28.522  1.00  0.00    -0.014 A 
BRANCH  43  44
ATOM     44  C   UNL A   1      41.910  28.175  28.240  1.00  0.00     0.031 A 
ATOM     45  C   UNL A   1      42.766  29.352  28.638  1.00  0.00     0.074 A 
ATOM     46  C   UNL A   1      42.472  27.068  27.726  1.00  0.00     0.049 A 
ATOM     47  N   UNL A   1      44.060  29.513  28.539  1.00  0.00    -0.248 NA
ATOM     48  C   UNL A   1      42.063  30.503  29.231  1.00  0.00     0.031 C 
ATOM     49  C   UNL A   1      41.756  25.850  27.351  1.00  0.00     0.029 A 
ATOM     50  N   UNL A   1      43.786  26.789  27.439  1.00  0.00    -0.354 N 
ATOM     51  C   UNL A   1      44.320  30.784  29.044  1.00  0.00     0.074 A 
ATOM     52  C   UNL A   1      43.051  31.363  29.417  1.00  0.00     0.031 C 
ATOM     53  C   UNL A   1      42.642  24.951  26.884  1.00  0.00     0.029 A 
ATOM     54  C   UNL A   1      43.982  25.539  26.904  1.00  0.00     0.049 A 
ATOM     55  H   UNL A   1      44.519  27.427  27.602  1.00  0.00     0.167 HD
ATOM     56  C   UNL A   1      45.513  31.407  29.195  1.00  0.00     0.037 A 
ATOM     57  C   UNL A   1      45.113  24.946  26.475  1.00  0.00     0.037 A 
ATOM     58  C   UNL A   1      46.773  30.821  28.828  1.00  0.00     0.049 A 
ATOM     59  C   UNL A   1      46.424  25.683  26.600  1.00  0.00     0.074 A 
ATOM     60  C   UNL A   1      48.042  31.359  28.955  1.00  0.00     0.029 A 
ATOM     61  N   UNL A   1      46.927  29.568  28.254  1.00  0.00    -0.354 N 
ATOM     62  N   UNL A   1      46.661  26.874  27.098  1.00  0.00    -0.248 NA
ATOM     63  C   UNL A   1      47.625  24.988  26.115  1.00  0.00     0.031 C 
ATOM     64  C   UNL A   1      48.956  30.457  28.403  1.00  0.00     0.029 A 
ATOM     65  C   UNL A   1      48.266  29.325  27.997  1.00  0.00     0.049 A 
ATOM     66  H   UNL A   1      46.191  28.943  28.057  1.00  0.00     0.167 HD
ATOM     67  C   UNL A   1      48.041  27.050  27.031  1.00  0.00     0.074 A 
ATOM     68  C   UNL A   1      48.584  25.842  26.445  1.00  0.00     0.031 C 
ATOM     69  C   UNL A   1      48.793  28.109  27.428  1.00  0.00     0.037 A 
BRANCH  56  70
ATOM     70  C   UNL A   1      45.500  32.810  29.742  1.00  0.00     0.058 A 
ATOM     71  C   UNL A   1      45.608  33.077  31.117  1.00  0.00     0.135 A 
ATOM     72  C   UNL A   1      45.392  33.905  28.871  1.00  0.00     0.135 A 
ATOM     73  F   UNL A   1      45.691  32.068  32.000  1.00  0.00    -0.206 F 
ATOM     74  C   UNL A   1      45.577  34.379  31.609  1.00  0.00     0.059 A 
ATOM     75  C   UNL A   1      45.391  35.216  29.338  1.00  0.00     0.059 A 
ATOM     76  F   UNL A   1      45.280  33.707  27.548  1.00  0.00    -0.206 F 
ATOM     77  C   UNL A   1      45.469  35.441  30.711  1.00  0.00     0.060 A 
BRANCH  77  78
ATOM     78  S   UNL A   1      45.431  37.124  31.364  1.00  0.00     0.124 S 
ATOM     79  O   UNL A   1      46.139  37.858  30.319  1.00  0.00    -0.237 OA
ATOM     80  O   UNL A   1      43.999  37.386  31.465  1.00  0.00    -0.237 OA
ATOM     81  O   UNL A   1      46.136  37.011  32.637  1.00  0.00    -0.744 OA
ENDBRANCH  77  78
ENDBRANCH  56  70
BRANCH  57  82
ATOM     82  C   UNL A   1      45.067  23.574  25.897  1.00  0.00     0.058 A 
ATOM     83  C   UNL A   1      45.423  22.452  26.660  1.00  0.00     0.135 A 
ATOM     84  C   UNL A   1      44.673  23.359  24.566  1.00  0.00     0.135 A 
ATOM     85  F   UNL A   1      45.817  22.604  27.934  1.00  0.00    -0.206 F 
ATOM     86  C   UNL A   1      45.408  21.168  26.121  1.00  0.00     0.059 A 
ATOM     87  C   UNL A   1      44.623  22.083  24.014  1.00  0.00     0.059 A 
ATOM     88  F   UNL A   1      44.314  24.397  23.795  1.00  0.00    -0.206 F 
ATOM     89  C   UNL A   1      45.002  20.993  24.798  1.00  0.00     0.060 A 
BRANCH  89  90
ATOM     90  S   UNL A   1      44.938  19.319  24.125  1.00  0.00     0.124 S 
ATOM     91  O   UNL A   1      44.119  18.632  25.118  1.00  0.00    -0.237 OA
ATOM     92  O   UNL A   1      44.314  19.537  22.823  1.00  0.00    -0.237 OA
ATOM     93  O   UNL A   1      46.342  18.921  24.079  1.00  0.00    -0.744 OA
ENDBRANCH  89  90
ENDBRANCH  57  82
BRANCH  69  94
ATOM     94  C   UNL A   1      50.289  27.985  27.311  1.00  0.00     0.058 A 
ATOM     95  C   UNL A   1      50.969  28.214  26.105  1.00  0.00     0.135 A 
ATOM     96  C   UNL A   1      51.057  27.664  28.443  1.00  0.00     0.135 A 
ATOM     97  F   UNL A   1      50.287  28.525  24.991  1.00  0.00    -0.206 F 
ATOM     98  C   UNL A   1      52.353  28.086  26.015  1.00  0.00     0.059 A 
ATOM     99  C   UNL A   1      52.444  27.565  28.385  1.00  0.00     0.059 A 
ATOM    100  F   UNL A   1      50.462  27.452  29.627  1.00  0.00    -0.206 F 
ATOM    101  C   UNL A   1      53.081  27.758  27.161  1.00  0.00     0.060 A 
BRANCH 101 102
ATOM    102  S   UNL A   1      54.874  27.595  27.033  1.00  0.00     0.124 S 
ATOM    103  O   UNL A   1      55.078  27.719  25.593  1.00  0.00    -0.237 OA
ATOM    104  O   UNL A   1      55.347  28.716  27.839  1.00  0.00    -0.237 OA
ATOM    105  O   UNL A   1      55.137  26.273  27.593  1.00  0.00    -0.744 OA
ENDBRANCH 101 102
ENDBRANCH  69  94
ENDBRANCH  43  44
ENDBRANCH  36  38
ENDBRANCH  35  36
ENDBRANCH  34  35
ENDBRANCH  33  34
ENDBRANCH  32  33
ENDBRANCH  31  32
ENDBRANCH  30  31
ENDBRANCH   1  30
TORSDOF 26
ENDMDL
