MODEL 1
REMARK VINA RESULT:      -7.9      0.000      0.000
REMARK SMILES O=C(OCCOCCOCCOCCOC(=O)c1cccc([C@@H]2CCC[N@@H+](Cc3cccc(OCCO)c3)C2)c1)c1ccc(-c2c3nc(c(-c4c(F)cc(S(=O)(=O)[O-])cc4F)c4ccc([nH]4)c(-c4c(F)cc(S(=O)(=O)[O-])cc4F)c4nc(c(-c5c(F)cc(S(=O)(=O)[O-])cc5F)c5ccc2[nH]5)C=C4)C=C3)cc1
REMARK SMILES IDX 11 1 10 2 9 3 8 4 7 5 6 6 5 7 4 8 3 9 2 10 1 11 41 12 42 13
REMARK SMILES IDX 106 14 43 15 105 16 44 17 45 18 46 19 99 20 47 21 104 22
REMARK SMILES IDX 98 23 100 24 48 25 103 26 97 27 96 28 49 30 83 31 62 32
REMARK SMILES IDX 82 33 63 34 66 35 81 36 101 37 64 38 65 39 80 41 102 42
REMARK SMILES IDX 67 43 50 44 51 45 60 46 52 47 53 48 59 49 61 50 54 51 55 52
REMARK SMILES IDX 56 53 57 54 58 55 84 56 85 57 94 58 86 59 87 60 93 61 95 62
REMARK SMILES IDX 88 63 89 64 90 65 91 66 92 67 68 68 69 69 78 70 70 71 71 72
REMARK SMILES IDX 77 73 79 74 72 75 73 76 74 77 75 78 76 79 12 80 13 81 14 82
REMARK SMILES IDX 15 83 16 84 17 85 18 86 19 87 40 88 20 89 22 90 21 91 23 92
REMARK SMILES IDX 24 93 39 94 25 95 27 96 26 97 28 99 29 100 30 101 38 102
REMARK SMILES IDX 31 103 33 104 32 105 34 106 35 107 36 108 37 109
REMARK H PARENT 100 29 66 40 27 98 37 110
REMARK Flexibility Score: inf
ROOT
ATOM      1  C   UNL A   1      40.610  25.319  27.613  1.00  0.00     0.188 C 
ENDROOT
BRANCH   1   2
ATOM      2  C   UNL A   1      40.978  23.917  27.067  1.00  0.00     0.188 C 
BRANCH   2   3
ATOM      3  O   UNL A   1      41.518  22.945  27.959  1.00  0.00    -0.377 OA
BRANCH   3   4
ATOM      4  C   UNL A   1      42.395  21.977  27.386  1.00  0.00     0.188 C 
BRANCH   4   5
ATOM      5  C   UNL A   1      41.819  21.224  26.187  1.00  0.00     0.188 C 
BRANCH   5   6
ATOM      6  O   UNL A   1      42.862  20.961  25.256  1.00  0.00    -0.376 OA
BRANCH   6   7
ATOM      7  C   UNL A   1      44.136  21.538  25.498  1.00  0.00     0.202 C 
BRANCH   7   8
ATOM      8  C   UNL A   1      45.004  21.720  24.256  1.00  0.00     0.261 C 
BRANCH   8   9
ATOM      9  O   UNL A   1      45.174  23.093  23.870  1.00  0.00    -0.460 OA
BRANCH   9  10
ATOM     10  C   UNL A   1      46.091  23.984  24.327  1.00  0.00     0.338 C 
ATOM     11  O   UNL A   1      47.194  24.026  23.784  1.00  0.00    -0.246 OA
BRANCH  10  12
ATOM     12  C   UNL A   1      45.812  24.962  25.414  1.00  0.00     0.060 A 
ATOM     13  C   UNL A   1      46.765  25.786  26.009  1.00  0.00     0.016 A 
ATOM     14  C   UNL A   1      44.474  25.126  25.799  1.00  0.00     0.016 A 
ATOM     15  C   UNL A   1      46.449  26.622  27.065  1.00  0.00     0.010 A 
ATOM     16  C   UNL A   1      44.129  26.027  26.811  1.00  0.00     0.010 A 
ATOM     17  C   UNL A   1      45.133  26.730  27.492  1.00  0.00    -0.014 A 
BRANCH  17  18
ATOM     18  C   UNL A   1      44.875  27.415  28.773  1.00  0.00     0.031 A 
ATOM     19  C   UNL A   1      45.066  26.617  30.031  1.00  0.00     0.074 A 
ATOM     20  C   UNL A   1      44.635  28.739  28.805  1.00  0.00     0.049 A 
ATOM     21  N   UNL A   1      44.814  26.943  31.268  1.00  0.00    -0.248 NA
ATOM     22  C   UNL A   1      45.620  25.259  29.870  1.00  0.00     0.031 C 
ATOM     23  C   UNL A   1      44.584  29.620  27.633  1.00  0.00     0.029 A 
ATOM     24  N   UNL A   1      44.432  29.585  29.861  1.00  0.00    -0.354 N 
ATOM     25  C   UNL A   1      45.109  25.810  32.018  1.00  0.00     0.074 A 
ATOM     26  C   UNL A   1      45.563  24.790  31.105  1.00  0.00     0.031 C 
ATOM     27  C   UNL A   1      44.412  30.887  28.041  1.00  0.00     0.029 A 
ATOM     28  C   UNL A   1      44.247  30.896  29.489  1.00  0.00     0.049 A 
ATOM     29  H   UNL A   1      44.421  29.284  30.798  1.00  0.00     0.167 HD
ATOM     30  C   UNL A   1      44.995  25.644  33.356  1.00  0.00     0.037 A 
ATOM     31  C   UNL A   1      43.939  31.969  30.243  1.00  0.00     0.037 A 
ATOM     32  C   UNL A   1      44.579  26.702  34.233  1.00  0.00     0.049 A 
ATOM     33  C   UNL A   1      43.753  31.748  31.721  1.00  0.00     0.074 A 
ATOM     34  C   UNL A   1      44.368  26.668  35.597  1.00  0.00     0.029 A 
ATOM     35  N   UNL A   1      44.325  28.005  33.816  1.00  0.00    -0.354 N 
ATOM     36  N   UNL A   1      43.924  30.645  32.416  1.00  0.00    -0.248 NA
ATOM     37  C   UNL A   1      43.309  32.899  32.513  1.00  0.00     0.031 C 
ATOM     38  C   UNL A   1      43.946  27.942  35.997  1.00  0.00     0.029 A 
ATOM     39  C   UNL A   1      43.945  28.782  34.893  1.00  0.00     0.049 A 
ATOM     40  H   UNL A   1      44.403  28.326  32.888  1.00  0.00     0.167 HD
ATOM     41  C   UNL A   1      43.623  30.973  33.731  1.00  0.00     0.074 A 
ATOM     42  C   UNL A   1      43.277  32.382  33.735  1.00  0.00     0.031 C 
ATOM     43  C   UNL A   1      43.625  30.188  34.838  1.00  0.00     0.037 A 
BRANCH  30  44
ATOM     44  C   UNL A   1      45.235  24.263  33.899  1.00  0.00     0.058 A 
ATOM     45  C   UNL A   1      44.193  23.352  34.141  1.00  0.00     0.135 A 
ATOM     46  C   UNL A   1      46.538  23.869  34.247  1.00  0.00     0.135 A 
ATOM     47  F   UNL A   1      42.924  23.690  33.863  1.00  0.00    -0.206 F 
ATOM     48  C   UNL A   1      44.429  22.120  34.745  1.00  0.00     0.059 A 
ATOM     49  C   UNL A   1      46.801  22.631  34.827  1.00  0.00     0.059 A 
ATOM     50  F   UNL A   1      47.571  24.704  34.053  1.00  0.00    -0.206 F 
ATOM     51  C   UNL A   1      45.736  21.772  35.092  1.00  0.00     0.060 A 
BRANCH  51  52
ATOM     52  S   UNL A   1      46.025  20.188  35.909  1.00  0.00     0.124 S 
ATOM     53  O   UNL A   1      45.087  19.321  35.203  1.00  0.00    -0.237 OA
ATOM     54  O   UNL A   1      47.438  19.947  35.634  1.00  0.00    -0.237 OA
ATOM     55  O   UNL A   1      45.699  20.462  37.305  1.00  0.00    -0.744 OA
ENDBRANCH  51  52
ENDBRANCH  30  44
BRANCH  31  56
ATOM     56  C   UNL A   1      43.739  33.307  29.617  1.00  0.00     0.058 A 
ATOM     57  C   UNL A   1      42.455  33.833  29.411  1.00  0.00     0.135 A 
ATOM     58  C   UNL A   1      44.832  34.094  29.215  1.00  0.00     0.135 A 
ATOM     59  F   UNL A   1      41.374  33.123  29.767  1.00  0.00    -0.206 F 
ATOM     60  C   UNL A   1      42.260  35.081  28.820  1.00  0.00     0.059 A 
ATOM     61  C   UNL A   1      44.664  35.356  28.650  1.00  0.00     0.059 A 
ATOM     62  F   UNL A   1      46.085  33.648  29.393  1.00  0.00    -0.206 F 
ATOM     63  C   UNL A   1      43.373  35.835  28.444  1.00  0.00     0.060 A 
BRANCH  63  64
ATOM     64  S   UNL A   1      43.114  37.464  27.708  1.00  0.00     0.124 S 
ATOM     65  O   UNL A   1      44.475  37.985  27.663  1.00  0.00    -0.237 OA
ATOM     66  O   UNL A   1      42.516  37.130  26.420  1.00  0.00    -0.237 OA
ATOM     67  O   UNL A   1      42.218  38.123  28.654  1.00  0.00    -0.744 OA
ENDBRANCH  63  64
ENDBRANCH  31  56
BRANCH  43  68
ATOM     68  C   UNL A   1      43.286  30.856  36.138  1.00  0.00     0.058 A 
ATOM     69  C   UNL A   1      44.282  31.339  36.999  1.00  0.00     0.135 A 
ATOM     70  C   UNL A   1      41.944  31.057  36.494  1.00  0.00     0.135 A 
ATOM     71  F   UNL A   1      45.579  31.162  36.700  1.00  0.00    -0.206 F 
ATOM     72  C   UNL A   1      43.957  31.982  38.186  1.00  0.00     0.059 A 
ATOM     73  C   UNL A   1      41.596  31.723  37.661  1.00  0.00     0.059 A 
ATOM     74  F   UNL A   1      40.958  30.623  35.692  1.00  0.00    -0.206 F 
ATOM     75  C   UNL A   1      42.611  32.170  38.508  1.00  0.00     0.060 A 
BRANCH  75  76
ATOM     76  S   UNL A   1      42.199  33.034  40.036  1.00  0.00     0.124 S 
ATOM     77  O   UNL A   1      41.905  34.375  39.544  1.00  0.00    -0.237 OA
ATOM     78  O   UNL A   1      41.054  32.273  40.527  1.00  0.00    -0.237 OA
ATOM     79  O   UNL A   1      43.415  32.909  40.835  1.00  0.00    -0.744 OA
ENDBRANCH  75  76
ENDBRANCH  43  68
ENDBRANCH  17  18
ENDBRANCH  10  12
ENDBRANCH   9  10
ENDBRANCH   8   9
ENDBRANCH   7   8
ENDBRANCH   6   7
ENDBRANCH   5   6
ENDBRANCH   4   5
ENDBRANCH   3   4
ENDBRANCH   2   3
ENDBRANCH   1   2
BRANCH   1  80
ATOM     80  O   UNL A   1      40.429  26.319  26.619  1.00  0.00    -0.376 OA
BRANCH  80  81
ATOM     81  C   UNL A   1      41.042  27.577  26.894  1.00  0.00     0.202 C 
BRANCH  81  82
ATOM     82  C   UNL A   1      40.057  28.746  26.976  1.00  0.00     0.261 C 
BRANCH  82  83
ATOM     83  O   UNL A   1      39.806  29.214  28.308  1.00  0.00    -0.460 OA
BRANCH  83  84
ATOM     84  C   UNL A   1      38.579  29.688  28.626  1.00  0.00     0.338 C 
ATOM     85  O   UNL A   1      37.642  29.890  27.876  1.00  0.00    -0.246 OA
BRANCH  84  86
ATOM     86  C   UNL A   1      38.513  29.726  30.106  1.00  0.00     0.060 A 
ATOM     87  C   UNL A   1      38.156  28.602  30.852  1.00  0.00     0.016 A 
ATOM     88  C   UNL A   1      38.933  30.879  30.758  1.00  0.00     0.020 A 
ATOM     89  C   UNL A   1      38.242  28.650  32.248  1.00  0.00     0.001 A 
ATOM     90  C   UNL A   1      38.875  30.993  32.145  1.00  0.00    -0.038 A 
ATOM     91  C   UNL A   1      38.579  29.846  32.893  1.00  0.00     0.004 A 
BRANCH  90  92
ATOM     92  C   UNL A   1      38.991  32.360  32.790  1.00  0.00     0.074 C 
ATOM     93  C   UNL A   1      38.700  32.262  34.302  1.00  0.00     0.020 C 
ATOM     94  C   UNL A   1      38.137  33.465  32.140  1.00  0.00     0.270 C 
ATOM     95  C   UNL A   1      37.209  32.266  34.644  1.00  0.00     0.062 C 
ATOM     96  N   UNL A   1      36.704  33.446  32.467  1.00  0.00    -0.331 N 
ATOM     97  C   UNL A   1      36.441  33.366  33.910  1.00  0.00     0.262 C 
ATOM     98  H   UNL A   1      36.344  32.577  32.072  1.00  0.00     0.348 HD
BRANCH  96  99
ATOM     99  C   UNL A   1      35.950  34.544  31.809  1.00  0.00     0.299 C 
BRANCH  99 100
ATOM    100  C   UNL A   1      34.958  34.087  30.747  1.00  0.00     0.010 A 
ATOM    101  C   UNL A   1      34.015  34.981  30.220  1.00  0.00     0.010 A 
ATOM    102  C   UNL A   1      35.093  32.818  30.161  1.00  0.00     0.056 A 
ATOM    103  C   UNL A   1      33.292  34.636  29.078  1.00  0.00     0.004 A 
ATOM    104  C   UNL A   1      34.462  32.515  28.958  1.00  0.00     0.119 A 
ATOM    105  C   UNL A   1      33.538  33.421  28.435  1.00  0.00     0.046 A 
BRANCH 104 106
ATOM    106  O   UNL A   1      34.708  31.413  28.185  1.00  0.00    -0.491 OA
BRANCH 106 107
ATOM    107  C   UNL A   1      33.657  30.900  27.352  1.00  0.00     0.257 C 
BRANCH 107 108
ATOM    108  C   UNL A   1      33.867  29.427  26.983  1.00  0.00     0.197 C 
BRANCH 108 109
ATOM    109  O   UNL A   1      35.169  28.958  27.304  1.00  0.00    -0.393 OA
ATOM    110  H   UNL A   1      35.110  28.049  27.639  1.00  0.00     0.210 HD
ENDBRANCH 108 109
ENDBRANCH 107 108
ENDBRANCH 106 107
ENDBRANCH 104 106
ENDBRANCH  99 100
ENDBRANCH  96  99
ENDBRANCH  90  92
ENDBRANCH  84  86
ENDBRANCH  83  84
ENDBRANCH  82  83
ENDBRANCH  81  82
ENDBRANCH  80  81
ENDBRANCH   1  80
TORSDOF 30
ENDMDL
MODEL 2
REMARK VINA RESULT:      -7.8      1.842      2.789
REMARK SMILES O=C(OCCOCCOCCOCCOC(=O)c1cccc([C@@H]2CCC[N@@H+](Cc3cccc(OCCO)c3)C2)c1)c1ccc(-c2c3nc(c(-c4c(F)cc(S(=O)(=O)[O-])cc4F)c4ccc([nH]4)c(-c4c(F)cc(S(=O)(=O)[O-])cc4F)c4nc(c(-c5c(F)cc(S(=O)(=O)[O-])cc5F)c5ccc2[nH]5)C=C4)C=C3)cc1
REMARK SMILES IDX 11 1 10 2 9 3 8 4 7 5 6 6 5 7 4 8 3 9 2 10 1 11 41 12 42 13
REMARK SMILES IDX 106 14 43 15 105 16 44 17 45 18 46 19 99 20 47 21 104 22
REMARK SMILES IDX 98 23 100 24 48 25 103 26 97 27 96 28 49 30 83 31 62 32
REMARK SMILES IDX 82 33 63 34 66 35 81 36 101 37 64 38 65 39 80 41 102 42
REMARK SMILES IDX 67 43 50 44 51 45 60 46 52 47 53 48 59 49 61 50 54 51 55 52
REMARK SMILES IDX 56 53 57 54 58 55 84 56 85 57 94 58 86 59 87 60 93 61 95 62
REMARK SMILES IDX 88 63 89 64 90 65 91 66 92 67 68 68 69 69 78 70 70 71 71 72
REMARK SMILES IDX 77 73 79 74 72 75 73 76 74 77 75 78 76 79 12 80 13 81 14 82
REMARK SMILES IDX 15 83 16 84 17 85 18 86 19 87 40 88 20 89 22 90 21 91 23 92
REMARK SMILES IDX 24 93 39 94 25 95 27 96 26 97 28 99 29 100 30 101 38 102
REMARK SMILES IDX 31 103 33 104 32 105 34 106 35 107 36 108 37 109
REMARK H PARENT 100 29 66 40 27 98 37 110
REMARK Flexibility Score: inf
ROOT
ATOM      1  C   UNL A   1      41.054  26.140  26.519  1.00  0.00     0.188 C 
ENDROOT
BRANCH   1   2
ATOM      2  C   UNL A   1      41.843  24.875  26.100  1.00  0.00     0.188 C 
BRANCH   2   3
ATOM      3  O   UNL A   1      41.750  23.701  26.903  1.00  0.00    -0.377 OA
BRANCH   3   4
ATOM      4  C   UNL A   1      42.981  23.063  27.237  1.00  0.00     0.188 C 
BRANCH   4   5
ATOM      5  C   UNL A   1      43.425  21.979  26.255  1.00  0.00     0.188 C 
BRANCH   5   6
ATOM      6  O   UNL A   1      44.759  22.244  25.838  1.00  0.00    -0.376 OA
BRANCH   6   7
ATOM      7  C   UNL A   1      45.254  23.567  25.981  1.00  0.00     0.202 C 
BRANCH   7   8
ATOM      8  C   UNL A   1      46.521  23.867  25.185  1.00  0.00     0.261 C 
BRANCH   8   9
ATOM      9  O   UNL A   1      46.430  25.057  24.387  1.00  0.00    -0.460 OA
BRANCH   9  10
ATOM     10  C   UNL A   1      47.008  26.264  24.616  1.00  0.00     0.338 C 
ATOM     11  O   UNL A   1      47.964  26.603  23.920  1.00  0.00    -0.246 OA
BRANCH  10  12
ATOM     12  C   UNL A   1      46.505  27.234  25.627  1.00  0.00     0.060 A 
ATOM     13  C   UNL A   1      47.301  28.135  26.333  1.00  0.00     0.016 A 
ATOM     14  C   UNL A   1      45.117  27.305  25.811  1.00  0.00     0.016 A 
ATOM     15  C   UNL A   1      46.777  28.959  27.312  1.00  0.00     0.010 A 
ATOM     16  C   UNL A   1      44.566  28.192  26.741  1.00  0.00     0.010 A 
ATOM     17  C   UNL A   1      45.407  28.977  27.542  1.00  0.00    -0.014 A 
BRANCH  17  18
ATOM     18  C   UNL A   1      44.918  29.659  28.755  1.00  0.00     0.031 A 
ATOM     19  C   UNL A   1      45.036  28.918  30.056  1.00  0.00     0.074 A 
ATOM     20  C   UNL A   1      44.533  30.948  28.707  1.00  0.00     0.049 A 
ATOM     21  N   UNL A   1      44.597  29.243  31.240  1.00  0.00    -0.248 NA
ATOM     22  C   UNL A   1      45.751  27.628  30.015  1.00  0.00     0.031 C 
ATOM     23  C   UNL A   1      44.534  31.789  27.505  1.00  0.00     0.029 A 
ATOM     24  N   UNL A   1      44.108  31.791  29.698  1.00  0.00    -0.354 N 
ATOM     25  C   UNL A   1      44.917  28.169  32.063  1.00  0.00     0.074 A 
ATOM     26  C   UNL A   1      45.590  27.185  31.251  1.00  0.00     0.031 C 
ATOM     27  C   UNL A   1      44.175  33.038  27.841  1.00  0.00     0.029 A 
ATOM     28  C   UNL A   1      43.829  33.063  29.257  1.00  0.00     0.049 A 
ATOM     29  H   UNL A   1      44.013  31.513  30.637  1.00  0.00     0.167 HD
ATOM     30  C   UNL A   1      44.655  28.023  33.382  1.00  0.00     0.037 A 
ATOM     31  C   UNL A   1      43.314  34.112  29.926  1.00  0.00     0.037 A 
ATOM     32  C   UNL A   1      44.020  29.049  34.161  1.00  0.00     0.049 A 
ATOM     33  C   UNL A   1      42.970  33.907  31.378  1.00  0.00     0.074 A 
ATOM     34  C   UNL A   1      43.644  29.024  35.490  1.00  0.00     0.029 A 
ATOM     35  N   UNL A   1      43.679  30.304  33.667  1.00  0.00    -0.354 N 
ATOM     36  N   UNL A   1      43.172  32.848  32.130  1.00  0.00    -0.248 NA
ATOM     37  C   UNL A   1      42.308  35.020  32.066  1.00  0.00     0.031 C 
ATOM     38  C   UNL A   1      43.040  30.251  35.787  1.00  0.00     0.029 A 
ATOM     39  C   UNL A   1      43.085  31.059  34.660  1.00  0.00     0.049 A 
ATOM     40  H   UNL A   1      43.838  30.610  32.744  1.00  0.00     0.167 HD
ATOM     41  C   UNL A   1      42.675  33.171  33.385  1.00  0.00     0.074 A 
ATOM     42  C   UNL A   1      42.180  34.532  33.293  1.00  0.00     0.031 C 
ATOM     43  C   UNL A   1      42.623  32.418  34.513  1.00  0.00     0.037 A 
BRANCH  30  44
ATOM     44  C   UNL A   1      44.975  26.692  34.002  1.00  0.00     0.058 A 
ATOM     45  C   UNL A   1      44.068  25.619  34.002  1.00  0.00     0.135 A 
ATOM     46  C   UNL A   1      46.197  26.511  34.671  1.00  0.00     0.135 A 
ATOM     47  F   UNL A   1      42.869  25.749  33.411  1.00  0.00    -0.206 F 
ATOM     48  C   UNL A   1      44.344  24.433  34.676  1.00  0.00     0.059 A 
ATOM     49  C   UNL A   1      46.506  25.324  35.328  1.00  0.00     0.059 A 
ATOM     50  F   UNL A   1      47.096  27.507  34.716  1.00  0.00    -0.206 F 
ATOM     51  C   UNL A   1      45.563  24.297  35.344  1.00  0.00     0.060 A 
BRANCH  51  52
ATOM     52  S   UNL A   1      45.893  22.769  36.247  1.00  0.00     0.124 S 
ATOM     53  O   UNL A   1      45.651  23.187  37.624  1.00  0.00    -0.237 OA
ATOM     54  O   UNL A   1      44.908  21.852  35.681  1.00  0.00    -0.237 OA
ATOM     55  O   UNL A   1      47.283  22.473  35.915  1.00  0.00    -0.744 OA
ENDBRANCH  51  52
ENDBRANCH  30  44
BRANCH  31  56
ATOM     56  C   UNL A   1      43.050  35.404  29.231  1.00  0.00     0.058 A 
ATOM     57  C   UNL A   1      41.799  35.684  28.662  1.00  0.00     0.135 A 
ATOM     58  C   UNL A   1      44.044  36.391  29.125  1.00  0.00     0.135 A 
ATOM     59  F   UNL A   1      40.814  34.776  28.725  1.00  0.00    -0.206 F 
ATOM     60  C   UNL A   1      41.546  36.887  28.004  1.00  0.00     0.059 A 
ATOM     61  C   UNL A   1      43.808  37.612  28.498  1.00  0.00     0.059 A 
ATOM     62  F   UNL A   1      45.260  36.184  29.656  1.00  0.00    -0.206 F 
ATOM     63  C   UNL A   1      42.558  37.846  27.929  1.00  0.00     0.060 A 
BRANCH  63  64
ATOM     64  S   UNL A   1      42.215  39.415  27.102  1.00  0.00     0.124 S 
ATOM     65  O   UNL A   1      41.818  40.257  28.224  1.00  0.00    -0.237 OA
ATOM     66  O   UNL A   1      43.502  39.731  26.492  1.00  0.00    -0.237 OA
ATOM     67  O   UNL A   1      41.150  39.074  26.162  1.00  0.00    -0.744 OA
ENDBRANCH  63  64
ENDBRANCH  31  56
BRANCH  43  68
ATOM     68  C   UNL A   1      42.054  33.074  35.736  1.00  0.00     0.058 A 
ATOM     69  C   UNL A   1      40.688  32.994  36.046  1.00  0.00     0.135 A 
ATOM     70  C   UNL A   1      42.901  33.745  36.631  1.00  0.00     0.135 A 
ATOM     71  F   UNL A   1      39.841  32.367  35.214  1.00  0.00    -0.206 F 
ATOM     72  C   UNL A   1      40.175  33.581  37.195  1.00  0.00     0.059 A 
ATOM     73  C   UNL A   1      42.414  34.313  37.800  1.00  0.00     0.059 A 
ATOM     74  F   UNL A   1      44.217  33.833  36.381  1.00  0.00    -0.206 F 
ATOM     75  C   UNL A   1      41.047  34.237  38.067  1.00  0.00     0.060 A 
BRANCH  75  76
ATOM     76  S   UNL A   1      40.377  34.967  39.574  1.00  0.00     0.124 S 
ATOM     77  O   UNL A   1      38.957  34.666  39.438  1.00  0.00    -0.237 OA
ATOM     78  O   UNL A   1      41.085  34.234  40.618  1.00  0.00    -0.237 OA
ATOM     79  O   UNL A   1      40.737  36.378  39.455  1.00  0.00    -0.744 OA
ENDBRANCH  75  76
ENDBRANCH  43  68
ENDBRANCH  17  18
ENDBRANCH  10  12
ENDBRANCH   9  10
ENDBRANCH   8   9
ENDBRANCH   7   8
ENDBRANCH   6   7
ENDBRANCH   5   6
ENDBRANCH   4   5
ENDBRANCH   3   4
ENDBRANCH   2   3
ENDBRANCH   1   2
BRANCH   1  80
ATOM     80  O   UNL A   1      41.100  27.211  25.585  1.00  0.00    -0.376 OA
BRANCH  80  81
ATOM     81  C   UNL A   1      41.304  28.507  26.144  1.00  0.00     0.202 C 
BRANCH  81  82
ATOM     82  C   UNL A   1      40.098  29.053  26.912  1.00  0.00     0.261 C 
BRANCH  82  83
ATOM     83  O   UNL A   1      40.283  29.118  28.333  1.00  0.00    -0.460 OA
BRANCH  83  84
ATOM     84  C   UNL A   1      39.219  28.951  29.150  1.00  0.00     0.338 C 
ATOM     85  O   UNL A   1      38.431  28.023  29.167  1.00  0.00    -0.246 OA
BRANCH  84  86
ATOM     86  C   UNL A   1      39.303  30.018  30.175  1.00  0.00     0.060 A 
ATOM     87  C   UNL A   1      39.796  29.765  31.456  1.00  0.00     0.016 A 
ATOM     88  C   UNL A   1      38.993  31.321  29.803  1.00  0.00     0.020 A 
ATOM     89  C   UNL A   1      39.984  30.833  32.341  1.00  0.00     0.001 A 
ATOM     90  C   UNL A   1      39.027  32.368  30.720  1.00  0.00    -0.038 A 
ATOM     91  C   UNL A   1      39.581  32.125  31.983  1.00  0.00     0.004 A 
BRANCH  90  92
ATOM     92  C   UNL A   1      38.347  33.681  30.384  1.00  0.00     0.074 C 
ATOM     93  C   UNL A   1      37.786  34.332  31.665  1.00  0.00     0.020 C 
ATOM     94  C   UNL A   1      37.262  33.595  29.295  1.00  0.00     0.270 C 
ATOM     95  C   UNL A   1      36.426  33.777  32.094  1.00  0.00     0.062 C 
ATOM     96  N   UNL A   1      35.966  33.046  29.719  1.00  0.00    -0.331 N 
ATOM     97  C   UNL A   1      35.437  33.684  30.931  1.00  0.00     0.262 C 
ATOM     98  H   UNL A   1      36.150  32.076  29.976  1.00  0.00     0.348 HD
BRANCH  96  99
ATOM     99  C   UNL A   1      34.972  33.002  28.616  1.00  0.00     0.299 C 
BRANCH  99 100
ATOM    100  C   UNL A   1      34.819  31.641  27.951  1.00  0.00     0.010 A 
ATOM    101  C   UNL A   1      35.889  30.735  27.925  1.00  0.00     0.010 A 
ATOM    102  C   UNL A   1      33.556  31.211  27.513  1.00  0.00     0.056 A 
ATOM    103  C   UNL A   1      35.670  29.409  27.553  1.00  0.00     0.004 A 
ATOM    104  C   UNL A   1      33.307  29.867  27.254  1.00  0.00     0.119 A 
ATOM    105  C   UNL A   1      34.378  28.973  27.249  1.00  0.00     0.046 A 
BRANCH 104 106
ATOM    106  O   UNL A   1      32.073  29.308  27.056  1.00  0.00    -0.491 OA
BRANCH 106 107
ATOM    107  C   UNL A   1      31.786  28.686  25.794  1.00  0.00     0.257 C 
BRANCH 107 108
ATOM    108  C   UNL A   1      31.931  29.656  24.617  1.00  0.00     0.197 C 
BRANCH 108 109
ATOM    109  O   UNL A   1      33.178  29.533  23.950  1.00  0.00    -0.393 OA
ATOM    110  H   UNL A   1      33.111  28.850  23.263  1.00  0.00     0.210 HD
ENDBRANCH 108 109
ENDBRANCH 107 108
ENDBRANCH 106 107
ENDBRANCH 104 106
ENDBRANCH  99 100
ENDBRANCH  96  99
ENDBRANCH  90  92
ENDBRANCH  84  86
ENDBRANCH  83  84
ENDBRANCH  82  83
ENDBRANCH  81  82
ENDBRANCH  80  81
ENDBRANCH   1  80
TORSDOF 30
ENDMDL
MODEL 3
REMARK VINA RESULT:      -7.0      5.523     11.382
REMARK SMILES O=C(OCCOCCOCCOCCOC(=O)c1cccc([C@@H]2CCC[N@@H+](Cc3cccc(OCCO)c3)C2)c1)c1ccc(-c2c3nc(c(-c4c(F)cc(S(=O)(=O)[O-])cc4F)c4ccc([nH]4)c(-c4c(F)cc(S(=O)(=O)[O-])cc4F)c4nc(c(-c5c(F)cc(S(=O)(=O)[O-])cc5F)c5ccc2[nH]5)C=C4)C=C3)cc1
REMARK SMILES IDX 11 1 10 2 9 3 8 4 7 5 6 6 5 7 4 8 3 9 2 10 1 11 41 12 42 13
REMARK SMILES IDX 106 14 43 15 105 16 44 17 45 18 46 19 99 20 47 21 104 22
REMARK SMILES IDX 98 23 100 24 48 25 103 26 97 27 96 28 49 30 83 31 62 32
REMARK SMILES IDX 82 33 63 34 66 35 81 36 101 37 64 38 65 39 80 41 102 42
REMARK SMILES IDX 67 43 50 44 51 45 60 46 52 47 53 48 59 49 61 50 54 51 55 52
REMARK SMILES IDX 56 53 57 54 58 55 84 56 85 57 94 58 86 59 87 60 93 61 95 62
REMARK SMILES IDX 88 63 89 64 90 65 91 66 92 67 68 68 69 69 78 70 70 71 71 72
REMARK SMILES IDX 77 73 79 74 72 75 73 76 74 77 75 78 76 79 12 80 13 81 14 82
REMARK SMILES IDX 15 83 16 84 17 85 18 86 19 87 40 88 20 89 22 90 21 91 23 92
REMARK SMILES IDX 24 93 39 94 25 95 27 96 26 97 28 99 29 100 30 101 38 102
REMARK SMILES IDX 31 103 33 104 32 105 34 106 35 107 36 108 37 109
REMARK H PARENT 100 29 66 40 27 98 37 110
REMARK Flexibility Score: inf
ROOT
ATOM      1  C   UNL A   1      40.122  24.451  26.507  1.00  0.00     0.188 C 
ENDROOT
BRANCH   1   2
ATOM      2  C   UNL A   1      40.681  25.896  26.544  1.00  0.00     0.188 C 
BRANCH   2   3
ATOM      3  O   UNL A   1      41.893  26.153  27.248  1.00  0.00    -0.377 OA
BRANCH   3   4
ATOM      4  C   UNL A   1      41.786  26.962  28.418  1.00  0.00     0.188 C 
BRANCH   4   5
ATOM      5  C   UNL A   1      40.368  27.097  28.973  1.00  0.00     0.188 C 
BRANCH   5   6
ATOM      6  O   UNL A   1      40.005  28.472  28.998  1.00  0.00    -0.376 OA
BRANCH   6   7
ATOM      7  C   UNL A   1      39.138  28.953  27.982  1.00  0.00     0.202 C 
BRANCH   7   8
ATOM      8  C   UNL A   1      37.719  29.270  28.447  1.00  0.00     0.261 C 
BRANCH   8   9
ATOM      9  O   UNL A   1      37.482  28.955  29.828  1.00  0.00    -0.460 OA
BRANCH   9  10
ATOM     10  C   UNL A   1      37.228  29.812  30.850  1.00  0.00     0.338 C 
ATOM     11  O   UNL A   1      36.154  29.722  31.442  1.00  0.00    -0.246 OA
BRANCH  10  12
ATOM     12  C   UNL A   1      38.210  30.819  31.337  1.00  0.00     0.060 A 
ATOM     13  C   UNL A   1      39.514  30.533  31.737  1.00  0.00     0.016 A 
ATOM     14  C   UNL A   1      37.818  32.164  31.301  1.00  0.00     0.016 A 
ATOM     15  C   UNL A   1      40.351  31.509  32.249  1.00  0.00     0.010 A 
ATOM     16  C   UNL A   1      38.683  33.172  31.739  1.00  0.00     0.010 A 
ATOM     17  C   UNL A   1      39.933  32.833  32.277  1.00  0.00    -0.014 A 
BRANCH  17  18
ATOM     18  C   UNL A   1      40.732  33.794  33.061  1.00  0.00     0.031 A 
ATOM     19  C   UNL A   1      41.731  34.631  32.314  1.00  0.00     0.074 A 
ATOM     20  C   UNL A   1      40.456  34.014  34.360  1.00  0.00     0.049 A 
ATOM     21  N   UNL A   1      42.619  35.468  32.770  1.00  0.00    -0.248 NA
ATOM     22  C   UNL A   1      41.727  34.502  30.844  1.00  0.00     0.031 C 
ATOM     23  C   UNL A   1      39.394  33.350  35.125  1.00  0.00     0.029 A 
ATOM     24  N   UNL A   1      41.011  34.886  35.257  1.00  0.00    -0.354 N 
ATOM     25  C   UNL A   1      43.322  35.909  31.654  1.00  0.00     0.074 A 
ATOM     26  C   UNL A   1      42.759  35.252  30.499  1.00  0.00     0.031 C 
ATOM     27  C   UNL A   1      39.347  33.875  36.360  1.00  0.00     0.029 A 
ATOM     28  C   UNL A   1      40.430  34.840  36.503  1.00  0.00     0.049 A 
ATOM     29  H   UNL A   1      41.754  35.490  35.030  1.00  0.00     0.167 HD
ATOM     30  C   UNL A   1      44.358  36.778  31.612  1.00  0.00     0.037 A 
ATOM     31  C   UNL A   1      40.772  35.483  37.635  1.00  0.00     0.037 A 
ATOM     32  C   UNL A   1      44.858  37.441  32.784  1.00  0.00     0.049 A 
ATOM     33  C   UNL A   1      41.968  36.397  37.580  1.00  0.00     0.074 A 
ATOM     34  C   UNL A   1      45.929  38.304  32.903  1.00  0.00     0.029 A 
ATOM     35  N   UNL A   1      44.295  37.316  34.050  1.00  0.00    -0.354 N 
ATOM     36  N   UNL A   1      42.704  36.727  36.542  1.00  0.00    -0.248 NA
ATOM     37  C   UNL A   1      42.398  37.004  38.843  1.00  0.00     0.031 C 
ATOM     38  C   UNL A   1      46.038  38.669  34.250  1.00  0.00     0.029 A 
ATOM     39  C   UNL A   1      45.004  38.075  34.960  1.00  0.00     0.049 A 
ATOM     40  H   UNL A   1      43.507  36.767  34.265  1.00  0.00     0.167 HD
ATOM     41  C   UNL A   1      43.677  37.592  37.024  1.00  0.00     0.074 A 
ATOM     42  C   UNL A   1      43.421  37.748  38.444  1.00  0.00     0.031 C 
ATOM     43  C   UNL A   1      44.693  38.203  36.364  1.00  0.00     0.037 A 
BRANCH  30  44
ATOM     44  C   UNL A   1      45.042  36.967  30.287  1.00  0.00     0.058 A 
ATOM     45  C   UNL A   1      46.127  36.175  29.876  1.00  0.00     0.135 A 
ATOM     46  C   UNL A   1      44.639  38.011  29.438  1.00  0.00     0.135 A 
ATOM     47  F   UNL A   1      46.579  35.187  30.664  1.00  0.00    -0.206 F 
ATOM     48  C   UNL A   1      46.813  36.438  28.693  1.00  0.00     0.059 A 
ATOM     49  C   UNL A   1      45.292  38.275  28.238  1.00  0.00     0.059 A 
ATOM     50  F   UNL A   1      43.618  38.809  29.787  1.00  0.00    -0.206 F 
ATOM     51  C   UNL A   1      46.393  37.496  27.884  1.00  0.00     0.060 A 
BRANCH  51  52
ATOM     52  S   UNL A   1      47.313  37.852  26.372  1.00  0.00     0.124 S 
ATOM     53  O   UNL A   1      48.565  38.376  26.909  1.00  0.00    -0.237 OA
ATOM     54  O   UNL A   1      47.397  36.538  25.740  1.00  0.00    -0.237 OA
ATOM     55  O   UNL A   1      46.471  38.823  25.682  1.00  0.00    -0.744 OA
ENDBRANCH  51  52
ENDBRANCH  30  44
BRANCH  31  56
ATOM     56  C   UNL A   1      40.020  35.248  38.901  1.00  0.00     0.058 A 
ATOM     57  C   UNL A   1      39.152  36.217  39.424  1.00  0.00     0.135 A 
ATOM     58  C   UNL A   1      40.150  34.044  39.613  1.00  0.00     0.135 A 
ATOM     59  F   UNL A   1      38.994  37.389  38.792  1.00  0.00    -0.206 F 
ATOM     60  C   UNL A   1      38.450  36.008  40.611  1.00  0.00     0.059 A 
ATOM     61  C   UNL A   1      39.438  33.799  40.785  1.00  0.00     0.059 A 
ATOM     62  F   UNL A   1      40.961  33.076  39.158  1.00  0.00    -0.206 F 
ATOM     63  C   UNL A   1      38.600  34.794  41.283  1.00  0.00     0.060 A 
BRANCH  63  64
ATOM     64  S   UNL A   1      37.665  34.516  42.804  1.00  0.00     0.124 S 
ATOM     65  O   UNL A   1      36.329  34.254  42.282  1.00  0.00    -0.237 OA
ATOM     66  O   UNL A   1      38.357  33.372  43.388  1.00  0.00    -0.237 OA
ATOM     67  O   UNL A   1      37.822  35.773  43.530  1.00  0.00    -0.744 OA
ENDBRANCH  63  64
ENDBRANCH  31  56
BRANCH  43  68
ATOM     68  C   UNL A   1      45.563  39.123  37.168  1.00  0.00     0.058 A 
ATOM     69  C   UNL A   1      45.253  40.482  37.322  1.00  0.00     0.135 A 
ATOM     70  C   UNL A   1      46.690  38.618  37.834  1.00  0.00     0.135 A 
ATOM     71  F   UNL A   1      44.188  41.008  36.698  1.00  0.00    -0.206 F 
ATOM     72  C   UNL A   1      46.050  41.318  38.093  1.00  0.00     0.059 A 
ATOM     73  C   UNL A   1      47.484  39.430  38.633  1.00  0.00     0.059 A 
ATOM     74  F   UNL A   1      47.016  37.319  37.726  1.00  0.00    -0.206 F 
ATOM     75  C   UNL A   1      47.162  40.782  38.746  1.00  0.00     0.060 A 
BRANCH  75  76
ATOM     76  S   UNL A   1      48.171  41.870  39.771  1.00  0.00     0.124 S 
ATOM     77  O   UNL A   1      47.258  42.983  40.005  1.00  0.00    -0.237 OA
ATOM     78  O   UNL A   1      48.459  41.030  40.929  1.00  0.00    -0.237 OA
ATOM     79  O   UNL A   1      49.321  42.167  38.920  1.00  0.00    -0.744 OA
ENDBRANCH  75  76
ENDBRANCH  43  68
ENDBRANCH  17  18
ENDBRANCH  10  12
ENDBRANCH   9  10
ENDBRANCH   8   9
ENDBRANCH   7   8
ENDBRANCH   6   7
ENDBRANCH   5   6
ENDBRANCH   4   5
ENDBRANCH   3   4
ENDBRANCH   2   3
ENDBRANCH   1   2
BRANCH   1  80
ATOM     80  O   UNL A   1      38.782  24.317  26.962  1.00  0.00    -0.376 OA
BRANCH  80  81
ATOM     81  C   UNL A   1      37.830  23.939  25.969  1.00  0.00     0.202 C 
BRANCH  81  82
ATOM     82  C   UNL A   1      37.331  22.498  26.101  1.00  0.00     0.261 C 
BRANCH  82  83
ATOM     83  O   UNL A   1      36.614  22.015  24.956  1.00  0.00    -0.460 OA
BRANCH  83  84
ATOM     84  C   UNL A   1      36.378  20.688  24.831  1.00  0.00     0.338 C 
ATOM     85  O   UNL A   1      37.155  19.772  25.029  1.00  0.00    -0.246 OA
BRANCH  84  86
ATOM     86  C   UNL A   1      34.922  20.540  24.601  1.00  0.00     0.060 A 
ATOM     87  C   UNL A   1      34.294  19.295  24.667  1.00  0.00     0.016 A 
ATOM     88  C   UNL A   1      34.157  21.688  24.434  1.00  0.00     0.020 A 
ATOM     89  C   UNL A   1      32.899  19.226  24.580  1.00  0.00     0.001 A 
ATOM     90  C   UNL A   1      32.788  21.621  24.190  1.00  0.00    -0.038 A 
ATOM     91  C   UNL A   1      32.151  20.381  24.320  1.00  0.00     0.004 A 
BRANCH  90  92
ATOM     92  C   UNL A   1      32.060  22.842  23.661  1.00  0.00     0.074 C 
ATOM     93  C   UNL A   1      33.004  23.681  22.775  1.00  0.00     0.020 C 
ATOM     94  C   UNL A   1      31.393  23.722  24.734  1.00  0.00     0.270 C 
ATOM     95  C   UNL A   1      33.924  24.614  23.564  1.00  0.00     0.062 C 
ATOM     96  N   UNL A   1      32.292  24.603  25.495  1.00  0.00    -0.331 N 
ATOM     97  C   UNL A   1      33.176  25.405  24.638  1.00  0.00     0.262 C 
ATOM     98  H   UNL A   1      32.908  23.979  26.019  1.00  0.00     0.348 HD
BRANCH  96  99
ATOM     99  C   UNL A   1      31.575  25.423  26.504  1.00  0.00     0.299 C 
BRANCH  99 100
ATOM    100  C   UNL A   1      31.429  26.895  26.140  1.00  0.00     0.010 A 
ATOM    101  C   UNL A   1      32.142  27.878  26.840  1.00  0.00     0.010 A 
ATOM    102  C   UNL A   1      30.715  27.265  24.989  1.00  0.00     0.056 A 
ATOM    103  C   UNL A   1      32.206  29.179  26.343  1.00  0.00     0.004 A 
ATOM    104  C   UNL A   1      30.871  28.528  24.425  1.00  0.00     0.119 A 
ATOM    105  C   UNL A   1      31.598  29.492  25.125  1.00  0.00     0.046 A 
BRANCH 104 106
ATOM    106  O   UNL A   1      30.419  28.912  23.192  1.00  0.00    -0.491 OA
BRANCH 106 107
ATOM    107  C   UNL A   1      29.349  29.865  23.109  1.00  0.00     0.257 C 
BRANCH 107 108
ATOM    108  C   UNL A   1      28.181  29.362  22.255  1.00  0.00     0.197 C 
BRANCH 108 109
ATOM    109  O   UNL A   1      26.913  29.709  22.792  1.00  0.00    -0.393 OA
ATOM    110  H   UNL A   1      27.017  29.972  23.721  1.00  0.00     0.210 HD
ENDBRANCH 108 109
ENDBRANCH 107 108
ENDBRANCH 106 107
ENDBRANCH 104 106
ENDBRANCH  99 100
ENDBRANCH  96  99
ENDBRANCH  90  92
ENDBRANCH  84  86
ENDBRANCH  83  84
ENDBRANCH  82  83
ENDBRANCH  81  82
ENDBRANCH  80  81
ENDBRANCH   1  80
TORSDOF 30
ENDMDL
