MODEL 1
REMARK VINA RESULT:      -8.2      0.000      0.000
REMARK SMILES CSc1ccc(Cl)c(C(=O)N[C@@H](CO)C(=O)OCCOCCOCCOCCOC(=O)c2ccc(-c3c4nc(c(-c5c(F)cc(S(=O)(=O)[O-])cc5F)c5ccc([nH]5)c(-c5c(F)cc(S(=O)(=O)[O-])cc5F)c5nc(c(-c6c(F)cc(S(=O)(=O)[O-])cc6F)c6ccc3[nH]6)C=C5)C=C4)cc2)c1
REMARK SMILES IDX 23 1 22 2 21 3 20 4 19 5 18 6 17 7 15 8 16 9 12 10 11 11
REMARK SMILES IDX 9 12 10 13 8 15 3 16 4 17 98 18 5 19 6 20 7 21 2 22 1 23
REMARK SMILES IDX 13 24 14 25 24 27 25 28 26 29 27 30 28 31 29 32 30 33 31 34
REMARK SMILES IDX 32 35 33 36 97 37 34 38 96 39 35 40 36 41 37 42 90 43 38 44
REMARK SMILES IDX 95 45 89 46 91 47 39 48 94 49 88 50 87 51 40 53 74 54 53 55
REMARK SMILES IDX 73 56 54 57 57 58 72 59 92 60 55 61 56 62 71 64 93 65 58 66
REMARK SMILES IDX 41 67 42 68 51 69 43 70 44 71 50 72 52 73 45 74 46 75 47 76
REMARK SMILES IDX 48 77 49 78 75 79 76 80 85 81 77 82 78 83 84 84 86 85 79 86
REMARK SMILES IDX 80 87 81 88 82 89 83 90 59 91 60 92 69 93 61 94 62 95 68 96
REMARK SMILES IDX 70 97 63 98 64 99 65 100 66 101 67 102
REMARK H PARENT 11 14 14 26 91 52 57 63
REMARK Flexibility Score: inf
ROOT
ATOM      1  O   UNL A   1      32.783  24.274  26.626  1.00  0.00    -0.377 OA
ENDROOT
BRANCH   1   2
ATOM      2  C   UNL A   1      31.624  24.729  25.967  1.00  0.00     0.188 C 
BRANCH   2   3
ATOM      3  C   UNL A   1      31.169  26.142  26.363  1.00  0.00     0.188 C 
BRANCH   3   4
ATOM      4  O   UNL A   1      31.771  26.819  27.456  1.00  0.00    -0.376 OA
BRANCH   4   5
ATOM      5  C   UNL A   1      31.348  28.122  27.843  1.00  0.00     0.202 C 
BRANCH   5   6
ATOM      6  C   UNL A   1      31.407  29.340  26.903  1.00  0.00     0.261 C 
BRANCH   6   7
ATOM      7  O   UNL A   1      32.378  30.340  27.252  1.00  0.00    -0.462 OA
BRANCH   7   8
ATOM      8  C   UNL A   1      33.614  30.139  26.747  1.00  0.00     0.331 C 
ATOM      9  O   UNL A   1      34.630  30.691  27.167  1.00  0.00    -0.250 OA
BRANCH   8  10
ATOM     10  C   UNL A   1      33.698  29.019  25.697  1.00  0.00     0.218 C 
BRANCH  10  11
ATOM     11  N   UNL A   1      33.913  29.158  24.252  1.00  0.00    -0.337 N 
ATOM     12  C   UNL A   1      33.235  28.651  23.156  1.00  0.00     0.253 C 
ATOM     13  O   UNL A   1      33.874  28.674  22.098  1.00  0.00    -0.269 OA
ATOM     14  H   UNL A   1      34.688  29.720  24.017  1.00  0.00     0.164 HD
BRANCH  12  15
ATOM     15  C   UNL A   1      31.774  28.244  23.072  1.00  0.00     0.059 A 
ATOM     16  C   UNL A   1      29.472  29.203  23.200  1.00  0.00     0.008 A 
ATOM     17  C   UNL A   1      28.934  27.924  23.166  1.00  0.00     0.016 A 
ATOM     18  C   UNL A   1      30.873  29.343  23.195  1.00  0.00     0.030 A 
ATOM     19  C   UNL A   1      29.781  26.831  23.016  1.00  0.00     0.022 A 
ATOM     20  C   UNL A   1      31.174  26.995  22.870  1.00  0.00     0.053 A 
ATOM     21  Cl  UNL A   1      31.911  25.615  22.134  1.00  0.00    -0.083 Cl
BRANCH  16  22
ATOM     22  S   UNL A   1      28.451  30.664  23.057  1.00  0.00    -0.130 SA
ATOM     23  C   UNL A   1      28.329  30.894  21.262  1.00  0.00     0.091 C 
ENDBRANCH  16  22
ENDBRANCH  12  15
ENDBRANCH  10  11
BRANCH  10  24
ATOM     24  C   UNL A   1      34.748  28.031  26.219  1.00  0.00     0.193 C 
BRANCH  24  25
ATOM     25  O   UNL A   1      34.410  26.689  25.854  1.00  0.00    -0.394 OA
ATOM     26  H   UNL A   1      33.836  26.701  25.072  1.00  0.00     0.210 HD
ENDBRANCH  24  25
ENDBRANCH  10  24
ENDBRANCH   8  10
ENDBRANCH   7   8
ENDBRANCH   6   7
ENDBRANCH   5   6
ENDBRANCH   4   5
ENDBRANCH   3   4
ENDBRANCH   2   3
ENDBRANCH   1   2
BRANCH   1  27
ATOM     27  C   UNL A   1      33.545  23.257  25.994  1.00  0.00     0.188 C 
BRANCH  27  28
ATOM     28  C   UNL A   1      34.406  22.310  26.859  1.00  0.00     0.188 C 
BRANCH  28  29
ATOM     29  O   UNL A   1      35.159  21.350  26.131  1.00  0.00    -0.376 OA
BRANCH  29  30
ATOM     30  C   UNL A   1      35.770  21.743  24.910  1.00  0.00     0.202 C 
BRANCH  30  31
ATOM     31  C   UNL A   1      37.274  22.067  24.911  1.00  0.00     0.261 C 
BRANCH  31  32
ATOM     32  O   UNL A   1      37.723  23.074  25.830  1.00  0.00    -0.460 OA
BRANCH  32  33
ATOM     33  C   UNL A   1      38.887  22.875  26.481  1.00  0.00     0.338 C 
ATOM     34  O   UNL A   1      39.533  21.840  26.523  1.00  0.00    -0.246 OA
BRANCH  33  35
ATOM     35  C   UNL A   1      39.367  24.189  26.962  1.00  0.00     0.060 A 
ATOM     36  C   UNL A   1      39.890  25.101  26.036  1.00  0.00     0.016 A 
ATOM     37  C   UNL A   1      39.287  24.527  28.316  1.00  0.00     0.016 A 
ATOM     38  C   UNL A   1      40.374  26.338  26.464  1.00  0.00     0.010 A 
ATOM     39  C   UNL A   1      39.795  25.756  28.748  1.00  0.00     0.010 A 
ATOM     40  C   UNL A   1      40.376  26.649  27.830  1.00  0.00    -0.014 A 
BRANCH  40  41
ATOM     41  C   UNL A   1      41.173  27.801  28.318  1.00  0.00     0.031 A 
ATOM     42  C   UNL A   1      40.438  28.963  28.934  1.00  0.00     0.074 A 
ATOM     43  C   UNL A   1      42.515  27.818  28.237  1.00  0.00     0.049 A 
ATOM     44  N   UNL A   1      40.902  30.099  29.381  1.00  0.00    -0.248 NA
ATOM     45  C   UNL A   1      38.978  28.818  29.054  1.00  0.00     0.031 C 
ATOM     46  C   UNL A   1      43.343  26.740  27.701  1.00  0.00     0.029 A 
ATOM     47  N   UNL A   1      43.416  28.790  28.595  1.00  0.00    -0.354 N 
ATOM     48  C   UNL A   1      39.793  30.812  29.821  1.00  0.00     0.074 A 
ATOM     49  C   UNL A   1      38.631  29.992  29.559  1.00  0.00     0.031 C 
ATOM     50  C   UNL A   1      44.633  27.118  27.749  1.00  0.00     0.029 A 
ATOM     51  C   UNL A   1      44.718  28.477  28.285  1.00  0.00     0.049 A 
ATOM     52  H   UNL A   1      43.155  29.632  29.034  1.00  0.00     0.167 HD
ATOM     53  C   UNL A   1      39.747  32.037  30.397  1.00  0.00     0.037 A 
ATOM     54  C   UNL A   1      45.843  29.213  28.394  1.00  0.00     0.037 A 
ATOM     55  C   UNL A   1      40.908  32.850  30.646  1.00  0.00     0.049 A 
ATOM     56  C   UNL A   1      45.765  30.602  28.974  1.00  0.00     0.074 A 
ATOM     57  C   UNL A   1      40.972  34.095  31.246  1.00  0.00     0.029 A 
ATOM     58  N   UNL A   1      42.207  32.507  30.296  1.00  0.00    -0.354 N 
ATOM     59  N   UNL A   1      44.714  31.256  29.416  1.00  0.00    -0.248 NA
ATOM     60  C   UNL A   1      47.023  31.354  29.077  1.00  0.00     0.031 C 
ATOM     61  C   UNL A   1      42.299  34.534  31.199  1.00  0.00     0.029 A 
ATOM     62  C   UNL A   1      43.076  33.532  30.637  1.00  0.00     0.049 A 
ATOM     63  H   UNL A   1      42.472  31.661  29.869  1.00  0.00     0.167 HD
ATOM     64  C   UNL A   1      45.190  32.481  29.875  1.00  0.00     0.074 A 
ATOM     65  C   UNL A   1      46.623  32.474  29.666  1.00  0.00     0.031 C 
ATOM     66  C   UNL A   1      44.503  33.513  30.426  1.00  0.00     0.037 A 
BRANCH  53  67
ATOM     67  C   UNL A   1      38.391  32.587  30.750  1.00  0.00     0.058 A 
ATOM     68  C   UNL A   1      37.593  33.267  29.814  1.00  0.00     0.135 A 
ATOM     69  C   UNL A   1      37.878  32.424  32.047  1.00  0.00     0.135 A 
ATOM     70  F   UNL A   1      38.040  33.470  28.564  1.00  0.00    -0.206 F 
ATOM     71  C   UNL A   1      36.356  33.798  30.162  1.00  0.00     0.059 A 
ATOM     72  C   UNL A   1      36.627  32.917  32.408  1.00  0.00     0.059 A 
ATOM     73  F   UNL A   1      38.596  31.785  32.984  1.00  0.00    -0.206 F 
ATOM     74  C   UNL A   1      35.882  33.619  31.462  1.00  0.00     0.060 A 
BRANCH  74  75
ATOM     75  S   UNL A   1      34.281  34.327  31.902  1.00  0.00     0.124 S 
ATOM     76  O   UNL A   1      33.725  34.630  30.586  1.00  0.00    -0.237 OA
ATOM     77  O   UNL A   1      33.642  33.229  32.621  1.00  0.00    -0.237 OA
ATOM     78  O   UNL A   1      34.632  35.486  32.716  1.00  0.00    -0.744 OA
ENDBRANCH  74  75
ENDBRANCH  53  67
BRANCH  54  79
ATOM     79  C   UNL A   1      47.140  28.649  27.932  1.00  0.00     0.058 A 
ATOM     80  C   UNL A   1      47.578  28.817  26.610  1.00  0.00     0.135 A 
ATOM     81  C   UNL A   1      47.982  27.951  28.813  1.00  0.00     0.135 A 
ATOM     82  F   UNL A   1      46.804  29.462  25.725  1.00  0.00    -0.206 F 
ATOM     83  C   UNL A   1      48.799  28.313  26.176  1.00  0.00     0.059 A 
ATOM     84  C   UNL A   1      49.221  27.461  28.411  1.00  0.00     0.059 A 
ATOM     85  F   UNL A   1      47.613  27.766  30.091  1.00  0.00    -0.206 F 
ATOM     86  C   UNL A   1      49.620  27.645  27.088  1.00  0.00     0.060 A 
BRANCH  86  87
ATOM     87  S   UNL A   1      51.237  27.066  26.532  1.00  0.00     0.124 S 
ATOM     88  O   UNL A   1      50.999  26.847  25.109  1.00  0.00    -0.237 OA
ATOM     89  O   UNL A   1      52.096  28.197  26.869  1.00  0.00    -0.237 OA
ATOM     90  O   UNL A   1      51.455  25.862  27.328  1.00  0.00    -0.744 OA
ENDBRANCH  86  87
ENDBRANCH  54  79
BRANCH  66  91
ATOM     91  C   UNL A   1      45.289  34.715  30.883  1.00  0.00     0.058 A 
ATOM     92  C   UNL A   1      45.838  34.800  32.172  1.00  0.00     0.135 A 
ATOM     93  C   UNL A   1      45.550  35.771  29.992  1.00  0.00     0.135 A 
ATOM     94  F   UNL A   1      45.618  33.824  33.066  1.00  0.00    -0.206 F 
ATOM     95  C   UNL A   1      46.599  35.897  32.569  1.00  0.00     0.059 A 
ATOM     96  C   UNL A   1      46.333  36.861  30.356  1.00  0.00     0.059 A 
ATOM     97  F   UNL A   1      45.060  35.737  28.743  1.00  0.00    -0.206 F 
ATOM     98  C   UNL A   1      46.844  36.921  31.652  1.00  0.00     0.060 A 
BRANCH  98  99
ATOM     99  S   UNL A   1      47.861  38.321  32.169  1.00  0.00     0.124 S 
ATOM    100  O   UNL A   1      48.845  38.383  31.093  1.00  0.00    -0.237 OA
ATOM    101  O   UNL A   1      46.893  39.412  32.206  1.00  0.00    -0.237 OA
ATOM    102  O   UNL A   1      48.379  37.905  33.469  1.00  0.00    -0.744 OA
ENDBRANCH  98  99
ENDBRANCH  66  91
ENDBRANCH  40  41
ENDBRANCH  33  35
ENDBRANCH  32  33
ENDBRANCH  31  32
ENDBRANCH  30  31
ENDBRANCH  29  30
ENDBRANCH  28  29
ENDBRANCH  27  28
ENDBRANCH   1  27
TORSDOF 28
ENDMDL
MODEL 2
REMARK VINA RESULT:      -7.7      6.083     10.888
REMARK SMILES CSc1ccc(Cl)c(C(=O)N[C@@H](CO)C(=O)OCCOCCOCCOCCOC(=O)c2ccc(-c3c4nc(c(-c5c(F)cc(S(=O)(=O)[O-])cc5F)c5ccc([nH]5)c(-c5c(F)cc(S(=O)(=O)[O-])cc5F)c5nc(c(-c6c(F)cc(S(=O)(=O)[O-])cc6F)c6ccc3[nH]6)C=C5)C=C4)cc2)c1
REMARK SMILES IDX 23 1 22 2 21 3 20 4 19 5 18 6 17 7 15 8 16 9 12 10 11 11
REMARK SMILES IDX 9 12 10 13 8 15 3 16 4 17 98 18 5 19 6 20 7 21 2 22 1 23
REMARK SMILES IDX 13 24 14 25 24 27 25 28 26 29 27 30 28 31 29 32 30 33 31 34
REMARK SMILES IDX 32 35 33 36 97 37 34 38 96 39 35 40 36 41 37 42 90 43 38 44
REMARK SMILES IDX 95 45 89 46 91 47 39 48 94 49 88 50 87 51 40 53 74 54 53 55
REMARK SMILES IDX 73 56 54 57 57 58 72 59 92 60 55 61 56 62 71 64 93 65 58 66
REMARK SMILES IDX 41 67 42 68 51 69 43 70 44 71 50 72 52 73 45 74 46 75 47 76
REMARK SMILES IDX 48 77 49 78 75 79 76 80 85 81 77 82 78 83 84 84 86 85 79 86
REMARK SMILES IDX 80 87 81 88 82 89 83 90 59 91 60 92 69 93 61 94 62 95 68 96
REMARK SMILES IDX 70 97 63 98 64 99 65 100 66 101 67 102
REMARK H PARENT 11 14 14 26 91 52 57 63
REMARK Flexibility Score: inf
ROOT
ATOM      1  O   UNL A   1      35.126  33.643  32.447  1.00  0.00    -0.377 OA
ENDROOT
BRANCH   1   2
ATOM      2  C   UNL A   1      35.022  34.777  33.276  1.00  0.00     0.188 C 
BRANCH   2   3
ATOM      3  C   UNL A   1      35.413  34.542  34.743  1.00  0.00     0.188 C 
BRANCH   3   4
ATOM      4  O   UNL A   1      35.905  33.281  35.171  1.00  0.00    -0.376 OA
BRANCH   4   5
ATOM      5  C   UNL A   1      37.271  33.102  35.528  1.00  0.00     0.202 C 
BRANCH   5   6
ATOM      6  C   UNL A   1      37.810  31.814  36.176  1.00  0.00     0.261 C 
BRANCH   6   7
ATOM      7  O   UNL A   1      37.403  31.593  37.537  1.00  0.00    -0.462 OA
BRANCH   7   8
ATOM      8  C   UNL A   1      38.029  32.360  38.454  1.00  0.00     0.331 C 
ATOM      9  O   UNL A   1      39.061  32.993  38.237  1.00  0.00    -0.250 OA
BRANCH   8  10
ATOM     10  C   UNL A   1      37.257  32.533  39.773  1.00  0.00     0.218 C 
BRANCH  10  11
ATOM     11  N   UNL A   1      37.473  33.546  40.813  1.00  0.00    -0.337 N 
ATOM     12  C   UNL A   1      36.805  33.826  41.993  1.00  0.00     0.253 C 
ATOM     13  O   UNL A   1      37.028  34.950  42.458  1.00  0.00    -0.269 OA
ATOM     14  H   UNL A   1      38.240  34.139  40.638  1.00  0.00     0.164 HD
BRANCH  12  15
ATOM     15  C   UNL A   1      35.990  32.874  42.850  1.00  0.00     0.059 A 
ATOM     16  C   UNL A   1      33.788  32.697  44.015  1.00  0.00     0.008 A 
ATOM     17  C   UNL A   1      34.192  31.509  44.606  1.00  0.00     0.016 A 
ATOM     18  C   UNL A   1      34.699  33.380  43.187  1.00  0.00     0.030 A 
ATOM     19  C   UNL A   1      35.432  30.970  44.278  1.00  0.00     0.022 A 
ATOM     20  C   UNL A   1      36.278  31.592  43.337  1.00  0.00     0.053 A 
ATOM     21  Cl  UNL A   1      37.433  30.487  42.679  1.00  0.00    -0.083 Cl
BRANCH  16  22
ATOM     22  S   UNL A   1      32.101  33.282  44.120  1.00  0.00    -0.130 SA
ATOM     23  C   UNL A   1      31.810  33.966  42.466  1.00  0.00     0.091 C 
ENDBRANCH  16  22
ENDBRANCH  12  15
ENDBRANCH  10  11
BRANCH  10  24
ATOM     24  C   UNL A   1      35.774  32.587  39.388  1.00  0.00     0.193 C 
BRANCH  24  25
ATOM     25  O   UNL A   1      35.145  31.321  39.606  1.00  0.00    -0.394 OA
ATOM     26  H   UNL A   1      34.456  31.183  38.937  1.00  0.00     0.210 HD
ENDBRANCH  24  25
ENDBRANCH  10  24
ENDBRANCH   8  10
ENDBRANCH   7   8
ENDBRANCH   6   7
ENDBRANCH   5   6
ENDBRANCH   4   5
ENDBRANCH   3   4
ENDBRANCH   2   3
ENDBRANCH   1   2
BRANCH   1  27
ATOM     27  C   UNL A   1      35.860  33.772  31.240  1.00  0.00     0.188 C 
BRANCH  27  28
ATOM     28  C   UNL A   1      35.338  33.082  29.960  1.00  0.00     0.188 C 
BRANCH  28  29
ATOM     29  O   UNL A   1      34.710  33.948  29.024  1.00  0.00    -0.376 OA
BRANCH  29  30
ATOM     30  C   UNL A   1      33.903  33.381  28.002  1.00  0.00     0.202 C 
BRANCH  30  31
ATOM     31  C   UNL A   1      33.651  31.863  28.022  1.00  0.00     0.261 C 
BRANCH  31  32
ATOM     32  O   UNL A   1      34.521  31.048  27.224  1.00  0.00    -0.460 OA
BRANCH  32  33
ATOM     33  C   UNL A   1      34.743  29.776  27.612  1.00  0.00     0.338 C 
ATOM     34  O   UNL A   1      34.087  28.793  27.306  1.00  0.00    -0.246 OA
BRANCH  33  35
ATOM     35  C   UNL A   1      36.051  29.734  28.301  1.00  0.00     0.060 A 
ATOM     36  C   UNL A   1      37.205  30.085  27.587  1.00  0.00     0.016 A 
ATOM     37  C   UNL A   1      36.139  29.369  29.647  1.00  0.00     0.016 A 
ATOM     38  C   UNL A   1      38.456  30.030  28.204  1.00  0.00     0.010 A 
ATOM     39  C   UNL A   1      37.395  29.291  30.257  1.00  0.00     0.010 A 
ATOM     40  C   UNL A   1      38.561  29.583  29.527  1.00  0.00    -0.014 A 
BRANCH  40  41
ATOM     41  C   UNL A   1      39.890  29.216  30.074  1.00  0.00     0.031 A 
ATOM     42  C   UNL A   1      40.444  30.040  31.207  1.00  0.00     0.074 A 
ATOM     43  C   UNL A   1      40.588  28.171  29.596  1.00  0.00     0.049 A 
ATOM     44  N   UNL A   1      41.597  29.953  31.814  1.00  0.00    -0.248 NA
ATOM     45  C   UNL A   1      39.573  31.111  31.718  1.00  0.00     0.031 C 
ATOM     46  C   UNL A   1      40.143  27.273  28.533  1.00  0.00     0.029 A 
ATOM     47  N   UNL A   1      41.830  27.697  29.939  1.00  0.00    -0.354 N 
ATOM     48  C   UNL A   1      41.599  30.965  32.766  1.00  0.00     0.074 A 
ATOM     49  C   UNL A   1      40.344  31.672  32.635  1.00  0.00     0.031 C 
ATOM     50  C   UNL A   1      41.108  26.366  28.297  1.00  0.00     0.029 A 
ATOM     51  C   UNL A   1      42.252  26.642  29.167  1.00  0.00     0.049 A 
ATOM     52  H   UNL A   1      42.369  28.079  30.671  1.00  0.00     0.167 HD
ATOM     53  C   UNL A   1      42.558  31.275  33.671  1.00  0.00     0.037 A 
ATOM     54  C   UNL A   1      43.434  25.993  29.146  1.00  0.00     0.037 A 
ATOM     55  C   UNL A   1      43.808  30.571  33.789  1.00  0.00     0.049 A 
ATOM     56  C   UNL A   1      44.516  26.396  30.115  1.00  0.00     0.074 A 
ATOM     57  C   UNL A   1      44.836  30.790  34.688  1.00  0.00     0.029 A 
ATOM     58  N   UNL A   1      44.207  29.522  32.972  1.00  0.00    -0.354 N 
ATOM     59  N   UNL A   1      44.497  27.335  31.033  1.00  0.00    -0.248 NA
ATOM     60  C   UNL A   1      45.780  25.648  30.051  1.00  0.00     0.031 C 
ATOM     61  C   UNL A   1      45.883  29.918  34.374  1.00  0.00     0.029 A 
ATOM     62  C   UNL A   1      45.481  29.105  33.325  1.00  0.00     0.049 A 
ATOM     63  H   UNL A   1      43.666  29.132  32.249  1.00  0.00     0.167 HD
ATOM     64  C   UNL A   1      45.732  27.271  31.673  1.00  0.00     0.074 A 
ATOM     65  C   UNL A   1      46.469  26.195  31.044  1.00  0.00     0.031 C 
ATOM     66  C   UNL A   1      46.206  28.030  32.694  1.00  0.00     0.037 A 
BRANCH  53  67
ATOM     67  C   UNL A   1      42.307  32.456  34.571  1.00  0.00     0.058 A 
ATOM     68  C   UNL A   1      41.794  32.309  35.871  1.00  0.00     0.135 A 
ATOM     69  C   UNL A   1      42.592  33.757  34.126  1.00  0.00     0.135 A 
ATOM     70  F   UNL A   1      41.484  31.091  36.343  1.00  0.00    -0.206 F 
ATOM     71  C   UNL A   1      41.537  33.411  36.680  1.00  0.00     0.059 A 
ATOM     72  C   UNL A   1      42.375  34.871  34.931  1.00  0.00     0.059 A 
ATOM     73  F   UNL A   1      43.082  33.959  32.892  1.00  0.00    -0.206 F 
ATOM     74  C   UNL A   1      41.829  34.689  36.200  1.00  0.00     0.060 A 
BRANCH  74  75
ATOM     75  S   UNL A   1      41.476  36.109  37.257  1.00  0.00     0.124 S 
ATOM     76  O   UNL A   1      42.666  36.929  37.051  1.00  0.00    -0.237 OA
ATOM     77  O   UNL A   1      40.241  36.628  36.678  1.00  0.00    -0.237 OA
ATOM     78  O   UNL A   1      41.344  35.520  38.586  1.00  0.00    -0.744 OA
ENDBRANCH  74  75
ENDBRANCH  53  67
BRANCH  54  79
ATOM     79  C   UNL A   1      43.657  24.900  28.161  1.00  0.00     0.058 A 
ATOM     80  C   UNL A   1      43.403  23.560  28.490  1.00  0.00     0.135 A 
ATOM     81  C   UNL A   1      44.107  25.177  26.860  1.00  0.00     0.135 A 
ATOM     82  F   UNL A   1      42.988  23.241  29.725  1.00  0.00    -0.206 F 
ATOM     83  C   UNL A   1      43.588  22.535  27.568  1.00  0.00     0.059 A 
ATOM     84  C   UNL A   1      44.273  24.173  25.911  1.00  0.00     0.059 A 
ATOM     85  F   UNL A   1      44.361  26.443  26.492  1.00  0.00    -0.206 F 
ATOM     86  C   UNL A   1      44.013  22.853  26.276  1.00  0.00     0.060 A 
BRANCH  86  87
ATOM     87  S   UNL A   1      44.171  21.522  25.067  1.00  0.00     0.124 S 
ATOM     88  O   UNL A   1      44.076  22.253  23.809  1.00  0.00    -0.237 OA
ATOM     89  O   UNL A   1      45.485  20.974  25.390  1.00  0.00    -0.237 OA
ATOM     90  O   UNL A   1      43.043  20.649  25.377  1.00  0.00    -0.744 OA
ENDBRANCH  86  87
ENDBRANCH  54  79
BRANCH  66  91
ATOM     91  C   UNL A   1      47.576  27.705  33.231  1.00  0.00     0.058 A 
ATOM     92  C   UNL A   1      47.773  26.754  34.246  1.00  0.00     0.135 A 
ATOM     93  C   UNL A   1      48.716  28.310  32.674  1.00  0.00     0.135 A 
ATOM     94  F   UNL A   1      46.721  26.148  34.817  1.00  0.00    -0.206 F 
ATOM     95  C   UNL A   1      49.047  26.433  34.704  1.00  0.00     0.059 A 
ATOM     96  C   UNL A   1      50.001  27.981  33.094  1.00  0.00     0.059 A 
ATOM     97  F   UNL A   1      48.589  29.217  31.693  1.00  0.00    -0.206 F 
ATOM     98  C   UNL A   1      50.156  27.049  34.120  1.00  0.00     0.060 A 
BRANCH  98  99
ATOM     99  S   UNL A   1      51.805  26.596  34.700  1.00  0.00     0.124 S 
ATOM    100  O   UNL A   1      52.601  27.729  34.237  1.00  0.00    -0.237 OA
ATOM    101  O   UNL A   1      51.612  26.504  36.143  1.00  0.00    -0.237 OA
ATOM    102  O   UNL A   1      52.068  25.328  34.025  1.00  0.00    -0.744 OA
ENDBRANCH  98  99
ENDBRANCH  66  91
ENDBRANCH  40  41
ENDBRANCH  33  35
ENDBRANCH  32  33
ENDBRANCH  31  32
ENDBRANCH  30  31
ENDBRANCH  29  30
ENDBRANCH  28  29
ENDBRANCH  27  28
ENDBRANCH   1  27
TORSDOF 28
ENDMDL
MODEL 3
REMARK VINA RESULT:      -7.5      5.233     10.197
REMARK SMILES CSc1ccc(Cl)c(C(=O)N[C@@H](CO)C(=O)OCCOCCOCCOCCOC(=O)c2ccc(-c3c4nc(c(-c5c(F)cc(S(=O)(=O)[O-])cc5F)c5ccc([nH]5)c(-c5c(F)cc(S(=O)(=O)[O-])cc5F)c5nc(c(-c6c(F)cc(S(=O)(=O)[O-])cc6F)c6ccc3[nH]6)C=C5)C=C4)cc2)c1
REMARK SMILES IDX 23 1 22 2 21 3 20 4 19 5 18 6 17 7 15 8 16 9 12 10 11 11
REMARK SMILES IDX 9 12 10 13 8 15 3 16 4 17 98 18 5 19 6 20 7 21 2 22 1 23
REMARK SMILES IDX 13 24 14 25 24 27 25 28 26 29 27 30 28 31 29 32 30 33 31 34
REMARK SMILES IDX 32 35 33 36 97 37 34 38 96 39 35 40 36 41 37 42 90 43 38 44
REMARK SMILES IDX 95 45 89 46 91 47 39 48 94 49 88 50 87 51 40 53 74 54 53 55
REMARK SMILES IDX 73 56 54 57 57 58 72 59 92 60 55 61 56 62 71 64 93 65 58 66
REMARK SMILES IDX 41 67 42 68 51 69 43 70 44 71 50 72 52 73 45 74 46 75 47 76
REMARK SMILES IDX 48 77 49 78 75 79 76 80 85 81 77 82 78 83 84 84 86 85 79 86
REMARK SMILES IDX 80 87 81 88 82 89 83 90 59 91 60 92 69 93 61 94 62 95 68 96
REMARK SMILES IDX 70 97 63 98 64 99 65 100 66 101 67 102
REMARK H PARENT 11 14 14 26 91 52 57 63
REMARK Flexibility Score: inf
ROOT
ATOM      1  O   UNL A   1      33.647  34.031  30.978  1.00  0.00    -0.377 OA
ENDROOT
BRANCH   1   2
ATOM      2  C   UNL A   1      34.592  33.837  29.952  1.00  0.00     0.188 C 
BRANCH   2   3
ATOM      3  C   UNL A   1      34.933  32.369  29.656  1.00  0.00     0.188 C 
BRANCH   3   4
ATOM      4  O   UNL A   1      36.283  31.949  29.528  1.00  0.00    -0.376 OA
BRANCH   4   5
ATOM      5  C   UNL A   1      36.987  31.373  30.623  1.00  0.00     0.202 C 
BRANCH   5   6
ATOM      6  C   UNL A   1      37.256  29.863  30.751  1.00  0.00     0.261 C 
BRANCH   6   7
ATOM      7  O   UNL A   1      38.479  29.403  30.155  1.00  0.00    -0.462 OA
BRANCH   7   8
ATOM      8  C   UNL A   1      39.025  28.313  30.734  1.00  0.00     0.331 C 
ATOM      9  O   UNL A   1      38.570  27.761  31.734  1.00  0.00    -0.250 OA
BRANCH   8  10
ATOM     10  C   UNL A   1      40.186  27.686  29.943  1.00  0.00     0.218 C 
BRANCH  10  11
ATOM     11  N   UNL A   1      40.203  27.304  28.526  1.00  0.00    -0.337 N 
ATOM     12  C   UNL A   1      41.048  26.489  27.792  1.00  0.00     0.253 C 
ATOM     13  O   UNL A   1      40.989  26.653  26.568  1.00  0.00    -0.269 OA
ATOM     14  H   UNL A   1      39.474  27.703  27.997  1.00  0.00     0.164 HD
BRANCH  12  15
ATOM     15  C   UNL A   1      41.886  25.325  28.292  1.00  0.00     0.059 A 
ATOM     16  C   UNL A   1      41.942  22.828  28.314  1.00  0.00     0.008 A 
ATOM     17  C   UNL A   1      43.027  22.856  29.178  1.00  0.00     0.016 A 
ATOM     18  C   UNL A   1      41.365  24.050  27.920  1.00  0.00     0.030 A 
ATOM     19  C   UNL A   1      43.581  24.081  29.539  1.00  0.00     0.022 A 
ATOM     20  C   UNL A   1      43.081  25.294  29.024  1.00  0.00     0.053 A 
ATOM     21  Cl  UNL A   1      44.244  26.569  29.132  1.00  0.00    -0.083 Cl
BRANCH  16  22
ATOM     22  S   UNL A   1      41.383  21.314  27.545  1.00  0.00    -0.130 SA
ATOM     23  C   UNL A   1      42.663  21.000  26.299  1.00  0.00     0.091 C 
ENDBRANCH  16  22
ENDBRANCH  12  15
ENDBRANCH  10  11
BRANCH  10  24
ATOM     24  C   UNL A   1      41.397  28.595  30.182  1.00  0.00     0.193 C 
BRANCH  24  25
ATOM     25  O   UNL A   1      41.069  29.654  31.087  1.00  0.00    -0.394 OA
ATOM     26  H   UNL A   1      40.644  29.284  31.877  1.00  0.00     0.210 HD
ENDBRANCH  24  25
ENDBRANCH  10  24
ENDBRANCH   8  10
ENDBRANCH   7   8
ENDBRANCH   6   7
ENDBRANCH   5   6
ENDBRANCH   4   5
ENDBRANCH   3   4
ENDBRANCH   2   3
ENDBRANCH   1   2
BRANCH   1  27
ATOM     27  C   UNL A   1      34.107  34.580  32.203  1.00  0.00     0.188 C 
BRANCH  27  28
ATOM     28  C   UNL A   1      34.434  33.632  33.380  1.00  0.00     0.188 C 
BRANCH  28  29
ATOM     29  O   UNL A   1      35.695  32.981  33.294  1.00  0.00    -0.376 OA
BRANCH  29  30
ATOM     30  C   UNL A   1      36.803  33.545  33.983  1.00  0.00     0.202 C 
BRANCH  30  31
ATOM     31  C   UNL A   1      36.788  33.548  35.521  1.00  0.00     0.261 C 
BRANCH  31  32
ATOM     32  O   UNL A   1      37.271  32.368  36.180  1.00  0.00    -0.460 OA
BRANCH  32  33
ATOM     33  C   UNL A   1      38.358  32.474  36.971  1.00  0.00     0.338 C 
ATOM     34  O   UNL A   1      38.397  32.936  38.101  1.00  0.00    -0.246 OA
BRANCH  33  35
ATOM     35  C   UNL A   1      39.464  31.736  36.324  1.00  0.00     0.060 A 
ATOM     36  C   UNL A   1      40.775  31.951  36.768  1.00  0.00     0.016 A 
ATOM     37  C   UNL A   1      39.208  30.823  35.297  1.00  0.00     0.016 A 
ATOM     38  C   UNL A   1      41.841  31.288  36.158  1.00  0.00     0.010 A 
ATOM     39  C   UNL A   1      40.279  30.177  34.670  1.00  0.00     0.010 A 
ATOM     40  C   UNL A   1      41.601  30.437  35.072  1.00  0.00    -0.014 A 
BRANCH  40  41
ATOM     41  C   UNL A   1      42.735  29.992  34.225  1.00  0.00     0.031 A 
ATOM     42  C   UNL A   1      43.199  30.906  33.122  1.00  0.00     0.074 A 
ATOM     43  C   UNL A   1      43.353  28.815  34.431  1.00  0.00     0.049 A 
ATOM     44  N   UNL A   1      44.126  30.721  32.221  1.00  0.00    -0.248 NA
ATOM     45  C   UNL A   1      42.517  32.207  33.026  1.00  0.00     0.031 C 
ATOM     46  C   UNL A   1      43.025  27.862  35.488  1.00  0.00     0.029 A 
ATOM     47  N   UNL A   1      44.381  28.218  33.745  1.00  0.00    -0.354 N 
ATOM     48  C   UNL A   1      44.129  31.871  31.440  1.00  0.00     0.074 A 
ATOM     49  C   UNL A   1      43.091  32.736  31.957  1.00  0.00     0.031 C 
ATOM     50  C   UNL A   1      43.825  26.788  35.370  1.00  0.00     0.029 A 
ATOM     51  C   UNL A   1      44.697  26.963  34.207  1.00  0.00     0.049 A 
ATOM     52  H   UNL A   1      44.849  28.648  32.992  1.00  0.00     0.167 HD
ATOM     53  C   UNL A   1      44.928  32.181  30.391  1.00  0.00     0.037 A 
ATOM     54  C   UNL A   1      45.568  26.050  33.730  1.00  0.00     0.037 A 
ATOM     55  C   UNL A   1      45.954  31.311  29.879  1.00  0.00     0.049 A 
ATOM     56  C   UNL A   1      46.402  26.385  32.520  1.00  0.00     0.074 A 
ATOM     57  C   UNL A   1      46.833  31.541  28.837  1.00  0.00     0.029 A 
ATOM     58  N   UNL A   1      46.227  30.038  30.360  1.00  0.00    -0.354 N 
ATOM     59  N   UNL A   1      46.419  27.488  31.807  1.00  0.00    -0.248 NA
ATOM     60  C   UNL A   1      47.339  25.356  32.049  1.00  0.00     0.031 C 
ATOM     61  C   UNL A   1      47.593  30.383  28.645  1.00  0.00     0.029 A 
ATOM     62  C   UNL A   1      47.240  29.457  29.614  1.00  0.00     0.049 A 
ATOM     63  H   UNL A   1      45.769  29.611  31.120  1.00  0.00     0.167 HD
ATOM     64  C   UNL A   1      47.387  27.296  30.825  1.00  0.00     0.074 A 
ATOM     65  C   UNL A   1      47.939  25.975  31.041  1.00  0.00     0.031 C 
ATOM     66  C   UNL A   1      47.785  28.140  29.840  1.00  0.00     0.037 A 
BRANCH  53  67
ATOM     67  C   UNL A   1      44.688  33.498  29.703  1.00  0.00     0.058 A 
ATOM     68  C   UNL A   1      45.230  34.702  30.182  1.00  0.00     0.135 A 
ATOM     69  C   UNL A   1      43.906  33.554  28.537  1.00  0.00     0.135 A 
ATOM     70  F   UNL A   1      45.969  34.713  31.303  1.00  0.00    -0.206 F 
ATOM     71  C   UNL A   1      44.974  35.916  29.554  1.00  0.00     0.059 A 
ATOM     72  C   UNL A   1      43.666  34.753  27.872  1.00  0.00     0.059 A 
ATOM     73  F   UNL A   1      43.361  32.435  28.033  1.00  0.00    -0.206 F 
ATOM     74  C   UNL A   1      44.189  35.932  28.400  1.00  0.00     0.060 A 
BRANCH  74  75
ATOM     75  S   UNL A   1      43.854  37.517  27.605  1.00  0.00     0.124 S 
ATOM     76  O   UNL A   1      45.186  37.900  27.145  1.00  0.00    -0.237 OA
ATOM     77  O   UNL A   1      42.905  37.147  26.560  1.00  0.00    -0.237 OA
ATOM     78  O   UNL A   1      43.308  38.332  28.685  1.00  0.00    -0.744 OA
ENDBRANCH  74  75
ENDBRANCH  53  67
BRANCH  54  79
ATOM     79  C   UNL A   1      45.686  24.724  34.396  1.00  0.00     0.058 A 
ATOM     80  C   UNL A   1      44.941  23.620  33.958  1.00  0.00     0.135 A 
ATOM     81  C   UNL A   1      46.566  24.530  35.473  1.00  0.00     0.135 A 
ATOM     82  F   UNL A   1      44.074  23.757  32.944  1.00  0.00    -0.206 F 
ATOM     83  C   UNL A   1      45.062  22.373  34.561  1.00  0.00     0.059 A 
ATOM     84  C   UNL A   1      46.727  23.286  36.075  1.00  0.00     0.059 A 
ATOM     85  F   UNL A   1      47.306  25.554  35.930  1.00  0.00    -0.206 F 
ATOM     86  C   UNL A   1      45.967  22.213  35.613  1.00  0.00     0.060 A 
BRANCH  86  87
ATOM     87  S   UNL A   1      46.172  20.570  36.334  1.00  0.00     0.124 S 
ATOM     88  O   UNL A   1      45.788  20.806  37.721  1.00  0.00    -0.237 OA
ATOM     89  O   UNL A   1      45.243  19.773  35.540  1.00  0.00    -0.237 OA
ATOM     90  O   UNL A   1      47.585  20.279  36.111  1.00  0.00    -0.744 OA
ENDBRANCH  86  87
ENDBRANCH  54  79
BRANCH  66  91
ATOM     91  C   UNL A   1      48.902  27.686  28.936  1.00  0.00     0.058 A 
ATOM     92  C   UNL A   1      50.250  27.956  29.223  1.00  0.00     0.135 A 
ATOM     93  C   UNL A   1      48.620  26.911  27.797  1.00  0.00     0.135 A 
ATOM     94  F   UNL A   1      50.578  28.694  30.294  1.00  0.00    -0.206 F 
ATOM     95  C   UNL A   1      51.275  27.494  28.402  1.00  0.00     0.059 A 
ATOM     96  C   UNL A   1      49.630  26.413  26.980  1.00  0.00     0.059 A 
ATOM     97  F   UNL A   1      47.350  26.612  27.480  1.00  0.00    -0.206 F 
ATOM     98  C   UNL A   1      50.955  26.720  27.284  1.00  0.00     0.060 A 
BRANCH  98  99
ATOM     99  S   UNL A   1      52.297  26.098  26.248  1.00  0.00     0.124 S 
ATOM    100  O   UNL A   1      53.447  26.251  27.133  1.00  0.00    -0.237 OA
ATOM    101  O   UNL A   1      51.877  24.726  25.985  1.00  0.00    -0.237 OA
ATOM    102  O   UNL A   1      52.274  26.988  25.091  1.00  0.00    -0.744 OA
ENDBRANCH  98  99
ENDBRANCH  66  91
ENDBRANCH  40  41
ENDBRANCH  33  35
ENDBRANCH  32  33
ENDBRANCH  31  32
ENDBRANCH  30  31
ENDBRANCH  29  30
ENDBRANCH  28  29
ENDBRANCH  27  28
ENDBRANCH   1  27
TORSDOF 28
ENDMDL
