MODEL 1
REMARK VINA RESULT:      -8.3      0.000      0.000
REMARK SMILES CCCOc1ccccc1O[C@@H]1CC[C@@]([NH3+])(C(=O)OCCOCCOCCOCCOC(=O)c2ccc(-c3c4nc(c(-c5c(F)cc(S(=O)(=O)[O-])cc5F)c5ccc([nH]5)c(-c5c(F)cc(S(=O)(=O)[O-])cc5F)c5nc(c(-c6c(F)cc(S(=O)(=O)[O-])cc6F)c6ccc3[nH]6)C=C5)C=C4)cc2)C1
REMARK SMILES IDX 24 1 23 2 22 3 21 4 20 5 19 6 17 7 18 8 15 9 12 10 13 11
REMARK SMILES IDX 100 12 14 13 11 14 10 15 5 16 6 17 7 18 9 19 8 20 4 21 3 22
REMARK SMILES IDX 2 23 1 24 16 25 25 29 26 30 27 31 28 32 29 33 30 34 31 35
REMARK SMILES IDX 32 36 33 37 34 38 35 39 99 40 36 41 98 42 37 43 38 44 39 45
REMARK SMILES IDX 92 46 40 47 97 48 91 49 93 50 41 51 96 52 90 53 89 54 42 56
REMARK SMILES IDX 76 57 55 58 75 59 56 60 59 61 74 62 94 63 57 64 58 65 73 67
REMARK SMILES IDX 95 68 60 69 43 70 44 71 53 72 45 73 46 74 52 75 54 76 47 77
REMARK SMILES IDX 48 78 49 79 50 80 51 81 77 82 78 83 87 84 79 85 80 86 86 87
REMARK SMILES IDX 88 88 81 89 82 90 83 91 84 92 85 93 61 94 62 95 71 96 63 97
REMARK SMILES IDX 64 98 70 99 72 100 65 101 66 102 67 103 68 104 69 105
REMARK H PARENT 16 26 16 27 16 28 93 55 59 66
REMARK Flexibility Score: inf
ROOT
ATOM      1  C   UNL A   1      31.830  27.943  26.788  1.00  0.00     0.188 C 
ENDROOT
BRANCH   1   2
ATOM      2  C   UNL A   1      30.976  27.641  25.551  1.00  0.00     0.188 C 
BRANCH   2   3
ATOM      3  O   UNL A   1      30.578  26.301  25.321  1.00  0.00    -0.376 OA
BRANCH   3   4
ATOM      4  C   UNL A   1      30.681  25.365  26.393  1.00  0.00     0.202 C 
BRANCH   4   5
ATOM      5  C   UNL A   1      30.925  23.858  26.134  1.00  0.00     0.261 C 
BRANCH   5   6
ATOM      6  O   UNL A   1      30.935  23.437  24.747  1.00  0.00    -0.459 OA
BRANCH   6   7
ATOM      7  C   UNL A   1      32.122  23.512  24.094  1.00  0.00     0.368 C 
ATOM      8  O   UNL A   1      32.601  24.570  23.682  1.00  0.00    -0.245 OA
BRANCH   7   9
ATOM      9  C   UNL A   1      32.974  22.194  24.071  1.00  0.00     0.196 C 
ATOM     10  C   UNL A   1      35.075  21.544  25.257  1.00  0.00     0.180 C 
ATOM     11  C   UNL A   1      34.103  20.369  25.280  1.00  0.00     0.052 C 
ATOM     12  C   UNL A   1      34.426  22.615  24.377  1.00  0.00     0.126 C 
ATOM     13  C   UNL A   1      32.716  21.006  25.010  1.00  0.00     0.085 C 
BRANCH  10  14
ATOM     14  O   UNL A   1      36.486  21.328  25.167  1.00  0.00    -0.486 OA
BRANCH  14  15
ATOM     15  C   UNL A   1      37.418  22.143  25.727  1.00  0.00     0.161 A 
ATOM     16  C   UNL A   1      38.702  21.789  26.126  1.00  0.00     0.161 A 
ATOM     17  C   UNL A   1      39.536  22.690  26.796  1.00  0.00     0.050 A 
ATOM     18  C   UNL A   1      39.190  24.034  26.846  1.00  0.00     0.004 A 
ATOM     19  C   UNL A   1      37.114  23.510  25.718  1.00  0.00     0.050 A 
ATOM     20  C   UNL A   1      38.008  24.453  26.242  1.00  0.00     0.004 A 
BRANCH  16  21
ATOM     21  O   UNL A   1      39.276  20.622  25.710  1.00  0.00    -0.490 OA
BRANCH  21  22
ATOM     22  C   UNL A   1      40.562  20.432  26.360  1.00  0.00     0.229 C 
BRANCH  22  23
ATOM     23  C   UNL A   1      41.352  19.176  25.925  1.00  0.00     0.038 C 
ATOM     24  C   UNL A   1      42.843  19.406  25.751  1.00  0.00     0.007 C 
ENDBRANCH  22  23
ENDBRANCH  21  22
ENDBRANCH  16  21
ENDBRANCH  14  15
ENDBRANCH  10  14
BRANCH   9  25
ATOM     25  N   UNL A   1      32.910  21.657  22.679  1.00  0.00    -0.343 N 
ATOM     26  H   UNL A   1      32.924  20.638  22.706  1.00  0.00     0.345 HD
ATOM     27  H   UNL A   1      33.713  21.993  22.148  1.00  0.00     0.345 HD
ATOM     28  H   UNL A   1      32.050  21.974  22.232  1.00  0.00     0.345 HD
ENDBRANCH   9  25
ENDBRANCH   7   9
ENDBRANCH   6   7
ENDBRANCH   5   6
ENDBRANCH   4   5
ENDBRANCH   3   4
ENDBRANCH   2   3
ENDBRANCH   1   2
BRANCH   1  29
ATOM     29  O   UNL A   1      32.394  29.228  26.835  1.00  0.00    -0.377 OA
BRANCH  29  30
ATOM     30  C   UNL A   1      32.234  30.054  25.701  1.00  0.00     0.188 C 
BRANCH  30  31
ATOM     31  C   UNL A   1      31.200  31.192  25.724  1.00  0.00     0.188 C 
BRANCH  31  32
ATOM     32  O   UNL A   1      31.209  31.995  26.901  1.00  0.00    -0.376 OA
BRANCH  32  33
ATOM     33  C   UNL A   1      32.148  33.056  26.999  1.00  0.00     0.202 C 
BRANCH  33  34
ATOM     34  C   UNL A   1      32.970  33.178  28.293  1.00  0.00     0.261 C 
BRANCH  34  35
ATOM     35  O   UNL A   1      34.216  32.469  28.341  1.00  0.00    -0.460 OA
BRANCH  35  36
ATOM     36  C   UNL A   1      35.327  33.107  27.917  1.00  0.00     0.338 C 
ATOM     37  O   UNL A   1      35.383  34.216  27.405  1.00  0.00    -0.246 OA
BRANCH  36  38
ATOM     38  C   UNL A   1      36.497  32.331  28.384  1.00  0.00     0.060 A 
ATOM     39  C   UNL A   1      36.406  30.933  28.418  1.00  0.00     0.016 A 
ATOM     40  C   UNL A   1      37.693  32.971  28.719  1.00  0.00     0.016 A 
ATOM     41  C   UNL A   1      37.503  30.171  28.814  1.00  0.00     0.010 A 
ATOM     42  C   UNL A   1      38.781  32.208  29.155  1.00  0.00     0.010 A 
ATOM     43  C   UNL A   1      38.677  30.808  29.237  1.00  0.00    -0.014 A 
BRANCH  43  44
ATOM     44  C   UNL A   1      39.672  30.031  30.014  1.00  0.00     0.031 A 
ATOM     45  C   UNL A   1      39.846  30.387  31.467  1.00  0.00     0.074 A 
ATOM     46  C   UNL A   1      40.365  29.014  29.471  1.00  0.00     0.049 A 
ATOM     47  N   UNL A   1      40.649  29.873  32.360  1.00  0.00    -0.248 NA
ATOM     48  C   UNL A   1      38.992  31.472  31.979  1.00  0.00     0.031 C 
ATOM     49  C   UNL A   1      40.248  28.548  28.091  1.00  0.00     0.029 A 
ATOM     50  N   UNL A   1      41.314  28.192  30.026  1.00  0.00    -0.354 N 
ATOM     51  C   UNL A   1      40.400  30.572  33.535  1.00  0.00     0.074 A 
ATOM     52  C   UNL A   1      39.397  31.569  33.235  1.00  0.00     0.031 C 
ATOM     53  C   UNL A   1      41.104  27.527  27.903  1.00  0.00     0.029 A 
ATOM     54  C   UNL A   1      41.849  27.287  29.139  1.00  0.00     0.049 A 
ATOM     55  H   UNL A   1      41.586  28.244  30.971  1.00  0.00     0.167 HD
ATOM     56  C   UNL A   1      40.952  30.395  34.757  1.00  0.00     0.037 A 
ATOM     57  C   UNL A   1      42.837  26.385  29.307  1.00  0.00     0.037 A 
ATOM     58  C   UNL A   1      41.958  29.410  35.045  1.00  0.00     0.049 A 
ATOM     59  C   UNL A   1      43.490  26.253  30.663  1.00  0.00     0.074 A 
ATOM     60  C   UNL A   1      42.583  29.145  36.252  1.00  0.00     0.029 A 
ATOM     61  N   UNL A   1      42.497  28.533  34.114  1.00  0.00    -0.354 N 
ATOM     62  N   UNL A   1      43.234  26.908  31.772  1.00  0.00    -0.248 NA
ATOM     63  C   UNL A   1      44.562  25.257  30.790  1.00  0.00     0.031 C 
ATOM     64  C   UNL A   1      43.539  28.147  36.036  1.00  0.00     0.029 A 
ATOM     65  C   UNL A   1      43.462  27.742  34.712  1.00  0.00     0.049 A 
ATOM     66  H   UNL A   1      42.231  28.482  33.168  1.00  0.00     0.167 HD
ATOM     67  C   UNL A   1      44.087  26.376  32.736  1.00  0.00     0.074 A 
ATOM     68  C   UNL A   1      44.859  25.342  32.080  1.00  0.00     0.031 C 
ATOM     69  C   UNL A   1      44.216  26.708  34.045  1.00  0.00     0.037 A 
BRANCH  56  70
ATOM     70  C   UNL A   1      40.500  31.311  35.861  1.00  0.00     0.058 A 
ATOM     71  C   UNL A   1      41.302  32.366  36.327  1.00  0.00     0.135 A 
ATOM     72  C   UNL A   1      39.237  31.139  36.451  1.00  0.00     0.135 A 
ATOM     73  F   UNL A   1      42.528  32.560  35.817  1.00  0.00    -0.206 F 
ATOM     74  C   UNL A   1      40.877  33.203  37.354  1.00  0.00     0.059 A 
ATOM     75  C   UNL A   1      38.780  31.983  37.459  1.00  0.00     0.059 A 
ATOM     76  F   UNL A   1      38.434  30.141  36.052  1.00  0.00    -0.206 F 
ATOM     77  C   UNL A   1      39.613  33.004  37.913  1.00  0.00     0.060 A 
BRANCH  77  78
ATOM     78  S   UNL A   1      39.075  34.105  39.238  1.00  0.00     0.124 S 
ATOM     79  O   UNL A   1      40.138  35.104  39.238  1.00  0.00    -0.237 OA
ATOM     80  O   UNL A   1      37.776  34.561  38.754  1.00  0.00    -0.237 OA
ATOM     81  O   UNL A   1      39.033  33.233  40.408  1.00  0.00    -0.744 OA
ENDBRANCH  77  78
ENDBRANCH  56  70
BRANCH  57  82
ATOM     82  C   UNL A   1      43.281  25.537  28.166  1.00  0.00     0.058 A 
ATOM     83  C   UNL A   1      42.725  24.270  27.938  1.00  0.00     0.135 A 
ATOM     84  C   UNL A   1      44.284  25.975  27.286  1.00  0.00     0.135 A 
ATOM     85  F   UNL A   1      41.774  23.797  28.759  1.00  0.00    -0.206 F 
ATOM     86  C   UNL A   1      43.157  23.459  26.892  1.00  0.00     0.059 A 
ATOM     87  C   UNL A   1      44.711  25.196  26.215  1.00  0.00     0.059 A 
ATOM     88  F   UNL A   1      44.847  27.182  27.453  1.00  0.00    -0.206 F 
ATOM     89  C   UNL A   1      44.149  23.933  26.032  1.00  0.00     0.060 A 
BRANCH  89  90
ATOM     90  S   UNL A   1      44.668  22.891  24.651  1.00  0.00     0.124 S 
ATOM     91  O   UNL A   1      45.565  23.784  23.928  1.00  0.00    -0.237 OA
ATOM     92  O   UNL A   1      45.298  21.768  25.338  1.00  0.00    -0.237 OA
ATOM     93  O   UNL A   1      43.411  22.578  23.977  1.00  0.00    -0.744 OA
ENDBRANCH  89  90
ENDBRANCH  57  82
BRANCH  69  94
ATOM     94  C   UNL A   1      45.190  25.913  34.874  1.00  0.00     0.058 A 
ATOM     95  C   UNL A   1      46.522  26.320  35.055  1.00  0.00     0.135 A 
ATOM     96  C   UNL A   1      44.767  24.749  35.538  1.00  0.00     0.135 A 
ATOM     97  F   UNL A   1      46.980  27.425  34.443  1.00  0.00    -0.206 F 
ATOM     98  C   UNL A   1      47.409  25.582  35.832  1.00  0.00     0.059 A 
ATOM     99  C   UNL A   1      45.627  24.015  36.348  1.00  0.00     0.059 A 
ATOM    100  F   UNL A   1      43.500  24.323  35.415  1.00  0.00    -0.206 F 
ATOM    101  C   UNL A   1      46.951  24.430  36.475  1.00  0.00     0.060 A 
BRANCH 101 102
ATOM    102  S   UNL A   1      48.107  23.489  37.494  1.00  0.00     0.124 S 
ATOM    103  O   UNL A   1      47.226  22.972  38.537  1.00  0.00    -0.237 OA
ATOM    104  O   UNL A   1      48.622  22.502  36.552  1.00  0.00    -0.237 OA
ATOM    105  O   UNL A   1      49.073  24.494  37.929  1.00  0.00    -0.744 OA
ENDBRANCH 101 102
ENDBRANCH  69  94
ENDBRANCH  43  44
ENDBRANCH  36  38
ENDBRANCH  35  36
ENDBRANCH  34  35
ENDBRANCH  33  34
ENDBRANCH  32  33
ENDBRANCH  31  32
ENDBRANCH  30  31
ENDBRANCH  29  30
ENDBRANCH   1  29
TORSDOF 29
ENDMDL
MODEL 2
REMARK VINA RESULT:      -8.3      1.378      2.860
REMARK SMILES CCCOc1ccccc1O[C@@H]1CC[C@@]([NH3+])(C(=O)OCCOCCOCCOCCOC(=O)c2ccc(-c3c4nc(c(-c5c(F)cc(S(=O)(=O)[O-])cc5F)c5ccc([nH]5)c(-c5c(F)cc(S(=O)(=O)[O-])cc5F)c5nc(c(-c6c(F)cc(S(=O)(=O)[O-])cc6F)c6ccc3[nH]6)C=C5)C=C4)cc2)C1
REMARK SMILES IDX 24 1 23 2 22 3 21 4 20 5 19 6 17 7 18 8 15 9 12 10 13 11
REMARK SMILES IDX 100 12 14 13 11 14 10 15 5 16 6 17 7 18 9 19 8 20 4 21 3 22
REMARK SMILES IDX 2 23 1 24 16 25 25 29 26 30 27 31 28 32 29 33 30 34 31 35
REMARK SMILES IDX 32 36 33 37 34 38 35 39 99 40 36 41 98 42 37 43 38 44 39 45
REMARK SMILES IDX 92 46 40 47 97 48 91 49 93 50 41 51 96 52 90 53 89 54 42 56
REMARK SMILES IDX 76 57 55 58 75 59 56 60 59 61 74 62 94 63 57 64 58 65 73 67
REMARK SMILES IDX 95 68 60 69 43 70 44 71 53 72 45 73 46 74 52 75 54 76 47 77
REMARK SMILES IDX 48 78 49 79 50 80 51 81 77 82 78 83 87 84 79 85 80 86 86 87
REMARK SMILES IDX 88 88 81 89 82 90 83 91 84 92 85 93 61 94 62 95 71 96 63 97
REMARK SMILES IDX 64 98 70 99 72 100 65 101 66 102 67 103 68 104 69 105
REMARK H PARENT 16 26 16 27 16 28 93 55 59 66
REMARK Flexibility Score: inf
ROOT
ATOM      1  C   UNL A   1      32.091  28.119  26.969  1.00  0.00     0.188 C 
ENDROOT
BRANCH   1   2
ATOM      2  C   UNL A   1      31.201  27.526  25.871  1.00  0.00     0.188 C 
BRANCH   2   3
ATOM      3  O   UNL A   1      31.282  26.134  25.619  1.00  0.00    -0.376 OA
BRANCH   3   4
ATOM      4  C   UNL A   1      31.697  25.272  26.679  1.00  0.00     0.202 C 
BRANCH   4   5
ATOM      5  C   UNL A   1      32.557  24.013  26.412  1.00  0.00     0.261 C 
BRANCH   5   6
ATOM      6  O   UNL A   1      33.335  24.013  25.189  1.00  0.00    -0.459 OA
BRANCH   6   7
ATOM      7  C   UNL A   1      34.604  24.486  25.271  1.00  0.00     0.368 C 
ATOM      8  O   UNL A   1      34.872  25.672  25.472  1.00  0.00    -0.245 OA
BRANCH   7   9
ATOM      9  C   UNL A   1      35.737  23.399  25.309  1.00  0.00     0.196 C 
ATOM     10  C   UNL A   1      35.763  20.990  24.649  1.00  0.00     0.180 C 
ATOM     11  C   UNL A   1      37.050  21.653  24.172  1.00  0.00     0.052 C 
ATOM     12  C   UNL A   1      35.026  22.042  25.482  1.00  0.00     0.126 C 
ATOM     13  C   UNL A   1      36.724  23.168  24.155  1.00  0.00     0.085 C 
BRANCH  10  14
ATOM     14  O   UNL A   1      35.756  19.626  25.083  1.00  0.00    -0.486 OA
BRANCH  14  15
ATOM     15  C   UNL A   1      34.762  18.743  24.801  1.00  0.00     0.161 A 
ATOM     16  C   UNL A   1      33.422  18.859  25.152  1.00  0.00     0.161 A 
ATOM     17  C   UNL A   1      32.508  17.830  24.904  1.00  0.00     0.050 A 
ATOM     18  C   UNL A   1      32.872  16.779  24.072  1.00  0.00     0.004 A 
ATOM     19  C   UNL A   1      35.094  17.720  23.905  1.00  0.00     0.050 A 
ATOM     20  C   UNL A   1      34.147  16.764  23.515  1.00  0.00     0.004 A 
BRANCH  16  21
ATOM     21  O   UNL A   1      32.899  20.049  25.570  1.00  0.00    -0.490 OA
BRANCH  21  22
ATOM     22  C   UNL A   1      31.914  20.530  24.616  1.00  0.00     0.229 C 
BRANCH  22  23
ATOM     23  C   UNL A   1      32.484  21.186  23.338  1.00  0.00     0.038 C 
ATOM     24  C   UNL A   1      31.963  20.589  22.042  1.00  0.00     0.007 C 
ENDBRANCH  22  23
ENDBRANCH  21  22
ENDBRANCH  16  21
ENDBRANCH  14  15
ENDBRANCH  10  14
BRANCH   9  25
ATOM     25  N   UNL A   1      36.560  23.671  26.524  1.00  0.00    -0.343 N 
ATOM     26  H   UNL A   1      35.947  23.830  27.323  1.00  0.00     0.345 HD
ATOM     27  H   UNL A   1      37.134  24.499  26.368  1.00  0.00     0.345 HD
ATOM     28  H   UNL A   1      37.163  22.870  26.713  1.00  0.00     0.345 HD
ENDBRANCH   9  25
ENDBRANCH   7   9
ENDBRANCH   6   7
ENDBRANCH   5   6
ENDBRANCH   4   5
ENDBRANCH   3   4
ENDBRANCH   2   3
ENDBRANCH   1   2
BRANCH   1  29
ATOM     29  O   UNL A   1      32.494  29.450  26.769  1.00  0.00    -0.377 OA
BRANCH  29  30
ATOM     30  C   UNL A   1      32.056  30.095  25.592  1.00  0.00     0.188 C 
BRANCH  30  31
ATOM     31  C   UNL A   1      31.045  31.250  25.684  1.00  0.00     0.188 C 
BRANCH  31  32
ATOM     32  O   UNL A   1      31.139  32.045  26.861  1.00  0.00    -0.376 OA
BRANCH  32  33
ATOM     33  C   UNL A   1      32.112  33.079  26.915  1.00  0.00     0.202 C 
BRANCH  33  34
ATOM     34  C   UNL A   1      32.869  33.293  28.236  1.00  0.00     0.261 C 
BRANCH  34  35
ATOM     35  O   UNL A   1      34.119  32.606  28.389  1.00  0.00    -0.460 OA
BRANCH  35  36
ATOM     36  C   UNL A   1      35.227  33.187  27.885  1.00  0.00     0.338 C 
ATOM     37  O   UNL A   1      35.290  34.254  27.291  1.00  0.00    -0.246 OA
BRANCH  36  38
ATOM     38  C   UNL A   1      36.396  32.421  28.371  1.00  0.00     0.060 A 
ATOM     39  C   UNL A   1      36.319  31.022  28.397  1.00  0.00     0.016 A 
ATOM     40  C   UNL A   1      37.580  33.070  28.731  1.00  0.00     0.016 A 
ATOM     41  C   UNL A   1      37.415  30.268  28.811  1.00  0.00     0.010 A 
ATOM     42  C   UNL A   1      38.667  32.316  29.184  1.00  0.00     0.010 A 
ATOM     43  C   UNL A   1      38.575  30.914  29.258  1.00  0.00    -0.014 A 
BRANCH  43  44
ATOM     44  C   UNL A   1      39.562  30.144  30.050  1.00  0.00     0.031 A 
ATOM     45  C   UNL A   1      39.716  30.504  31.505  1.00  0.00     0.074 A 
ATOM     46  C   UNL A   1      40.268  29.129  29.520  1.00  0.00     0.049 A 
ATOM     47  N   UNL A   1      40.508  29.996  32.410  1.00  0.00    -0.248 NA
ATOM     48  C   UNL A   1      38.849  31.586  32.002  1.00  0.00     0.031 C 
ATOM     49  C   UNL A   1      40.171  28.659  28.140  1.00  0.00     0.029 A 
ATOM     50  N   UNL A   1      41.212  28.312  30.090  1.00  0.00    -0.354 N 
ATOM     51  C   UNL A   1      40.240  30.697  33.579  1.00  0.00     0.074 A 
ATOM     52  C   UNL A   1      39.237  31.688  33.264  1.00  0.00     0.031 C 
ATOM     53  C   UNL A   1      41.034  27.642  27.966  1.00  0.00     0.029 A 
ATOM     54  C   UNL A   1      41.763  27.408  29.212  1.00  0.00     0.049 A 
ATOM     55  H   UNL A   1      41.471  28.368  31.038  1.00  0.00     0.167 HD
ATOM     56  C   UNL A   1      40.776  30.525  34.810  1.00  0.00     0.037 A 
ATOM     57  C   UNL A   1      42.753  26.511  29.396  1.00  0.00     0.037 A 
ATOM     58  C   UNL A   1      41.782  29.545  35.114  1.00  0.00     0.049 A 
ATOM     59  C   UNL A   1      43.389  26.385  30.760  1.00  0.00     0.074 A 
ATOM     60  C   UNL A   1      42.392  29.286  36.329  1.00  0.00     0.029 A 
ATOM     61  N   UNL A   1      42.338  28.668  34.192  1.00  0.00    -0.354 N 
ATOM     62  N   UNL A   1      43.115  27.041  31.864  1.00  0.00    -0.248 NA
ATOM     63  C   UNL A   1      44.463  25.394  30.905  1.00  0.00     0.031 C 
ATOM     64  C   UNL A   1      43.355  28.292  36.130  1.00  0.00     0.029 A 
ATOM     65  C   UNL A   1      43.299  27.884  34.805  1.00  0.00     0.049 A 
ATOM     66  H   UNL A   1      42.085  28.614  33.243  1.00  0.00     0.167 HD
ATOM     67  C   UNL A   1      43.956  26.515  32.842  1.00  0.00     0.074 A 
ATOM     68  C   UNL A   1      44.742  25.483  32.199  1.00  0.00     0.031 C 
ATOM     69  C   UNL A   1      44.066  26.852  34.151  1.00  0.00     0.037 A 
BRANCH  56  70
ATOM     70  C   UNL A   1      40.305  31.442  35.905  1.00  0.00     0.058 A 
ATOM     71  C   UNL A   1      41.070  32.537  36.338  1.00  0.00     0.135 A 
ATOM     72  C   UNL A   1      39.060  31.229  36.520  1.00  0.00     0.135 A 
ATOM     73  F   UNL A   1      42.279  32.771  35.805  1.00  0.00    -0.206 F 
ATOM     74  C   UNL A   1      40.628  33.374  37.359  1.00  0.00     0.059 A 
ATOM     75  C   UNL A   1      38.585  32.072  37.520  1.00  0.00     0.059 A 
ATOM     76  F   UNL A   1      38.292  30.192  36.152  1.00  0.00    -0.206 F 
ATOM     77  C   UNL A   1      39.383  33.134  37.942  1.00  0.00     0.060 A 
BRANCH  77  78
ATOM     78  S   UNL A   1      38.821  34.235  39.257  1.00  0.00     0.124 S 
ATOM     79  O   UNL A   1      38.870  35.533  38.591  1.00  0.00    -0.237 OA
ATOM     80  O   UNL A   1      37.487  33.720  39.545  1.00  0.00    -0.237 OA
ATOM     81  O   UNL A   1      39.809  34.035  40.313  1.00  0.00    -0.744 OA
ENDBRANCH  77  78
ENDBRANCH  56  70
BRANCH  57  82
ATOM     82  C   UNL A   1      43.216  25.662  28.263  1.00  0.00     0.058 A 
ATOM     83  C   UNL A   1      42.527  24.499  27.893  1.00  0.00     0.135 A 
ATOM     84  C   UNL A   1      44.371  25.993  27.535  1.00  0.00     0.135 A 
ATOM     85  F   UNL A   1      41.426  24.129  28.565  1.00  0.00    -0.206 F 
ATOM     86  C   UNL A   1      42.971  23.684  26.854  1.00  0.00     0.059 A 
ATOM     87  C   UNL A   1      44.818  25.212  26.474  1.00  0.00     0.059 A 
ATOM     88  F   UNL A   1      45.067  27.099  27.842  1.00  0.00    -0.206 F 
ATOM     89  C   UNL A   1      44.117  24.052  26.148  1.00  0.00     0.060 A 
BRANCH  89  90
ATOM     90  S   UNL A   1      44.657  23.012  24.774  1.00  0.00     0.124 S 
ATOM     91  O   UNL A   1      45.428  23.956  23.974  1.00  0.00    -0.237 OA
ATOM     92  O   UNL A   1      45.425  21.977  25.459  1.00  0.00    -0.237 OA
ATOM     93  O   UNL A   1      43.402  22.560  24.181  1.00  0.00    -0.744 OA
ENDBRANCH  89  90
ENDBRANCH  57  82
BRANCH  69  94
ATOM     94  C   UNL A   1      45.032  26.063  34.996  1.00  0.00     0.058 A 
ATOM     95  C   UNL A   1      46.374  26.448  35.150  1.00  0.00     0.135 A 
ATOM     96  C   UNL A   1      44.593  24.929  35.699  1.00  0.00     0.135 A 
ATOM     97  F   UNL A   1      46.848  27.523  34.500  1.00  0.00    -0.206 F 
ATOM     98  C   UNL A   1      47.254  25.716  35.942  1.00  0.00     0.059 A 
ATOM     99  C   UNL A   1      45.446  24.203  36.523  1.00  0.00     0.059 A 
ATOM    100  F   UNL A   1      43.316  24.525  35.602  1.00  0.00    -0.206 F 
ATOM    101  C   UNL A   1      46.779  24.594  36.625  1.00  0.00     0.060 A 
BRANCH 101 102
ATOM    102  S   UNL A   1      47.927  23.662  37.662  1.00  0.00     0.124 S 
ATOM    103  O   UNL A   1      47.016  23.026  38.609  1.00  0.00    -0.237 OA
ATOM    104  O   UNL A   1      48.564  22.772  36.699  1.00  0.00    -0.237 OA
ATOM    105  O   UNL A   1      48.794  24.695  38.222  1.00  0.00    -0.744 OA
ENDBRANCH 101 102
ENDBRANCH  69  94
ENDBRANCH  43  44
ENDBRANCH  36  38
ENDBRANCH  35  36
ENDBRANCH  34  35
ENDBRANCH  33  34
ENDBRANCH  32  33
ENDBRANCH  31  32
ENDBRANCH  30  31
ENDBRANCH  29  30
ENDBRANCH   1  29
TORSDOF 29
ENDMDL
MODEL 3
REMARK VINA RESULT:      -7.7      7.307      9.807
REMARK SMILES CCCOc1ccccc1O[C@@H]1CC[C@@]([NH3+])(C(=O)OCCOCCOCCOCCOC(=O)c2ccc(-c3c4nc(c(-c5c(F)cc(S(=O)(=O)[O-])cc5F)c5ccc([nH]5)c(-c5c(F)cc(S(=O)(=O)[O-])cc5F)c5nc(c(-c6c(F)cc(S(=O)(=O)[O-])cc6F)c6ccc3[nH]6)C=C5)C=C4)cc2)C1
REMARK SMILES IDX 24 1 23 2 22 3 21 4 20 5 19 6 17 7 18 8 15 9 12 10 13 11
REMARK SMILES IDX 100 12 14 13 11 14 10 15 5 16 6 17 7 18 9 19 8 20 4 21 3 22
REMARK SMILES IDX 2 23 1 24 16 25 25 29 26 30 27 31 28 32 29 33 30 34 31 35
REMARK SMILES IDX 32 36 33 37 34 38 35 39 99 40 36 41 98 42 37 43 38 44 39 45
REMARK SMILES IDX 92 46 40 47 97 48 91 49 93 50 41 51 96 52 90 53 89 54 42 56
REMARK SMILES IDX 76 57 55 58 75 59 56 60 59 61 74 62 94 63 57 64 58 65 73 67
REMARK SMILES IDX 95 68 60 69 43 70 44 71 53 72 45 73 46 74 52 75 54 76 47 77
REMARK SMILES IDX 48 78 49 79 50 80 51 81 77 82 78 83 87 84 79 85 80 86 86 87
REMARK SMILES IDX 88 88 81 89 82 90 83 91 84 92 85 93 61 94 62 95 71 96 63 97
REMARK SMILES IDX 64 98 70 99 72 100 65 101 66 102 67 103 68 104 69 105
REMARK H PARENT 16 26 16 27 16 28 93 55 59 66
REMARK Flexibility Score: inf
ROOT
ATOM      1  C   UNL A   1      34.761  33.389  31.016  1.00  0.00     0.188 C 
ENDROOT
BRANCH   1   2
ATOM      2  C   UNL A   1      34.675  32.465  29.796  1.00  0.00     0.188 C 
BRANCH   2   3
ATOM      3  O   UNL A   1      35.542  32.712  28.704  1.00  0.00    -0.376 OA
BRANCH   3   4
ATOM      4  C   UNL A   1      36.706  31.898  28.560  1.00  0.00     0.202 C 
BRANCH   4   5
ATOM      5  C   UNL A   1      36.983  30.703  29.505  1.00  0.00     0.261 C 
BRANCH   5   6
ATOM      6  O   UNL A   1      38.321  30.148  29.465  1.00  0.00    -0.459 OA
BRANCH   6   7
ATOM      7  C   UNL A   1      38.464  28.936  28.874  1.00  0.00     0.368 C 
ATOM      8  O   UNL A   1      37.914  28.632  27.813  1.00  0.00    -0.245 OA
BRANCH   7   9
ATOM      9  C   UNL A   1      39.549  27.991  29.502  1.00  0.00     0.196 C 
ATOM     10  C   UNL A   1      41.096  26.316  28.482  1.00  0.00     0.180 C 
ATOM     11  C   UNL A   1      41.853  27.123  29.531  1.00  0.00     0.052 C 
ATOM     12  C   UNL A   1      39.635  26.760  28.578  1.00  0.00     0.126 C 
ATOM     13  C   UNL A   1      41.012  28.410  29.714  1.00  0.00     0.085 C 
BRANCH  10  14
ATOM     14  O   UNL A   1      41.393  24.933  28.264  1.00  0.00    -0.486 OA
BRANCH  14  15
ATOM     15  C   UNL A   1      42.019  24.455  27.156  1.00  0.00     0.161 A 
ATOM     16  C   UNL A   1      42.964  25.120  26.383  1.00  0.00     0.161 A 
ATOM     17  C   UNL A   1      43.459  24.568  25.197  1.00  0.00     0.050 A 
ATOM     18  C   UNL A   1      43.206  23.234  24.906  1.00  0.00     0.004 A 
ATOM     19  C   UNL A   1      41.832  23.093  26.892  1.00  0.00     0.050 A 
ATOM     20  C   UNL A   1      42.448  22.477  25.795  1.00  0.00     0.004 A 
BRANCH  16  21
ATOM     21  O   UNL A   1      43.595  26.240  26.843  1.00  0.00    -0.490 OA
BRANCH  21  22
ATOM     22  C   UNL A   1      43.539  27.296  25.846  1.00  0.00     0.229 C 
BRANCH  22  23
ATOM     23  C   UNL A   1      43.054  28.672  26.357  1.00  0.00     0.038 C 
ATOM     24  C   UNL A   1      41.613  28.997  26.005  1.00  0.00     0.007 C 
ENDBRANCH  22  23
ENDBRANCH  21  22
ENDBRANCH  16  21
ENDBRANCH  14  15
ENDBRANCH  10  14
BRANCH   9  25
ATOM     25  N   UNL A   1      39.033  27.560  30.835  1.00  0.00    -0.343 N 
ATOM     26  H   UNL A   1      38.014  27.539  30.815  1.00  0.00     0.345 HD
ATOM     27  H   UNL A   1      39.345  28.218  31.549  1.00  0.00     0.345 HD
ATOM     28  H   UNL A   1      39.389  26.629  31.053  1.00  0.00     0.345 HD
ENDBRANCH   9  25
ENDBRANCH   7   9
ENDBRANCH   6   7
ENDBRANCH   5   6
ENDBRANCH   4   5
ENDBRANCH   3   4
ENDBRANCH   2   3
ENDBRANCH   1   2
BRANCH   1  29
ATOM     29  O   UNL A   1      35.830  33.139  31.891  1.00  0.00    -0.377 OA
BRANCH  29  30
ATOM     30  C   UNL A   1      37.024  33.865  31.689  1.00  0.00     0.188 C 
BRANCH  30  31
ATOM     31  C   UNL A   1      37.716  34.545  32.883  1.00  0.00     0.188 C 
BRANCH  31  32
ATOM     32  O   UNL A   1      38.521  33.687  33.685  1.00  0.00    -0.376 OA
BRANCH  32  33
ATOM     33  C   UNL A   1      37.915  32.995  34.769  1.00  0.00     0.202 C 
BRANCH  33  34
ATOM     34  C   UNL A   1      37.589  31.504  34.583  1.00  0.00     0.261 C 
BRANCH  34  35
ATOM     35  O   UNL A   1      38.649  30.570  34.829  1.00  0.00    -0.460 OA
BRANCH  35  36
ATOM     36  C   UNL A   1      39.135  29.871  33.783  1.00  0.00     0.338 C 
ATOM     37  O   UNL A   1      38.661  28.852  33.299  1.00  0.00    -0.246 OA
BRANCH  36  38
ATOM     38  C   UNL A   1      40.218  30.671  33.171  1.00  0.00     0.060 A 
ATOM     39  C   UNL A   1      40.039  31.163  31.871  1.00  0.00     0.016 A 
ATOM     40  C   UNL A   1      41.369  30.994  33.896  1.00  0.00     0.016 A 
ATOM     41  C   UNL A   1      41.022  31.954  31.280  1.00  0.00     0.010 A 
ATOM     42  C   UNL A   1      42.373  31.754  33.289  1.00  0.00     0.010 A 
ATOM     43  C   UNL A   1      42.217  32.207  31.967  1.00  0.00    -0.014 A 
BRANCH  43  44
ATOM     44  C   UNL A   1      43.389  32.698  31.204  1.00  0.00     0.031 A 
ATOM     45  C   UNL A   1      43.661  34.179  31.232  1.00  0.00     0.074 A 
ATOM     46  C   UNL A   1      44.214  31.864  30.546  1.00  0.00     0.049 A 
ATOM     47  N   UNL A   1      44.608  34.864  30.648  1.00  0.00    -0.248 NA
ATOM     48  C   UNL A   1      42.736  34.997  32.035  1.00  0.00     0.031 C 
ATOM     49  C   UNL A   1      44.078  30.411  30.486  1.00  0.00     0.029 A 
ATOM     50  N   UNL A   1      45.332  32.132  29.797  1.00  0.00    -0.354 N 
ATOM     51  C   UNL A   1      44.390  36.188  31.009  1.00  0.00     0.074 A 
ATOM     52  C   UNL A   1      43.204  36.218  31.834  1.00  0.00     0.031 C 
ATOM     53  C   UNL A   1      45.072  29.913  29.727  1.00  0.00     0.029 A 
ATOM     54  C   UNL A   1      45.895  31.014  29.226  1.00  0.00     0.049 A 
ATOM     55  H   UNL A   1      45.698  33.038  29.679  1.00  0.00     0.167 HD
ATOM     56  C   UNL A   1      45.119  37.282  30.688  1.00  0.00     0.037 A 
ATOM     57  C   UNL A   1      46.942  30.903  28.383  1.00  0.00     0.037 A 
ATOM     58  C   UNL A   1      46.291  37.247  29.856  1.00  0.00     0.049 A 
ATOM     59  C   UNL A   1      47.698  32.146  27.979  1.00  0.00     0.074 A 
ATOM     60  C   UNL A   1      47.104  38.298  29.471  1.00  0.00     0.029 A 
ATOM     61  N   UNL A   1      46.812  36.101  29.271  1.00  0.00    -0.354 N 
ATOM     62  N   UNL A   1      47.494  33.392  28.341  1.00  0.00    -0.248 NA
ATOM     63  C   UNL A   1      48.828  31.968  27.058  1.00  0.00     0.031 C 
ATOM     64  C   UNL A   1      48.083  37.796  28.607  1.00  0.00     0.029 A 
ATOM     65  C   UNL A   1      47.921  36.422  28.509  1.00  0.00     0.049 A 
ATOM     66  H   UNL A   1      46.445  35.195  29.381  1.00  0.00     0.167 HD
ATOM     67  C   UNL A   1      48.493  34.139  27.721  1.00  0.00     0.074 A 
ATOM     68  C   UNL A   1      49.303  33.203  26.970  1.00  0.00     0.031 C 
ATOM     69  C   UNL A   1      48.724  35.475  27.773  1.00  0.00     0.037 A 
BRANCH  56  70
ATOM     70  C   UNL A   1      44.644  38.609  31.212  1.00  0.00     0.058 A 
ATOM     71  C   UNL A   1      43.776  39.432  30.475  1.00  0.00     0.135 A 
ATOM     72  C   UNL A   1      45.052  39.057  32.479  1.00  0.00     0.135 A 
ATOM     73  F   UNL A   1      43.375  39.066  29.248  1.00  0.00    -0.206 F 
ATOM     74  C   UNL A   1      43.349  40.662  30.967  1.00  0.00     0.059 A 
ATOM     75  C   UNL A   1      44.613  40.270  33.002  1.00  0.00     0.059 A 
ATOM     76  F   UNL A   1      45.890  38.316  33.221  1.00  0.00    -0.206 F 
ATOM     77  C   UNL A   1      43.772  41.071  32.232  1.00  0.00     0.060 A 
BRANCH  77  78
ATOM     78  S   UNL A   1      43.201  42.665  32.858  1.00  0.00     0.124 S 
ATOM     79  O   UNL A   1      42.298  43.090  31.792  1.00  0.00    -0.237 OA
ATOM     80  O   UNL A   1      42.564  42.294  34.117  1.00  0.00    -0.237 OA
ATOM     81  O   UNL A   1      44.430  43.441  32.985  1.00  0.00    -0.744 OA
ENDBRANCH  77  78
ENDBRANCH  56  70
BRANCH  57  82
ATOM     82  C   UNL A   1      47.339  29.568  27.853  1.00  0.00     0.058 A 
ATOM     83  C   UNL A   1      48.173  28.711  28.585  1.00  0.00     0.135 A 
ATOM     84  C   UNL A   1      46.901  29.130  26.592  1.00  0.00     0.135 A 
ATOM     85  F   UNL A   1      48.632  29.088  29.788  1.00  0.00    -0.206 F 
ATOM     86  C   UNL A   1      48.574  27.475  28.083  1.00  0.00     0.059 A 
ATOM     87  C   UNL A   1      47.263  27.887  26.082  1.00  0.00     0.059 A 
ATOM     88  F   UNL A   1      46.097  29.908  25.851  1.00  0.00    -0.206 F 
ATOM     89  C   UNL A   1      48.110  27.071  26.830  1.00  0.00     0.060 A 
BRANCH  89  90
ATOM     90  S   UNL A   1      48.599  25.446  26.210  1.00  0.00     0.124 S 
ATOM     91  O   UNL A   1      49.087  24.801  27.423  1.00  0.00    -0.237 OA
ATOM     92  O   UNL A   1      47.341  24.934  25.675  1.00  0.00    -0.237 OA
ATOM     93  O   UNL A   1      49.615  25.761  25.209  1.00  0.00    -0.744 OA
ENDBRANCH  89  90
ENDBRANCH  57  82
BRANCH  69  94
ATOM     94  C   UNL A   1      49.929  36.004  27.041  1.00  0.00     0.058 A 
ATOM     95  C   UNL A   1      49.858  36.446  25.710  1.00  0.00     0.135 A 
ATOM     96  C   UNL A   1      51.164  36.116  27.702  1.00  0.00     0.135 A 
ATOM     97  F   UNL A   1      48.703  36.362  25.030  1.00  0.00    -0.206 F 
ATOM     98  C   UNL A   1      50.977  36.943  25.049  1.00  0.00     0.059 A 
ATOM     99  C   UNL A   1      52.287  36.641  27.071  1.00  0.00     0.059 A 
ATOM    100  F   UNL A   1      51.285  35.725  28.981  1.00  0.00    -0.206 F 
ATOM    101  C   UNL A   1      52.187  37.037  25.739  1.00  0.00     0.060 A 
BRANCH 101 102
ATOM    102  S   UNL A   1      53.628  37.699  24.875  1.00  0.00     0.124 S 
ATOM    103  O   UNL A   1      54.721  37.015  25.559  1.00  0.00    -0.237 OA
ATOM    104  O   UNL A   1      53.384  37.283  23.498  1.00  0.00    -0.237 OA
ATOM    105  O   UNL A   1      53.538  39.136  25.115  1.00  0.00    -0.744 OA
ENDBRANCH 101 102
ENDBRANCH  69  94
ENDBRANCH  43  44
ENDBRANCH  36  38
ENDBRANCH  35  36
ENDBRANCH  34  35
ENDBRANCH  33  34
ENDBRANCH  32  33
ENDBRANCH  31  32
ENDBRANCH  30  31
ENDBRANCH  29  30
ENDBRANCH   1  29
TORSDOF 29
ENDMDL
