MODEL 1
REMARK VINA RESULT:      -6.8      0.000      0.000
REMARK SMILES C#CCN(CC(=O)OCCOCCOCCOCCOC(=O)c1ccc(-c2c3nc(c(-c4c(F)cc(S(=O)(=O)[O-])cc4F)c4ccc([nH]4)c(-c4c(F)cc(S(=O)(=O)[O-])cc4F)c4nc(c(-c5c(F)cc(S(=O)(=O)[O-])cc5F)c5ccc2[nH]5)C=C4)C=C3)cc1)C(=O)N1CC[N@@H+]2CCC[C@H]2C1
REMARK SMILES IDX 14 1 13 2 12 3 11 4 10 5 9 6 8 7 6 8 7 9 5 10 4 11 3 12 2 13
REMARK SMILES IDX 1 14 89 15 90 16 91 17 92 18 99 19 93 20 98 21 94 22 97 23
REMARK SMILES IDX 95 24 96 26 15 27 16 28 17 29 18 30 19 31 20 32 21 33 22 34
REMARK SMILES IDX 23 35 24 36 88 37 25 38 87 39 26 40 27 41 28 42 81 43 29 44
REMARK SMILES IDX 86 45 80 46 82 47 30 48 85 49 79 50 78 51 31 53 65 54 44 55
REMARK SMILES IDX 64 56 45 57 48 58 63 59 83 60 46 61 47 62 62 64 84 65 49 66
REMARK SMILES IDX 32 67 33 68 42 69 34 70 35 71 41 72 43 73 36 74 37 75 38 76
REMARK SMILES IDX 39 77 40 78 66 79 67 80 76 81 68 82 69 83 75 84 77 85 70 86
REMARK SMILES IDX 71 87 72 88 73 89 74 90 50 91 51 92 60 93 52 94 53 95 59 96
REMARK SMILES IDX 61 97 54 98 55 99 56 100 57 101 58 102
REMARK H PARENT 94 25 82 52 48 63
REMARK Flexibility Score: inf
ROOT
ATOM      1  O   UNL A   1      45.768  34.879  33.806  1.00  0.00    -0.377 OA
ENDROOT
BRANCH   1   2
ATOM      2  C   UNL A   1      45.030  34.032  34.637  1.00  0.00     0.188 C 
BRANCH   2   3
ATOM      3  C   UNL A   1      44.136  34.798  35.623  1.00  0.00     0.188 C 
BRANCH   3   4
ATOM      4  O   UNL A   1      43.323  34.055  36.508  1.00  0.00    -0.376 OA
BRANCH   4   5
ATOM      5  C   UNL A   1      42.014  34.553  36.751  1.00  0.00     0.202 C 
BRANCH   5   6
ATOM      6  C   UNL A   1      41.234  34.095  38.013  1.00  0.00     0.261 C 
BRANCH   6   7
ATOM      7  O   UNL A   1      39.790  33.899  37.887  1.00  0.00    -0.462 OA
BRANCH   7   8
ATOM      8  C   UNL A   1      39.343  32.804  37.214  1.00  0.00     0.325 C 
ATOM      9  O   UNL A   1      40.048  31.818  37.004  1.00  0.00    -0.250 OA
BRANCH   8  10
ATOM     10  C   UNL A   1      37.875  32.854  36.647  1.00  0.00     0.245 C 
BRANCH  10  11
ATOM     11  N   UNL A   1      37.443  33.038  35.238  1.00  0.00    -0.302 N 
BRANCH  11  12
ATOM     12  C   UNL A   1      36.372  34.100  35.005  1.00  0.00     0.211 C 
BRANCH  12  13
ATOM     13  C   UNL A   1      35.336  33.541  34.043  1.00  0.00    -0.085 C 
ATOM     14  C   UNL A   1      34.446  33.062  33.218  1.00  0.00     0.006 C 
ENDBRANCH  12  13
ENDBRANCH  11  12
BRANCH  11  15
ATOM     15  C   UNL A   1      38.047  32.490  34.082  1.00  0.00     0.321 C 
ATOM     16  O   UNL A   1      37.765  31.347  33.703  1.00  0.00    -0.248 OA
BRANCH  15  17
ATOM     17  N   UNL A   1      38.947  33.237  33.295  1.00  0.00    -0.313 N 
ATOM     18  C   UNL A   1      40.356  32.882  33.229  1.00  0.00     0.183 C 
ATOM     19  C   UNL A   1      38.428  33.688  31.962  1.00  0.00     0.186 C 
ATOM     20  C   UNL A   1      41.296  33.797  32.434  1.00  0.00     0.284 C 
ATOM     21  C   UNL A   1      39.433  34.556  31.157  1.00  0.00     0.204 C 
ATOM     22  N   UNL A   1      40.756  33.922  31.093  1.00  0.00    -0.330 N 
ATOM     23  C   UNL A   1      39.161  34.749  29.667  1.00  0.00     0.073 C 
ATOM     24  C   UNL A   1      41.553  34.695  30.159  1.00  0.00     0.262 C 
ATOM     25  H   UNL A   1      40.734  32.966  30.739  1.00  0.00     0.348 HD
ATOM     26  C   UNL A   1      40.552  34.961  29.040  1.00  0.00     0.068 C 
ENDBRANCH  15  17
ENDBRANCH  11  15
ENDBRANCH  10  11
ENDBRANCH   8  10
ENDBRANCH   7   8
ENDBRANCH   6   7
ENDBRANCH   5   6
ENDBRANCH   4   5
ENDBRANCH   3   4
ENDBRANCH   2   3
ENDBRANCH   1   2
BRANCH   1  27
ATOM     27  C   UNL A   1      46.412  35.952  34.454  1.00  0.00     0.188 C 
BRANCH  27  28
ATOM     28  C   UNL A   1      46.873  37.189  33.654  1.00  0.00     0.188 C 
BRANCH  28  29
ATOM     29  O   UNL A   1      48.252  37.540  33.547  1.00  0.00    -0.376 OA
BRANCH  29  30
ATOM     30  C   UNL A   1      48.804  38.233  32.429  1.00  0.00     0.202 C 
BRANCH  30  31
ATOM     31  C   UNL A   1      49.540  37.471  31.333  1.00  0.00     0.261 C 
BRANCH  31  32
ATOM     32  O   UNL A   1      48.644  36.665  30.567  1.00  0.00    -0.460 OA
BRANCH  32  33
ATOM     33  C   UNL A   1      49.197  36.014  29.519  1.00  0.00     0.338 C 
ATOM     34  O   UNL A   1      50.276  36.240  28.992  1.00  0.00    -0.246 OA
BRANCH  33  35
ATOM     35  C   UNL A   1      48.400  34.803  29.269  1.00  0.00     0.060 A 
ATOM     36  C   UNL A   1      48.142  33.962  30.360  1.00  0.00     0.016 A 
ATOM     37  C   UNL A   1      47.846  34.544  28.012  1.00  0.00     0.016 A 
ATOM     38  C   UNL A   1      47.330  32.848  30.196  1.00  0.00     0.010 A 
ATOM     39  C   UNL A   1      47.068  33.401  27.839  1.00  0.00     0.010 A 
ATOM     40  C   UNL A   1      46.833  32.540  28.925  1.00  0.00    -0.014 A 
BRANCH  40  41
ATOM     41  C   UNL A   1      46.288  31.191  28.685  1.00  0.00     0.031 A 
ATOM     42  C   UNL A   1      47.253  30.136  28.226  1.00  0.00     0.074 A 
ATOM     43  C   UNL A   1      44.992  30.915  28.897  1.00  0.00     0.049 A 
ATOM     44  N   UNL A   1      47.030  28.888  27.913  1.00  0.00    -0.248 NA
ATOM     45  C   UNL A   1      48.664  30.546  28.103  1.00  0.00     0.031 C 
ATOM     46  C   UNL A   1      43.992  31.864  29.387  1.00  0.00     0.029 A 
ATOM     47  N   UNL A   1      44.293  29.750  28.715  1.00  0.00    -0.354 N 
ATOM     48  C   UNL A   1      48.267  28.367  27.559  1.00  0.00     0.074 A 
ATOM     49  C   UNL A   1      49.234  29.436  27.664  1.00  0.00     0.031 C 
ATOM     50  C   UNL A   1      42.799  31.244  29.448  1.00  0.00     0.029 A 
ATOM     51  C   UNL A   1      42.949  29.870  28.973  1.00  0.00     0.049 A 
ATOM     52  H   UNL A   1      44.715  28.909  28.428  1.00  0.00     0.167 HD
ATOM     53  C   UNL A   1      48.569  27.104  27.185  1.00  0.00     0.037 A 
ATOM     54  C   UNL A   1      41.958  28.970  28.814  1.00  0.00     0.037 A 
ATOM     55  C   UNL A   1      47.588  26.059  27.068  1.00  0.00     0.049 A 
ATOM     56  C   UNL A   1      42.306  27.590  28.313  1.00  0.00     0.074 A 
ATOM     57  C   UNL A   1      47.776  24.740  26.698  1.00  0.00     0.029 A 
ATOM     58  N   UNL A   1      46.230  26.222  27.305  1.00  0.00    -0.354 N 
ATOM     59  N   UNL A   1      43.483  27.095  28.004  1.00  0.00    -0.248 NA
ATOM     60  C   UNL A   1      41.195  26.645  28.141  1.00  0.00     0.031 C 
ATOM     61  C   UNL A   1      46.523  24.121  26.656  1.00  0.00     0.029 A 
ATOM     62  C   UNL A   1      45.563  25.035  27.062  1.00  0.00     0.049 A 
ATOM     63  H   UNL A   1      45.805  27.058  27.603  1.00  0.00     0.167 HD
ATOM     64  C   UNL A   1      43.256  25.775  27.629  1.00  0.00     0.074 A 
ATOM     65  C   UNL A   1      41.832  25.545  27.765  1.00  0.00     0.031 C 
ATOM     66  C   UNL A   1      44.142  24.834  27.212  1.00  0.00     0.037 A 
BRANCH  53  67
ATOM     67  C   UNL A   1      50.000  26.801  26.843  1.00  0.00     0.058 A 
ATOM     68  C   UNL A   1      50.856  26.153  27.748  1.00  0.00     0.135 A 
ATOM     69  C   UNL A   1      50.515  27.141  25.582  1.00  0.00     0.135 A 
ATOM     70  F   UNL A   1      50.425  25.832  28.978  1.00  0.00    -0.206 F 
ATOM     71  C   UNL A   1      52.177  25.868  27.421  1.00  0.00     0.059 A 
ATOM     72  C   UNL A   1      51.825  26.839  25.223  1.00  0.00     0.059 A 
ATOM     73  F   UNL A   1      49.743  27.774  24.685  1.00  0.00    -0.206 F 
ATOM     74  C   UNL A   1      52.651  26.210  26.153  1.00  0.00     0.060 A 
BRANCH  74  75
ATOM     75  S   UNL A   1      54.360  25.807  25.734  1.00  0.00     0.124 S 
ATOM     76  O   UNL A   1      54.912  25.476  27.044  1.00  0.00    -0.237 OA
ATOM     77  O   UNL A   1      54.197  24.685  24.815  1.00  0.00    -0.237 OA
ATOM     78  O   UNL A   1      54.863  27.038  25.134  1.00  0.00    -0.744 OA
ENDBRANCH  74  75
ENDBRANCH  53  67
BRANCH  54  79
ATOM     79  C   UNL A   1      40.549  29.348  29.108  1.00  0.00     0.058 A 
ATOM     80  C   UNL A   1      39.624  29.569  28.078  1.00  0.00     0.135 A 
ATOM     81  C   UNL A   1      40.101  29.506  30.429  1.00  0.00     0.135 A 
ATOM     82  F   UNL A   1      40.004  29.443  26.797  1.00  0.00    -0.206 F 
ATOM     83  C   UNL A   1      38.312  29.950  28.343  1.00  0.00     0.059 A 
ATOM     84  C   UNL A   1      38.786  29.858  30.722  1.00  0.00     0.059 A 
ATOM     85  F   UNL A   1      40.942  29.298  31.455  1.00  0.00    -0.206 F 
ATOM     86  C   UNL A   1      37.902  30.089  29.670  1.00  0.00     0.060 A 
BRANCH  86  87
ATOM     87  S   UNL A   1      36.186  30.543  30.005  1.00  0.00     0.124 S 
ATOM     88  O   UNL A   1      35.547  30.242  28.729  1.00  0.00    -0.237 OA
ATOM     89  O   UNL A   1      35.848  29.657  31.115  1.00  0.00    -0.237 OA
ATOM     90  O   UNL A   1      36.274  31.959  30.349  1.00  0.00    -0.744 OA
ENDBRANCH  86  87
ENDBRANCH  54  79
BRANCH  66  91
ATOM     91  C   UNL A   1      43.604  23.463  26.905  1.00  0.00     0.058 A 
ATOM     92  C   UNL A   1      43.506  22.984  25.589  1.00  0.00     0.135 A 
ATOM     93  C   UNL A   1      43.240  22.596  27.948  1.00  0.00     0.135 A 
ATOM     94  F   UNL A   1      43.838  23.774  24.555  1.00  0.00    -0.206 F 
ATOM     95  C   UNL A   1      43.042  21.702  25.317  1.00  0.00     0.059 A 
ATOM     96  C   UNL A   1      42.804  21.298  27.700  1.00  0.00     0.059 A 
ATOM     97  F   UNL A   1      43.328  22.999  29.225  1.00  0.00    -0.206 F 
ATOM     98  C   UNL A   1      42.696  20.866  26.380  1.00  0.00     0.060 A 
BRANCH  98  99
ATOM     99  S   UNL A   1      42.126  19.193  26.012  1.00  0.00     0.124 S 
ATOM    100  O   UNL A   1      42.874  18.889  24.798  1.00  0.00    -0.237 OA
ATOM    101  O   UNL A   1      42.528  18.457  27.206  1.00  0.00    -0.237 OA
ATOM    102  O   UNL A   1      40.685  19.355  25.837  1.00  0.00    -0.744 OA
ENDBRANCH  98  99
ENDBRANCH  66  91
ENDBRANCH  40  41
ENDBRANCH  33  35
ENDBRANCH  32  33
ENDBRANCH  31  32
ENDBRANCH  30  31
ENDBRANCH  29  30
ENDBRANCH  28  29
ENDBRANCH  27  28
ENDBRANCH   1  27
TORSDOF 28
ENDMDL
MODEL 2
REMARK VINA RESULT:      -6.7      5.435     14.648
REMARK SMILES C#CCN(CC(=O)OCCOCCOCCOCCOC(=O)c1ccc(-c2c3nc(c(-c4c(F)cc(S(=O)(=O)[O-])cc4F)c4ccc([nH]4)c(-c4c(F)cc(S(=O)(=O)[O-])cc4F)c4nc(c(-c5c(F)cc(S(=O)(=O)[O-])cc5F)c5ccc2[nH]5)C=C4)C=C3)cc1)C(=O)N1CC[N@@H+]2CCC[C@H]2C1
REMARK SMILES IDX 14 1 13 2 12 3 11 4 10 5 9 6 8 7 6 8 7 9 5 10 4 11 3 12 2 13
REMARK SMILES IDX 1 14 89 15 90 16 91 17 92 18 99 19 93 20 98 21 94 22 97 23
REMARK SMILES IDX 95 24 96 26 15 27 16 28 17 29 18 30 19 31 20 32 21 33 22 34
REMARK SMILES IDX 23 35 24 36 88 37 25 38 87 39 26 40 27 41 28 42 81 43 29 44
REMARK SMILES IDX 86 45 80 46 82 47 30 48 85 49 79 50 78 51 31 53 65 54 44 55
REMARK SMILES IDX 64 56 45 57 48 58 63 59 83 60 46 61 47 62 62 64 84 65 49 66
REMARK SMILES IDX 32 67 33 68 42 69 34 70 35 71 41 72 43 73 36 74 37 75 38 76
REMARK SMILES IDX 39 77 40 78 66 79 67 80 76 81 68 82 69 83 75 84 77 85 70 86
REMARK SMILES IDX 71 87 72 88 73 89 74 90 50 91 51 92 60 93 52 94 53 95 59 96
REMARK SMILES IDX 61 97 54 98 55 99 56 100 57 101 58 102
REMARK H PARENT 94 25 82 52 48 63
REMARK Flexibility Score: inf
ROOT
ATOM      1  O   UNL A   1      42.207  20.077  25.515  1.00  0.00    -0.377 OA
ENDROOT
BRANCH   1   2
ATOM      2  C   UNL A   1      41.458  20.417  26.644  1.00  0.00     0.188 C 
BRANCH   2   3
ATOM      3  C   UNL A   1      39.975  20.648  26.326  1.00  0.00     0.188 C 
BRANCH   3   4
ATOM      4  O   UNL A   1      39.603  21.854  25.691  1.00  0.00    -0.376 OA
BRANCH   4   5
ATOM      5  C   UNL A   1      38.708  22.703  26.395  1.00  0.00     0.202 C 
BRANCH   5   6
ATOM      6  C   UNL A   1      37.686  23.571  25.612  1.00  0.00     0.261 C 
BRANCH   6   7
ATOM      7  O   UNL A   1      36.433  22.942  25.198  1.00  0.00    -0.462 OA
BRANCH   7   8
ATOM      8  C   UNL A   1      36.076  23.014  23.886  1.00  0.00     0.325 C 
ATOM      9  O   UNL A   1      36.864  23.338  22.999  1.00  0.00    -0.250 OA
BRANCH   8  10
ATOM     10  C   UNL A   1      34.572  22.718  23.530  1.00  0.00     0.245 C 
BRANCH  10  11
ATOM     11  N   UNL A   1      33.428  22.540  24.461  1.00  0.00    -0.302 N 
BRANCH  11  12
ATOM     12  C   UNL A   1      33.527  21.353  25.415  1.00  0.00     0.211 C 
BRANCH  12  13
ATOM     13  C   UNL A   1      33.627  21.880  26.838  1.00  0.00    -0.085 C 
ATOM     14  C   UNL A   1      33.713  22.332  28.058  1.00  0.00     0.006 C 
ENDBRANCH  12  13
ENDBRANCH  11  12
BRANCH  11  15
ATOM     15  C   UNL A   1      32.370  23.448  24.696  1.00  0.00     0.321 C 
ATOM     16  O   UNL A   1      31.216  23.041  24.881  1.00  0.00    -0.248 OA
BRANCH  15  17
ATOM     17  N   UNL A   1      32.593  24.837  24.780  1.00  0.00    -0.313 N 
ATOM     18  C   UNL A   1      32.198  25.725  23.698  1.00  0.00     0.183 C 
ATOM     19  C   UNL A   1      32.346  25.458  26.123  1.00  0.00     0.186 C 
ATOM     20  C   UNL A   1      32.563  27.211  23.811  1.00  0.00     0.284 C 
ATOM     21  C   UNL A   1      32.662  26.977  26.181  1.00  0.00     0.204 C 
ATOM     22  N   UNL A   1      32.029  27.699  25.070  1.00  0.00    -0.330 N 
ATOM     23  C   UNL A   1      32.104  27.769  27.361  1.00  0.00     0.073 C 
ATOM     24  C   UNL A   1      32.208  29.115  25.326  1.00  0.00     0.262 C 
ATOM     25  H   UNL A   1      31.025  27.538  24.998  1.00  0.00     0.348 HD
ATOM     26  C   UNL A   1      31.924  29.200  26.822  1.00  0.00     0.068 C 
ENDBRANCH  15  17
ENDBRANCH  11  15
ENDBRANCH  10  11
ENDBRANCH   8  10
ENDBRANCH   7   8
ENDBRANCH   6   7
ENDBRANCH   5   6
ENDBRANCH   4   5
ENDBRANCH   3   4
ENDBRANCH   2   3
ENDBRANCH   1   2
BRANCH   1  27
ATOM     27  C   UNL A   1      43.548  20.513  25.524  1.00  0.00     0.188 C 
BRANCH  27  28
ATOM     28  C   UNL A   1      43.889  22.009  25.362  1.00  0.00     0.188 C 
BRANCH  28  29
ATOM     29  O   UNL A   1      44.933  22.625  26.115  1.00  0.00    -0.376 OA
BRANCH  29  30
ATOM     30  C   UNL A   1      44.730  23.237  27.388  1.00  0.00     0.202 C 
BRANCH  30  31
ATOM     31  C   UNL A   1      43.473  24.053  27.664  1.00  0.00     0.261 C 
BRANCH  31  32
ATOM     32  O   UNL A   1      43.391  25.190  26.803  1.00  0.00    -0.460 OA
BRANCH  32  33
ATOM     33  C   UNL A   1      42.358  26.028  27.042  1.00  0.00     0.338 C 
ATOM     34  O   UNL A   1      41.180  25.732  27.178  1.00  0.00    -0.246 OA
BRANCH  33  35
ATOM     35  C   UNL A   1      42.915  27.347  27.376  1.00  0.00     0.060 A 
ATOM     36  C   UNL A   1      43.920  27.397  28.353  1.00  0.00     0.016 A 
ATOM     37  C   UNL A   1      42.524  28.498  26.686  1.00  0.00     0.016 A 
ATOM     38  C   UNL A   1      44.535  28.605  28.650  1.00  0.00     0.010 A 
ATOM     39  C   UNL A   1      43.111  29.717  27.017  1.00  0.00     0.010 A 
ATOM     40  C   UNL A   1      44.097  29.774  28.017  1.00  0.00    -0.014 A 
BRANCH  40  41
ATOM     41  C   UNL A   1      44.489  31.076  28.586  1.00  0.00     0.031 A 
ATOM     42  C   UNL A   1      43.624  31.634  29.680  1.00  0.00     0.074 A 
ATOM     43  C   UNL A   1      45.589  31.719  28.163  1.00  0.00     0.049 A 
ATOM     44  N   UNL A   1      43.725  32.766  30.321  1.00  0.00    -0.248 NA
ATOM     45  C   UNL A   1      42.488  30.796  30.108  1.00  0.00     0.031 C 
ATOM     46  C   UNL A   1      46.514  31.233  27.140  1.00  0.00     0.029 A 
ATOM     47  N   UNL A   1      46.107  32.931  28.539  1.00  0.00    -0.354 N 
ATOM     48  C   UNL A   1      42.670  32.777  31.225  1.00  0.00     0.074 A 
ATOM     49  C   UNL A   1      41.922  31.555  31.032  1.00  0.00     0.031 C 
ATOM     50  C   UNL A   1      47.480  32.152  26.956  1.00  0.00     0.029 A 
ATOM     51  C   UNL A   1      47.221  33.298  27.825  1.00  0.00     0.049 A 
ATOM     52  H   UNL A   1      45.717  33.484  29.254  1.00  0.00     0.167 HD
ATOM     53  C   UNL A   1      42.360  33.722  32.140  1.00  0.00     0.037 A 
ATOM     54  C   UNL A   1      47.927  34.446  27.859  1.00  0.00     0.037 A 
ATOM     55  C   UNL A   1      43.107  34.939  32.302  1.00  0.00     0.049 A 
ATOM     56  C   UNL A   1      47.510  35.524  28.830  1.00  0.00     0.074 A 
ATOM     57  C   UNL A   1      42.887  35.970  33.197  1.00  0.00     0.029 A 
ATOM     58  N   UNL A   1      44.211  35.295  31.540  1.00  0.00    -0.354 N 
ATOM     59  N   UNL A   1      46.527  35.517  29.700  1.00  0.00    -0.248 NA
ATOM     60  C   UNL A   1      48.298  36.763  28.826  1.00  0.00     0.031 C 
ATOM     61  C   UNL A   1      43.823  36.975  32.936  1.00  0.00     0.029 A 
ATOM     62  C   UNL A   1      44.666  36.544  31.924  1.00  0.00     0.049 A 
ATOM     63  H   UNL A   1      44.611  34.741  30.832  1.00  0.00     0.167 HD
ATOM     64  C   UNL A   1      46.597  36.737  30.366  1.00  0.00     0.074 A 
ATOM     65  C   UNL A   1      47.728  37.448  29.807  1.00  0.00     0.031 C 
ATOM     66  C   UNL A   1      45.801  37.226  31.351  1.00  0.00     0.037 A 
BRANCH  53  67
ATOM     67  C   UNL A   1      41.150  33.489  32.999  1.00  0.00     0.058 A 
ATOM     68  C   UNL A   1      41.228  32.801  34.220  1.00  0.00     0.135 A 
ATOM     69  C   UNL A   1      39.896  33.985  32.606  1.00  0.00     0.135 A 
ATOM     70  F   UNL A   1      42.396  32.281  34.630  1.00  0.00    -0.206 F 
ATOM     71  C   UNL A   1      40.105  32.599  35.013  1.00  0.00     0.059 A 
ATOM     72  C   UNL A   1      38.764  33.819  33.398  1.00  0.00     0.059 A 
ATOM     73  F   UNL A   1      39.762  34.637  31.440  1.00  0.00    -0.206 F 
ATOM     74  C   UNL A   1      38.878  33.116  34.596  1.00  0.00     0.060 A 
BRANCH  74  75
ATOM     75  S   UNL A   1      37.435  32.869  35.652  1.00  0.00     0.124 S 
ATOM     76  O   UNL A   1      37.659  31.512  36.141  1.00  0.00    -0.237 OA
ATOM     77  O   UNL A   1      37.589  33.931  36.641  1.00  0.00    -0.237 OA
ATOM     78  O   UNL A   1      36.310  33.027  34.736  1.00  0.00    -0.744 OA
ENDBRANCH  74  75
ENDBRANCH  53  67
BRANCH  54  79
ATOM     79  C   UNL A   1      49.079  34.645  26.939  1.00  0.00     0.058 A 
ATOM     80  C   UNL A   1      48.917  35.269  25.694  1.00  0.00     0.135 A 
ATOM     81  C   UNL A   1      50.367  34.204  27.283  1.00  0.00     0.135 A 
ATOM     82  F   UNL A   1      47.705  35.698  25.311  1.00  0.00    -0.206 F 
ATOM     83  C   UNL A   1      49.984  35.433  24.814  1.00  0.00     0.059 A 
ATOM     84  C   UNL A   1      51.456  34.383  26.435  1.00  0.00     0.059 A 
ATOM     85  F   UNL A   1      50.582  33.609  28.467  1.00  0.00    -0.206 F 
ATOM     86  C   UNL A   1      51.251  34.989  25.196  1.00  0.00     0.060 A 
BRANCH  86  87
ATOM     87  S   UNL A   1      52.637  35.245  24.067  1.00  0.00     0.124 S 
ATOM     88  O   UNL A   1      52.152  36.353  23.252  1.00  0.00    -0.237 OA
ATOM     89  O   UNL A   1      53.726  35.557  24.987  1.00  0.00    -0.237 OA
ATOM     90  O   UNL A   1      52.754  33.961  23.382  1.00  0.00    -0.744 OA
ENDBRANCH  86  87
ENDBRANCH  54  79
BRANCH  66  91
ATOM     91  C   UNL A   1      46.145  38.580  31.911  1.00  0.00     0.058 A 
ATOM     92  C   UNL A   1      45.569  39.757  31.408  1.00  0.00     0.135 A 
ATOM     93  C   UNL A   1      47.016  38.693  33.007  1.00  0.00     0.135 A 
ATOM     94  F   UNL A   1      44.732  39.705  30.359  1.00  0.00    -0.206 F 
ATOM     95  C   UNL A   1      45.865  41.000  31.955  1.00  0.00     0.059 A 
ATOM     96  C   UNL A   1      47.300  39.922  33.591  1.00  0.00     0.059 A 
ATOM     97  F   UNL A   1      47.583  37.596  33.536  1.00  0.00    -0.206 F 
ATOM     98  C   UNL A   1      46.729  41.072  33.049  1.00  0.00     0.060 A 
BRANCH  98  99
ATOM     99  S   UNL A   1      47.078  42.690  33.769  1.00  0.00     0.124 S 
ATOM    100  O   UNL A   1      47.733  42.320  35.019  1.00  0.00    -0.237 OA
ATOM    101  O   UNL A   1      47.936  43.302  32.760  1.00  0.00    -0.237 OA
ATOM    102  O   UNL A   1      45.755  43.293  33.909  1.00  0.00    -0.744 OA
ENDBRANCH  98  99
ENDBRANCH  66  91
ENDBRANCH  40  41
ENDBRANCH  33  35
ENDBRANCH  32  33
ENDBRANCH  31  32
ENDBRANCH  30  31
ENDBRANCH  29  30
ENDBRANCH  28  29
ENDBRANCH  27  28
ENDBRANCH   1  27
TORSDOF 28
ENDMDL
MODEL 3
REMARK VINA RESULT:      -6.2      1.297      2.121
REMARK SMILES C#CCN(CC(=O)OCCOCCOCCOCCOC(=O)c1ccc(-c2c3nc(c(-c4c(F)cc(S(=O)(=O)[O-])cc4F)c4ccc([nH]4)c(-c4c(F)cc(S(=O)(=O)[O-])cc4F)c4nc(c(-c5c(F)cc(S(=O)(=O)[O-])cc5F)c5ccc2[nH]5)C=C4)C=C3)cc1)C(=O)N1CC[N@@H+]2CCC[C@H]2C1
REMARK SMILES IDX 14 1 13 2 12 3 11 4 10 5 9 6 8 7 6 8 7 9 5 10 4 11 3 12 2 13
REMARK SMILES IDX 1 14 89 15 90 16 91 17 92 18 99 19 93 20 98 21 94 22 97 23
REMARK SMILES IDX 95 24 96 26 15 27 16 28 17 29 18 30 19 31 20 32 21 33 22 34
REMARK SMILES IDX 23 35 24 36 88 37 25 38 87 39 26 40 27 41 28 42 81 43 29 44
REMARK SMILES IDX 86 45 80 46 82 47 30 48 85 49 79 50 78 51 31 53 65 54 44 55
REMARK SMILES IDX 64 56 45 57 48 58 63 59 83 60 46 61 47 62 62 64 84 65 49 66
REMARK SMILES IDX 32 67 33 68 42 69 34 70 35 71 41 72 43 73 36 74 37 75 38 76
REMARK SMILES IDX 39 77 40 78 66 79 67 80 76 81 68 82 69 83 75 84 77 85 70 86
REMARK SMILES IDX 71 87 72 88 73 89 74 90 50 91 51 92 60 93 52 94 53 95 59 96
REMARK SMILES IDX 61 97 54 98 55 99 56 100 57 101 58 102
REMARK H PARENT 94 25 82 52 48 63
REMARK Flexibility Score: inf
ROOT
ATOM      1  O   UNL A   1      45.774  34.867  33.856  1.00  0.00    -0.377 OA
ENDROOT
BRANCH   1   2
ATOM      2  C   UNL A   1      45.028  33.996  34.653  1.00  0.00     0.188 C 
BRANCH   2   3
ATOM      3  C   UNL A   1      44.249  34.723  35.758  1.00  0.00     0.188 C 
BRANCH   3   4
ATOM      4  O   UNL A   1      43.311  33.984  36.515  1.00  0.00    -0.376 OA
BRANCH   4   5
ATOM      5  C   UNL A   1      42.115  34.654  36.889  1.00  0.00     0.202 C 
BRANCH   5   6
ATOM      6  C   UNL A   1      41.186  34.034  37.969  1.00  0.00     0.261 C 
BRANCH   6   7
ATOM      7  O   UNL A   1      39.745  34.232  37.822  1.00  0.00    -0.462 OA
BRANCH   7   8
ATOM      8  C   UNL A   1      39.023  33.275  37.176  1.00  0.00     0.325 C 
ATOM      9  O   UNL A   1      38.895  32.132  37.612  1.00  0.00    -0.250 OA
BRANCH   8  10
ATOM     10  C   UNL A   1      38.386  33.664  35.791  1.00  0.00     0.245 C 
BRANCH  10  11
ATOM     11  N   UNL A   1      38.795  33.213  34.436  1.00  0.00    -0.302 N 
BRANCH  11  12
ATOM     12  C   UNL A   1      39.071  34.320  33.422  1.00  0.00     0.211 C 
BRANCH  12  13
ATOM     13  C   UNL A   1      38.158  34.121  32.224  1.00  0.00    -0.085 C 
ATOM     14  C   UNL A   1      37.374  33.951  31.196  1.00  0.00     0.006 C 
ENDBRANCH  12  13
ENDBRANCH  11  12
BRANCH  11  15
ATOM     15  C   UNL A   1      39.146  31.901  34.043  1.00  0.00     0.321 C 
ATOM     16  O   UNL A   1      38.367  31.211  33.374  1.00  0.00    -0.248 OA
BRANCH  15  17
ATOM     17  N   UNL A   1      40.406  31.350  34.352  1.00  0.00    -0.313 N 
ATOM     18  C   UNL A   1      40.516  30.077  35.047  1.00  0.00     0.183 C 
ATOM     19  C   UNL A   1      41.458  31.493  33.292  1.00  0.00     0.186 C 
ATOM     20  C   UNL A   1      41.915  29.586  35.440  1.00  0.00     0.284 C 
ATOM     21  C   UNL A   1      42.844  30.924  33.700  1.00  0.00     0.204 C 
ATOM     22  N   UNL A   1      42.727  29.563  34.236  1.00  0.00    -0.330 N 
ATOM     23  C   UNL A   1      43.862  30.682  32.588  1.00  0.00     0.073 C 
ATOM     24  C   UNL A   1      44.074  29.049  34.391  1.00  0.00     0.262 C 
ATOM     25  H   UNL A   1      42.237  28.919  33.614  1.00  0.00     0.348 HD
ATOM     26  C   UNL A   1      44.741  29.529  33.106  1.00  0.00     0.068 C 
ENDBRANCH  15  17
ENDBRANCH  11  15
ENDBRANCH  10  11
ENDBRANCH   8  10
ENDBRANCH   7   8
ENDBRANCH   6   7
ENDBRANCH   5   6
ENDBRANCH   4   5
ENDBRANCH   3   4
ENDBRANCH   2   3
ENDBRANCH   1   2
BRANCH   1  27
ATOM     27  C   UNL A   1      46.436  35.904  34.546  1.00  0.00     0.188 C 
BRANCH  27  28
ATOM     28  C   UNL A   1      46.823  37.209  33.819  1.00  0.00     0.188 C 
BRANCH  28  29
ATOM     29  O   UNL A   1      48.186  37.589  33.639  1.00  0.00    -0.376 OA
BRANCH  29  30
ATOM     30  C   UNL A   1      48.660  38.308  32.502  1.00  0.00     0.202 C 
BRANCH  30  31
ATOM     31  C   UNL A   1      49.335  37.575  31.349  1.00  0.00     0.261 C 
BRANCH  31  32
ATOM     32  O   UNL A   1      48.410  36.739  30.651  1.00  0.00    -0.460 OA
BRANCH  32  33
ATOM     33  C   UNL A   1      48.882  36.163  29.524  1.00  0.00     0.338 C 
ATOM     34  O   UNL A   1      49.896  36.459  28.908  1.00  0.00    -0.246 OA
BRANCH  33  35
ATOM     35  C   UNL A   1      48.111  34.933  29.288  1.00  0.00     0.060 A 
ATOM     36  C   UNL A   1      47.965  34.045  30.363  1.00  0.00     0.016 A 
ATOM     37  C   UNL A   1      47.472  34.697  28.068  1.00  0.00     0.016 A 
ATOM     38  C   UNL A   1      47.181  32.908  30.219  1.00  0.00     0.010 A 
ATOM     39  C   UNL A   1      46.722  33.534  27.910  1.00  0.00     0.010 A 
ATOM     40  C   UNL A   1      46.600  32.628  28.978  1.00  0.00    -0.014 A 
BRANCH  40  41
ATOM     41  C   UNL A   1      46.085  31.268  28.729  1.00  0.00     0.031 A 
ATOM     42  C   UNL A   1      47.091  30.209  28.379  1.00  0.00     0.074 A 
ATOM     43  C   UNL A   1      44.777  30.988  28.840  1.00  0.00     0.049 A 
ATOM     44  N   UNL A   1      46.901  28.953  28.081  1.00  0.00    -0.248 NA
ATOM     45  C   UNL A   1      48.504  30.627  28.362  1.00  0.00     0.031 C 
ATOM     46  C   UNL A   1      43.734  31.940  29.221  1.00  0.00     0.029 A 
ATOM     47  N   UNL A   1      44.102  29.813  28.632  1.00  0.00    -0.354 N 
ATOM     48  C   UNL A   1      48.167  28.432  27.844  1.00  0.00     0.074 A 
ATOM     49  C   UNL A   1      49.115  29.511  28.000  1.00  0.00     0.031 C 
ATOM     50  C   UNL A   1      42.544  31.312  29.199  1.00  0.00     0.029 A 
ATOM     51  C   UNL A   1      42.741  29.928  28.774  1.00  0.00     0.049 A 
ATOM     52  H   UNL A   1      44.551  28.968  28.402  1.00  0.00     0.167 HD
ATOM     53  C   UNL A   1      48.506  27.162  27.529  1.00  0.00     0.037 A 
ATOM     54  C   UNL A   1      41.772  29.017  28.557  1.00  0.00     0.037 A 
ATOM     55  C   UNL A   1      47.544  26.107  27.358  1.00  0.00     0.049 A 
ATOM     56  C   UNL A   1      42.168  27.627  28.123  1.00  0.00     0.074 A 
ATOM     57  C   UNL A   1      47.770  24.781  27.040  1.00  0.00     0.029 A 
ATOM     58  N   UNL A   1      46.170  26.265  27.478  1.00  0.00    -0.354 N 
ATOM     59  N   UNL A   1      43.369  27.134  27.925  1.00  0.00    -0.248 NA
ATOM     60  C   UNL A   1      41.081  26.670  27.885  1.00  0.00     0.031 C 
ATOM     61  C   UNL A   1      46.528  24.151  26.911  1.00  0.00     0.029 A 
ATOM     62  C   UNL A   1      45.533  25.067  27.212  1.00  0.00     0.049 A 
ATOM     63  H   UNL A   1      45.717  27.105  27.718  1.00  0.00     0.167 HD
ATOM     64  C   UNL A   1      43.182  25.803  27.567  1.00  0.00     0.074 A 
ATOM     65  C   UNL A   1      41.753  25.565  27.591  1.00  0.00     0.031 C 
ATOM     66  C   UNL A   1      44.105  24.859  27.249  1.00  0.00     0.037 A 
BRANCH  53  67
ATOM     67  C   UNL A   1      49.962  26.862  27.315  1.00  0.00     0.058 A 
ATOM     68  C   UNL A   1      50.559  26.959  26.048  1.00  0.00     0.135 A 
ATOM     69  C   UNL A   1      50.777  26.497  28.397  1.00  0.00     0.135 A 
ATOM     70  F   UNL A   1      49.820  27.275  24.972  1.00  0.00    -0.206 F 
ATOM     71  C   UNL A   1      51.910  26.689  25.859  1.00  0.00     0.059 A 
ATOM     72  C   UNL A   1      52.137  26.250  28.236  1.00  0.00     0.059 A 
ATOM     73  F   UNL A   1      50.254  26.376  29.627  1.00  0.00    -0.206 F 
ATOM     74  C   UNL A   1      52.692  26.341  26.961  1.00  0.00     0.060 A 
BRANCH  74  75
ATOM     75  S   UNL A   1      54.450  26.020  26.703  1.00  0.00     0.124 S 
ATOM     76  O   UNL A   1      54.689  26.704  25.436  1.00  0.00    -0.237 OA
ATOM     77  O   UNL A   1      55.053  26.639  27.879  1.00  0.00    -0.237 OA
ATOM     78  O   UNL A   1      54.528  24.564  26.655  1.00  0.00    -0.744 OA
ENDBRANCH  74  75
ENDBRANCH  53  67
BRANCH  54  79
ATOM     79  C   UNL A   1      40.341  29.390  28.724  1.00  0.00     0.058 A 
ATOM     80  C   UNL A   1      39.502  29.572  27.616  1.00  0.00     0.135 A 
ATOM     81  C   UNL A   1      39.786  29.584  29.999  1.00  0.00     0.135 A 
ATOM     82  F   UNL A   1      39.985  29.410  26.375  1.00  0.00    -0.206 F 
ATOM     83  C   UNL A   1      38.170  29.949  27.762  1.00  0.00     0.059 A 
ATOM     84  C   UNL A   1      38.449  29.933  30.174  1.00  0.00     0.059 A 
ATOM     85  F   UNL A   1      40.541  29.415  31.096  1.00  0.00    -0.206 F 
ATOM     86  C   UNL A   1      37.652  30.125  29.046  1.00  0.00     0.060 A 
BRANCH  86  87
ATOM     87  S   UNL A   1      35.912  30.573  29.226  1.00  0.00     0.124 S 
ATOM     88  O   UNL A   1      35.248  29.434  28.603  1.00  0.00    -0.237 OA
ATOM     89  O   UNL A   1      35.773  30.681  30.675  1.00  0.00    -0.237 OA
ATOM     90  O   UNL A   1      35.813  31.835  28.500  1.00  0.00    -0.744 OA
ENDBRANCH  86  87
ENDBRANCH  54  79
BRANCH  66  91
ATOM     91  C   UNL A   1      43.602  23.477  26.934  1.00  0.00     0.058 A 
ATOM     92  C   UNL A   1      43.612  22.965  25.627  1.00  0.00     0.135 A 
ATOM     93  C   UNL A   1      43.163  22.631  27.966  1.00  0.00     0.135 A 
ATOM     94  F   UNL A   1      44.019  23.733  24.604  1.00  0.00    -0.206 F 
ATOM     95  C   UNL A   1      43.179  21.673  25.351  1.00  0.00     0.059 A 
ATOM     96  C   UNL A   1      42.757  21.324  27.717  1.00  0.00     0.059 A 
ATOM     97  F   UNL A   1      43.147  23.066  29.237  1.00  0.00    -0.206 F 
ATOM     98  C   UNL A   1      42.756  20.859  26.404  1.00  0.00     0.060 A 
BRANCH  98  99
ATOM     99  S   UNL A   1      42.229  19.173  26.033  1.00  0.00     0.124 S 
ATOM    100  O   UNL A   1      43.005  18.880  24.833  1.00  0.00    -0.237 OA
ATOM    101  O   UNL A   1      42.625  18.451  27.237  1.00  0.00    -0.237 OA
ATOM    102  O   UNL A   1      40.788  19.304  25.832  1.00  0.00    -0.744 OA
ENDBRANCH  98  99
ENDBRANCH  66  91
ENDBRANCH  40  41
ENDBRANCH  33  35
ENDBRANCH  32  33
ENDBRANCH  31  32
ENDBRANCH  30  31
ENDBRANCH  29  30
ENDBRANCH  28  29
ENDBRANCH  27  28
ENDBRANCH   1  27
TORSDOF 28
ENDMDL
