MODEL 1
REMARK VINA RESULT:      -9.8      0.000      0.000
REMARK SMILES O=C(OCCOCCOCCOCCOC(=O)c1nn(Cc2ccc(F)cc2)c2ccccc12)c1ccc(-c2c3nc(c(-c4c(F)cc(S(=O)(=O)[O-])cc4F)c4ccc([nH]4)c(-c4c(F)cc(S(=O)(=O)[O-])cc4F)c4nc(c(-c5c(F)cc(S(=O)(=O)[O-])cc5F)c5ccc2[nH]5)C=C4)C=C3)cc1
REMARK SMILES IDX 8 1 7 2 6 3 5 4 4 5 3 6 2 7 1 8 35 9 36 10 100 11 37 12
REMARK SMILES IDX 99 13 38 14 39 15 40 16 93 17 41 18 98 19 92 20 94 21 42 22
REMARK SMILES IDX 97 23 91 24 90 25 43 27 77 28 56 29 76 30 57 31 60 32 75 33
REMARK SMILES IDX 95 34 58 35 59 36 74 38 96 39 61 40 44 41 45 42 54 43 46 44
REMARK SMILES IDX 47 45 53 46 55 47 48 48 49 49 50 50 51 51 52 52 78 53 79 54
REMARK SMILES IDX 88 55 80 56 81 57 87 58 89 59 82 60 83 61 84 62 85 63 86 64
REMARK SMILES IDX 62 65 63 66 72 67 64 68 65 69 71 70 73 71 66 72 67 73 68 74
REMARK SMILES IDX 69 75 70 76 9 77 10 78 11 79 12 80 13 81 14 82 15 83 16 84
REMARK SMILES IDX 17 85 18 86 19 87 34 88 20 89 29 90 33 91 30 92 32 93 31 94
REMARK SMILES IDX 21 95 22 96 23 97 28 98 24 99 27 100 25 101 26 102
REMARK H PARENT 94 26 60 37
REMARK Flexibility Score: inf
ROOT
ATOM      1  C   UNL A   1      35.116  31.579  27.653  1.00  0.00     0.188 C 
ENDROOT
BRANCH   1   2
ATOM      2  C   UNL A   1      34.174  32.763  27.858  1.00  0.00     0.188 C 
BRANCH   2   3
ATOM      3  O   UNL A   1      33.706  32.791  29.192  1.00  0.00    -0.376 OA
BRANCH   3   4
ATOM      4  C   UNL A   1      34.252  33.775  30.051  1.00  0.00     0.202 C 
BRANCH   4   5
ATOM      5  C   UNL A   1      35.477  33.190  30.745  1.00  0.00     0.261 C 
BRANCH   5   6
ATOM      6  O   UNL A   1      35.129  32.190  31.732  1.00  0.00    -0.460 OA
BRANCH   6   7
ATOM      7  C   UNL A   1      35.901  32.156  32.856  1.00  0.00     0.338 C 
ATOM      8  O   UNL A   1      35.564  32.603  33.940  1.00  0.00    -0.246 OA
BRANCH   7   9
ATOM      9  C   UNL A   1      37.233  31.547  32.534  1.00  0.00     0.060 A 
ATOM     10  C   UNL A   1      38.348  32.355  32.269  1.00  0.00     0.016 A 
ATOM     11  C   UNL A   1      37.333  30.163  32.340  1.00  0.00     0.016 A 
ATOM     12  C   UNL A   1      39.536  31.775  31.785  1.00  0.00     0.010 A 
ATOM     13  C   UNL A   1      38.474  29.606  31.772  1.00  0.00     0.010 A 
ATOM     14  C   UNL A   1      39.595  30.400  31.493  1.00  0.00    -0.014 A 
BRANCH  14  15
ATOM     15  C   UNL A   1      40.864  29.653  31.385  1.00  0.00     0.031 A 
ATOM     16  C   UNL A   1      41.496  29.612  32.697  1.00  0.00     0.074 A 
ATOM     17  C   UNL A   1      41.534  29.080  30.356  1.00  0.00     0.049 A 
ATOM     18  N   UNL A   1      42.421  30.456  33.013  1.00  0.00    -0.248 NA
ATOM     19  C   UNL A   1      40.970  28.822  33.811  1.00  0.00     0.031 C 
ATOM     20  C   UNL A   1      41.369  29.395  28.966  1.00  0.00     0.029 A 
ATOM     21  N   UNL A   1      42.503  28.090  30.286  1.00  0.00    -0.354 N 
ATOM     22  C   UNL A   1      42.889  29.973  34.203  1.00  0.00     0.074 A 
ATOM     23  C   UNL A   1      41.814  29.196  34.779  1.00  0.00     0.031 C 
ATOM     24  C   UNL A   1      41.925  28.477  28.162  1.00  0.00     0.029 A 
ATOM     25  C   UNL A   1      42.616  27.524  29.004  1.00  0.00     0.049 A 
ATOM     26  H   UNL A   1      43.054  27.815  31.053  1.00  0.00     0.167 HD
ATOM     27  C   UNL A   1      44.232  29.829  34.322  1.00  0.00     0.037 A 
ATOM     28  C   UNL A   1      43.582  26.779  28.417  1.00  0.00     0.037 A 
ATOM     29  C   UNL A   1      44.976  30.604  33.354  1.00  0.00     0.049 A 
ATOM     30  C   UNL A   1      44.871  27.382  28.799  1.00  0.00     0.074 A 
ATOM     31  C   UNL A   1      45.201  31.947  33.136  1.00  0.00     0.029 A 
ATOM     32  N   UNL A   1      45.281  29.959  32.180  1.00  0.00    -0.354 N 
ATOM     33  N   UNL A   1      45.292  28.548  28.386  1.00  0.00    -0.248 NA
ATOM     34  C   UNL A   1      45.545  26.838  29.969  1.00  0.00     0.031 C 
ATOM     35  C   UNL A   1      45.637  32.089  31.788  1.00  0.00     0.029 A 
ATOM     36  C   UNL A   1      45.692  30.832  31.198  1.00  0.00     0.049 A 
ATOM     37  H   UNL A   1      45.213  28.985  32.056  1.00  0.00     0.167 HD
ATOM     38  C   UNL A   1      45.922  29.068  29.500  1.00  0.00     0.074 A 
ATOM     39  C   UNL A   1      46.195  27.930  30.369  1.00  0.00     0.031 C 
ATOM     40  C   UNL A   1      45.844  30.389  29.821  1.00  0.00     0.037 A 
BRANCH  27  41
ATOM     41  C   UNL A   1      44.795  28.622  34.993  1.00  0.00     0.058 A 
ATOM     42  C   UNL A   1      45.591  28.763  36.131  1.00  0.00     0.135 A 
ATOM     43  C   UNL A   1      44.717  27.330  34.423  1.00  0.00     0.135 A 
ATOM     44  F   UNL A   1      45.786  29.973  36.678  1.00  0.00    -0.206 F 
ATOM     45  C   UNL A   1      46.234  27.670  36.703  1.00  0.00     0.059 A 
ATOM     46  C   UNL A   1      45.280  26.216  35.018  1.00  0.00     0.059 A 
ATOM     47  F   UNL A   1      44.164  27.121  33.220  1.00  0.00    -0.206 F 
ATOM     48  C   UNL A   1      46.056  26.401  36.150  1.00  0.00     0.060 A 
BRANCH  48  49
ATOM     49  S   UNL A   1      46.883  24.987  36.887  1.00  0.00     0.124 S 
ATOM     50  O   UNL A   1      45.749  24.136  37.225  1.00  0.00    -0.237 OA
ATOM     51  O   UNL A   1      47.731  24.526  35.793  1.00  0.00    -0.237 OA
ATOM     52  O   UNL A   1      47.597  25.573  38.018  1.00  0.00    -0.744 OA
ENDBRANCH  48  49
ENDBRANCH  27  41
BRANCH  28  53
ATOM     53  C   UNL A   1      43.386  25.609  27.525  1.00  0.00     0.058 A 
ATOM     54  C   UNL A   1      43.727  25.670  26.163  1.00  0.00     0.135 A 
ATOM     55  C   UNL A   1      43.078  24.329  28.031  1.00  0.00     0.135 A 
ATOM     56  F   UNL A   1      43.998  26.849  25.583  1.00  0.00    -0.206 F 
ATOM     57  C   UNL A   1      43.875  24.521  25.380  1.00  0.00     0.059 A 
ATOM     58  C   UNL A   1      43.213  23.167  27.267  1.00  0.00     0.059 A 
ATOM     59  F   UNL A   1      42.705  24.166  29.310  1.00  0.00    -0.206 F 
ATOM     60  C   UNL A   1      43.660  23.270  25.954  1.00  0.00     0.060 A 
BRANCH  60  61
ATOM     61  S   UNL A   1      44.121  21.790  25.022  1.00  0.00     0.124 S 
ATOM     62  O   UNL A   1      44.083  22.269  23.645  1.00  0.00    -0.237 OA
ATOM     63  O   UNL A   1      45.448  21.494  25.556  1.00  0.00    -0.237 OA
ATOM     64  O   UNL A   1      43.083  20.825  25.379  1.00  0.00    -0.744 OA
ENDBRANCH  60  61
ENDBRANCH  28  53
BRANCH  40  65
ATOM     65  C   UNL A   1      45.851  31.406  28.714  1.00  0.00     0.058 A 
ATOM     66  C   UNL A   1      44.775  32.218  28.324  1.00  0.00     0.135 A 
ATOM     67  C   UNL A   1      47.075  31.616  28.052  1.00  0.00     0.135 A 
ATOM     68  F   UNL A   1      43.580  32.127  28.921  1.00  0.00    -0.206 F 
ATOM     69  C   UNL A   1      44.916  33.196  27.333  1.00  0.00     0.059 A 
ATOM     70  C   UNL A   1      47.247  32.603  27.085  1.00  0.00     0.059 A 
ATOM     71  F   UNL A   1      48.150  30.875  28.374  1.00  0.00    -0.206 F 
ATOM     72  C   UNL A   1      46.160  33.395  26.733  1.00  0.00     0.060 A 
BRANCH  72  73
ATOM     73  S   UNL A   1      46.356  34.735  25.540  1.00  0.00     0.124 S 
ATOM     74  O   UNL A   1      45.449  34.334  24.470  1.00  0.00    -0.237 OA
ATOM     75  O   UNL A   1      45.941  35.899  26.318  1.00  0.00    -0.237 OA
ATOM     76  O   UNL A   1      47.776  34.692  25.202  1.00  0.00    -0.744 OA
ENDBRANCH  72  73
ENDBRANCH  40  65
ENDBRANCH  14  15
ENDBRANCH   7   9
ENDBRANCH   6   7
ENDBRANCH   5   6
ENDBRANCH   4   5
ENDBRANCH   3   4
ENDBRANCH   2   3
ENDBRANCH   1   2
BRANCH   1  77
ATOM     77  O   UNL A   1      34.588  30.343  28.128  1.00  0.00    -0.377 OA
BRANCH  77  78
ATOM     78  C   UNL A   1      34.584  29.238  27.213  1.00  0.00     0.188 C 
BRANCH  78  79
ATOM     79  C   UNL A   1      33.236  28.820  26.618  1.00  0.00     0.188 C 
BRANCH  79  80
ATOM     80  O   UNL A   1      33.378  28.370  25.282  1.00  0.00    -0.376 OA
BRANCH  80  81
ATOM     81  C   UNL A   1      32.170  28.176  24.592  1.00  0.00     0.202 C 
BRANCH  81  82
ATOM     82  C   UNL A   1      32.162  26.906  23.736  1.00  0.00     0.261 C 
BRANCH  82  83
ATOM     83  O   UNL A   1      33.331  26.109  23.393  1.00  0.00    -0.458 OA
BRANCH  83  84
ATOM     84  C   UNL A   1      33.422  24.993  22.615  1.00  0.00     0.359 C 
ATOM     85  O   UNL A   1      33.468  24.950  21.422  1.00  0.00    -0.244 OA
BRANCH  84  86
ATOM     86  C   UNL A   1      33.602  23.768  23.383  1.00  0.00     0.178 A 
ATOM     87  N   UNL A   1      32.518  23.137  23.876  1.00  0.00    -0.164 NA
ATOM     88  C   UNL A   1      34.794  23.101  23.724  1.00  0.00     0.035 A 
ATOM     89  N   UNL A   1      33.018  22.083  24.530  1.00  0.00    -0.260 N 
ATOM     90  C   UNL A   1      34.393  22.038  24.530  1.00  0.00     0.070 A 
ATOM     91  C   UNL A   1      36.160  23.307  23.461  1.00  0.00     0.013 A 
ATOM     92  C   UNL A   1      35.321  21.177  25.128  1.00  0.00     0.028 A 
ATOM     93  C   UNL A   1      37.091  22.433  24.019  1.00  0.00     0.001 A 
ATOM     94  C   UNL A   1      36.675  21.392  24.847  1.00  0.00     0.002 A 
BRANCH  89  95
ATOM     95  C   UNL A   1      32.073  21.118  25.076  1.00  0.00     0.180 C 
BRANCH  95  96
ATOM     96  C   UNL A   1      32.411  19.708  24.631  1.00  0.00    -0.026 A 
ATOM     97  C   UNL A   1      32.802  18.742  25.574  1.00  0.00     0.008 A 
ATOM     98  C   UNL A   1      32.372  19.346  23.273  1.00  0.00     0.008 A 
ATOM     99  C   UNL A   1      33.157  17.455  25.175  1.00  0.00     0.039 A 
ATOM    100  C   UNL A   1      32.713  18.049  22.876  1.00  0.00     0.039 A 
ATOM    101  C   UNL A   1      33.105  17.118  23.830  1.00  0.00     0.123 A 
ATOM    102  F   UNL A   1      33.438  15.877  23.450  1.00  0.00    -0.207 F 
ENDBRANCH  95  96
ENDBRANCH  89  95
ENDBRANCH  84  86
ENDBRANCH  83  84
ENDBRANCH  82  83
ENDBRANCH  81  82
ENDBRANCH  80  81
ENDBRANCH  79  80
ENDBRANCH  78  79
ENDBRANCH  77  78
ENDBRANCH   1  77
TORSDOF 25
ENDMDL
MODEL 2
REMARK VINA RESULT:      -9.3      3.072      4.473
REMARK SMILES O=C(OCCOCCOCCOCCOC(=O)c1nn(Cc2ccc(F)cc2)c2ccccc12)c1ccc(-c2c3nc(c(-c4c(F)cc(S(=O)(=O)[O-])cc4F)c4ccc([nH]4)c(-c4c(F)cc(S(=O)(=O)[O-])cc4F)c4nc(c(-c5c(F)cc(S(=O)(=O)[O-])cc5F)c5ccc2[nH]5)C=C4)C=C3)cc1
REMARK SMILES IDX 8 1 7 2 6 3 5 4 4 5 3 6 2 7 1 8 35 9 36 10 100 11 37 12
REMARK SMILES IDX 99 13 38 14 39 15 40 16 93 17 41 18 98 19 92 20 94 21 42 22
REMARK SMILES IDX 97 23 91 24 90 25 43 27 77 28 56 29 76 30 57 31 60 32 75 33
REMARK SMILES IDX 95 34 58 35 59 36 74 38 96 39 61 40 44 41 45 42 54 43 46 44
REMARK SMILES IDX 47 45 53 46 55 47 48 48 49 49 50 50 51 51 52 52 78 53 79 54
REMARK SMILES IDX 88 55 80 56 81 57 87 58 89 59 82 60 83 61 84 62 85 63 86 64
REMARK SMILES IDX 62 65 63 66 72 67 64 68 65 69 71 70 73 71 66 72 67 73 68 74
REMARK SMILES IDX 69 75 70 76 9 77 10 78 11 79 12 80 13 81 14 82 15 83 16 84
REMARK SMILES IDX 17 85 18 86 19 87 34 88 20 89 29 90 33 91 30 92 32 93 31 94
REMARK SMILES IDX 21 95 22 96 23 97 28 98 24 99 27 100 25 101 26 102
REMARK H PARENT 94 26 60 37
REMARK Flexibility Score: inf
ROOT
ATOM      1  C   UNL A   1      35.182  32.707  28.001  1.00  0.00     0.188 C 
ENDROOT
BRANCH   1   2
ATOM      2  C   UNL A   1      34.712  32.749  29.453  1.00  0.00     0.188 C 
BRANCH   2   3
ATOM      3  O   UNL A   1      33.643  33.665  29.595  1.00  0.00    -0.376 OA
BRANCH   3   4
ATOM      4  C   UNL A   1      33.975  35.034  29.729  1.00  0.00     0.202 C 
BRANCH   4   5
ATOM      5  C   UNL A   1      33.221  35.604  30.925  1.00  0.00     0.261 C 
BRANCH   5   6
ATOM      6  O   UNL A   1      33.975  35.496  32.156  1.00  0.00    -0.460 OA
BRANCH   6   7
ATOM      7  C   UNL A   1      33.962  34.274  32.765  1.00  0.00     0.338 C 
ATOM      8  O   UNL A   1      32.968  33.748  33.237  1.00  0.00    -0.246 OA
BRANCH   7   9
ATOM      9  C   UNL A   1      35.355  33.722  32.814  1.00  0.00     0.060 A 
ATOM     10  C   UNL A   1      35.580  32.361  33.065  1.00  0.00     0.016 A 
ATOM     11  C   UNL A   1      36.449  34.596  32.766  1.00  0.00     0.016 A 
ATOM     12  C   UNL A   1      36.890  31.897  33.295  1.00  0.00     0.010 A 
ATOM     13  C   UNL A   1      37.728  34.152  33.087  1.00  0.00     0.010 A 
ATOM     14  C   UNL A   1      37.970  32.796  33.349  1.00  0.00    -0.014 A 
BRANCH  14  15
ATOM     15  C   UNL A   1      39.376  32.380  33.174  1.00  0.00     0.031 A 
ATOM     16  C   UNL A   1      40.060  32.498  34.455  1.00  0.00     0.074 A 
ATOM     17  C   UNL A   1      40.115  31.985  32.110  1.00  0.00     0.049 A 
ATOM     18  N   UNL A   1      40.766  33.543  34.735  1.00  0.00    -0.248 NA
ATOM     19  C   UNL A   1      39.796  31.606  35.584  1.00  0.00     0.031 C 
ATOM     20  C   UNL A   1      39.812  32.247  30.732  1.00  0.00     0.029 A 
ATOM     21  N   UNL A   1      41.291  31.262  31.985  1.00  0.00    -0.354 N 
ATOM     22  C   UNL A   1      41.394  33.192  35.897  1.00  0.00     0.074 A 
ATOM     23  C   UNL A   1      40.568  32.177  36.516  1.00  0.00     0.031 C 
ATOM     24  C   UNL A   1      40.537  31.491  29.894  1.00  0.00     0.029 A 
ATOM     25  C   UNL A   1      41.478  30.736  30.694  1.00  0.00     0.049 A 
ATOM     26  H   UNL A   1      41.929  31.131  32.724  1.00  0.00     0.167 HD
ATOM     27  C   UNL A   1      42.735  33.380  35.952  1.00  0.00     0.037 A 
ATOM     28  C   UNL A   1      42.567  30.248  30.056  1.00  0.00     0.037 A 
ATOM     29  C   UNL A   1      43.221  34.310  34.957  1.00  0.00     0.049 A 
ATOM     30  C   UNL A   1      43.687  31.148  30.383  1.00  0.00     0.074 A 
ATOM     31  C   UNL A   1      43.102  35.667  34.741  1.00  0.00     0.029 A 
ATOM     32  N   UNL A   1      43.617  33.755  33.765  1.00  0.00    -0.354 N 
ATOM     33  N   UNL A   1      43.792  32.380  29.962  1.00  0.00    -0.248 NA
ATOM     34  C   UNL A   1      44.528  30.788  31.516  1.00  0.00     0.031 C 
ATOM     35  C   UNL A   1      43.425  35.908  33.375  1.00  0.00     0.029 A 
ATOM     36  C   UNL A   1      43.757  34.700  32.772  1.00  0.00     0.049 A 
ATOM     37  H   UNL A   1      43.783  32.794  33.635  1.00  0.00     0.167 HD
ATOM     38  C   UNL A   1      44.328  33.041  31.050  1.00  0.00     0.074 A 
ATOM     39  C   UNL A   1      44.911  32.006  31.894  1.00  0.00     0.031 C 
ATOM     40  C   UNL A   1      43.946  34.304  31.385  1.00  0.00     0.037 A 
BRANCH  27  41
ATOM     41  C   UNL A   1      43.606  32.348  36.584  1.00  0.00     0.058 A 
ATOM     42  C   UNL A   1      43.783  31.109  35.967  1.00  0.00     0.135 A 
ATOM     43  C   UNL A   1      44.128  32.491  37.892  1.00  0.00     0.135 A 
ATOM     44  F   UNL A   1      43.240  30.867  34.763  1.00  0.00    -0.206 F 
ATOM     45  C   UNL A   1      44.484  30.083  36.592  1.00  0.00     0.059 A 
ATOM     46  C   UNL A   1      44.897  31.516  38.499  1.00  0.00     0.059 A 
ATOM     47  F   UNL A   1      43.835  33.552  38.657  1.00  0.00    -0.206 F 
ATOM     48  C   UNL A   1      45.052  30.305  37.848  1.00  0.00     0.060 A 
BRANCH  48  49
ATOM     49  S   UNL A   1      45.960  28.982  38.657  1.00  0.00     0.124 S 
ATOM     50  O   UNL A   1      46.599  28.335  37.517  1.00  0.00    -0.237 OA
ATOM     51  O   UNL A   1      46.842  29.723  39.553  1.00  0.00    -0.237 OA
ATOM     52  O   UNL A   1      44.909  28.213  39.318  1.00  0.00    -0.744 OA
ENDBRANCH  48  49
ENDBRANCH  27  41
BRANCH  28  53
ATOM     53  C   UNL A   1      42.620  29.064  29.163  1.00  0.00     0.058 A 
ATOM     54  C   UNL A   1      42.312  27.779  29.643  1.00  0.00     0.135 A 
ATOM     55  C   UNL A   1      42.746  29.190  27.764  1.00  0.00     0.135 A 
ATOM     56  F   UNL A   1      42.210  27.553  30.961  1.00  0.00    -0.206 F 
ATOM     57  C   UNL A   1      42.024  26.713  28.785  1.00  0.00     0.059 A 
ATOM     58  C   UNL A   1      42.468  28.138  26.887  1.00  0.00     0.059 A 
ATOM     59  F   UNL A   1      43.072  30.367  27.206  1.00  0.00    -0.206 F 
ATOM     60  C   UNL A   1      42.060  26.915  27.408  1.00  0.00     0.060 A 
BRANCH  60  61
ATOM     61  S   UNL A   1      41.420  25.621  26.317  1.00  0.00     0.124 S 
ATOM     62  O   UNL A   1      41.545  26.239  25.001  1.00  0.00    -0.237 OA
ATOM     63  O   UNL A   1      42.332  24.514  26.589  1.00  0.00    -0.237 OA
ATOM     64  O   UNL A   1      40.051  25.424  26.788  1.00  0.00    -0.744 OA
ENDBRANCH  60  61
ENDBRANCH  28  53
BRANCH  40  65
ATOM     65  C   UNL A   1      43.652  35.289  30.289  1.00  0.00     0.058 A 
ATOM     66  C   UNL A   1      42.424  35.462  29.632  1.00  0.00     0.135 A 
ATOM     67  C   UNL A   1      44.689  36.174  29.936  1.00  0.00     0.135 A 
ATOM     68  F   UNL A   1      41.363  34.700  29.927  1.00  0.00    -0.206 F 
ATOM     69  C   UNL A   1      42.236  36.471  28.681  1.00  0.00     0.059 A 
ATOM     70  C   UNL A   1      44.516  37.204  29.015  1.00  0.00     0.059 A 
ATOM     71  F   UNL A   1      45.893  36.068  30.524  1.00  0.00    -0.206 F 
ATOM     72  C   UNL A   1      43.282  37.349  28.394  1.00  0.00     0.060 A 
BRANCH  72  73
ATOM     73  S   UNL A   1      42.991  38.717  27.251  1.00  0.00     0.124 S 
ATOM     74  O   UNL A   1      44.243  38.769  26.503  1.00  0.00    -0.237 OA
ATOM     75  O   UNL A   1      41.827  38.248  26.504  1.00  0.00    -0.237 OA
ATOM     76  O   UNL A   1      42.743  39.855  28.131  1.00  0.00    -0.744 OA
ENDBRANCH  72  73
ENDBRANCH  40  65
ENDBRANCH  14  15
ENDBRANCH   7   9
ENDBRANCH   6   7
ENDBRANCH   5   6
ENDBRANCH   4   5
ENDBRANCH   3   4
ENDBRANCH   2   3
ENDBRANCH   1   2
BRANCH   1  77
ATOM     77  O   UNL A   1      34.789  31.524  27.311  1.00  0.00    -0.377 OA
BRANCH  77  78
ATOM     78  C   UNL A   1      33.464  31.031  27.556  1.00  0.00     0.188 C 
BRANCH  78  79
ATOM     79  C   UNL A   1      33.173  29.575  27.179  1.00  0.00     0.188 C 
BRANCH  79  80
ATOM     80  O   UNL A   1      33.067  29.415  25.775  1.00  0.00    -0.376 OA
BRANCH  80  81
ATOM     81  C   UNL A   1      31.766  29.171  25.305  1.00  0.00     0.202 C 
BRANCH  81  82
ATOM     82  C   UNL A   1      31.328  27.713  25.473  1.00  0.00     0.261 C 
BRANCH  82  83
ATOM     83  O   UNL A   1      30.897  26.830  24.398  1.00  0.00    -0.458 OA
BRANCH  83  84
ATOM     84  C   UNL A   1      31.586  26.394  23.306  1.00  0.00     0.359 C 
ATOM     85  O   UNL A   1      31.750  26.980  22.277  1.00  0.00    -0.244 OA
BRANCH  84  86
ATOM     86  C   UNL A   1      32.274  25.129  23.525  1.00  0.00     0.178 A 
ATOM     87  N   UNL A   1      33.389  24.857  22.820  1.00  0.00    -0.164 NA
ATOM     88  C   UNL A   1      31.939  24.075  24.398  1.00  0.00     0.035 A 
ATOM     89  N   UNL A   1      33.755  23.639  23.234  1.00  0.00    -0.260 N 
ATOM     90  C   UNL A   1      32.884  23.083  24.143  1.00  0.00     0.070 A 
ATOM     91  C   UNL A   1      30.922  23.851  25.342  1.00  0.00     0.013 A 
ATOM     92  C   UNL A   1      32.832  21.838  24.778  1.00  0.00     0.028 A 
ATOM     93  C   UNL A   1      30.884  22.628  26.010  1.00  0.00     0.001 A 
ATOM     94  C   UNL A   1      31.819  21.636  25.724  1.00  0.00     0.002 A 
BRANCH  89  95
ATOM     95  C   UNL A   1      35.020  23.110  22.741  1.00  0.00     0.180 C 
BRANCH  95  96
ATOM     96  C   UNL A   1      36.020  22.941  23.869  1.00  0.00    -0.026 A 
ATOM     97  C   UNL A   1      36.178  23.952  24.832  1.00  0.00     0.008 A 
ATOM     98  C   UNL A   1      36.825  21.793  23.959  1.00  0.00     0.008 A 
ATOM     99  C   UNL A   1      37.122  23.829  25.849  1.00  0.00     0.039 A 
ATOM    100  C   UNL A   1      37.761  21.664  24.990  1.00  0.00     0.039 A 
ATOM    101  C   UNL A   1      37.902  22.685  25.923  1.00  0.00     0.123 A 
ATOM    102  F   UNL A   1      38.803  22.565  26.907  1.00  0.00    -0.207 F 
ENDBRANCH  95  96
ENDBRANCH  89  95
ENDBRANCH  84  86
ENDBRANCH  83  84
ENDBRANCH  82  83
ENDBRANCH  81  82
ENDBRANCH  80  81
ENDBRANCH  79  80
ENDBRANCH  78  79
ENDBRANCH  77  78
ENDBRANCH   1  77
TORSDOF 25
ENDMDL
MODEL 3
REMARK VINA RESULT:      -9.2      2.170      3.119
REMARK SMILES O=C(OCCOCCOCCOCCOC(=O)c1nn(Cc2ccc(F)cc2)c2ccccc12)c1ccc(-c2c3nc(c(-c4c(F)cc(S(=O)(=O)[O-])cc4F)c4ccc([nH]4)c(-c4c(F)cc(S(=O)(=O)[O-])cc4F)c4nc(c(-c5c(F)cc(S(=O)(=O)[O-])cc5F)c5ccc2[nH]5)C=C4)C=C3)cc1
REMARK SMILES IDX 8 1 7 2 6 3 5 4 4 5 3 6 2 7 1 8 35 9 36 10 100 11 37 12
REMARK SMILES IDX 99 13 38 14 39 15 40 16 93 17 41 18 98 19 92 20 94 21 42 22
REMARK SMILES IDX 97 23 91 24 90 25 43 27 77 28 56 29 76 30 57 31 60 32 75 33
REMARK SMILES IDX 95 34 58 35 59 36 74 38 96 39 61 40 44 41 45 42 54 43 46 44
REMARK SMILES IDX 47 45 53 46 55 47 48 48 49 49 50 50 51 51 52 52 78 53 79 54
REMARK SMILES IDX 88 55 80 56 81 57 87 58 89 59 82 60 83 61 84 62 85 63 86 64
REMARK SMILES IDX 62 65 63 66 72 67 64 68 65 69 71 70 73 71 66 72 67 73 68 74
REMARK SMILES IDX 69 75 70 76 9 77 10 78 11 79 12 80 13 81 14 82 15 83 16 84
REMARK SMILES IDX 17 85 18 86 19 87 34 88 20 89 29 90 33 91 30 92 32 93 31 94
REMARK SMILES IDX 21 95 22 96 23 97 28 98 24 99 27 100 25 101 26 102
REMARK H PARENT 94 26 60 37
REMARK Flexibility Score: inf
ROOT
ATOM      1  C   UNL A   1      35.814  30.032  28.004  1.00  0.00     0.188 C 
ENDROOT
BRANCH   1   2
ATOM      2  C   UNL A   1      36.422  29.556  29.321  1.00  0.00     0.188 C 
BRANCH   2   3
ATOM      3  O   UNL A   1      36.271  30.548  30.318  1.00  0.00    -0.376 OA
BRANCH   3   4
ATOM      4  C   UNL A   1      36.526  31.888  29.942  1.00  0.00     0.202 C 
BRANCH   4   5
ATOM      5  C   UNL A   1      36.511  32.757  31.195  1.00  0.00     0.261 C 
BRANCH   5   6
ATOM      6  O   UNL A   1      37.741  32.656  31.952  1.00  0.00    -0.460 OA
BRANCH   6   7
ATOM      7  C   UNL A   1      37.694  31.887  33.079  1.00  0.00     0.338 C 
ATOM      8  O   UNL A   1      36.875  32.023  33.974  1.00  0.00    -0.246 OA
BRANCH   7   9
ATOM      9  C   UNL A   1      38.828  30.907  33.067  1.00  0.00     0.060 A 
ATOM     10  C   UNL A   1      38.624  29.576  32.678  1.00  0.00     0.016 A 
ATOM     11  C   UNL A   1      40.070  31.279  33.597  1.00  0.00     0.016 A 
ATOM     12  C   UNL A   1      39.651  28.628  32.852  1.00  0.00     0.010 A 
ATOM     13  C   UNL A   1      41.047  30.323  33.857  1.00  0.00     0.010 A 
ATOM     14  C   UNL A   1      40.856  28.985  33.482  1.00  0.00    -0.014 A 
BRANCH  14  15
ATOM     15  C   UNL A   1      42.102  28.205  33.342  1.00  0.00     0.031 A 
ATOM     16  C   UNL A   1      42.661  27.976  34.667  1.00  0.00     0.074 A 
ATOM     17  C   UNL A   1      42.805  27.737  32.282  1.00  0.00     0.049 A 
ATOM     18  N   UNL A   1      43.597  28.735  35.131  1.00  0.00    -0.248 NA
ATOM     19  C   UNL A   1      42.049  27.076  35.646  1.00  0.00     0.031 C 
ATOM     20  C   UNL A   1      42.725  28.228  30.937  1.00  0.00     0.029 A 
ATOM     21  N   UNL A   1      43.741  26.725  32.136  1.00  0.00    -0.354 N 
ATOM     22  C   UNL A   1      43.984  28.089  36.273  1.00  0.00     0.074 A 
ATOM     23  C   UNL A   1      42.853  27.292  36.694  1.00  0.00     0.031 C 
ATOM     24  C   UNL A   1      43.291  27.395  30.052  1.00  0.00     0.029 A 
ATOM     25  C   UNL A   1      43.902  26.317  30.799  1.00  0.00     0.049 A 
ATOM     26  H   UNL A   1      44.240  26.333  32.888  1.00  0.00     0.167 HD
ATOM     27  C   UNL A   1      45.313  27.876  36.438  1.00  0.00     0.037 A 
ATOM     28  C   UNL A   1      44.872  25.611  30.171  1.00  0.00     0.037 A 
ATOM     29  C   UNL A   1      46.134  28.734  35.612  1.00  0.00     0.049 A 
ATOM     30  C   UNL A   1      46.158  26.109  30.688  1.00  0.00     0.074 A 
ATOM     31  C   UNL A   1      46.417  30.083  35.576  1.00  0.00     0.029 A 
ATOM     32  N   UNL A   1      46.478  28.227  34.383  1.00  0.00    -0.354 N 
ATOM     33  N   UNL A   1      46.642  27.298  30.446  1.00  0.00    -0.248 NA
ATOM     34  C   UNL A   1      46.750  25.396  31.812  1.00  0.00     0.031 C 
ATOM     35  C   UNL A   1      46.929  30.373  34.279  1.00  0.00     0.029 A 
ATOM     36  C   UNL A   1      46.972  29.197  33.539  1.00  0.00     0.049 A 
ATOM     37  H   UNL A   1      46.382  27.279  34.133  1.00  0.00     0.167 HD
ATOM     38  C   UNL A   1      47.230  27.649  31.646  1.00  0.00     0.074 A 
ATOM     39  C   UNL A   1      47.415  26.403  32.377  1.00  0.00     0.031 C 
ATOM     40  C   UNL A   1      47.181  28.922  32.126  1.00  0.00     0.037 A 
BRANCH  27  41
ATOM     41  C   UNL A   1      45.797  26.573  36.977  1.00  0.00     0.058 A 
ATOM     42  C   UNL A   1      45.746  25.427  36.183  1.00  0.00     0.135 A 
ATOM     43  C   UNL A   1      46.141  26.394  38.338  1.00  0.00     0.135 A 
ATOM     44  F   UNL A   1      45.342  25.503  34.905  1.00  0.00    -0.206 F 
ATOM     45  C   UNL A   1      46.070  24.175  36.698  1.00  0.00     0.059 A 
ATOM     46  C   UNL A   1      46.544  25.176  38.852  1.00  0.00     0.059 A 
ATOM     47  F   UNL A   1      46.013  27.383  39.234  1.00  0.00    -0.206 F 
ATOM     48  C   UNL A   1      46.485  24.066  38.027  1.00  0.00     0.060 A 
BRANCH  48  49
ATOM     49  S   UNL A   1      46.905  22.452  38.695  1.00  0.00     0.124 S 
ATOM     50  O   UNL A   1      48.132  22.151  37.965  1.00  0.00    -0.237 OA
ATOM     51  O   UNL A   1      47.057  22.742  40.117  1.00  0.00    -0.237 OA
ATOM     52  O   UNL A   1      45.744  21.637  38.350  1.00  0.00    -0.744 OA
ENDBRANCH  48  49
ENDBRANCH  27  41
BRANCH  28  53
ATOM     53  C   UNL A   1      44.682  24.571  29.130  1.00  0.00     0.058 A 
ATOM     54  C   UNL A   1      43.886  23.438  29.372  1.00  0.00     0.135 A 
ATOM     55  C   UNL A   1      45.086  24.772  27.793  1.00  0.00     0.135 A 
ATOM     56  F   UNL A   1      43.486  23.144  30.618  1.00  0.00    -0.206 F 
ATOM     57  C   UNL A   1      43.415  22.625  28.338  1.00  0.00     0.059 A 
ATOM     58  C   UNL A   1      44.632  23.969  26.743  1.00  0.00     0.059 A 
ATOM     59  F   UNL A   1      45.877  25.804  27.461  1.00  0.00    -0.206 F 
ATOM     60  C   UNL A   1      43.756  22.925  27.021  1.00  0.00     0.060 A 
BRANCH  60  61
ATOM     61  S   UNL A   1      42.923  22.043  25.679  1.00  0.00     0.124 S 
ATOM     62  O   UNL A   1      43.709  20.818  25.582  1.00  0.00    -0.237 OA
ATOM     63  O   UNL A   1      41.571  21.891  26.206  1.00  0.00    -0.237 OA
ATOM     64  O   UNL A   1      43.045  22.957  24.544  1.00  0.00    -0.744 OA
ENDBRANCH  60  61
ENDBRANCH  28  53
BRANCH  40  65
ATOM     65  C   UNL A   1      47.282  30.068  31.158  1.00  0.00     0.058 A 
ATOM     66  C   UNL A   1      46.218  30.843  30.672  1.00  0.00     0.135 A 
ATOM     67  C   UNL A   1      48.577  30.446  30.755  1.00  0.00     0.135 A 
ATOM     68  F   UNL A   1      44.952  30.593  31.030  1.00  0.00    -0.206 F 
ATOM     69  C   UNL A   1      46.435  31.945  29.836  1.00  0.00     0.059 A 
ATOM     70  C   UNL A   1      48.819  31.556  29.950  1.00  0.00     0.059 A 
ATOM     71  F   UNL A   1      49.645  29.749  31.182  1.00  0.00    -0.206 F 
ATOM     72  C   UNL A   1      47.740  32.305  29.497  1.00  0.00     0.060 A 
BRANCH  72  73
ATOM     73  S   UNL A   1      48.012  33.795  28.514  1.00  0.00     0.124 S 
ATOM     74  O   UNL A   1      49.300  34.266  29.013  1.00  0.00    -0.237 OA
ATOM     75  O   UNL A   1      48.017  33.266  27.153  1.00  0.00    -0.237 OA
ATOM     76  O   UNL A   1      46.868  34.641  28.845  1.00  0.00    -0.744 OA
ENDBRANCH  72  73
ENDBRANCH  40  65
ENDBRANCH  14  15
ENDBRANCH   7   9
ENDBRANCH   6   7
ENDBRANCH   5   6
ENDBRANCH   4   5
ENDBRANCH   3   4
ENDBRANCH   2   3
ENDBRANCH   1   2
BRANCH   1  77
ATOM     77  O   UNL A   1      34.812  29.158  27.491  1.00  0.00    -0.377 OA
BRANCH  77  78
ATOM     78  C   UNL A   1      33.630  29.763  26.947  1.00  0.00     0.188 C 
BRANCH  78  79
ATOM     79  C   UNL A   1      32.426  28.851  26.691  1.00  0.00     0.188 C 
BRANCH  79  80
ATOM     80  O   UNL A   1      32.799  27.694  25.964  1.00  0.00    -0.376 OA
BRANCH  80  81
ATOM     81  C   UNL A   1      31.739  27.031  25.323  1.00  0.00     0.202 C 
BRANCH  81  82
ATOM     82  C   UNL A   1      31.053  25.991  26.214  1.00  0.00     0.261 C 
BRANCH  82  83
ATOM     83  O   UNL A   1      31.707  24.851  26.841  1.00  0.00    -0.458 OA
BRANCH  83  84
ATOM     84  C   UNL A   1      31.331  23.540  26.860  1.00  0.00     0.359 C 
ATOM     85  O   UNL A   1      30.359  23.077  27.378  1.00  0.00    -0.244 OA
BRANCH  84  86
ATOM     86  C   UNL A   1      32.181  22.685  26.041  1.00  0.00     0.178 A 
ATOM     87  N   UNL A   1      31.611  21.737  25.272  1.00  0.00    -0.164 NA
ATOM     88  C   UNL A   1      33.584  22.680  25.921  1.00  0.00     0.035 A 
ATOM     89  N   UNL A   1      32.642  21.130  24.675  1.00  0.00    -0.260 N 
ATOM     90  C   UNL A   1      33.868  21.611  25.074  1.00  0.00     0.070 A 
ATOM     91  C   UNL A   1      34.632  23.442  26.467  1.00  0.00     0.013 A 
ATOM     92  C   UNL A   1      35.184  21.242  24.772  1.00  0.00     0.028 A 
ATOM     93  C   UNL A   1      35.945  23.108  26.141  1.00  0.00     0.001 A 
ATOM     94  C   UNL A   1      36.214  22.019  25.315  1.00  0.00     0.002 A 
BRANCH  89  95
ATOM     95  C   UNL A   1      32.341  20.124  23.666  1.00  0.00     0.180 C 
BRANCH  95  96
ATOM     96  C   UNL A   1      32.757  18.741  24.130  1.00  0.00    -0.026 A 
ATOM     97  C   UNL A   1      33.340  17.836  23.226  1.00  0.00     0.008 A 
ATOM     98  C   UNL A   1      32.543  18.325  25.455  1.00  0.00     0.008 A 
ATOM     99  C   UNL A   1      33.688  16.549  23.627  1.00  0.00     0.039 A 
ATOM    100  C   UNL A   1      32.908  17.038  25.861  1.00  0.00     0.039 A 
ATOM    101  C   UNL A   1      33.474  16.161  24.942  1.00  0.00     0.123 A 
ATOM    102  F   UNL A   1      33.818  14.925  25.328  1.00  0.00    -0.207 F 
ENDBRANCH  95  96
ENDBRANCH  89  95
ENDBRANCH  84  86
ENDBRANCH  83  84
ENDBRANCH  82  83
ENDBRANCH  81  82
ENDBRANCH  80  81
ENDBRANCH  79  80
ENDBRANCH  78  79
ENDBRANCH  77  78
ENDBRANCH   1  77
TORSDOF 25
ENDMDL
