MODEL 1
REMARK VINA RESULT:     -10.4      0.000      0.000
REMARK SMILES O=C(OCCOCCOCCOCCOC(=O)[C@@H]1[C@@H](C(=O)NCCCn2ccnc2)[C@@H]2C=C[C@H]1C2)c1ccc(-c2c3nc(c(-c4c(F)cc(S(=O)(=O)[O-])cc4F)c4ccc([nH]4)c(-c4c(F)cc(S(=O)(=O)[O-])cc4F)c4nc(c(-c5c(F)cc(S(=O)(=O)[O-])cc5F)c5ccc2[nH]5)C=C4)C=C3)cc1
REMARK SMILES IDX 10 1 9 2 8 3 7 4 6 5 5 6 4 7 3 8 2 9 1 10 36 11 37 12 101 13
REMARK SMILES IDX 38 14 100 15 39 16 40 17 41 18 94 19 42 20 99 21 93 22 95 23
REMARK SMILES IDX 43 24 98 25 92 26 91 27 44 29 78 30 57 31 77 32 58 33 61 34
REMARK SMILES IDX 76 35 96 36 59 37 60 38 75 40 97 41 62 42 45 43 46 44 55 45
REMARK SMILES IDX 47 46 48 47 54 48 56 49 49 50 50 51 51 52 52 53 53 54 79 55
REMARK SMILES IDX 80 56 89 57 81 58 82 59 88 60 90 61 83 62 84 63 85 64 86 65
REMARK SMILES IDX 87 66 63 67 64 68 73 69 65 70 66 71 72 72 74 73 67 74 68 75
REMARK SMILES IDX 69 76 70 77 71 78 11 79 12 80 13 81 14 82 15 83 16 84 17 85
REMARK SMILES IDX 18 86 19 87 34 88 31 89 33 90 35 91 32 92 20 93 21 94 22 95
REMARK SMILES IDX 23 97 24 98 25 99 26 100 27 101 30 102 28 103 29 104
REMARK H PARENT 95 28 61 39 22 96
REMARK Flexibility Score: inf
ROOT
ATOM      1  C   UNL A   1      35.442  22.980  23.794  1.00  0.00     0.188 C 
ENDROOT
BRANCH   1   2
ATOM      2  O   UNL A   1      35.022  21.769  24.372  1.00  0.00    -0.377 OA
BRANCH   2   3
ATOM      3  C   UNL A   1      36.008  21.071  25.093  1.00  0.00     0.188 C 
BRANCH   3   4
ATOM      4  C   UNL A   1      37.195  21.918  25.561  1.00  0.00     0.188 C 
BRANCH   4   5
ATOM      5  O   UNL A   1      38.532  21.492  25.389  1.00  0.00    -0.376 OA
BRANCH   5   6
ATOM      6  C   UNL A   1      39.745  21.947  25.951  1.00  0.00     0.202 C 
BRANCH   6   7
ATOM      7  C   UNL A   1      41.123  21.266  25.961  1.00  0.00     0.261 C 
BRANCH   7   8
ATOM      8  O   UNL A   1      42.286  22.072  26.051  1.00  0.00    -0.460 OA
BRANCH   8   9
ATOM      9  C   UNL A   1      42.461  23.330  25.596  1.00  0.00     0.338 C 
ATOM     10  O   UNL A   1      43.245  23.522  24.668  1.00  0.00    -0.246 OA
BRANCH   9  11
ATOM     11  C   UNL A   1      41.916  24.507  26.306  1.00  0.00     0.060 A 
ATOM     12  C   UNL A   1      41.410  25.654  25.691  1.00  0.00     0.016 A 
ATOM     13  C   UNL A   1      41.962  24.434  27.714  1.00  0.00     0.016 A 
ATOM     14  C   UNL A   1      41.107  26.760  26.449  1.00  0.00     0.010 A 
ATOM     15  C   UNL A   1      41.649  25.537  28.480  1.00  0.00     0.010 A 
ATOM     16  C   UNL A   1      41.325  26.714  27.820  1.00  0.00    -0.014 A 
BRANCH  16  17
ATOM     17  C   UNL A   1      41.303  27.989  28.500  1.00  0.00     0.031 A 
ATOM     18  C   UNL A   1      42.522  28.805  28.299  1.00  0.00     0.074 A 
ATOM     19  C   UNL A   1      40.252  28.294  29.283  1.00  0.00     0.049 A 
ATOM     20  N   UNL A   1      43.431  29.107  29.168  1.00  0.00    -0.248 NA
ATOM     21  C   UNL A   1      42.881  29.152  26.914  1.00  0.00     0.031 C 
ATOM     22  C   UNL A   1      38.957  27.607  29.381  1.00  0.00     0.029 A 
ATOM     23  N   UNL A   1      40.090  29.360  30.105  1.00  0.00    -0.354 N 
ATOM     24  C   UNL A   1      44.348  29.902  28.487  1.00  0.00     0.074 A 
ATOM     25  C   UNL A   1      44.071  29.726  27.087  1.00  0.00     0.031 C 
ATOM     26  C   UNL A   1      38.070  28.412  30.003  1.00  0.00     0.029 A 
ATOM     27  C   UNL A   1      38.769  29.591  30.474  1.00  0.00     0.049 A 
ATOM     28  H   UNL A   1      40.839  29.919  30.412  1.00  0.00     0.167 HD
ATOM     29  C   UNL A   1      45.081  30.844  29.141  1.00  0.00     0.037 A 
ATOM     30  C   UNL A   1      38.304  30.744  31.016  1.00  0.00     0.037 A 
ATOM     31  C   UNL A   1      45.176  30.539  30.548  1.00  0.00     0.049 A 
ATOM     32  C   UNL A   1      39.483  31.431  31.622  1.00  0.00     0.074 A 
ATOM     33  C   UNL A   1      45.695  29.483  31.272  1.00  0.00     0.029 A 
ATOM     34  N   UNL A   1      44.348  31.214  31.413  1.00  0.00    -0.354 N 
ATOM     35  N   UNL A   1      40.151  30.944  32.637  1.00  0.00    -0.248 NA
ATOM     36  C   UNL A   1      40.223  32.367  30.786  1.00  0.00     0.031 C 
ATOM     37  C   UNL A   1      44.787  29.297  32.354  1.00  0.00     0.029 A 
ATOM     38  C   UNL A   1      43.810  30.291  32.273  1.00  0.00     0.049 A 
ATOM     39  H   UNL A   1      44.174  32.184  31.416  1.00  0.00     0.167 HD
ATOM     40  C   UNL A   1      41.487  31.186  32.343  1.00  0.00     0.074 A 
ATOM     41  C   UNL A   1      41.464  32.116  31.215  1.00  0.00     0.031 C 
ATOM     42  C   UNL A   1      42.484  30.395  32.843  1.00  0.00     0.037 A 
BRANCH  29  43
ATOM     43  C   UNL A   1      45.337  32.231  28.586  1.00  0.00     0.058 A 
ATOM     44  C   UNL A   1      46.668  32.683  28.462  1.00  0.00     0.135 A 
ATOM     45  C   UNL A   1      44.345  33.233  28.466  1.00  0.00     0.135 A 
ATOM     46  F   UNL A   1      47.693  31.821  28.538  1.00  0.00    -0.206 F 
ATOM     47  C   UNL A   1      46.989  34.036  28.344  1.00  0.00     0.059 A 
ATOM     48  C   UNL A   1      44.643  34.579  28.301  1.00  0.00     0.059 A 
ATOM     49  F   UNL A   1      43.039  32.982  28.593  1.00  0.00    -0.206 F 
ATOM     50  C   UNL A   1      45.967  34.978  28.293  1.00  0.00     0.060 A 
BRANCH  50  51
ATOM     51  S   UNL A   1      46.368  36.732  28.284  1.00  0.00     0.124 S 
ATOM     52  O   UNL A   1      45.188  37.291  27.621  1.00  0.00    -0.237 OA
ATOM     53  O   UNL A   1      46.492  37.018  29.709  1.00  0.00    -0.237 OA
ATOM     54  O   UNL A   1      47.605  36.793  27.523  1.00  0.00    -0.744 OA
ENDBRANCH  50  51
ENDBRANCH  29  43
BRANCH  30  55
ATOM     55  C   UNL A   1      37.055  31.444  30.613  1.00  0.00     0.058 A 
ATOM     56  C   UNL A   1      36.073  31.792  31.555  1.00  0.00     0.135 A 
ATOM     57  C   UNL A   1      36.908  32.014  29.328  1.00  0.00     0.135 A 
ATOM     58  F   UNL A   1      36.148  31.319  32.808  1.00  0.00    -0.206 F 
ATOM     59  C   UNL A   1      35.028  32.674  31.253  1.00  0.00     0.059 A 
ATOM     60  C   UNL A   1      35.871  32.884  29.000  1.00  0.00     0.059 A 
ATOM     61  F   UNL A   1      37.821  31.810  28.367  1.00  0.00    -0.206 F 
ATOM     62  C   UNL A   1      34.945  33.228  29.975  1.00  0.00     0.060 A 
BRANCH  62  63
ATOM     63  S   UNL A   1      33.694  34.485  29.620  1.00  0.00     0.124 S 
ATOM     64  O   UNL A   1      32.752  33.746  28.785  1.00  0.00    -0.237 OA
ATOM     65  O   UNL A   1      33.223  34.836  30.955  1.00  0.00    -0.237 OA
ATOM     66  O   UNL A   1      34.447  35.531  28.933  1.00  0.00    -0.744 OA
ENDBRANCH  62  63
ENDBRANCH  30  55
BRANCH  42  67
ATOM     67  C   UNL A   1      42.139  29.394  33.916  1.00  0.00     0.058 A 
ATOM     68  C   UNL A   1      41.529  28.150  33.671  1.00  0.00     0.135 A 
ATOM     69  C   UNL A   1      42.622  29.623  35.213  1.00  0.00     0.135 A 
ATOM     70  F   UNL A   1      41.137  27.809  32.435  1.00  0.00    -0.206 F 
ATOM     71  C   UNL A   1      41.377  27.193  34.678  1.00  0.00     0.059 A 
ATOM     72  C   UNL A   1      42.510  28.673  36.223  1.00  0.00     0.059 A 
ATOM     73  F   UNL A   1      43.276  30.763  35.493  1.00  0.00    -0.206 F 
ATOM     74  C   UNL A   1      41.877  27.462  35.952  1.00  0.00     0.060 A 
BRANCH  74  75
ATOM     75  S   UNL A   1      41.769  26.190  37.231  1.00  0.00     0.124 S 
ATOM     76  O   UNL A   1      41.909  24.963  36.455  1.00  0.00    -0.237 OA
ATOM     77  O   UNL A   1      42.894  26.521  38.103  1.00  0.00    -0.237 OA
ATOM     78  O   UNL A   1      40.451  26.410  37.821  1.00  0.00    -0.744 OA
ENDBRANCH  74  75
ENDBRANCH  42  67
ENDBRANCH  16  17
ENDBRANCH   9  11
ENDBRANCH   8   9
ENDBRANCH   7   8
ENDBRANCH   6   7
ENDBRANCH   5   6
ENDBRANCH   4   5
ENDBRANCH   3   4
ENDBRANCH   2   3
ENDBRANCH   1   2
BRANCH   1  79
ATOM     79  C   UNL A   1      34.351  23.936  23.308  1.00  0.00     0.188 C 
BRANCH  79  80
ATOM     80  O   UNL A   1      33.982  23.994  21.934  1.00  0.00    -0.376 OA
BRANCH  80  81
ATOM     81  C   UNL A   1      32.968  24.887  21.506  1.00  0.00     0.202 C 
BRANCH  81  82
ATOM     82  C   UNL A   1      33.268  26.402  21.575  1.00  0.00     0.261 C 
BRANCH  82  83
ATOM     83  O   UNL A   1      32.289  27.258  22.215  1.00  0.00    -0.463 OA
BRANCH  83  84
ATOM     84  C   UNL A   1      32.648  27.774  23.416  1.00  0.00     0.310 C 
ATOM     85  O   UNL A   1      33.172  28.878  23.541  1.00  0.00    -0.252 OA
BRANCH  84  86
ATOM     86  C   UNL A   1      32.403  26.874  24.628  1.00  0.00     0.119 C 
ATOM     87  C   UNL A   1      30.897  26.845  25.034  1.00  0.00     0.100 C 
ATOM     88  C   UNL A   1      33.125  26.946  26.008  1.00  0.00     0.027 C 
ATOM     89  C   UNL A   1      30.987  26.767  26.585  1.00  0.00     0.025 C 
ATOM     90  C   UNL A   1      32.759  28.186  26.793  1.00  0.00    -0.027 C 
ATOM     91  C   UNL A   1      32.264  25.953  26.796  1.00  0.00     0.017 C 
ATOM     92  C   UNL A   1      31.465  28.096  27.109  1.00  0.00    -0.027 C 
BRANCH  87  93
ATOM     93  C   UNL A   1      30.255  25.654  24.345  1.00  0.00     0.224 C 
ATOM     94  O   UNL A   1      30.851  24.598  24.133  1.00  0.00    -0.275 OA
ATOM     95  N   UNL A   1      29.002  25.725  23.846  1.00  0.00    -0.356 N 
ATOM     96  H   UNL A   1      28.711  24.943  23.324  1.00  0.00     0.163 HD
BRANCH  95  97
ATOM     97  C   UNL A   1      28.032  26.783  23.968  1.00  0.00     0.117 C 
BRANCH  97  98
ATOM     98  C   UNL A   1      28.427  28.032  23.204  1.00  0.00     0.043 C 
BRANCH  98  99
ATOM     99  C   UNL A   1      27.431  29.184  23.341  1.00  0.00     0.125 C 
BRANCH  99 100
ATOM    100  N   UNL A   1      27.794  30.366  22.588  1.00  0.00    -0.337 N 
ATOM    101  C   UNL A   1      28.043  30.409  21.246  1.00  0.00     0.107 A 
ATOM    102  C   UNL A   1      27.908  31.637  23.073  1.00  0.00     0.199 A 
ATOM    103  C   UNL A   1      28.303  31.732  20.977  1.00  0.00     0.130 A 
ATOM    104  N   UNL A   1      28.223  32.484  22.120  1.00  0.00    -0.245 NA
ENDBRANCH  99 100
ENDBRANCH  98  99
ENDBRANCH  97  98
ENDBRANCH  95  97
ENDBRANCH  87  93
ENDBRANCH  84  86
ENDBRANCH  83  84
ENDBRANCH  82  83
ENDBRANCH  81  82
ENDBRANCH  80  81
ENDBRANCH  79  80
ENDBRANCH   1  79
TORSDOF 28
ENDMDL
MODEL 2
REMARK VINA RESULT:      -8.1      7.458     15.078
REMARK SMILES O=C(OCCOCCOCCOCCOC(=O)[C@@H]1[C@@H](C(=O)NCCCn2ccnc2)[C@@H]2C=C[C@H]1C2)c1ccc(-c2c3nc(c(-c4c(F)cc(S(=O)(=O)[O-])cc4F)c4ccc([nH]4)c(-c4c(F)cc(S(=O)(=O)[O-])cc4F)c4nc(c(-c5c(F)cc(S(=O)(=O)[O-])cc5F)c5ccc2[nH]5)C=C4)C=C3)cc1
REMARK SMILES IDX 10 1 9 2 8 3 7 4 6 5 5 6 4 7 3 8 2 9 1 10 36 11 37 12 101 13
REMARK SMILES IDX 38 14 100 15 39 16 40 17 41 18 94 19 42 20 99 21 93 22 95 23
REMARK SMILES IDX 43 24 98 25 92 26 91 27 44 29 78 30 57 31 77 32 58 33 61 34
REMARK SMILES IDX 76 35 96 36 59 37 60 38 75 40 97 41 62 42 45 43 46 44 55 45
REMARK SMILES IDX 47 46 48 47 54 48 56 49 49 50 50 51 51 52 52 53 53 54 79 55
REMARK SMILES IDX 80 56 89 57 81 58 82 59 88 60 90 61 83 62 84 63 85 64 86 65
REMARK SMILES IDX 87 66 63 67 64 68 73 69 65 70 66 71 72 72 74 73 67 74 68 75
REMARK SMILES IDX 69 76 70 77 71 78 11 79 12 80 13 81 14 82 15 83 16 84 17 85
REMARK SMILES IDX 18 86 19 87 34 88 31 89 33 90 35 91 32 92 20 93 21 94 22 95
REMARK SMILES IDX 23 97 24 98 25 99 26 100 27 101 30 102 28 103 29 104
REMARK H PARENT 95 28 61 39 22 96
REMARK Flexibility Score: inf
ROOT
ATOM      1  C   UNL A   1      45.591  40.279  29.337  1.00  0.00     0.188 C 
ENDROOT
BRANCH   1   2
ATOM      2  O   UNL A   1      46.199  41.471  28.906  1.00  0.00    -0.377 OA
BRANCH   2   3
ATOM      3  C   UNL A   1      46.795  42.245  29.917  1.00  0.00     0.188 C 
BRANCH   3   4
ATOM      4  C   UNL A   1      46.339  41.919  31.342  1.00  0.00     0.188 C 
BRANCH   4   5
ATOM      5  O   UNL A   1      45.245  42.580  31.947  1.00  0.00    -0.376 OA
BRANCH   5   6
ATOM      6  C   UNL A   1      43.849  42.434  31.785  1.00  0.00     0.202 C 
BRANCH   6   7
ATOM      7  C   UNL A   1      42.986  41.169  31.919  1.00  0.00     0.261 C 
BRANCH   7   8
ATOM      8  O   UNL A   1      42.845  40.568  33.195  1.00  0.00    -0.460 OA
BRANCH   8   9
ATOM      9  C   UNL A   1      43.696  39.723  33.813  1.00  0.00     0.338 C 
ATOM     10  O   UNL A   1      44.839  40.105  34.059  1.00  0.00    -0.246 OA
BRANCH   9  11
ATOM     11  C   UNL A   1      43.380  38.291  34.010  1.00  0.00     0.060 A 
ATOM     12  C   UNL A   1      43.093  37.383  32.989  1.00  0.00     0.016 A 
ATOM     13  C   UNL A   1      43.346  37.863  35.353  1.00  0.00     0.016 A 
ATOM     14  C   UNL A   1      42.628  36.128  33.300  1.00  0.00     0.010 A 
ATOM     15  C   UNL A   1      42.891  36.601  35.671  1.00  0.00     0.010 A 
ATOM     16  C   UNL A   1      42.442  35.794  34.636  1.00  0.00    -0.014 A 
BRANCH  16  17
ATOM     17  C   UNL A   1      41.655  34.606  34.879  1.00  0.00     0.031 A 
ATOM     18  C   UNL A   1      42.053  33.437  34.063  1.00  0.00     0.074 A 
ATOM     19  C   UNL A   1      40.623  34.671  35.740  1.00  0.00     0.049 A 
ATOM     20  N   UNL A   1      41.394  32.873  33.104  1.00  0.00    -0.248 NA
ATOM     21  C   UNL A   1      43.443  32.968  34.189  1.00  0.00     0.031 C 
ATOM     22  C   UNL A   1      40.295  35.741  36.692  1.00  0.00     0.029 A 
ATOM     23  N   UNL A   1      39.687  33.730  36.011  1.00  0.00    -0.354 N 
ATOM     24  C   UNL A   1      42.188  31.812  32.678  1.00  0.00     0.074 A 
ATOM     25  C   UNL A   1      43.496  32.043  33.231  1.00  0.00     0.031 C 
ATOM     26  C   UNL A   1      39.409  35.277  37.598  1.00  0.00     0.029 A 
ATOM     27  C   UNL A   1      39.000  33.944  37.202  1.00  0.00     0.049 A 
ATOM     28  H   UNL A   1      39.508  32.964  35.420  1.00  0.00     0.167 HD
ATOM     29  C   UNL A   1      41.633  30.695  32.133  1.00  0.00     0.037 A 
ATOM     30  C   UNL A   1      38.256  33.013  37.848  1.00  0.00     0.037 A 
ATOM     31  C   UNL A   1      40.324  30.978  31.598  1.00  0.00     0.049 A 
ATOM     32  C   UNL A   1      37.876  31.993  36.827  1.00  0.00     0.074 A 
ATOM     33  C   UNL A   1      39.846  31.823  30.614  1.00  0.00     0.029 A 
ATOM     34  N   UNL A   1      39.228  30.622  32.349  1.00  0.00    -0.354 N 
ATOM     35  N   UNL A   1      37.096  32.255  35.809  1.00  0.00    -0.248 NA
ATOM     36  C   UNL A   1      38.765  30.853  36.646  1.00  0.00     0.031 C 
ATOM     37  C   UNL A   1      38.607  32.312  31.118  1.00  0.00     0.029 A 
ATOM     38  C   UNL A   1      38.362  31.685  32.341  1.00  0.00     0.049 A 
ATOM     39  H   UNL A   1      39.091  29.761  32.807  1.00  0.00     0.167 HD
ATOM     40  C   UNL A   1      37.668  31.590  34.731  1.00  0.00     0.074 A 
ATOM     41  C   UNL A   1      38.663  30.697  35.323  1.00  0.00     0.031 C 
ATOM     42  C   UNL A   1      37.492  32.025  33.447  1.00  0.00     0.037 A 
BRANCH  29  43
ATOM     43  C   UNL A   1      42.095  29.291  32.466  1.00  0.00     0.058 A 
ATOM     44  C   UNL A   1      42.120  28.881  33.816  1.00  0.00     0.135 A 
ATOM     45  C   UNL A   1      42.797  28.453  31.568  1.00  0.00     0.135 A 
ATOM     46  F   UNL A   1      41.472  29.586  34.757  1.00  0.00    -0.206 F 
ATOM     47  C   UNL A   1      42.877  27.793  34.253  1.00  0.00     0.059 A 
ATOM     48  C   UNL A   1      43.517  27.338  31.977  1.00  0.00     0.059 A 
ATOM     49  F   UNL A   1      42.904  28.713  30.262  1.00  0.00    -0.206 F 
ATOM     50  C   UNL A   1      43.595  27.045  33.326  1.00  0.00     0.060 A 
BRANCH  50  51
ATOM     51  S   UNL A   1      44.684  25.729  33.890  1.00  0.00     0.124 S 
ATOM     52  O   UNL A   1      45.795  25.853  32.945  1.00  0.00    -0.237 OA
ATOM     53  O   UNL A   1      44.966  26.140  35.261  1.00  0.00    -0.237 OA
ATOM     54  O   UNL A   1      43.870  24.533  33.751  1.00  0.00    -0.744 OA
ENDBRANCH  50  51
ENDBRANCH  29  43
BRANCH  30  55
ATOM     55  C   UNL A   1      38.287  32.747  39.312  1.00  0.00     0.058 A 
ATOM     56  C   UNL A   1      39.496  32.727  40.027  1.00  0.00     0.135 A 
ATOM     57  C   UNL A   1      37.108  32.756  40.091  1.00  0.00     0.135 A 
ATOM     58  F   UNL A   1      40.665  32.745  39.369  1.00  0.00    -0.206 F 
ATOM     59  C   UNL A   1      39.535  32.747  41.427  1.00  0.00     0.059 A 
ATOM     60  C   UNL A   1      37.121  32.763  41.483  1.00  0.00     0.059 A 
ATOM     61  F   UNL A   1      35.897  32.844  39.520  1.00  0.00    -0.206 F 
ATOM     62  C   UNL A   1      38.340  32.781  42.147  1.00  0.00     0.060 A 
BRANCH  62  63
ATOM     63  S   UNL A   1      38.379  32.963  43.946  1.00  0.00     0.124 S 
ATOM     64  O   UNL A   1      37.470  31.905  44.376  1.00  0.00    -0.237 OA
ATOM     65  O   UNL A   1      39.791  32.750  44.246  1.00  0.00    -0.237 OA
ATOM     66  O   UNL A   1      37.897  34.324  44.162  1.00  0.00    -0.744 OA
ENDBRANCH  62  63
ENDBRANCH  30  55
BRANCH  42  67
ATOM     67  C   UNL A   1      36.471  33.103  33.185  1.00  0.00     0.058 A 
ATOM     68  C   UNL A   1      36.694  34.474  33.405  1.00  0.00     0.135 A 
ATOM     69  C   UNL A   1      35.297  32.749  32.504  1.00  0.00     0.135 A 
ATOM     70  F   UNL A   1      37.839  34.905  33.953  1.00  0.00    -0.206 F 
ATOM     71  C   UNL A   1      35.775  35.445  32.996  1.00  0.00     0.059 A 
ATOM     72  C   UNL A   1      34.383  33.700  32.060  1.00  0.00     0.059 A 
ATOM     73  F   UNL A   1      35.060  31.461  32.202  1.00  0.00    -0.206 F 
ATOM     74  C   UNL A   1      34.623  35.047  32.318  1.00  0.00     0.060 A 
BRANCH  74  75
ATOM     75  S   UNL A   1      33.481  36.305  31.703  1.00  0.00     0.124 S 
ATOM     76  O   UNL A   1      34.121  37.540  32.140  1.00  0.00    -0.237 OA
ATOM     77  O   UNL A   1      33.488  36.062  30.263  1.00  0.00    -0.237 OA
ATOM     78  O   UNL A   1      32.224  35.982  32.372  1.00  0.00    -0.744 OA
ENDBRANCH  74  75
ENDBRANCH  42  67
ENDBRANCH  16  17
ENDBRANCH   9  11
ENDBRANCH   8   9
ENDBRANCH   7   8
ENDBRANCH   6   7
ENDBRANCH   5   6
ENDBRANCH   4   5
ENDBRANCH   3   4
ENDBRANCH   2   3
ENDBRANCH   1   2
BRANCH   1  79
ATOM     79  C   UNL A   1      44.249  39.910  28.703  1.00  0.00     0.188 C 
BRANCH  79  80
ATOM     80  O   UNL A   1      43.306  40.912  28.340  1.00  0.00    -0.376 OA
BRANCH  80  81
ATOM     81  C   UNL A   1      42.654  40.856  27.083  1.00  0.00     0.202 C 
BRANCH  81  82
ATOM     82  C   UNL A   1      43.534  40.661  25.826  1.00  0.00     0.261 C 
BRANCH  82  83
ATOM     83  O   UNL A   1      44.864  41.238  25.834  1.00  0.00    -0.463 OA
BRANCH  83  84
ATOM     84  C   UNL A   1      45.328  41.672  24.637  1.00  0.00     0.310 C 
ATOM     85  O   UNL A   1      46.166  41.059  23.982  1.00  0.00    -0.252 OA
BRANCH  84  86
ATOM     86  C   UNL A   1      44.774  43.014  24.154  1.00  0.00     0.119 C 
ATOM     87  C   UNL A   1      45.214  43.331  22.692  1.00  0.00     0.100 C 
ATOM     88  C   UNL A   1      44.922  44.396  24.860  1.00  0.00     0.027 C 
ATOM     89  C   UNL A   1      45.415  44.872  22.747  1.00  0.00     0.025 C 
ATOM     90  C   UNL A   1      46.342  44.917  24.830  1.00  0.00    -0.027 C 
ATOM     91  C   UNL A   1      44.357  45.302  23.762  1.00  0.00     0.017 C 
ATOM     92  C   UNL A   1      46.651  45.169  23.556  1.00  0.00    -0.027 C 
BRANCH  87  93
ATOM     93  C   UNL A   1      44.118  42.838  21.763  1.00  0.00     0.224 C 
ATOM     94  O   UNL A   1      43.098  42.277  22.163  1.00  0.00    -0.275 OA
ATOM     95  N   UNL A   1      44.250  42.915  20.421  1.00  0.00    -0.356 N 
ATOM     96  H   UNL A   1      43.540  42.475  19.901  1.00  0.00     0.163 HD
BRANCH  95  97
ATOM     97  C   UNL A   1      45.284  43.550  19.643  1.00  0.00     0.117 C 
BRANCH  97  98
ATOM     98  C   UNL A   1      44.962  44.992  19.304  1.00  0.00     0.043 C 
BRANCH  98  99
ATOM     99  C   UNL A   1      44.989  45.299  17.807  1.00  0.00     0.125 C 
BRANCH  99 100
ATOM    100  N   UNL A   1      43.689  45.603  17.247  1.00  0.00    -0.337 N 
ATOM    101  C   UNL A   1      43.272  46.832  16.824  1.00  0.00     0.107 A 
ATOM    102  C   UNL A   1      42.679  44.716  17.005  1.00  0.00     0.199 A 
ATOM    103  C   UNL A   1      42.002  46.627  16.338  1.00  0.00     0.130 A 
ATOM    104  N   UNL A   1      41.642  45.311  16.462  1.00  0.00    -0.245 NA
ENDBRANCH  99 100
ENDBRANCH  98  99
ENDBRANCH  97  98
ENDBRANCH  95  97
ENDBRANCH  87  93
ENDBRANCH  84  86
ENDBRANCH  83  84
ENDBRANCH  82  83
ENDBRANCH  81  82
ENDBRANCH  80  81
ENDBRANCH  79  80
ENDBRANCH   1  79
TORSDOF 28
ENDMDL
MODEL 3
REMARK VINA RESULT:      -7.8      6.639     13.220
REMARK SMILES O=C(OCCOCCOCCOCCOC(=O)[C@@H]1[C@@H](C(=O)NCCCn2ccnc2)[C@@H]2C=C[C@H]1C2)c1ccc(-c2c3nc(c(-c4c(F)cc(S(=O)(=O)[O-])cc4F)c4ccc([nH]4)c(-c4c(F)cc(S(=O)(=O)[O-])cc4F)c4nc(c(-c5c(F)cc(S(=O)(=O)[O-])cc5F)c5ccc2[nH]5)C=C4)C=C3)cc1
REMARK SMILES IDX 10 1 9 2 8 3 7 4 6 5 5 6 4 7 3 8 2 9 1 10 36 11 37 12 101 13
REMARK SMILES IDX 38 14 100 15 39 16 40 17 41 18 94 19 42 20 99 21 93 22 95 23
REMARK SMILES IDX 43 24 98 25 92 26 91 27 44 29 78 30 57 31 77 32 58 33 61 34
REMARK SMILES IDX 76 35 96 36 59 37 60 38 75 40 97 41 62 42 45 43 46 44 55 45
REMARK SMILES IDX 47 46 48 47 54 48 56 49 49 50 50 51 51 52 52 53 53 54 79 55
REMARK SMILES IDX 80 56 89 57 81 58 82 59 88 60 90 61 83 62 84 63 85 64 86 65
REMARK SMILES IDX 87 66 63 67 64 68 73 69 65 70 66 71 72 72 74 73 67 74 68 75
REMARK SMILES IDX 69 76 70 77 71 78 11 79 12 80 13 81 14 82 15 83 16 84 17 85
REMARK SMILES IDX 18 86 19 87 34 88 31 89 33 90 35 91 32 92 20 93 21 94 22 95
REMARK SMILES IDX 23 97 24 98 25 99 26 100 27 101 30 102 28 103 29 104
REMARK H PARENT 95 28 61 39 22 96
REMARK Flexibility Score: inf
ROOT
ATOM      1  C   UNL A   1      45.217  39.689  29.691  1.00  0.00     0.188 C 
ENDROOT
BRANCH   1   2
ATOM      2  O   UNL A   1      44.955  40.747  28.804  1.00  0.00    -0.377 OA
BRANCH   2   3
ATOM      3  C   UNL A   1      45.418  42.009  29.217  1.00  0.00     0.188 C 
BRANCH   3   4
ATOM      4  C   UNL A   1      45.937  42.074  30.655  1.00  0.00     0.188 C 
BRANCH   4   5
ATOM      5  O   UNL A   1      45.160  42.610  31.707  1.00  0.00    -0.376 OA
BRANCH   5   6
ATOM      6  C   UNL A   1      43.783  42.510  32.008  1.00  0.00     0.202 C 
BRANCH   6   7
ATOM      7  C   UNL A   1      42.911  41.252  32.141  1.00  0.00     0.261 C 
BRANCH   7   8
ATOM      8  O   UNL A   1      42.827  40.606  33.400  1.00  0.00    -0.460 OA
BRANCH   8   9
ATOM      9  C   UNL A   1      43.727  39.779  33.971  1.00  0.00     0.338 C 
ATOM     10  O   UNL A   1      44.861  40.200  34.195  1.00  0.00    -0.246 OA
BRANCH   9  11
ATOM     11  C   UNL A   1      43.471  38.332  34.139  1.00  0.00     0.060 A 
ATOM     12  C   UNL A   1      43.102  37.456  33.116  1.00  0.00     0.016 A 
ATOM     13  C   UNL A   1      43.590  37.850  35.459  1.00  0.00     0.016 A 
ATOM     14  C   UNL A   1      42.706  36.177  33.421  1.00  0.00     0.010 A 
ATOM     15  C   UNL A   1      43.205  36.563  35.769  1.00  0.00     0.010 A 
ATOM     16  C   UNL A   1      42.671  35.784  34.753  1.00  0.00    -0.014 A 
BRANCH  16  17
ATOM     17  C   UNL A   1      41.946  34.564  35.026  1.00  0.00     0.031 A 
ATOM     18  C   UNL A   1      42.556  33.350  34.436  1.00  0.00     0.074 A 
ATOM     19  C   UNL A   1      40.787  34.631  35.707  1.00  0.00     0.049 A 
ATOM     20  N   UNL A   1      42.102  32.620  33.470  1.00  0.00    -0.248 NA
ATOM     21  C   UNL A   1      43.938  33.031  34.829  1.00  0.00     0.031 C 
ATOM     22  C   UNL A   1      40.232  35.769  36.453  1.00  0.00     0.029 A 
ATOM     23  N   UNL A   1      39.892  33.644  35.954  1.00  0.00    -0.354 N 
ATOM     24  C   UNL A   1      43.032  31.596  33.309  1.00  0.00     0.074 A 
ATOM     25  C   UNL A   1      44.213  32.012  34.017  1.00  0.00     0.031 C 
ATOM     26  C   UNL A   1      39.249  35.331  37.268  1.00  0.00     0.029 A 
ATOM     27  C   UNL A   1      39.009  33.929  36.990  1.00  0.00     0.049 A 
ATOM     28  H   UNL A   1      39.869  32.801  35.446  1.00  0.00     0.167 HD
ATOM     29  C   UNL A   1      42.656  30.377  32.835  1.00  0.00     0.037 A 
ATOM     30  C   UNL A   1      38.242  33.013  37.632  1.00  0.00     0.037 A 
ATOM     31  C   UNL A   1      41.432  30.472  32.078  1.00  0.00     0.049 A 
ATOM     32  C   UNL A   1      38.109  31.851  36.705  1.00  0.00     0.074 A 
ATOM     33  C   UNL A   1      41.057  31.149  30.933  1.00  0.00     0.029 A 
ATOM     34  N   UNL A   1      40.260  30.104  32.695  1.00  0.00    -0.354 N 
ATOM     35  N   UNL A   1      37.485  31.920  35.557  1.00  0.00    -0.248 NA
ATOM     36  C   UNL A   1      39.098  30.787  36.808  1.00  0.00     0.031 C 
ATOM     37  C   UNL A   1      39.720  31.575  31.178  1.00  0.00     0.029 A 
ATOM     38  C   UNL A   1      39.329  31.073  32.421  1.00  0.00     0.049 A 
ATOM     39  H   UNL A   1      40.115  29.293  33.234  1.00  0.00     0.167 HD
ATOM     40  C   UNL A   1      38.270  31.191  34.672  1.00  0.00     0.074 A 
ATOM     41  C   UNL A   1      39.221  30.469  35.516  1.00  0.00     0.031 C 
ATOM     42  C   UNL A   1      38.270  31.456  33.330  1.00  0.00     0.037 A 
BRANCH  29  43
ATOM     43  C   UNL A   1      43.162  29.070  33.411  1.00  0.00     0.058 A 
ATOM     44  C   UNL A   1      43.584  28.052  32.530  1.00  0.00     0.135 A 
ATOM     45  C   UNL A   1      42.962  28.664  34.751  1.00  0.00     0.135 A 
ATOM     46  F   UNL A   1      43.826  28.322  31.238  1.00  0.00    -0.206 F 
ATOM     47  C   UNL A   1      43.685  26.717  32.925  1.00  0.00     0.059 A 
ATOM     48  C   UNL A   1      43.104  27.349  35.174  1.00  0.00     0.059 A 
ATOM     49  F   UNL A   1      42.530  29.493  35.706  1.00  0.00    -0.206 F 
ATOM     50  C   UNL A   1      43.415  26.373  34.244  1.00  0.00     0.060 A 
BRANCH  50  51
ATOM     51  S   UNL A   1      43.404  24.642  34.734  1.00  0.00     0.124 S 
ATOM     52  O   UNL A   1      41.998  24.457  35.099  1.00  0.00    -0.237 OA
ATOM     53  O   UNL A   1      43.836  23.981  33.507  1.00  0.00    -0.237 OA
ATOM     54  O   UNL A   1      44.351  24.596  35.836  1.00  0.00    -0.744 OA
ENDBRANCH  50  51
ENDBRANCH  29  43
BRANCH  30  55
ATOM     55  C   UNL A   1      38.059  32.923  39.106  1.00  0.00     0.058 A 
ATOM     56  C   UNL A   1      39.139  33.080  39.990  1.00  0.00     0.135 A 
ATOM     57  C   UNL A   1      36.773  32.931  39.693  1.00  0.00     0.135 A 
ATOM     58  F   UNL A   1      40.394  33.112  39.517  1.00  0.00    -0.206 F 
ATOM     59  C   UNL A   1      38.955  33.265  41.366  1.00  0.00     0.059 A 
ATOM     60  C   UNL A   1      36.566  33.101  41.059  1.00  0.00     0.059 A 
ATOM     61  F   UNL A   1      35.664  32.858  38.942  1.00  0.00    -0.206 F 
ATOM     62  C   UNL A   1      37.662  33.290  41.890  1.00  0.00     0.060 A 
BRANCH  62  63
ATOM     63  S   UNL A   1      37.407  33.682  43.637  1.00  0.00     0.124 S 
ATOM     64  O   UNL A   1      38.763  33.585  44.168  1.00  0.00    -0.237 OA
ATOM     65  O   UNL A   1      36.842  35.026  43.572  1.00  0.00    -0.237 OA
ATOM     66  O   UNL A   1      36.485  32.643  44.089  1.00  0.00    -0.744 OA
ENDBRANCH  62  63
ENDBRANCH  30  55
BRANCH  42  67
ATOM     67  C   UNL A   1      37.227  32.396  32.782  1.00  0.00     0.058 A 
ATOM     68  C   UNL A   1      35.992  31.983  32.248  1.00  0.00     0.135 A 
ATOM     69  C   UNL A   1      37.407  33.772  32.983  1.00  0.00     0.135 A 
ATOM     70  F   UNL A   1      35.698  30.682  32.123  1.00  0.00    -0.206 F 
ATOM     71  C   UNL A   1      34.997  32.901  31.901  1.00  0.00     0.059 A 
ATOM     72  C   UNL A   1      36.419  34.701  32.674  1.00  0.00     0.059 A 
ATOM     73  F   UNL A   1      38.538  34.224  33.553  1.00  0.00    -0.206 F 
ATOM     74  C   UNL A   1      35.218  34.260  32.124  1.00  0.00     0.060 A 
BRANCH  74  75
ATOM     75  S   UNL A   1      33.897  35.441  31.767  1.00  0.00     0.124 S 
ATOM     76  O   UNL A   1      32.762  34.854  32.471  1.00  0.00    -0.237 OA
ATOM     77  O   UNL A   1      34.421  36.682  32.331  1.00  0.00    -0.237 OA
ATOM     78  O   UNL A   1      33.806  35.421  30.309  1.00  0.00    -0.744 OA
ENDBRANCH  74  75
ENDBRANCH  42  67
ENDBRANCH  16  17
ENDBRANCH   9  11
ENDBRANCH   8   9
ENDBRANCH   7   8
ENDBRANCH   6   7
ENDBRANCH   5   6
ENDBRANCH   4   5
ENDBRANCH   3   4
ENDBRANCH   2   3
ENDBRANCH   1   2
BRANCH   1  79
ATOM     79  C   UNL A   1      44.359  38.430  29.549  1.00  0.00     0.188 C 
BRANCH  79  80
ATOM     80  O   UNL A   1      43.002  38.507  29.126  1.00  0.00    -0.376 OA
BRANCH  80  81
ATOM     81  C   UNL A   1      42.564  37.770  27.997  1.00  0.00     0.202 C 
BRANCH  81  82
ATOM     82  C   UNL A   1      42.099  36.314  28.227  1.00  0.00     0.261 C 
BRANCH  82  83
ATOM     83  O   UNL A   1      42.861  35.497  29.151  1.00  0.00    -0.463 OA
BRANCH  83  84
ATOM     84  C   UNL A   1      43.396  34.363  28.636  1.00  0.00     0.310 C 
ATOM     85  O   UNL A   1      43.129  33.243  29.065  1.00  0.00    -0.252 OA
BRANCH  84  86
ATOM     86  C   UNL A   1      44.401  34.555  27.499  1.00  0.00     0.119 C 
ATOM     87  C   UNL A   1      45.109  33.218  27.119  1.00  0.00     0.100 C 
ATOM     88  C   UNL A   1      45.569  35.585  27.448  1.00  0.00     0.027 C 
ATOM     89  C   UNL A   1      46.545  33.706  26.774  1.00  0.00     0.025 C 
ATOM     90  C   UNL A   1      46.672  35.266  28.433  1.00  0.00    -0.027 C 
ATOM     91  C   UNL A   1      46.285  35.093  26.186  1.00  0.00     0.017 C 
ATOM     92  C   UNL A   1      47.235  34.117  28.049  1.00  0.00    -0.027 C 
BRANCH  87  93
ATOM     93  C   UNL A   1      44.330  32.590  25.977  1.00  0.00     0.224 C 
ATOM     94  O   UNL A   1      44.044  33.196  24.944  1.00  0.00    -0.275 OA
ATOM     95  N   UNL A   1      43.829  31.340  26.076  1.00  0.00    -0.356 N 
ATOM     96  H   UNL A   1      43.249  31.058  25.332  1.00  0.00     0.163 HD
BRANCH  95  97
ATOM     97  C   UNL A   1      44.023  30.360  27.114  1.00  0.00     0.117 C 
BRANCH  97  98
ATOM     98  C   UNL A   1      43.193  29.109  26.904  1.00  0.00     0.043 C 
BRANCH  98  99
ATOM     99  C   UNL A   1      43.752  27.869  27.603  1.00  0.00     0.125 C 
BRANCH  99 100
ATOM    100  N   UNL A   1      43.350  26.620  26.992  1.00  0.00    -0.337 N 
ATOM    101  C   UNL A   1      42.977  26.455  25.688  1.00  0.00     0.107 A 
ATOM    102  C   UNL A   1      43.313  25.394  27.592  1.00  0.00     0.199 A 
ATOM    103  C   UNL A   1      42.727  25.109  25.560  1.00  0.00     0.130 A 
ATOM    104  N   UNL A   1      42.932  24.462  26.750  1.00  0.00    -0.245 NA
ENDBRANCH  99 100
ENDBRANCH  98  99
ENDBRANCH  97  98
ENDBRANCH  95  97
ENDBRANCH  87  93
ENDBRANCH  84  86
ENDBRANCH  83  84
ENDBRANCH  82  83
ENDBRANCH  81  82
ENDBRANCH  80  81
ENDBRANCH  79  80
ENDBRANCH   1  79
TORSDOF 28
ENDMDL
