MODEL 1
REMARK VINA RESULT:      -6.3      0.000      0.000
REMARK SMILES O=C(N[C@@H](Cc1ccc(O)cc1)C(=O)N[C@@H](Cc1c[nH]c2ccccc12)C(=O)N[C@@H](CO)C(=O)OCCOCCOCCOCCOC(=O)c1ccc(-c2c3nc(c(-c4c(F)cc(S(=O)(=O)[O-])cc4F)c4ccc([nH]4)c(-c4c(F)cc(S(=O)(=O)[O-])cc4F)c4nc(c(-c5c(F)cc(S(=O)(=O)[O-])cc5F)c5ccc2[nH]5)C=C4)C=C3)cc1)c1ccc(F)cc1
REMARK SMILES IDX 39 1 38 2 37 3 36 4 35 5 33 6 34 7 30 8 29 9 27 10 28 11
REMARK SMILES IDX 16 13 15 14 13 15 14 16 4 18 3 19 1 20 2 21 116 23 117 24
REMARK SMILES IDX 122 25 118 26 121 27 119 28 120 29 5 30 6 31 7 32 12 33 8 34
REMARK SMILES IDX 11 35 9 36 10 37 17 39 18 40 19 41 26 42 20 43 21 44 25 45
REMARK SMILES IDX 22 47 24 48 23 49 31 50 32 51 40 53 41 54 42 55 43 56 44 57
REMARK SMILES IDX 45 58 46 59 47 60 48 61 49 62 50 63 51 64 115 65 52 66
REMARK SMILES IDX 114 67 53 68 54 69 55 70 108 71 56 72 113 73 107 74 109 75
REMARK SMILES IDX 57 76 112 77 106 78 105 79 58 81 92 82 71 83 91 84 72 85
REMARK SMILES IDX 75 86 90 87 110 88 73 89 74 90 89 92 111 93 76 94 59 95
REMARK SMILES IDX 60 96 69 97 61 98 62 99 68 100 70 101 63 102 64 103 65 104
REMARK SMILES IDX 66 105 67 106 93 107 94 108 103 109 95 110 96 111 102 112
REMARK SMILES IDX 104 113 97 114 98 115 99 116 100 117 101 118 77 119 78 120
REMARK SMILES IDX 87 121 79 122 80 123 86 124 88 125 81 126 82 127 83 128
REMARK SMILES IDX 84 129 85 130
REMARK H PARENT 29 12 15 17 3 22 10 38 20 46 32 52 109 80 75 91
REMARK Flexibility Score: inf
ROOT
ATOM      1  C   UNL A   1      40.042  29.866  31.273  1.00  0.00     0.188 C 
ENDROOT
BRANCH   1   2
ATOM      2  O   UNL A   1      40.649  30.662  32.282  1.00  0.00    -0.376 OA
BRANCH   2   3
ATOM      3  C   UNL A   1      41.853  30.136  32.836  1.00  0.00     0.202 C 
BRANCH   3   4
ATOM      4  C   UNL A   1      42.781  29.475  31.815  1.00  0.00     0.261 C 
BRANCH   4   5
ATOM      5  O   UNL A   1      44.131  29.282  32.294  1.00  0.00    -0.462 OA
BRANCH   5   6
ATOM      6  C   UNL A   1      45.151  29.273  31.396  1.00  0.00     0.331 C 
ATOM      7  O   UNL A   1      45.054  29.678  30.243  1.00  0.00    -0.250 OA
BRANCH   6   8
ATOM      8  C   UNL A   1      46.450  28.663  31.995  1.00  0.00     0.218 C 
BRANCH   8   9
ATOM      9  N   UNL A   1      47.432  28.243  30.972  1.00  0.00    -0.339 N 
ATOM     10  C   UNL A   1      47.792  26.992  30.602  1.00  0.00     0.243 C 
ATOM     11  O   UNL A   1      48.981  26.723  30.834  1.00  0.00    -0.273 OA
ATOM     12  H   UNL A   1      47.885  28.975  30.495  1.00  0.00     0.164 HD
BRANCH  10  13
ATOM     13  C   UNL A   1      46.858  25.872  30.022  1.00  0.00     0.175 C 
BRANCH  13  14
ATOM     14  N   UNL A   1      47.610  24.999  29.127  1.00  0.00    -0.342 N 
ATOM     15  C   UNL A   1      47.830  25.128  27.786  1.00  0.00     0.243 C 
ATOM     16  O   UNL A   1      48.722  24.414  27.309  1.00  0.00    -0.273 OA
ATOM     17  H   UNL A   1      48.015  24.208  29.549  1.00  0.00     0.164 HD
BRANCH  15  18
ATOM     18  C   UNL A   1      47.008  26.060  26.836  1.00  0.00     0.176 C 
BRANCH  18  19
ATOM     19  N   UNL A   1      47.780  26.566  25.696  1.00  0.00    -0.340 N 
ATOM     20  O   UNL A   1      48.789  28.129  24.422  1.00  0.00    -0.269 OA
ATOM     21  C   UNL A   1      48.334  27.809  25.516  1.00  0.00     0.251 C 
ATOM     22  H   UNL A   1      47.921  25.927  24.959  1.00  0.00     0.164 HD
BRANCH  21  23
ATOM     23  C   UNL A   1      48.372  28.782  26.630  1.00  0.00     0.040 A 
ATOM     24  C   UNL A   1      47.308  29.671  26.838  1.00  0.00     0.017 A 
ATOM     25  C   UNL A   1      49.471  28.780  27.499  1.00  0.00     0.017 A 
ATOM     26  C   UNL A   1      47.372  30.596  27.879  1.00  0.00     0.040 A 
ATOM     27  C   UNL A   1      49.525  29.703  28.547  1.00  0.00     0.040 A 
ATOM     28  C   UNL A   1      48.481  30.607  28.721  1.00  0.00     0.123 A 
ATOM     29  F   UNL A   1      48.540  31.499  29.718  1.00  0.00    -0.207 F 
ENDBRANCH  21  23
ENDBRANCH  18  19
BRANCH  18  30
ATOM     30  C   UNL A   1      45.529  25.722  26.523  1.00  0.00     0.070 C 
BRANCH  30  31
ATOM     31  C   UNL A   1      45.091  24.401  25.936  1.00  0.00    -0.045 A 
ATOM     32  C   UNL A   1      45.843  23.253  26.248  1.00  0.00     0.007 A 
ATOM     33  C   UNL A   1      43.943  24.239  25.148  1.00  0.00     0.007 A 
ATOM     34  C   UNL A   1      45.547  22.015  25.678  1.00  0.00     0.046 A 
ATOM     35  C   UNL A   1      43.667  23.009  24.542  1.00  0.00     0.046 A 
ATOM     36  C   UNL A   1      44.488  21.918  24.792  1.00  0.00     0.115 A 
BRANCH  36  37
ATOM     37  O   UNL A   1      44.223  20.750  24.149  1.00  0.00    -0.508 OA
ATOM     38  H   UNL A   1      44.137  20.738  23.216  1.00  0.00     0.293 HD
ENDBRANCH  36  37
ENDBRANCH  30  31
ENDBRANCH  18  30
ENDBRANCH  15  18
ENDBRANCH  13  14
BRANCH  13  39
ATOM     39  C   UNL A   1      45.675  25.177  30.725  1.00  0.00     0.072 C 
BRANCH  39  40
ATOM     40  C   UNL A   1      44.626  24.511  29.912  1.00  0.00    -0.020 A 
ATOM     41  C   UNL A   1      44.567  23.150  29.766  1.00  0.00     0.087 A 
ATOM     42  C   UNL A   1      43.439  25.013  29.288  1.00  0.00     0.003 A 
ATOM     43  N   UNL A   1      43.529  22.808  28.962  1.00  0.00    -0.361 N 
ATOM     44  C   UNL A   1      42.808  23.931  28.662  1.00  0.00     0.046 A 
ATOM     45  C   UNL A   1      42.814  26.273  29.199  1.00  0.00     0.010 A 
ATOM     46  H   UNL A   1      43.326  21.898  28.647  1.00  0.00     0.166 HD
ATOM     47  C   UNL A   1      41.642  24.043  27.902  1.00  0.00     0.026 A 
ATOM     48  C   UNL A   1      41.618  26.397  28.475  1.00  0.00     0.001 A 
ATOM     49  C   UNL A   1      41.053  25.302  27.822  1.00  0.00     0.002 A 
ENDBRANCH  39  40
ENDBRANCH  13  39
ENDBRANCH  10  13
ENDBRANCH   8   9
BRANCH   8  50
ATOM     50  C   UNL A   1      47.064  29.736  32.906  1.00  0.00     0.193 C 
BRANCH  50  51
ATOM     51  O   UNL A   1      46.617  31.042  32.544  1.00  0.00    -0.394 OA
ATOM     52  H   UNL A   1      45.672  31.010  32.324  1.00  0.00     0.210 HD
ENDBRANCH  50  51
ENDBRANCH   8  50
ENDBRANCH   6   8
ENDBRANCH   5   6
ENDBRANCH   4   5
ENDBRANCH   3   4
ENDBRANCH   2   3
ENDBRANCH   1   2
BRANCH   1  53
ATOM     53  C   UNL A   1      39.348  30.666  30.158  1.00  0.00     0.188 C 
BRANCH  53  54
ATOM     54  O   UNL A   1      38.375  29.994  29.379  1.00  0.00    -0.377 OA
BRANCH  54  55
ATOM     55  C   UNL A   1      37.636  30.765  28.446  1.00  0.00     0.188 C 
BRANCH  55  56
ATOM     56  C   UNL A   1      36.997  32.082  28.925  1.00  0.00     0.188 C 
BRANCH  56  57
ATOM     57  O   UNL A   1      36.194  32.717  27.932  1.00  0.00    -0.376 OA
BRANCH  57  58
ATOM     58  C   UNL A   1      34.824  32.889  28.267  1.00  0.00     0.202 C 
BRANCH  58  59
ATOM     59  C   UNL A   1      34.464  32.429  29.683  1.00  0.00     0.261 C 
BRANCH  59  60
ATOM     60  O   UNL A   1      34.093  33.485  30.582  1.00  0.00    -0.460 OA
BRANCH  60  61
ATOM     61  C   UNL A   1      34.354  33.261  31.887  1.00  0.00     0.338 C 
ATOM     62  O   UNL A   1      33.593  32.772  32.705  1.00  0.00    -0.246 OA
BRANCH  61  63
ATOM     63  C   UNL A   1      35.798  33.481  32.118  1.00  0.00     0.060 A 
ATOM     64  C   UNL A   1      36.532  32.425  32.672  1.00  0.00     0.016 A 
ATOM     65  C   UNL A   1      36.437  34.672  31.750  1.00  0.00     0.016 A 
ATOM     66  C   UNL A   1      37.894  32.575  32.916  1.00  0.00     0.010 A 
ATOM     67  C   UNL A   1      37.798  34.838  32.030  1.00  0.00     0.010 A 
ATOM     68  C   UNL A   1      38.513  33.808  32.666  1.00  0.00    -0.014 A 
BRANCH  68  69
ATOM     69  C   UNL A   1      39.756  34.107  33.418  1.00  0.00     0.031 A 
ATOM     70  C   UNL A   1      41.014  34.258  32.598  1.00  0.00     0.074 A 
ATOM     71  C   UNL A   1      39.767  34.337  34.742  1.00  0.00     0.049 A 
ATOM     72  N   UNL A   1      42.210  34.631  32.966  1.00  0.00    -0.248 NA
ATOM     73  C   UNL A   1      40.894  33.964  31.157  1.00  0.00     0.031 C 
ATOM     74  C   UNL A   1      38.610  34.264  35.631  1.00  0.00     0.029 A 
ATOM     75  N   UNL A   1      40.803  34.701  35.566  1.00  0.00    -0.354 N 
ATOM     76  C   UNL A   1      42.969  34.650  31.801  1.00  0.00     0.074 A 
ATOM     77  C   UNL A   1      42.118  34.206  30.722  1.00  0.00     0.031 C 
ATOM     78  C   UNL A   1      39.002  34.572  36.882  1.00  0.00     0.029 A 
ATOM     79  C   UNL A   1      40.436  34.860  36.881  1.00  0.00     0.049 A 
ATOM     80  H   UNL A   1      41.724  34.835  35.245  1.00  0.00     0.167 HD
ATOM     81  C   UNL A   1      44.259  35.020  31.634  1.00  0.00     0.037 A 
ATOM     82  C   UNL A   1      41.181  35.202  37.952  1.00  0.00     0.037 A 
ATOM     83  C   UNL A   1      45.121  35.416  32.712  1.00  0.00     0.049 A 
ATOM     84  C   UNL A   1      42.645  35.524  37.757  1.00  0.00     0.074 A 
ATOM     85  C   UNL A   1      46.461  35.753  32.668  1.00  0.00     0.029 A 
ATOM     86  N   UNL A   1      44.721  35.520  34.036  1.00  0.00    -0.354 N 
ATOM     87  N   UNL A   1      43.348  35.544  36.648  1.00  0.00    -0.248 NA
ATOM     88  C   UNL A   1      43.411  35.883  38.959  1.00  0.00     0.031 C 
ATOM     89  C   UNL A   1      46.879  36.032  33.974  1.00  0.00     0.029 A 
ATOM     90  C   UNL A   1      45.789  35.912  34.821  1.00  0.00     0.049 A 
ATOM     91  H   UNL A   1      43.810  35.342  34.367  1.00  0.00     0.167 HD
ATOM     92  C   UNL A   1      44.626  35.960  37.014  1.00  0.00     0.074 A 
ATOM     93  C   UNL A   1      44.596  36.182  38.445  1.00  0.00     0.031 C 
ATOM     94  C   UNL A   1      45.724  36.147  36.240  1.00  0.00     0.037 A 
BRANCH  81  95
ATOM     95  C   UNL A   1      44.803  34.984  30.236  1.00  0.00     0.058 A 
ATOM     96  C   UNL A   1      44.661  36.078  29.368  1.00  0.00     0.135 A 
ATOM     97  C   UNL A   1      45.452  33.839  29.751  1.00  0.00     0.135 A 
ATOM     98  F   UNL A   1      44.016  37.184  29.774  1.00  0.00    -0.206 F 
ATOM     99  C   UNL A   1      45.127  36.032  28.059  1.00  0.00     0.059 A 
ATOM    100  C   UNL A   1      45.947  33.778  28.451  1.00  0.00     0.059 A 
ATOM    101  F   UNL A   1      45.597  32.759  30.535  1.00  0.00    -0.206 F 
ATOM    102  C   UNL A   1      45.767  34.876  27.609  1.00  0.00     0.060 A 
BRANCH 102 103
ATOM    103  S   UNL A   1      46.367  34.828  25.907  1.00  0.00     0.124 S 
ATOM    104  O   UNL A   1      47.074  33.551  25.884  1.00  0.00    -0.237 OA
ATOM    105  O   UNL A   1      45.129  34.881  25.138  1.00  0.00    -0.237 OA
ATOM    106  O   UNL A   1      47.212  36.014  25.812  1.00  0.00    -0.744 OA
ENDBRANCH 102 103
ENDBRANCH  81  95
BRANCH  82 107
ATOM    107  C   UNL A   1      40.572  35.274  39.309  1.00  0.00     0.058 A 
ATOM    108  C   UNL A   1      40.066  36.479  39.818  1.00  0.00     0.135 A 
ATOM    109  C   UNL A   1      40.533  34.146  40.144  1.00  0.00     0.135 A 
ATOM    110  F   UNL A   1      40.091  37.589  39.065  1.00  0.00    -0.206 F 
ATOM    111  C   UNL A   1      39.569  36.573  41.117  1.00  0.00     0.059 A 
ATOM    112  C   UNL A   1      40.019  34.208  41.437  1.00  0.00     0.059 A 
ATOM    113  F   UNL A   1      40.998  32.967  39.703  1.00  0.00    -0.206 F 
ATOM    114  C   UNL A   1      39.555  35.432  41.920  1.00  0.00     0.060 A 
BRANCH 114 115
ATOM    115  S   UNL A   1      38.897  35.555  43.598  1.00  0.00     0.124 S 
ATOM    116  O   UNL A   1      39.599  34.469  44.270  1.00  0.00    -0.237 OA
ATOM    117  O   UNL A   1      39.291  36.907  43.985  1.00  0.00    -0.237 OA
ATOM    118  O   UNL A   1      37.463  35.360  43.409  1.00  0.00    -0.744 OA
ENDBRANCH 114 115
ENDBRANCH  82 107
BRANCH  94 119
ATOM    119  C   UNL A   1      46.961  36.673  36.913  1.00  0.00     0.058 A 
ATOM    120  C   UNL A   1      47.939  35.819  37.443  1.00  0.00     0.135 A 
ATOM    121  C   UNL A   1      47.181  38.057  36.997  1.00  0.00     0.135 A 
ATOM    122  F   UNL A   1      47.776  34.488  37.386  1.00  0.00    -0.206 F 
ATOM    123  C   UNL A   1      49.075  36.319  38.071  1.00  0.00     0.059 A 
ATOM    124  C   UNL A   1      48.323  38.580  37.596  1.00  0.00     0.059 A 
ATOM    125  F   UNL A   1      46.284  38.918  36.488  1.00  0.00    -0.206 F 
ATOM    126  C   UNL A   1      49.253  37.702  38.148  1.00  0.00     0.060 A 
BRANCH 126 127
ATOM    127  S   UNL A   1      50.730  38.344  38.964  1.00  0.00     0.124 S 
ATOM    128  O   UNL A   1      51.634  38.524  37.833  1.00  0.00    -0.237 OA
ATOM    129  O   UNL A   1      50.241  39.570  39.586  1.00  0.00    -0.237 OA
ATOM    130  O   UNL A   1      51.091  37.278  39.895  1.00  0.00    -0.744 OA
ENDBRANCH 126 127
ENDBRANCH  94 119
ENDBRANCH  68  69
ENDBRANCH  61  63
ENDBRANCH  60  61
ENDBRANCH  59  60
ENDBRANCH  58  59
ENDBRANCH  57  58
ENDBRANCH  56  57
ENDBRANCH  55  56
ENDBRANCH  54  55
ENDBRANCH  53  54
ENDBRANCH   1  53
TORSDOF 36
ENDMDL
MODEL 2
REMARK VINA RESULT:      -6.2      2.288      5.073
REMARK SMILES O=C(N[C@@H](Cc1ccc(O)cc1)C(=O)N[C@@H](Cc1c[nH]c2ccccc12)C(=O)N[C@@H](CO)C(=O)OCCOCCOCCOCCOC(=O)c1ccc(-c2c3nc(c(-c4c(F)cc(S(=O)(=O)[O-])cc4F)c4ccc([nH]4)c(-c4c(F)cc(S(=O)(=O)[O-])cc4F)c4nc(c(-c5c(F)cc(S(=O)(=O)[O-])cc5F)c5ccc2[nH]5)C=C4)C=C3)cc1)c1ccc(F)cc1
REMARK SMILES IDX 39 1 38 2 37 3 36 4 35 5 33 6 34 7 30 8 29 9 27 10 28 11
REMARK SMILES IDX 16 13 15 14 13 15 14 16 4 18 3 19 1 20 2 21 116 23 117 24
REMARK SMILES IDX 122 25 118 26 121 27 119 28 120 29 5 30 6 31 7 32 12 33 8 34
REMARK SMILES IDX 11 35 9 36 10 37 17 39 18 40 19 41 26 42 20 43 21 44 25 45
REMARK SMILES IDX 22 47 24 48 23 49 31 50 32 51 40 53 41 54 42 55 43 56 44 57
REMARK SMILES IDX 45 58 46 59 47 60 48 61 49 62 50 63 51 64 115 65 52 66
REMARK SMILES IDX 114 67 53 68 54 69 55 70 108 71 56 72 113 73 107 74 109 75
REMARK SMILES IDX 57 76 112 77 106 78 105 79 58 81 92 82 71 83 91 84 72 85
REMARK SMILES IDX 75 86 90 87 110 88 73 89 74 90 89 92 111 93 76 94 59 95
REMARK SMILES IDX 60 96 69 97 61 98 62 99 68 100 70 101 63 102 64 103 65 104
REMARK SMILES IDX 66 105 67 106 93 107 94 108 103 109 95 110 96 111 102 112
REMARK SMILES IDX 104 113 97 114 98 115 99 116 100 117 101 118 77 119 78 120
REMARK SMILES IDX 87 121 79 122 80 123 86 124 88 125 81 126 82 127 83 128
REMARK SMILES IDX 84 129 85 130
REMARK H PARENT 29 12 15 17 3 22 10 38 20 46 32 52 109 80 75 91
REMARK Flexibility Score: inf
ROOT
ATOM      1  C   UNL A   1      40.518  29.494  30.306  1.00  0.00     0.188 C 
ENDROOT
BRANCH   1   2
ATOM      2  O   UNL A   1      41.900  29.402  29.986  1.00  0.00    -0.376 OA
BRANCH   2   3
ATOM      3  C   UNL A   1      42.432  28.080  29.943  1.00  0.00     0.202 C 
BRANCH   3   4
ATOM      4  C   UNL A   1      41.642  27.111  29.060  1.00  0.00     0.261 C 
BRANCH   4   5
ATOM      5  O   UNL A   1      42.264  25.814  28.918  1.00  0.00    -0.462 OA
BRANCH   5   6
ATOM      6  C   UNL A   1      43.412  25.712  28.197  1.00  0.00     0.331 C 
ATOM      7  O   UNL A   1      43.627  26.328  27.160  1.00  0.00    -0.250 OA
BRANCH   6   8
ATOM      8  C   UNL A   1      44.410  24.702  28.830  1.00  0.00     0.218 C 
BRANCH   8   9
ATOM      9  N   UNL A   1      44.738  25.002  30.240  1.00  0.00    -0.339 N 
ATOM     10  C   UNL A   1      45.751  25.749  30.738  1.00  0.00     0.243 C 
ATOM     11  O   UNL A   1      46.558  25.107  31.426  1.00  0.00    -0.273 OA
ATOM     12  H   UNL A   1      44.136  24.602  30.909  1.00  0.00     0.164 HD
BRANCH  10  13
ATOM     13  C   UNL A   1      46.032  27.268  30.453  1.00  0.00     0.175 C 
BRANCH  13  14
ATOM     14  N   UNL A   1      46.927  27.815  31.469  1.00  0.00    -0.342 N 
ATOM     15  C   UNL A   1      46.725  27.943  32.812  1.00  0.00     0.243 C 
ATOM     16  O   UNL A   1      47.732  28.179  33.494  1.00  0.00    -0.273 OA
ATOM     17  H   UNL A   1      47.797  28.135  31.138  1.00  0.00     0.164 HD
BRANCH  15  18
ATOM     18  C   UNL A   1      45.330  27.863  33.513  1.00  0.00     0.176 C 
BRANCH  18  19
ATOM     19  N   UNL A   1      44.314  28.728  32.902  1.00  0.00    -0.340 N 
ATOM     20  O   UNL A   1      42.606  30.201  32.878  1.00  0.00    -0.269 OA
ATOM     21  C   UNL A   1      43.541  29.697  33.493  1.00  0.00     0.251 C 
ATOM     22  H   UNL A   1      44.167  28.597  31.937  1.00  0.00     0.164 HD
BRANCH  21  23
ATOM     23  C   UNL A   1      43.813  30.131  34.882  1.00  0.00     0.040 A 
ATOM     24  C   UNL A   1      42.810  30.066  35.859  1.00  0.00     0.017 A 
ATOM     25  C   UNL A   1      45.099  30.573  35.218  1.00  0.00     0.017 A 
ATOM     26  C   UNL A   1      43.078  30.501  37.157  1.00  0.00     0.040 A 
ATOM     27  C   UNL A   1      45.364  30.999  36.522  1.00  0.00     0.040 A 
ATOM     28  C   UNL A   1      44.351  30.967  37.475  1.00  0.00     0.123 A 
ATOM     29  F   UNL A   1      44.604  31.386  38.721  1.00  0.00    -0.207 F 
ENDBRANCH  21  23
ENDBRANCH  18  19
BRANCH  18  30
ATOM     30  C   UNL A   1      44.803  26.497  34.018  1.00  0.00     0.070 C 
BRANCH  30  31
ATOM     31  C   UNL A   1      43.677  26.364  35.016  1.00  0.00    -0.045 A 
ATOM     32  C   UNL A   1      43.971  26.559  36.378  1.00  0.00     0.007 A 
ATOM     33  C   UNL A   1      42.344  26.119  34.660  1.00  0.00     0.007 A 
ATOM     34  C   UNL A   1      43.000  26.372  37.363  1.00  0.00     0.046 A 
ATOM     35  C   UNL A   1      41.378  25.890  35.645  1.00  0.00     0.046 A 
ATOM     36  C   UNL A   1      41.723  25.992  36.986  1.00  0.00     0.115 A 
BRANCH  36  37
ATOM     37  O   UNL A   1      40.776  25.715  37.920  1.00  0.00    -0.508 OA
ATOM     38  H   UNL A   1      40.541  24.826  38.100  1.00  0.00     0.293 HD
ENDBRANCH  36  37
ENDBRANCH  30  31
ENDBRANCH  18  30
ENDBRANCH  15  18
ENDBRANCH  13  14
BRANCH  13  39
ATOM     39  C   UNL A   1      46.142  27.963  29.082  1.00  0.00     0.072 C 
BRANCH  39  40
ATOM     40  C   UNL A   1      47.074  27.425  28.058  1.00  0.00    -0.020 A 
ATOM     41  C   UNL A   1      48.070  26.539  28.369  1.00  0.00     0.087 A 
ATOM     42  C   UNL A   1      47.081  27.522  26.629  1.00  0.00     0.003 A 
ATOM     43  N   UNL A   1      48.783  26.224  27.258  1.00  0.00    -0.361 N 
ATOM     44  C   UNL A   1      48.190  26.803  26.169  1.00  0.00     0.046 A 
ATOM     45  C   UNL A   1      46.252  28.130  25.666  1.00  0.00     0.010 A 
ATOM     46  H   UNL A   1      49.594  25.667  27.238  1.00  0.00     0.166 HD
ATOM     47  C   UNL A   1      48.558  26.715  24.825  1.00  0.00     0.026 A 
ATOM     48  C   UNL A   1      46.581  28.016  24.306  1.00  0.00     0.001 A 
ATOM     49  C   UNL A   1      47.727  27.335  23.896  1.00  0.00     0.002 A 
ENDBRANCH  39  40
ENDBRANCH  13  39
ENDBRANCH  10  13
ENDBRANCH   8   9
BRANCH   8  50
ATOM     50  C   UNL A   1      43.764  23.313  28.722  1.00  0.00     0.193 C 
BRANCH  50  51
ATOM     51  O   UNL A   1      43.596  22.718  30.008  1.00  0.00    -0.394 OA
ATOM     52  H   UNL A   1      42.878  23.168  30.480  1.00  0.00     0.210 HD
ENDBRANCH  50  51
ENDBRANCH   8  50
ENDBRANCH   6   8
ENDBRANCH   5   6
ENDBRANCH   4   5
ENDBRANCH   3   4
ENDBRANCH   2   3
ENDBRANCH   1   2
BRANCH   1  53
ATOM     53  C   UNL A   1      39.665  30.224  29.255  1.00  0.00     0.188 C 
BRANCH  53  54
ATOM     54  O   UNL A   1      38.291  29.891  29.182  1.00  0.00    -0.377 OA
BRANCH  54  55
ATOM     55  C   UNL A   1      37.444  30.759  28.445  1.00  0.00     0.188 C 
BRANCH  55  56
ATOM     56  C   UNL A   1      37.176  32.169  29.003  1.00  0.00     0.188 C 
BRANCH  56  57
ATOM     57  O   UNL A   1      36.504  33.025  28.081  1.00  0.00    -0.376 OA
BRANCH  57  58
ATOM     58  C   UNL A   1      35.138  33.287  28.370  1.00  0.00     0.202 C 
BRANCH  58  59
ATOM     59  C   UNL A   1      34.644  32.663  29.679  1.00  0.00     0.261 C 
BRANCH  59  60
ATOM     60  O   UNL A   1      34.196  33.607  30.662  1.00  0.00    -0.460 OA
BRANCH  60  61
ATOM     61  C   UNL A   1      34.405  33.256  31.948  1.00  0.00     0.338 C 
ATOM     62  O   UNL A   1      33.583  32.774  32.711  1.00  0.00    -0.246 OA
BRANCH  61  63
ATOM     63  C   UNL A   1      35.856  33.322  32.220  1.00  0.00     0.060 A 
ATOM     64  C   UNL A   1      36.483  32.154  32.674  1.00  0.00     0.016 A 
ATOM     65  C   UNL A   1      36.605  34.481  31.983  1.00  0.00     0.016 A 
ATOM     66  C   UNL A   1      37.847  32.157  32.950  1.00  0.00     0.010 A 
ATOM     67  C   UNL A   1      37.969  34.497  32.298  1.00  0.00     0.010 A 
ATOM     68  C   UNL A   1      38.577  33.349  32.834  1.00  0.00    -0.014 A 
BRANCH  68  69
ATOM     69  C   UNL A   1      39.824  33.458  33.629  1.00  0.00     0.031 A 
ATOM     70  C   UNL A   1      41.118  33.387  32.857  1.00  0.00     0.074 A 
ATOM     71  C   UNL A   1      39.825  33.712  34.950  1.00  0.00     0.049 A 
ATOM     72  N   UNL A   1      42.345  33.570  33.265  1.00  0.00    -0.248 NA
ATOM     73  C   UNL A   1      41.004  33.087  31.417  1.00  0.00     0.031 C 
ATOM     74  C   UNL A   1      38.640  33.845  35.794  1.00  0.00     0.029 A 
ATOM     75  N   UNL A   1      40.876  33.920  35.807  1.00  0.00    -0.354 N 
ATOM     76  C   UNL A   1      43.139  33.442  32.130  1.00  0.00     0.074 A 
ATOM     77  C   UNL A   1      42.266  33.119  31.026  1.00  0.00     0.031 C 
ATOM     78  C   UNL A   1      39.032  34.112  37.055  1.00  0.00     0.029 A 
ATOM     79  C   UNL A   1      40.493  34.164  37.105  1.00  0.00     0.049 A 
ATOM     80  H   UNL A   1      41.817  33.897  35.520  1.00  0.00     0.167 HD
ATOM     81  C   UNL A   1      44.476  33.596  32.008  1.00  0.00     0.037 A 
ATOM     82  C   UNL A   1      41.244  34.404  38.199  1.00  0.00     0.037 A 
ATOM     83  C   UNL A   1      45.352  33.870  33.112  1.00  0.00     0.049 A 
ATOM     84  C   UNL A   1      42.747  34.482  38.055  1.00  0.00     0.074 A 
ATOM     85  C   UNL A   1      46.729  33.986  33.115  1.00  0.00     0.029 A 
ATOM     86  N   UNL A   1      44.927  34.065  34.418  1.00  0.00    -0.354 N 
ATOM     87  N   UNL A   1      43.483  34.365  36.974  1.00  0.00    -0.248 NA
ATOM     88  C   UNL A   1      43.518  34.737  39.281  1.00  0.00     0.031 C 
ATOM     89  C   UNL A   1      47.141  34.220  34.432  1.00  0.00     0.029 A 
ATOM     90  C   UNL A   1      46.016  34.296  35.238  1.00  0.00     0.049 A 
ATOM     91  H   UNL A   1      43.988  34.043  34.716  1.00  0.00     0.167 HD
ATOM     92  C   UNL A   1      44.798  34.576  37.383  1.00  0.00     0.074 A 
ATOM     93  C   UNL A   1      44.753  34.830  38.809  1.00  0.00     0.031 C 
ATOM     94  C   UNL A   1      45.939  34.567  36.650  1.00  0.00     0.037 A 
BRANCH  81  95
ATOM     95  C   UNL A   1      45.057  33.443  30.633  1.00  0.00     0.058 A 
ATOM     96  C   UNL A   1      45.479  32.192  30.153  1.00  0.00     0.135 A 
ATOM     97  C   UNL A   1      45.214  34.556  29.794  1.00  0.00     0.135 A 
ATOM     98  F   UNL A   1      45.382  31.102  30.932  1.00  0.00    -0.206 F 
ATOM     99  C   UNL A   1      46.055  32.054  28.896  1.00  0.00     0.059 A 
ATOM    100  C   UNL A   1      45.768  34.437  28.523  1.00  0.00     0.059 A 
ATOM    101  F   UNL A   1      44.844  35.777  30.213  1.00  0.00    -0.206 F 
ATOM    102  C   UNL A   1      46.197  33.183  28.088  1.00  0.00     0.060 A 
BRANCH 102 103
ATOM    103  S   UNL A   1      46.948  32.990  26.458  1.00  0.00     0.124 S 
ATOM    104  O   UNL A   1      48.353  33.257  26.751  1.00  0.00    -0.237 OA
ATOM    105  O   UNL A   1      46.621  31.608  26.125  1.00  0.00    -0.237 OA
ATOM    106  O   UNL A   1      46.272  34.002  25.652  1.00  0.00    -0.744 OA
ENDBRANCH 102 103
ENDBRANCH  81  95
BRANCH  82 107
ATOM    107  C   UNL A   1      40.607  34.601  39.530  1.00  0.00     0.058 A 
ATOM    108  C   UNL A   1      40.528  33.556  40.462  1.00  0.00     0.135 A 
ATOM    109  C   UNL A   1      40.018  35.828  39.875  1.00  0.00     0.135 A 
ATOM    110  F   UNL A   1      41.064  32.360  40.175  1.00  0.00    -0.206 F 
ATOM    111  C   UNL A   1      39.863  33.708  41.677  1.00  0.00     0.059 A 
ATOM    112  C   UNL A   1      39.369  36.012  41.093  1.00  0.00     0.059 A 
ATOM    113  F   UNL A   1      40.072  36.863  39.023  1.00  0.00    -0.206 F 
ATOM    114  C   UNL A   1      39.282  34.939  41.980  1.00  0.00     0.060 A 
BRANCH 114 115
ATOM    115  S   UNL A   1      38.433  35.136  43.563  1.00  0.00     0.124 S 
ATOM    116  O   UNL A   1      38.975  36.406  44.031  1.00  0.00    -0.237 OA
ATOM    117  O   UNL A   1      37.029  35.150  43.161  1.00  0.00    -0.237 OA
ATOM    118  O   UNL A   1      38.849  33.956  44.314  1.00  0.00    -0.744 OA
ENDBRANCH 114 115
ENDBRANCH  82 107
BRANCH  94 119
ATOM    119  C   UNL A   1      47.220  34.901  37.362  1.00  0.00     0.058 A 
ATOM    120  C   UNL A   1      48.010  33.915  37.972  1.00  0.00     0.135 A 
ATOM    121  C   UNL A   1      47.676  36.229  37.404  1.00  0.00     0.135 A 
ATOM    122  F   UNL A   1      47.618  32.632  37.957  1.00  0.00    -0.206 F 
ATOM    123  C   UNL A   1      49.188  34.239  38.635  1.00  0.00     0.059 A 
ATOM    124  C   UNL A   1      48.866  36.572  38.038  1.00  0.00     0.059 A 
ATOM    125  F   UNL A   1      46.966  37.207  36.820  1.00  0.00    -0.206 F 
ATOM    126  C   UNL A   1      49.604  35.572  38.668  1.00  0.00     0.060 A 
BRANCH 126 127
ATOM    127  S   UNL A   1      51.135  35.985  39.531  1.00  0.00     0.124 S 
ATOM    128  O   UNL A   1      51.760  36.909  38.591  1.00  0.00    -0.237 OA
ATOM    129  O   UNL A   1      50.649  36.576  40.774  1.00  0.00    -0.237 OA
ATOM    130  O   UNL A   1      51.798  34.692  39.678  1.00  0.00    -0.744 OA
ENDBRANCH 126 127
ENDBRANCH  94 119
ENDBRANCH  68  69
ENDBRANCH  61  63
ENDBRANCH  60  61
ENDBRANCH  59  60
ENDBRANCH  58  59
ENDBRANCH  57  58
ENDBRANCH  56  57
ENDBRANCH  55  56
ENDBRANCH  54  55
ENDBRANCH  53  54
ENDBRANCH   1  53
TORSDOF 36
ENDMDL
MODEL 3
REMARK VINA RESULT:      -6.2      2.265      5.213
REMARK SMILES O=C(N[C@@H](Cc1ccc(O)cc1)C(=O)N[C@@H](Cc1c[nH]c2ccccc12)C(=O)N[C@@H](CO)C(=O)OCCOCCOCCOCCOC(=O)c1ccc(-c2c3nc(c(-c4c(F)cc(S(=O)(=O)[O-])cc4F)c4ccc([nH]4)c(-c4c(F)cc(S(=O)(=O)[O-])cc4F)c4nc(c(-c5c(F)cc(S(=O)(=O)[O-])cc5F)c5ccc2[nH]5)C=C4)C=C3)cc1)c1ccc(F)cc1
REMARK SMILES IDX 39 1 38 2 37 3 36 4 35 5 33 6 34 7 30 8 29 9 27 10 28 11
REMARK SMILES IDX 16 13 15 14 13 15 14 16 4 18 3 19 1 20 2 21 116 23 117 24
REMARK SMILES IDX 122 25 118 26 121 27 119 28 120 29 5 30 6 31 7 32 12 33 8 34
REMARK SMILES IDX 11 35 9 36 10 37 17 39 18 40 19 41 26 42 20 43 21 44 25 45
REMARK SMILES IDX 22 47 24 48 23 49 31 50 32 51 40 53 41 54 42 55 43 56 44 57
REMARK SMILES IDX 45 58 46 59 47 60 48 61 49 62 50 63 51 64 115 65 52 66
REMARK SMILES IDX 114 67 53 68 54 69 55 70 108 71 56 72 113 73 107 74 109 75
REMARK SMILES IDX 57 76 112 77 106 78 105 79 58 81 92 82 71 83 91 84 72 85
REMARK SMILES IDX 75 86 90 87 110 88 73 89 74 90 89 92 111 93 76 94 59 95
REMARK SMILES IDX 60 96 69 97 61 98 62 99 68 100 70 101 63 102 64 103 65 104
REMARK SMILES IDX 66 105 67 106 93 107 94 108 103 109 95 110 96 111 102 112
REMARK SMILES IDX 104 113 97 114 98 115 99 116 100 117 101 118 77 119 78 120
REMARK SMILES IDX 87 121 79 122 80 123 86 124 88 125 81 126 82 127 83 128
REMARK SMILES IDX 84 129 85 130
REMARK H PARENT 29 12 15 17 3 22 10 38 20 46 32 52 109 80 75 91
REMARK Flexibility Score: inf
ROOT
ATOM      1  C   UNL A   1      39.644  29.987  30.263  1.00  0.00     0.188 C 
ENDROOT
BRANCH   1   2
ATOM      2  O   UNL A   1      41.032  29.916  29.967  1.00  0.00    -0.376 OA
BRANCH   2   3
ATOM      3  C   UNL A   1      41.584  28.602  29.926  1.00  0.00     0.202 C 
BRANCH   3   4
ATOM      4  C   UNL A   1      40.621  27.530  29.409  1.00  0.00     0.261 C 
BRANCH   4   5
ATOM      5  O   UNL A   1      41.228  26.227  29.258  1.00  0.00    -0.462 OA
BRANCH   5   6
ATOM      6  C   UNL A   1      42.003  25.987  28.167  1.00  0.00     0.331 C 
ATOM      7  O   UNL A   1      41.801  26.475  27.061  1.00  0.00    -0.250 OA
BRANCH   6   8
ATOM      8  C   UNL A   1      43.162  24.999  28.482  1.00  0.00     0.218 C 
BRANCH   8   9
ATOM      9  N   UNL A   1      43.854  25.288  29.756  1.00  0.00    -0.339 N 
ATOM     10  C   UNL A   1      44.993  25.988  29.966  1.00  0.00     0.243 C 
ATOM     11  O   UNL A   1      45.920  25.311  30.435  1.00  0.00    -0.273 OA
ATOM     12  H   UNL A   1      43.426  24.920  30.563  1.00  0.00     0.164 HD
BRANCH  10  13
ATOM     13  C   UNL A   1      45.261  27.490  29.596  1.00  0.00     0.175 C 
BRANCH  13  14
ATOM     14  N   UNL A   1      46.408  27.999  30.341  1.00  0.00    -0.342 N 
ATOM     15  C   UNL A   1      46.549  28.172  31.688  1.00  0.00     0.243 C 
ATOM     16  O   UNL A   1      47.704  28.354  32.095  1.00  0.00    -0.273 OA
ATOM     17  H   UNL A   1      47.188  28.252  29.797  1.00  0.00     0.164 HD
BRANCH  15  18
ATOM     18  C   UNL A   1      45.366  28.203  32.709  1.00  0.00     0.176 C 
BRANCH  18  19
ATOM     19  N   UNL A   1      45.798  28.246  34.110  1.00  0.00    -0.340 N 
ATOM     20  O   UNL A   1      45.750  27.704  36.299  1.00  0.00    -0.269 OA
ATOM     21  C   UNL A   1      45.443  27.417  35.145  1.00  0.00     0.251 C 
ATOM     22  H   UNL A   1      46.430  28.966  34.339  1.00  0.00     0.164 HD
BRANCH  21  23
ATOM     23  C   UNL A   1      44.671  26.181  34.887  1.00  0.00     0.040 A 
ATOM     24  C   UNL A   1      43.368  26.037  35.382  1.00  0.00     0.017 A 
ATOM     25  C   UNL A   1      45.247  25.170  34.107  1.00  0.00     0.017 A 
ATOM     26  C   UNL A   1      42.664  24.855  35.148  1.00  0.00     0.040 A 
ATOM     27  C   UNL A   1      44.534  23.992  33.868  1.00  0.00     0.040 A 
ATOM     28  C   UNL A   1      43.255  23.843  34.397  1.00  0.00     0.123 A 
ATOM     29  F   UNL A   1      42.578  22.709  34.176  1.00  0.00    -0.207 F 
ENDBRANCH  21  23
ENDBRANCH  18  19
BRANCH  18  30
ATOM     30  C   UNL A   1      44.102  29.042  32.391  1.00  0.00     0.070 C 
BRANCH  30  31
ATOM     31  C   UNL A   1      43.187  29.592  33.460  1.00  0.00    -0.045 A 
ATOM     32  C   UNL A   1      43.621  30.712  34.193  1.00  0.00     0.007 A 
ATOM     33  C   UNL A   1      41.904  29.092  33.722  1.00  0.00     0.007 A 
ATOM     34  C   UNL A   1      42.865  31.223  35.249  1.00  0.00     0.046 A 
ATOM     35  C   UNL A   1      41.164  29.575  34.805  1.00  0.00     0.046 A 
ATOM     36  C   UNL A   1      41.664  30.617  35.573  1.00  0.00     0.115 A 
BRANCH  36  37
ATOM     37  O   UNL A   1      40.944  31.031  36.649  1.00  0.00    -0.508 OA
ATOM     38  H   UNL A   1      40.420  31.806  36.591  1.00  0.00     0.293 HD
ENDBRANCH  36  37
ENDBRANCH  30  31
ENDBRANCH  18  30
ENDBRANCH  15  18
ENDBRANCH  13  14
BRANCH  13  39
ATOM     39  C   UNL A   1      45.049  28.174  28.230  1.00  0.00     0.072 C 
BRANCH  39  40
ATOM     40  C   UNL A   1      45.560  27.525  26.996  1.00  0.00    -0.020 A 
ATOM     41  C   UNL A   1      44.782  27.357  25.882  1.00  0.00     0.087 A 
ATOM     42  C   UNL A   1      46.876  27.112  26.610  1.00  0.00     0.003 A 
ATOM     43  N   UNL A   1      45.485  26.723  24.909  1.00  0.00    -0.361 N 
ATOM     44  C   UNL A   1      46.781  26.570  25.322  1.00  0.00     0.046 A 
ATOM     45  C   UNL A   1      48.152  27.156  27.206  1.00  0.00     0.010 A 
ATOM     46  H   UNL A   1      45.122  26.422  24.046  1.00  0.00     0.166 HD
ATOM     47  C   UNL A   1      47.857  26.011  24.631  1.00  0.00     0.026 A 
ATOM     48  C   UNL A   1      49.254  26.636  26.509  1.00  0.00     0.001 A 
ATOM     49  C   UNL A   1      49.103  26.057  25.250  1.00  0.00     0.002 A 
ENDBRANCH  39  40
ENDBRANCH  13  39
ENDBRANCH  10  13
ENDBRANCH   8   9
BRANCH   8  50
ATOM     50  C   UNL A   1      42.548  23.592  28.522  1.00  0.00     0.193 C 
BRANCH  50  51
ATOM     51  O   UNL A   1      43.549  22.595  28.722  1.00  0.00    -0.394 OA
ATOM     52  H   UNL A   1      44.356  23.012  29.064  1.00  0.00     0.210 HD
ENDBRANCH  50  51
ENDBRANCH   8  50
ENDBRANCH   6   8
ENDBRANCH   5   6
ENDBRANCH   4   5
ENDBRANCH   3   4
ENDBRANCH   2   3
ENDBRANCH   1   2
BRANCH   1  53
ATOM     53  C   UNL A   1      38.808  30.765  29.233  1.00  0.00     0.188 C 
BRANCH  53  54
ATOM     54  O   UNL A   1      37.398  30.669  29.327  1.00  0.00    -0.377 OA
BRANCH  54  55
ATOM     55  C   UNL A   1      36.627  31.545  28.521  1.00  0.00     0.188 C 
BRANCH  55  56
ATOM     56  C   UNL A   1      36.441  33.000  28.989  1.00  0.00     0.188 C 
BRANCH  56  57
ATOM     57  O   UNL A   1      35.495  33.730  28.209  1.00  0.00    -0.376 OA
BRANCH  57  58
ATOM     58  C   UNL A   1      34.223  33.926  28.811  1.00  0.00     0.202 C 
BRANCH  58  59
ATOM     59  C   UNL A   1      34.056  33.226  30.163  1.00  0.00     0.261 C 
BRANCH  59  60
ATOM     60  O   UNL A   1      33.758  34.101  31.260  1.00  0.00    -0.460 OA
BRANCH  60  61
ATOM     61  C   UNL A   1      34.069  33.629  32.486  1.00  0.00     0.338 C 
ATOM     62  O   UNL A   1      33.307  33.082  33.267  1.00  0.00    -0.246 OA
BRANCH  61  63
ATOM     63  C   UNL A   1      35.538  33.662  32.640  1.00  0.00     0.060 A 
ATOM     64  C   UNL A   1      36.175  32.474  33.022  1.00  0.00     0.016 A 
ATOM     65  C   UNL A   1      36.290  34.812  32.363  1.00  0.00     0.016 A 
ATOM     66  C   UNL A   1      37.557  32.446  33.186  1.00  0.00     0.010 A 
ATOM     67  C   UNL A   1      37.674  34.795  32.566  1.00  0.00     0.010 A 
ATOM     68  C   UNL A   1      38.300  33.625  33.032  1.00  0.00    -0.014 A 
BRANCH  68  69
ATOM     69  C   UNL A   1      39.609  33.696  33.725  1.00  0.00     0.031 A 
ATOM     70  C   UNL A   1      40.835  33.549  32.857  1.00  0.00     0.074 A 
ATOM     71  C   UNL A   1      39.725  33.978  35.034  1.00  0.00     0.049 A 
ATOM     72  N   UNL A   1      42.096  33.685  33.164  1.00  0.00    -0.248 NA
ATOM     73  C   UNL A   1      40.594  33.223  31.437  1.00  0.00     0.031 C 
ATOM     74  C   UNL A   1      38.617  34.183  35.965  1.00  0.00     0.029 A 
ATOM     75  N   UNL A   1      40.848  34.157  35.802  1.00  0.00    -0.354 N 
ATOM     76  C   UNL A   1      42.792  33.497  31.975  1.00  0.00     0.074 A 
ATOM     77  C   UNL A   1      41.822  33.190  30.949  1.00  0.00     0.031 C 
ATOM     78  C   UNL A   1      39.118  34.459  37.183  1.00  0.00     0.029 A 
ATOM     79  C   UNL A   1      40.579  34.447  37.120  1.00  0.00     0.049 A 
ATOM     80  H   UNL A   1      41.762  34.086  35.444  1.00  0.00     0.167 HD
ATOM     81  C   UNL A   1      44.121  33.587  31.745  1.00  0.00     0.037 A 
ATOM     82  C   UNL A   1      41.423  34.677  38.145  1.00  0.00     0.037 A 
ATOM     83  C   UNL A   1      45.092  33.846  32.771  1.00  0.00     0.049 A 
ATOM     84  C   UNL A   1      42.912  34.683  37.884  1.00  0.00     0.074 A 
ATOM     85  C   UNL A   1      46.469  33.899  32.664  1.00  0.00     0.029 A 
ATOM     86  N   UNL A   1      44.779  34.088  34.100  1.00  0.00    -0.354 N 
ATOM     87  N   UNL A   1      43.556  34.509  36.752  1.00  0.00    -0.248 NA
ATOM     88  C   UNL A   1      43.788  34.930  39.039  1.00  0.00     0.031 C 
ATOM     89  C   UNL A   1      46.992  34.144  33.938  1.00  0.00     0.029 A 
ATOM     90  C   UNL A   1      45.939  34.288  34.827  1.00  0.00     0.049 A 
ATOM     91  H   UNL A   1      43.867  34.115  34.471  1.00  0.00     0.167 HD
ATOM     92  C   UNL A   1      44.906  34.670  37.053  1.00  0.00     0.074 A 
ATOM     93  C   UNL A   1      44.984  34.957  38.471  1.00  0.00     0.031 C 
ATOM     94  C   UNL A   1      45.985  34.593  36.234  1.00  0.00     0.037 A 
BRANCH  81  95
ATOM     95  C   UNL A   1      44.585  33.378  30.333  1.00  0.00     0.058 A 
ATOM     96  C   UNL A   1      44.769  34.459  29.457  1.00  0.00     0.135 A 
ATOM     97  C   UNL A   1      44.826  32.086  29.843  1.00  0.00     0.135 A 
ATOM     98  F   UNL A   1      44.517  35.713  29.868  1.00  0.00    -0.206 F 
ATOM     99  C   UNL A   1      45.159  34.266  28.136  1.00  0.00     0.059 A 
ATOM    100  C   UNL A   1      45.238  31.870  28.532  1.00  0.00     0.059 A 
ATOM    101  F   UNL A   1      44.647  31.017  30.636  1.00  0.00    -0.206 F 
ATOM    102  C   UNL A   1      45.389  32.966  27.683  1.00  0.00     0.060 A 
BRANCH 102 103
ATOM    103  S   UNL A   1      45.893  32.727  25.966  1.00  0.00     0.124 S 
ATOM    104  O   UNL A   1      46.925  33.749  25.821  1.00  0.00    -0.237 OA
ATOM    105  O   UNL A   1      46.363  31.346  25.967  1.00  0.00    -0.237 OA
ATOM    106  O   UNL A   1      44.664  32.967  25.215  1.00  0.00    -0.744 OA
ENDBRANCH 102 103
ENDBRANCH  81  95
BRANCH  82 107
ATOM    107  C   UNL A   1      40.902  34.931  39.516  1.00  0.00     0.058 A 
ATOM    108  C   UNL A   1      40.752  33.890  40.444  1.00  0.00     0.135 A 
ATOM    109  C   UNL A   1      40.494  36.217  39.907  1.00  0.00     0.135 A 
ATOM    110  F   UNL A   1      41.116  32.641  40.115  1.00  0.00    -0.206 F 
ATOM    111  C   UNL A   1      40.190  34.105  41.701  1.00  0.00     0.059 A 
ATOM    112  C   UNL A   1      39.952  36.462  41.166  1.00  0.00     0.059 A 
ATOM    113  F   UNL A   1      40.623  37.249  39.060  1.00  0.00    -0.206 F 
ATOM    114  C   UNL A   1      39.788  35.395  42.050  1.00  0.00     0.060 A 
BRANCH 114 115
ATOM    115  S   UNL A   1      39.073  35.672  43.686  1.00  0.00     0.124 S 
ATOM    116  O   UNL A   1      39.697  34.608  44.463  1.00  0.00    -0.237 OA
ATOM    117  O   UNL A   1      39.515  37.030  43.990  1.00  0.00    -0.237 OA
ATOM    118  O   UNL A   1      37.640  35.526  43.453  1.00  0.00    -0.744 OA
ENDBRANCH 114 115
ENDBRANCH  82 107
BRANCH  94 119
ATOM    119  C   UNL A   1      47.331  34.884  36.836  1.00  0.00     0.058 A 
ATOM    120  C   UNL A   1      48.171  33.864  37.306  1.00  0.00     0.135 A 
ATOM    121  C   UNL A   1      47.796  36.207  36.911  1.00  0.00     0.135 A 
ATOM    122  F   UNL A   1      47.772  32.584  37.254  1.00  0.00    -0.206 F 
ATOM    123  C   UNL A   1      49.410  34.148  37.869  1.00  0.00     0.059 A 
ATOM    124  C   UNL A   1      49.044  36.512  37.445  1.00  0.00     0.059 A 
ATOM    125  F   UNL A   1      47.039  37.219  36.457  1.00  0.00    -0.206 F 
ATOM    126  C   UNL A   1      49.835  35.477  37.940  1.00  0.00     0.060 A 
BRANCH 126 127
ATOM    127  S   UNL A   1      51.445  35.838  38.672  1.00  0.00     0.124 S 
ATOM    128  O   UNL A   1      52.221  36.219  37.496  1.00  0.00    -0.237 OA
ATOM    129  O   UNL A   1      51.134  36.916  39.604  1.00  0.00    -0.237 OA
ATOM    130  O   UNL A   1      51.825  34.571  39.292  1.00  0.00    -0.744 OA
ENDBRANCH 126 127
ENDBRANCH  94 119
ENDBRANCH  68  69
ENDBRANCH  61  63
ENDBRANCH  60  61
ENDBRANCH  59  60
ENDBRANCH  58  59
ENDBRANCH  57  58
ENDBRANCH  56  57
ENDBRANCH  55  56
ENDBRANCH  54  55
ENDBRANCH  53  54
ENDBRANCH   1  53
TORSDOF 36
ENDMDL
