MODEL 1
REMARK VINA RESULT:     -10.0      0.000      0.000
REMARK SMILES CC(C)(C)c1csc(C[NH2+][C@H]2CCC[C@@H](C(=O)OCCOCCOCCOCCOC(=O)c3ccc(-c4c5nc(c(-c6c(F)cc(S(=O)(=O)[O-])cc6F)c6ccc([nH]6)c(-c6c(F)cc(S(=O)(=O)[O-])cc6F)c6nc(c(-c7c(F)cc(S(=O)(=O)[O-])cc7F)c7ccc4[nH]7)C=C6)C=C5)cc3)C2)n1
REMARK SMILES IDX 23 1 22 2 21 3 20 4 19 5 18 6 16 7 17 8 15 9 11 10 12 11
REMARK SMILES IDX 99 12 13 13 14 14 10 15 9 18 8 19 5 20 6 21 100 22 7 23 2 24
REMARK SMILES IDX 1 25 3 26 4 27 24 28 25 29 26 30 27 31 28 32 29 33 30 34
REMARK SMILES IDX 31 35 32 36 33 37 34 38 98 39 35 40 97 41 36 42 37 43 38 44
REMARK SMILES IDX 91 45 39 46 96 47 90 48 92 49 40 50 95 51 89 52 88 53 41 55
REMARK SMILES IDX 75 56 54 57 74 58 55 59 58 60 73 61 93 62 56 63 57 64 72 66
REMARK SMILES IDX 94 67 59 68 42 69 43 70 52 71 44 72 45 73 51 74 53 75 46 76
REMARK SMILES IDX 47 77 48 78 49 79 50 80 76 81 77 82 86 83 78 84 79 85 85 86
REMARK SMILES IDX 87 87 80 88 81 89 82 90 83 91 84 92 60 93 61 94 70 95 62 96
REMARK SMILES IDX 63 97 69 98 71 99 64 100 65 101 66 102 67 103 68 104
REMARK H PARENT 10 16 10 17 92 54 58 65
REMARK Flexibility Score: inf
ROOT
ATOM      1  C   UNL A   1      40.217  19.792  26.150  1.00  0.00     0.188 C 
ENDROOT
BRANCH   1   2
ATOM      2  C   UNL A   1      40.317  21.253  26.647  1.00  0.00     0.188 C 
BRANCH   2   3
ATOM      3  O   UNL A   1      39.259  22.186  26.494  1.00  0.00    -0.376 OA
BRANCH   3   4
ATOM      4  C   UNL A   1      38.090  21.884  25.764  1.00  0.00     0.202 C 
BRANCH   4   5
ATOM      5  C   UNL A   1      37.001  22.903  25.473  1.00  0.00     0.261 C 
BRANCH   5   6
ATOM      6  O   UNL A   1      35.690  22.439  25.155  1.00  0.00    -0.463 OA
BRANCH   6   7
ATOM      7  C   UNL A   1      34.668  23.190  25.606  1.00  0.00     0.309 C 
ATOM      8  O   UNL A   1      34.643  24.412  25.559  1.00  0.00    -0.252 OA
BRANCH   7   9
ATOM      9  C   UNL A   1      33.558  22.295  26.140  1.00  0.00     0.105 C 
ATOM     10  C   UNL A   1      31.435  23.884  26.203  1.00  0.00     0.183 C 
ATOM     11  C   UNL A   1      31.021  23.205  24.872  1.00  0.00     0.065 C 
ATOM     12  C   UNL A   1      32.454  22.986  26.973  1.00  0.00     0.080 C 
ATOM     13  C   UNL A   1      32.126  22.487  24.095  1.00  0.00     0.007 C 
ATOM     14  C   UNL A   1      32.938  21.539  24.973  1.00  0.00     0.016 C 
BRANCH  10  15
ATOM     15  N   UNL A   1      31.663  25.362  26.054  1.00  0.00    -0.338 N 
ATOM     16  H   UNL A   1      31.674  25.787  26.981  1.00  0.00     0.346 HD
ATOM     17  H   UNL A   1      32.552  25.491  25.571  1.00  0.00     0.346 HD
BRANCH  15  18
ATOM     18  C   UNL A   1      30.628  26.010  25.255  1.00  0.00     0.329 C 
BRANCH  18  19
ATOM     19  C   UNL A   1      30.845  27.135  24.262  1.00  0.00     0.147 A 
ATOM     20  C   UNL A   1      30.043  29.082  23.478  1.00  0.00     0.057 A 
ATOM     21  C   UNL A   1      31.320  29.474  23.844  1.00  0.00     0.091 A 
ATOM     22  N   UNL A   1      29.823  27.717  23.648  1.00  0.00    -0.240 NA
ATOM     23  S   UNL A   1      32.251  28.125  24.366  1.00  0.00    -0.121 S 
BRANCH  20  24
ATOM     24  C   UNL A   1      28.916  29.991  22.964  1.00  0.00     0.005 C 
ATOM     25  C   UNL A   1      27.537  29.298  23.016  1.00  0.00     0.017 C 
ATOM     26  C   UNL A   1      29.200  30.391  21.507  1.00  0.00     0.017 C 
ATOM     27  C   UNL A   1      28.797  31.283  23.809  1.00  0.00     0.017 C 
ENDBRANCH  20  24
ENDBRANCH  18  19
ENDBRANCH  15  18
ENDBRANCH  10  15
ENDBRANCH   7   9
ENDBRANCH   6   7
ENDBRANCH   5   6
ENDBRANCH   4   5
ENDBRANCH   3   4
ENDBRANCH   2   3
ENDBRANCH   1   2
BRANCH   1  28
ATOM     28  O   UNL A   1      41.422  19.250  25.639  1.00  0.00    -0.377 OA
BRANCH  28  29
ATOM     29  C   UNL A   1      42.629  19.631  26.277  1.00  0.00     0.188 C 
BRANCH  29  30
ATOM     30  C   UNL A   1      43.845  19.887  25.370  1.00  0.00     0.188 C 
BRANCH  30  31
ATOM     31  O   UNL A   1      43.897  21.217  24.884  1.00  0.00    -0.376 OA
BRANCH  31  32
ATOM     32  C   UNL A   1      44.807  22.115  25.490  1.00  0.00     0.202 C 
BRANCH  32  33
ATOM     33  C   UNL A   1      44.336  22.906  26.725  1.00  0.00     0.261 C 
BRANCH  33  34
ATOM     34  O   UNL A   1      42.996  23.425  26.710  1.00  0.00    -0.460 OA
BRANCH  34  35
ATOM     35  C   UNL A   1      42.748  24.528  25.965  1.00  0.00     0.338 C 
ATOM     36  O   UNL A   1      42.814  24.612  24.758  1.00  0.00    -0.246 OA
BRANCH  35  37
ATOM     37  C   UNL A   1      42.164  25.564  26.859  1.00  0.00     0.060 A 
ATOM     38  C   UNL A   1      42.645  26.880  26.786  1.00  0.00     0.016 A 
ATOM     39  C   UNL A   1      41.159  25.237  27.772  1.00  0.00     0.016 A 
ATOM     40  C   UNL A   1      42.164  27.856  27.664  1.00  0.00     0.010 A 
ATOM     41  C   UNL A   1      40.700  26.208  28.670  1.00  0.00     0.010 A 
ATOM     42  C   UNL A   1      41.234  27.509  28.652  1.00  0.00    -0.014 A 
BRANCH  42  43
ATOM     43  C   UNL A   1      41.019  28.412  29.813  1.00  0.00     0.031 A 
ATOM     44  C   UNL A   1      41.913  28.235  31.015  1.00  0.00     0.074 A 
ATOM     45  C   UNL A   1      40.082  29.378  29.807  1.00  0.00     0.049 A 
ATOM     46  N   UNL A   1      41.883  28.839  32.174  1.00  0.00    -0.248 NA
ATOM     47  C   UNL A   1      42.987  27.234  30.889  1.00  0.00     0.031 C 
ATOM     48  C   UNL A   1      39.193  29.691  28.689  1.00  0.00     0.029 A 
ATOM     49  N   UNL A   1      39.716  30.270  30.786  1.00  0.00    -0.354 N 
ATOM     50  C   UNL A   1      42.928  28.293  32.913  1.00  0.00     0.074 A 
ATOM     51  C   UNL A   1      43.549  27.283  32.086  1.00  0.00     0.031 C 
ATOM     52  C   UNL A   1      38.373  30.696  29.052  1.00  0.00     0.029 A 
ATOM     53  C   UNL A   1      38.653  31.071  30.439  1.00  0.00     0.049 A 
ATOM     54  H   UNL A   1      40.174  30.330  31.656  1.00  0.00     0.167 HD
ATOM     55  C   UNL A   1      43.341  28.611  34.162  1.00  0.00     0.037 A 
ATOM     56  C   UNL A   1      37.971  31.979  31.167  1.00  0.00     0.037 A 
ATOM     57  C   UNL A   1      42.715  29.611  34.986  1.00  0.00     0.049 A 
ATOM     58  C   UNL A   1      38.389  32.246  32.595  1.00  0.00     0.074 A 
ATOM     59  C   UNL A   1      43.054  30.003  36.269  1.00  0.00     0.029 A 
ATOM     60  N   UNL A   1      41.620  30.374  34.610  1.00  0.00    -0.354 N 
ATOM     61  N   UNL A   1      39.383  31.729  33.280  1.00  0.00    -0.248 NA
ATOM     62  C   UNL A   1      37.591  33.223  33.352  1.00  0.00     0.031 C 
ATOM     63  C   UNL A   1      42.130  30.965  36.690  1.00  0.00     0.029 A 
ATOM     64  C   UNL A   1      41.256  31.219  35.645  1.00  0.00     0.049 A 
ATOM     65  H   UNL A   1      41.168  30.322  33.738  1.00  0.00     0.167 HD
ATOM     66  C   UNL A   1      39.353  32.349  34.527  1.00  0.00     0.074 A 
ATOM     67  C   UNL A   1      38.249  33.284  34.501  1.00  0.00     0.031 C 
ATOM     68  C   UNL A   1      40.167  32.163  35.598  1.00  0.00     0.037 A 
BRANCH  55  69
ATOM     69  C   UNL A   1      44.514  27.855  34.724  1.00  0.00     0.058 A 
ATOM     70  C   UNL A   1      45.830  28.322  34.583  1.00  0.00     0.135 A 
ATOM     71  C   UNL A   1      44.316  26.671  35.453  1.00  0.00     0.135 A 
ATOM     72  F   UNL A   1      46.081  29.435  33.876  1.00  0.00    -0.206 F 
ATOM     73  C   UNL A   1      46.910  27.633  35.127  1.00  0.00     0.059 A 
ATOM     74  C   UNL A   1      45.377  25.982  36.033  1.00  0.00     0.059 A 
ATOM     75  F   UNL A   1      43.079  26.174  35.613  1.00  0.00    -0.206 F 
ATOM     76  C   UNL A   1      46.672  26.467  35.856  1.00  0.00     0.060 A 
BRANCH  76  77
ATOM     77  S   UNL A   1      48.082  25.600  36.576  1.00  0.00     0.124 S 
ATOM     78  O   UNL A   1      47.832  24.228  36.146  1.00  0.00    -0.237 OA
ATOM     79  O   UNL A   1      49.213  26.268  35.940  1.00  0.00    -0.237 OA
ATOM     80  O   UNL A   1      47.938  25.843  38.007  1.00  0.00    -0.744 OA
ENDBRANCH  76  77
ENDBRANCH  55  69
BRANCH  56  81
ATOM     81  C   UNL A   1      36.806  32.700  30.580  1.00  0.00     0.058 A 
ATOM     82  C   UNL A   1      36.985  33.764  29.683  1.00  0.00     0.135 A 
ATOM     83  C   UNL A   1      35.489  32.373  30.944  1.00  0.00     0.135 A 
ATOM     84  F   UNL A   1      38.223  34.128  29.314  1.00  0.00    -0.206 F 
ATOM     85  C   UNL A   1      35.909  34.495  29.189  1.00  0.00     0.059 A 
ATOM     86  C   UNL A   1      34.394  33.068  30.439  1.00  0.00     0.059 A 
ATOM     87  F   UNL A   1      35.257  31.363  31.796  1.00  0.00    -0.206 F 
ATOM     88  C   UNL A   1      34.616  34.140  29.575  1.00  0.00     0.060 A 
BRANCH  88  89
ATOM     89  S   UNL A   1      33.225  35.087  28.919  1.00  0.00     0.124 S 
ATOM     90  O   UNL A   1      32.629  34.129  27.994  1.00  0.00    -0.237 OA
ATOM     91  O   UNL A   1      32.455  35.375  30.125  1.00  0.00    -0.237 OA
ATOM     92  O   UNL A   1      33.866  36.243  28.300  1.00  0.00    -0.744 OA
ENDBRANCH  88  89
ENDBRANCH  56  81
BRANCH  68  93
ATOM     93  C   UNL A   1      39.938  33.024  36.811  1.00  0.00     0.058 A 
ATOM     94  C   UNL A   1      38.920  32.753  37.738  1.00  0.00     0.135 A 
ATOM     95  C   UNL A   1      40.794  34.108  37.080  1.00  0.00     0.135 A 
ATOM     96  F   UNL A   1      38.073  31.733  37.532  1.00  0.00    -0.206 F 
ATOM     97  C   UNL A   1      38.738  33.541  38.871  1.00  0.00     0.059 A 
ATOM     98  C   UNL A   1      40.652  34.888  38.224  1.00  0.00     0.059 A 
ATOM     99  F   UNL A   1      41.794  34.405  36.236  1.00  0.00    -0.206 F 
ATOM    100  C   UNL A   1      39.612  34.604  39.108  1.00  0.00     0.060 A 
BRANCH 100 101
ATOM    101  S   UNL A   1      39.384  35.597  40.599  1.00  0.00     0.124 S 
ATOM    102  O   UNL A   1      40.741  35.639  41.134  1.00  0.00    -0.237 OA
ATOM    103  O   UNL A   1      38.874  36.854  40.062  1.00  0.00    -0.237 OA
ATOM    104  O   UNL A   1      38.426  34.821  41.381  1.00  0.00    -0.744 OA
ENDBRANCH 100 101
ENDBRANCH  68  93
ENDBRANCH  42  43
ENDBRANCH  35  37
ENDBRANCH  34  35
ENDBRANCH  33  34
ENDBRANCH  32  33
ENDBRANCH  31  32
ENDBRANCH  30  31
ENDBRANCH  29  30
ENDBRANCH  28  29
ENDBRANCH   1  28
TORSDOF 27
ENDMDL
MODEL 2
REMARK VINA RESULT:      -9.0      5.859     11.799
REMARK SMILES CC(C)(C)c1csc(C[NH2+][C@H]2CCC[C@@H](C(=O)OCCOCCOCCOCCOC(=O)c3ccc(-c4c5nc(c(-c6c(F)cc(S(=O)(=O)[O-])cc6F)c6ccc([nH]6)c(-c6c(F)cc(S(=O)(=O)[O-])cc6F)c6nc(c(-c7c(F)cc(S(=O)(=O)[O-])cc7F)c7ccc4[nH]7)C=C6)C=C5)cc3)C2)n1
REMARK SMILES IDX 23 1 22 2 21 3 20 4 19 5 18 6 16 7 17 8 15 9 11 10 12 11
REMARK SMILES IDX 99 12 13 13 14 14 10 15 9 18 8 19 5 20 6 21 100 22 7 23 2 24
REMARK SMILES IDX 1 25 3 26 4 27 24 28 25 29 26 30 27 31 28 32 29 33 30 34
REMARK SMILES IDX 31 35 32 36 33 37 34 38 98 39 35 40 97 41 36 42 37 43 38 44
REMARK SMILES IDX 91 45 39 46 96 47 90 48 92 49 40 50 95 51 89 52 88 53 41 55
REMARK SMILES IDX 75 56 54 57 74 58 55 59 58 60 73 61 93 62 56 63 57 64 72 66
REMARK SMILES IDX 94 67 59 68 42 69 43 70 52 71 44 72 45 73 51 74 53 75 46 76
REMARK SMILES IDX 47 77 48 78 49 79 50 80 76 81 77 82 86 83 78 84 79 85 85 86
REMARK SMILES IDX 87 87 80 88 81 89 82 90 83 91 84 92 60 93 61 94 70 95 62 96
REMARK SMILES IDX 63 97 69 98 71 99 64 100 65 101 66 102 67 103 68 104
REMARK H PARENT 10 16 10 17 92 54 58 65
REMARK Flexibility Score: inf
ROOT
ATOM      1  C   UNL A   1      32.397  28.894  23.378  1.00  0.00     0.188 C 
ENDROOT
BRANCH   1   2
ATOM      2  C   UNL A   1      33.676  28.555  22.577  1.00  0.00     0.188 C 
BRANCH   2   3
ATOM      3  O   UNL A   1      33.747  27.456  21.682  1.00  0.00    -0.376 OA
BRANCH   3   4
ATOM      4  C   UNL A   1      32.697  26.523  21.551  1.00  0.00     0.202 C 
BRANCH   4   5
ATOM      5  C   UNL A   1      32.903  25.019  21.624  1.00  0.00     0.261 C 
BRANCH   5   6
ATOM      6  O   UNL A   1      32.974  24.394  22.905  1.00  0.00    -0.463 OA
BRANCH   6   7
ATOM      7  C   UNL A   1      31.892  24.532  23.694  1.00  0.00     0.309 C 
ATOM      8  O   UNL A   1      30.807  24.017  23.464  1.00  0.00    -0.252 OA
BRANCH   7   9
ATOM      9  C   UNL A   1      32.237  25.382  24.910  1.00  0.00     0.105 C 
ATOM     10  C   UNL A   1      32.409  23.622  26.888  1.00  0.00     0.183 C 
ATOM     11  C   UNL A   1      33.944  23.706  26.685  1.00  0.00     0.065 C 
ATOM     12  C   UNL A   1      31.714  24.878  26.275  1.00  0.00     0.080 C 
ATOM     13  C   UNL A   1      34.430  24.254  25.343  1.00  0.00     0.007 C 
ATOM     14  C   UNL A   1      33.747  25.565  24.962  1.00  0.00     0.016 C 
BRANCH  10  15
ATOM     15  N   UNL A   1      31.867  22.241  26.644  1.00  0.00    -0.338 N 
ATOM     16  H   UNL A   1      31.265  21.983  27.426  1.00  0.00     0.346 HD
ATOM     17  H   UNL A   1      31.351  22.261  25.765  1.00  0.00     0.346 HD
BRANCH  15  18
ATOM     18  C   UNL A   1      32.921  21.240  26.515  1.00  0.00     0.329 C 
BRANCH  18  19
ATOM     19  C   UNL A   1      33.312  20.519  25.241  1.00  0.00     0.147 A 
ATOM     20  C   UNL A   1      33.517  18.515  24.245  1.00  0.00     0.057 A 
ATOM     21  C   UNL A   1      32.669  19.147  23.350  1.00  0.00     0.091 A 
ATOM     22  N   UNL A   1      33.940  19.351  25.277  1.00  0.00    -0.240 NA
ATOM     23  S   UNL A   1      32.434  20.795  23.784  1.00  0.00    -0.121 S 
BRANCH  20  24
ATOM     24  C   UNL A   1      33.965  17.047  24.204  1.00  0.00     0.005 C 
ATOM     25  C   UNL A   1      32.913  16.096  24.816  1.00  0.00     0.017 C 
ATOM     26  C   UNL A   1      35.277  16.885  24.991  1.00  0.00     0.017 C 
ATOM     27  C   UNL A   1      34.208  16.567  22.752  1.00  0.00     0.017 C 
ENDBRANCH  20  24
ENDBRANCH  18  19
ENDBRANCH  15  18
ENDBRANCH  10  15
ENDBRANCH   7   9
ENDBRANCH   6   7
ENDBRANCH   5   6
ENDBRANCH   4   5
ENDBRANCH   3   4
ENDBRANCH   2   3
ENDBRANCH   1   2
BRANCH   1  28
ATOM     28  O   UNL A   1      32.621  29.553  24.612  1.00  0.00    -0.377 OA
BRANCH  28  29
ATOM     29  C   UNL A   1      32.036  28.983  25.770  1.00  0.00     0.188 C 
BRANCH  29  30
ATOM     30  C   UNL A   1      32.316  29.687  27.110  1.00  0.00     0.188 C 
BRANCH  30  31
ATOM     31  O   UNL A   1      32.947  30.945  26.946  1.00  0.00    -0.376 OA
BRANCH  31  32
ATOM     32  C   UNL A   1      34.060  31.247  27.767  1.00  0.00     0.202 C 
BRANCH  32  33
ATOM     33  C   UNL A   1      35.201  30.217  27.853  1.00  0.00     0.261 C 
BRANCH  33  34
ATOM     34  O   UNL A   1      35.579  29.751  29.158  1.00  0.00    -0.460 OA
BRANCH  34  35
ATOM     35  C   UNL A   1      36.155  30.634  30.008  1.00  0.00     0.338 C 
ATOM     36  O   UNL A   1      35.583  31.348  30.802  1.00  0.00    -0.246 OA
BRANCH  35  37
ATOM     37  C   UNL A   1      37.628  30.422  29.961  1.00  0.00     0.060 A 
ATOM     38  C   UNL A   1      38.383  31.084  28.981  1.00  0.00     0.016 A 
ATOM     39  C   UNL A   1      38.256  29.567  30.869  1.00  0.00     0.016 A 
ATOM     40  C   UNL A   1      39.755  30.847  28.870  1.00  0.00     0.010 A 
ATOM     41  C   UNL A   1      39.626  29.309  30.739  1.00  0.00     0.010 A 
ATOM     42  C   UNL A   1      40.373  29.911  29.709  1.00  0.00    -0.014 A 
BRANCH  42  43
ATOM     43  C   UNL A   1      41.710  29.367  29.352  1.00  0.00     0.031 A 
ATOM     44  C   UNL A   1      42.891  30.303  29.430  1.00  0.00     0.074 A 
ATOM     45  C   UNL A   1      41.890  28.083  28.992  1.00  0.00     0.049 A 
ATOM     46  N   UNL A   1      44.140  30.099  29.104  1.00  0.00    -0.248 NA
ATOM     47  C   UNL A   1      42.619  31.656  29.947  1.00  0.00     0.031 C 
ATOM     48  C   UNL A   1      40.844  27.064  28.932  1.00  0.00     0.029 A 
ATOM     49  N   UNL A   1      43.027  27.421  28.597  1.00  0.00    -0.354 N 
ATOM     50  C   UNL A   1      44.801  31.294  29.373  1.00  0.00     0.074 A 
ATOM     51  C   UNL A   1      43.809  32.229  29.853  1.00  0.00     0.031 C 
ATOM     52  C   UNL A   1      41.387  25.907  28.508  1.00  0.00     0.029 A 
ATOM     53  C   UNL A   1      42.809  26.113  28.231  1.00  0.00     0.049 A 
ATOM     54  H   UNL A   1      43.916  27.845  28.577  1.00  0.00     0.167 HD
ATOM     55  C   UNL A   1      46.117  31.583  29.243  1.00  0.00     0.037 A 
ATOM     56  C   UNL A   1      43.655  25.201  27.708  1.00  0.00     0.037 A 
ATOM     57  C   UNL A   1      47.101  30.653  28.757  1.00  0.00     0.049 A 
ATOM     58  C   UNL A   1      45.101  25.579  27.479  1.00  0.00     0.074 A 
ATOM     59  C   UNL A   1      48.459  30.851  28.582  1.00  0.00     0.029 A 
ATOM     60  N   UNL A   1      46.833  29.350  28.363  1.00  0.00    -0.354 N 
ATOM     61  N   UNL A   1      45.715  26.709  27.744  1.00  0.00    -0.248 NA
ATOM     62  C   UNL A   1      45.971  24.556  26.878  1.00  0.00     0.031 C 
ATOM     63  C   UNL A   1      49.003  29.687  28.031  1.00  0.00     0.029 A 
ATOM     64  C   UNL A   1      47.996  28.741  27.925  1.00  0.00     0.049 A 
ATOM     65  H   UNL A   1      45.947  28.923  28.392  1.00  0.00     0.167 HD
ATOM     66  C   UNL A   1      47.047  26.515  27.383  1.00  0.00     0.074 A 
ATOM     67  C   UNL A   1      47.151  25.159  26.889  1.00  0.00     0.031 C 
ATOM     68  C   UNL A   1      48.090  27.381  27.456  1.00  0.00     0.037 A 
BRANCH  55  69
ATOM     69  C   UNL A   1      46.568  32.970  29.613  1.00  0.00     0.058 A 
ATOM     70  C   UNL A   1      46.395  34.059  28.743  1.00  0.00     0.135 A 
ATOM     71  C   UNL A   1      47.140  33.223  30.870  1.00  0.00     0.135 A 
ATOM     72  F   UNL A   1      45.876  33.872  27.520  1.00  0.00    -0.206 F 
ATOM     73  C   UNL A   1      46.790  35.345  29.099  1.00  0.00     0.059 A 
ATOM     74  C   UNL A   1      47.513  34.506  31.260  1.00  0.00     0.059 A 
ATOM     75  F   UNL A   1      47.335  32.218  31.738  1.00  0.00    -0.206 F 
ATOM     76  C   UNL A   1      47.343  35.559  30.363  1.00  0.00     0.060 A 
BRANCH  76  77
ATOM     77  S   UNL A   1      47.826  37.237  30.817  1.00  0.00     0.124 S 
ATOM     78  O   UNL A   1      46.552  37.800  31.254  1.00  0.00    -0.237 OA
ATOM     79  O   UNL A   1      48.809  37.002  31.870  1.00  0.00    -0.237 OA
ATOM     80  O   UNL A   1      48.361  37.787  29.576  1.00  0.00    -0.744 OA
ENDBRANCH  76  77
ENDBRANCH  55  69
BRANCH  56  81
ATOM     81  C   UNL A   1      43.170  23.840  27.342  1.00  0.00     0.058 A 
ATOM     82  C   UNL A   1      43.048  22.827  28.306  1.00  0.00     0.135 A 
ATOM     83  C   UNL A   1      42.865  23.510  26.011  1.00  0.00     0.135 A 
ATOM     84  F   UNL A   1      43.342  23.085  29.590  1.00  0.00    -0.206 F 
ATOM     85  C   UNL A   1      42.672  21.532  27.963  1.00  0.00     0.059 A 
ATOM     86  C   UNL A   1      42.455  22.230  25.648  1.00  0.00     0.059 A 
ATOM     87  F   UNL A   1      42.960  24.439  25.048  1.00  0.00    -0.206 F 
ATOM     88  C   UNL A   1      42.378  21.243  26.630  1.00  0.00     0.060 A 
BRANCH  88  89
ATOM     89  S   UNL A   1      41.878  19.562  26.197  1.00  0.00     0.124 S 
ATOM     90  O   UNL A   1      42.225  18.831  27.412  1.00  0.00    -0.237 OA
ATOM     91  O   UNL A   1      40.451  19.725  25.936  1.00  0.00    -0.237 OA
ATOM     92  O   UNL A   1      42.694  19.259  25.025  1.00  0.00    -0.744 OA
ENDBRANCH  88  89
ENDBRANCH  56  81
BRANCH  68  93
ATOM     93  C   UNL A   1      49.450  26.877  27.048  1.00  0.00     0.058 A 
ATOM     94  C   UNL A   1      50.241  26.091  27.900  1.00  0.00     0.135 A 
ATOM     95  C   UNL A   1      49.943  27.138  25.756  1.00  0.00     0.135 A 
ATOM     96  F   UNL A   1      49.822  25.812  29.144  1.00  0.00    -0.206 F 
ATOM     97  C   UNL A   1      51.483  25.608  27.500  1.00  0.00     0.059 A 
ATOM     98  C   UNL A   1      51.166  26.635  25.324  1.00  0.00     0.059 A 
ATOM     99  F   UNL A   1      49.222  27.871  24.894  1.00  0.00    -0.206 F 
ATOM    100  C   UNL A   1      51.936  25.882  26.207  1.00  0.00     0.060 A 
BRANCH 100 101
ATOM    101  S   UNL A   1      53.534  25.220  25.691  1.00  0.00     0.124 S 
ATOM    102  O   UNL A   1      53.133  24.036  24.937  1.00  0.00    -0.237 OA
ATOM    103  O   UNL A   1      54.086  26.317  24.904  1.00  0.00    -0.237 OA
ATOM    104  O   UNL A   1      54.217  24.956  26.955  1.00  0.00    -0.744 OA
ENDBRANCH 100 101
ENDBRANCH  68  93
ENDBRANCH  42  43
ENDBRANCH  35  37
ENDBRANCH  34  35
ENDBRANCH  33  34
ENDBRANCH  32  33
ENDBRANCH  31  32
ENDBRANCH  30  31
ENDBRANCH  29  30
ENDBRANCH  28  29
ENDBRANCH   1  28
TORSDOF 27
ENDMDL
MODEL 3
REMARK VINA RESULT:      -8.5      3.349      9.713
REMARK SMILES CC(C)(C)c1csc(C[NH2+][C@H]2CCC[C@@H](C(=O)OCCOCCOCCOCCOC(=O)c3ccc(-c4c5nc(c(-c6c(F)cc(S(=O)(=O)[O-])cc6F)c6ccc([nH]6)c(-c6c(F)cc(S(=O)(=O)[O-])cc6F)c6nc(c(-c7c(F)cc(S(=O)(=O)[O-])cc7F)c7ccc4[nH]7)C=C6)C=C5)cc3)C2)n1
REMARK SMILES IDX 23 1 22 2 21 3 20 4 19 5 18 6 16 7 17 8 15 9 11 10 12 11
REMARK SMILES IDX 99 12 13 13 14 14 10 15 9 18 8 19 5 20 6 21 100 22 7 23 2 24
REMARK SMILES IDX 1 25 3 26 4 27 24 28 25 29 26 30 27 31 28 32 29 33 30 34
REMARK SMILES IDX 31 35 32 36 33 37 34 38 98 39 35 40 97 41 36 42 37 43 38 44
REMARK SMILES IDX 91 45 39 46 96 47 90 48 92 49 40 50 95 51 89 52 88 53 41 55
REMARK SMILES IDX 75 56 54 57 74 58 55 59 58 60 73 61 93 62 56 63 57 64 72 66
REMARK SMILES IDX 94 67 59 68 42 69 43 70 52 71 44 72 45 73 51 74 53 75 46 76
REMARK SMILES IDX 47 77 48 78 49 79 50 80 76 81 77 82 86 83 78 84 79 85 85 86
REMARK SMILES IDX 87 87 80 88 81 89 82 90 83 91 84 92 60 93 61 94 70 95 62 96
REMARK SMILES IDX 63 97 69 98 71 99 64 100 65 101 66 102 67 103 68 104
REMARK H PARENT 10 16 10 17 92 54 58 65
REMARK Flexibility Score: inf
ROOT
ATOM      1  C   UNL A   1      31.094  28.246  22.624  1.00  0.00     0.188 C 
ENDROOT
BRANCH   1   2
ATOM      2  C   UNL A   1      32.639  28.304  22.661  1.00  0.00     0.188 C 
BRANCH   2   3
ATOM      3  O   UNL A   1      33.454  27.254  22.164  1.00  0.00    -0.376 OA
BRANCH   3   4
ATOM      4  C   UNL A   1      32.949  26.246  21.316  1.00  0.00     0.202 C 
BRANCH   4   5
ATOM      5  C   UNL A   1      32.774  24.801  21.750  1.00  0.00     0.261 C 
BRANCH   5   6
ATOM      6  O   UNL A   1      32.859  24.483  23.138  1.00  0.00    -0.463 OA
BRANCH   6   7
ATOM      7  C   UNL A   1      31.690  24.293  23.777  1.00  0.00     0.309 C 
ATOM      8  O   UNL A   1      30.811  23.538  23.386  1.00  0.00    -0.252 OA
BRANCH   7   9
ATOM      9  C   UNL A   1      31.652  25.123  25.054  1.00  0.00     0.105 C 
ATOM     10  C   UNL A   1      32.117  23.354  26.975  1.00  0.00     0.183 C 
ATOM     11  C   UNL A   1      33.576  23.877  26.956  1.00  0.00     0.065 C 
ATOM     12  C   UNL A   1      31.159  24.403  26.330  1.00  0.00     0.080 C 
ATOM     13  C   UNL A   1      34.021  24.627  25.700  1.00  0.00     0.007 C 
ATOM     14  C   UNL A   1      33.034  25.717  25.289  1.00  0.00     0.016 C 
BRANCH  10  15
ATOM     15  N   UNL A   1      32.020  21.896  26.622  1.00  0.00    -0.338 N 
ATOM     16  H   UNL A   1      31.721  21.378  27.449  1.00  0.00     0.346 HD
ATOM     17  H   UNL A   1      31.348  21.806  25.860  1.00  0.00     0.346 HD
BRANCH  15  18
ATOM     18  C   UNL A   1      33.289  21.346  26.159  1.00  0.00     0.329 C 
BRANCH  18  19
ATOM     19  C   UNL A   1      33.485  20.462  24.943  1.00  0.00     0.147 A 
ATOM     20  C   UNL A   1      33.525  18.345  24.190  1.00  0.00     0.057 A 
ATOM     21  C   UNL A   1      32.563  18.884  23.351  1.00  0.00     0.091 A 
ATOM     22  N   UNL A   1      34.101  19.291  25.036  1.00  0.00    -0.240 NA
ATOM     23  S   UNL A   1      32.408  20.579  23.603  1.00  0.00    -0.121 S 
BRANCH  20  24
ATOM     24  C   UNL A   1      33.951  16.872  24.270  1.00  0.00     0.005 C 
ATOM     25  C   UNL A   1      35.252  16.682  25.079  1.00  0.00     0.017 C 
ATOM     26  C   UNL A   1      34.180  16.322  22.852  1.00  0.00     0.017 C 
ATOM     27  C   UNL A   1      32.869  16.004  24.958  1.00  0.00     0.017 C 
ENDBRANCH  20  24
ENDBRANCH  18  19
ENDBRANCH  15  18
ENDBRANCH  10  15
ENDBRANCH   7   9
ENDBRANCH   6   7
ENDBRANCH   5   6
ENDBRANCH   4   5
ENDBRANCH   3   4
ENDBRANCH   2   3
ENDBRANCH   1   2
BRANCH   1  28
ATOM     28  O   UNL A   1      30.460  28.363  23.886  1.00  0.00    -0.377 OA
BRANCH  28  29
ATOM     29  C   UNL A   1      31.047  29.243  24.829  1.00  0.00     0.188 C 
BRANCH  29  30
ATOM     30  C   UNL A   1      31.487  28.632  26.171  1.00  0.00     0.188 C 
BRANCH  30  31
ATOM     31  O   UNL A   1      31.667  29.606  27.184  1.00  0.00    -0.376 OA
BRANCH  31  32
ATOM     32  C   UNL A   1      32.245  30.846  26.825  1.00  0.00     0.202 C 
BRANCH  32  33
ATOM     33  C   UNL A   1      33.617  31.210  27.422  1.00  0.00     0.261 C 
BRANCH  33  34
ATOM     34  O   UNL A   1      34.252  30.239  28.270  1.00  0.00    -0.460 OA
BRANCH  34  35
ATOM     35  C   UNL A   1      35.193  29.434  27.723  1.00  0.00     0.338 C 
ATOM     36  O   UNL A   1      35.094  28.809  26.689  1.00  0.00    -0.246 OA
BRANCH  35  37
ATOM     37  C   UNL A   1      36.456  29.618  28.489  1.00  0.00     0.060 A 
ATOM     38  C   UNL A   1      37.623  29.984  27.804  1.00  0.00     0.016 A 
ATOM     39  C   UNL A   1      36.489  29.417  29.871  1.00  0.00     0.016 A 
ATOM     40  C   UNL A   1      38.837  30.093  28.488  1.00  0.00     0.010 A 
ATOM     41  C   UNL A   1      37.711  29.498  30.550  1.00  0.00     0.010 A 
ATOM     42  C   UNL A   1      38.899  29.790  29.854  1.00  0.00    -0.014 A 
BRANCH  42  43
ATOM     43  C   UNL A   1      40.214  29.520  30.492  1.00  0.00     0.031 A 
ATOM     44  C   UNL A   1      41.043  28.386  29.940  1.00  0.00     0.074 A 
ATOM     45  C   UNL A   1      40.682  30.263  31.512  1.00  0.00     0.049 A 
ATOM     46  N   UNL A   1      42.182  27.903  30.361  1.00  0.00    -0.248 NA
ATOM     47  C   UNL A   1      40.506  27.705  28.749  1.00  0.00     0.031 C 
ATOM     48  C   UNL A   1      40.008  31.419  32.099  1.00  0.00     0.029 A 
ATOM     49  N   UNL A   1      41.840  30.142  32.243  1.00  0.00    -0.354 N 
ATOM     50  C   UNL A   1      42.497  26.864  29.492  1.00  0.00     0.074 A 
ATOM     51  C   UNL A   1      41.411  26.762  28.542  1.00  0.00     0.031 C 
ATOM     52  C   UNL A   1      40.758  31.893  33.112  1.00  0.00     0.029 A 
ATOM     53  C   UNL A   1      41.945  31.052  33.269  1.00  0.00     0.049 A 
ATOM     54  H   UNL A   1      42.529  29.466  32.049  1.00  0.00     0.167 HD
ATOM     55  C   UNL A   1      43.595  26.073  29.477  1.00  0.00     0.037 A 
ATOM     56  C   UNL A   1      42.879  31.170  34.236  1.00  0.00     0.037 A 
ATOM     57  C   UNL A   1      44.670  26.172  30.428  1.00  0.00     0.049 A 
ATOM     58  C   UNL A   1      44.047  30.212  34.259  1.00  0.00     0.074 A 
ATOM     59  C   UNL A   1      45.825  25.413  30.503  1.00  0.00     0.029 A 
ATOM     60  N   UNL A   1      44.722  27.083  31.473  1.00  0.00    -0.354 N 
ATOM     61  N   UNL A   1      44.337  29.238  33.427  1.00  0.00    -0.248 NA
ATOM     62  C   UNL A   1      45.018  30.368  35.353  1.00  0.00     0.031 C 
ATOM     63  C   UNL A   1      46.549  25.828  31.625  1.00  0.00     0.029 A 
ATOM     64  C   UNL A   1      45.877  26.890  32.211  1.00  0.00     0.049 A 
ATOM     65  H   UNL A   1      44.038  27.765  31.662  1.00  0.00     0.167 HD
ATOM     66  C   UNL A   1      45.541  28.698  33.874  1.00  0.00     0.074 A 
ATOM     67  C   UNL A   1      45.929  29.457  35.043  1.00  0.00     0.031 C 
ATOM     68  C   UNL A   1      46.263  27.668  33.362  1.00  0.00     0.037 A 
BRANCH  55  69
ATOM     69  C   UNL A   1      43.682  25.016  28.410  1.00  0.00     0.058 A 
ATOM     70  C   UNL A   1      43.072  23.760  28.564  1.00  0.00     0.135 A 
ATOM     71  C   UNL A   1      44.345  25.276  27.200  1.00  0.00     0.135 A 
ATOM     72  F   UNL A   1      42.446  23.448  29.709  1.00  0.00    -0.206 F 
ATOM     73  C   UNL A   1      43.133  22.795  27.564  1.00  0.00     0.059 A 
ATOM     74  C   UNL A   1      44.391  24.338  26.173  1.00  0.00     0.059 A 
ATOM     75  F   UNL A   1      44.951  26.457  27.002  1.00  0.00    -0.206 F 
ATOM     76  C   UNL A   1      43.790  23.095  26.370  1.00  0.00     0.060 A 
BRANCH  76  77
ATOM     77  S   UNL A   1      43.837  21.839  25.074  1.00  0.00     0.124 S 
ATOM     78  O   UNL A   1      42.856  20.876  25.565  1.00  0.00    -0.237 OA
ATOM     79  O   UNL A   1      43.443  22.599  23.892  1.00  0.00    -0.237 OA
ATOM     80  O   UNL A   1      45.223  21.384  25.090  1.00  0.00    -0.744 OA
ENDBRANCH  76  77
ENDBRANCH  55  69
BRANCH  56  81
ATOM     81  C   UNL A   1      42.754  32.223  35.285  1.00  0.00     0.058 A 
ATOM     82  C   UNL A   1      43.359  33.479  35.131  1.00  0.00     0.135 A 
ATOM     83  C   UNL A   1      42.066  31.976  36.485  1.00  0.00     0.135 A 
ATOM     84  F   UNL A   1      44.041  33.761  34.010  1.00  0.00    -0.206 F 
ATOM     85  C   UNL A   1      43.316  34.441  36.135  1.00  0.00     0.059 A 
ATOM     86  C   UNL A   1      41.981  32.933  37.492  1.00  0.00     0.059 A 
ATOM     87  F   UNL A   1      41.465  30.793  36.686  1.00  0.00    -0.206 F 
ATOM     88  C   UNL A   1      42.625  34.158  37.314  1.00  0.00     0.060 A 
BRANCH  88  89
ATOM     89  S   UNL A   1      42.563  35.418  38.607  1.00  0.00     0.124 S 
ATOM     90  O   UNL A   1      43.201  34.726  39.722  1.00  0.00    -0.237 OA
ATOM     91  O   UNL A   1      43.327  36.508  38.009  1.00  0.00    -0.237 OA
ATOM     92  O   UNL A   1      41.133  35.673  38.760  1.00  0.00    -0.744 OA
ENDBRANCH  88  89
ENDBRANCH  56  81
BRANCH  68  93
ATOM     93  C   UNL A   1      47.575  27.334  34.021  1.00  0.00     0.058 A 
ATOM     94  C   UNL A   1      48.786  27.907  33.605  1.00  0.00     0.135 A 
ATOM     95  C   UNL A   1      47.609  26.468  35.129  1.00  0.00     0.135 A 
ATOM     96  F   UNL A   1      48.814  28.739  32.552  1.00  0.00    -0.206 F 
ATOM     97  C   UNL A   1      49.988  27.611  34.242  1.00  0.00     0.059 A 
ATOM     98  C   UNL A   1      48.794  26.186  35.802  1.00  0.00     0.059 A 
ATOM     99  F   UNL A   1      46.479  25.903  35.580  1.00  0.00    -0.206 F 
ATOM    100  C   UNL A   1      49.982  26.752  35.343  1.00  0.00     0.060 A 
BRANCH 100 101
ATOM    101  S   UNL A   1      51.543  26.405  36.180  1.00  0.00     0.124 S 
ATOM    102  O   UNL A   1      51.089  26.080  37.528  1.00  0.00    -0.237 OA
ATOM    103  O   UNL A   1      52.072  25.290  35.402  1.00  0.00    -0.237 OA
ATOM    104  O   UNL A   1      52.283  27.657  36.052  1.00  0.00    -0.744 OA
ENDBRANCH 100 101
ENDBRANCH  68  93
ENDBRANCH  42  43
ENDBRANCH  35  37
ENDBRANCH  34  35
ENDBRANCH  33  34
ENDBRANCH  32  33
ENDBRANCH  31  32
ENDBRANCH  30  31
ENDBRANCH  29  30
ENDBRANCH  28  29
ENDBRANCH   1  28
TORSDOF 27
ENDMDL
