MODEL 1
REMARK VINA RESULT:      -9.6      0.000      0.000
REMARK SMILES C[C@H]1[C@H](C(=O)OCCOCCOCCOCCOC(=O)c2ccc(-c3c4nc(c(-c5c(F)cc(S(=O)(=O)[O-])cc5F)c5ccc([nH]5)c(-c5c(F)cc(S(=O)(=O)[O-])cc5F)c5nc(c(-c6c(F)cc(S(=O)(=O)[O-])cc6F)c6ccc3[nH]6)C=C5)C=C4)cc2)CC[N@@H+]1Cc1ccc(Br)cc1F
REMARK SMILES IDX 13 1 12 2 11 3 10 4 9 5 8 6 7 7 6 8 4 9 5 10 3 11 1 12 2 13
REMARK SMILES IDX 89 14 87 15 88 16 90 18 91 19 92 20 97 21 93 22 96 23 98 24
REMARK SMILES IDX 94 25 95 26 14 27 15 28 16 29 17 30 18 31 19 32 20 33 21 34
REMARK SMILES IDX 22 35 86 36 23 37 85 38 24 39 25 40 26 41 79 42 27 43 84 44
REMARK SMILES IDX 78 45 80 46 28 47 83 48 77 49 76 50 29 52 63 53 42 54 62 55
REMARK SMILES IDX 43 56 46 57 61 58 81 59 44 60 45 61 60 63 82 64 47 65 30 66
REMARK SMILES IDX 31 67 40 68 32 69 33 70 39 71 41 72 34 73 35 74 36 75 37 76
REMARK SMILES IDX 38 77 64 78 65 79 74 80 66 81 67 82 73 83 75 84 68 85 69 86
REMARK SMILES IDX 70 87 71 88 72 89 48 90 49 91 58 92 50 93 51 94 57 95 59 96
REMARK SMILES IDX 52 97 53 98 54 99 55 100 56 101
REMARK H PARENT 89 17 80 51 46 62
REMARK Flexibility Score: inf
ROOT
ATOM      1  C   UNL A   1      43.250  22.243  25.513  1.00  0.00     0.188 C 
ENDROOT
BRANCH   1   2
ATOM      2  O   UNL A   1      42.400  21.119  25.491  1.00  0.00    -0.377 OA
BRANCH   2   3
ATOM      3  C   UNL A   1      41.159  21.324  26.113  1.00  0.00     0.188 C 
BRANCH   3   4
ATOM      4  C   UNL A   1      40.767  22.655  26.762  1.00  0.00     0.188 C 
BRANCH   4   5
ATOM      5  O   UNL A   1      39.418  22.944  27.082  1.00  0.00    -0.376 OA
BRANCH   5   6
ATOM      6  C   UNL A   1      38.606  23.835  26.342  1.00  0.00     0.202 C 
BRANCH   6   7
ATOM      7  C   UNL A   1      37.253  23.454  25.713  1.00  0.00     0.261 C 
BRANCH   7   8
ATOM      8  O   UNL A   1      37.179  23.421  24.276  1.00  0.00    -0.463 OA
BRANCH   8   9
ATOM      9  C   UNL A   1      35.962  23.183  23.742  1.00  0.00     0.315 C 
ATOM     10  O   UNL A   1      35.735  23.211  22.535  1.00  0.00    -0.252 OA
BRANCH   9  11
ATOM     11  C   UNL A   1      34.848  22.875  24.739  1.00  0.00     0.162 C 
ATOM     12  C   UNL A   1      33.472  24.235  26.373  1.00  0.00     0.076 C 
ATOM     13  C   UNL A   1      33.603  23.766  24.909  1.00  0.00     0.195 C 
ATOM     14  N   UNL A   1      32.424  22.939  24.641  1.00  0.00    -0.328 N 
ATOM     15  C   UNL A   1      34.302  21.485  24.443  1.00  0.00     0.083 C 
ATOM     16  C   UNL A   1      32.822  21.548  24.765  1.00  0.00     0.263 C 
ATOM     17  H   UNL A   1      31.714  23.133  25.347  1.00  0.00     0.348 HD
BRANCH  14  18
ATOM     18  C   UNL A   1      31.625  23.304  23.463  1.00  0.00     0.302 C 
BRANCH  18  19
ATOM     19  C   UNL A   1      31.222  24.749  23.279  1.00  0.00     0.042 A 
ATOM     20  C   UNL A   1      31.723  25.503  22.202  1.00  0.00     0.014 A 
ATOM     21  C   UNL A   1      30.385  25.394  24.195  1.00  0.00     0.133 A 
ATOM     22  C   UNL A   1      31.365  26.846  22.040  1.00  0.00     0.016 A 
ATOM     23  C   UNL A   1      29.997  26.719  24.027  1.00  0.00     0.055 A 
ATOM     24  F   UNL A   1      29.938  24.736  25.274  1.00  0.00    -0.206 F 
ATOM     25  C   UNL A   1      30.492  27.442  22.948  1.00  0.00     0.020 A 
ATOM     26  Br  UNL A   1      29.962  29.239  22.702  1.00  0.00    -0.051 Br
ENDBRANCH  18  19
ENDBRANCH  14  18
ENDBRANCH   9  11
ENDBRANCH   8   9
ENDBRANCH   7   8
ENDBRANCH   6   7
ENDBRANCH   5   6
ENDBRANCH   4   5
ENDBRANCH   3   4
ENDBRANCH   2   3
ENDBRANCH   1   2
BRANCH   1  27
ATOM     27  C   UNL A   1      44.591  21.890  24.886  1.00  0.00     0.188 C 
BRANCH  27  28
ATOM     28  O   UNL A   1      45.422  22.992  24.570  1.00  0.00    -0.376 OA
BRANCH  28  29
ATOM     29  C   UNL A   1      46.193  23.682  25.546  1.00  0.00     0.202 C 
BRANCH  29  30
ATOM     30  C   UNL A   1      45.831  24.959  26.350  1.00  0.00     0.261 C 
BRANCH  30  31
ATOM     31  O   UNL A   1      44.544  25.103  26.946  1.00  0.00    -0.460 OA
BRANCH  31  32
ATOM     32  C   UNL A   1      43.606  25.752  26.234  1.00  0.00     0.338 C 
ATOM     33  O   UNL A   1      43.337  25.591  25.056  1.00  0.00    -0.246 OA
BRANCH  32  34
ATOM     34  C   UNL A   1      42.811  26.557  27.188  1.00  0.00     0.060 A 
ATOM     35  C   UNL A   1      43.027  27.940  27.222  1.00  0.00     0.016 A 
ATOM     36  C   UNL A   1      41.856  25.968  28.024  1.00  0.00     0.016 A 
ATOM     37  C   UNL A   1      42.338  28.731  28.135  1.00  0.00     0.010 A 
ATOM     38  C   UNL A   1      41.187  26.757  28.965  1.00  0.00     0.010 A 
ATOM     39  C   UNL A   1      41.469  28.133  29.055  1.00  0.00    -0.014 A 
BRANCH  39  40
ATOM     40  C   UNL A   1      41.100  28.910  30.263  1.00  0.00     0.031 A 
ATOM     41  C   UNL A   1      41.945  28.725  31.497  1.00  0.00     0.074 A 
ATOM     42  C   UNL A   1      40.116  29.824  30.237  1.00  0.00     0.049 A 
ATOM     43  N   UNL A   1      41.869  29.327  32.654  1.00  0.00    -0.248 NA
ATOM     44  C   UNL A   1      43.027  27.729  31.409  1.00  0.00     0.031 C 
ATOM     45  C   UNL A   1      39.268  30.124  29.084  1.00  0.00     0.029 A 
ATOM     46  N   UNL A   1      39.673  30.679  31.213  1.00  0.00    -0.354 N 
ATOM     47  C   UNL A   1      42.888  28.785  33.428  1.00  0.00     0.074 A 
ATOM     48  C   UNL A   1      43.542  27.776  32.626  1.00  0.00     0.031 C 
ATOM     49  C   UNL A   1      38.401  31.095  29.423  1.00  0.00     0.029 A 
ATOM     50  C   UNL A   1      38.619  31.468  30.821  1.00  0.00     0.049 A 
ATOM     51  H   UNL A   1      40.071  30.722  32.113  1.00  0.00     0.167 HD
ATOM     52  C   UNL A   1      43.257  29.108  34.690  1.00  0.00     0.037 A 
ATOM     53  C   UNL A   1      37.909  32.378  31.517  1.00  0.00     0.037 A 
ATOM     54  C   UNL A   1      42.600  30.112  35.483  1.00  0.00     0.049 A 
ATOM     55  C   UNL A   1      38.295  32.674  32.945  1.00  0.00     0.074 A 
ATOM     56  C   UNL A   1      42.895  30.521  36.770  1.00  0.00     0.029 A 
ATOM     57  N   UNL A   1      41.507  30.860  35.066  1.00  0.00    -0.354 N 
ATOM     58  N   UNL A   1      39.273  32.167  33.661  1.00  0.00    -0.248 NA
ATOM     59  C   UNL A   1      37.490  33.676  33.657  1.00  0.00     0.031 C 
ATOM     60  C   UNL A   1      41.946  31.475  37.152  1.00  0.00     0.029 A 
ATOM     61  C   UNL A   1      41.101  31.710  36.080  1.00  0.00     0.049 A 
ATOM     62  H   UNL A   1      41.084  30.795  34.179  1.00  0.00     0.167 HD
ATOM     63  C   UNL A   1      39.220  32.813  34.893  1.00  0.00     0.074 A 
ATOM     64  C   UNL A   1      38.123  33.756  34.819  1.00  0.00     0.031 C 
ATOM     65  C   UNL A   1      40.007  32.647  35.987  1.00  0.00     0.037 A 
BRANCH  52  66
ATOM     66  C   UNL A   1      44.402  28.343  35.297  1.00  0.00     0.058 A 
ATOM     67  C   UNL A   1      45.729  28.790  35.203  1.00  0.00     0.135 A 
ATOM     68  C   UNL A   1      44.163  27.152  36.002  1.00  0.00     0.135 A 
ATOM     69  F   UNL A   1      46.021  29.909  34.519  1.00  0.00    -0.206 F 
ATOM     70  C   UNL A   1      46.782  28.072  35.762  1.00  0.00     0.059 A 
ATOM     71  C   UNL A   1      45.195  26.434  36.597  1.00  0.00     0.059 A 
ATOM     72  F   UNL A   1      42.914  26.674  36.116  1.00  0.00    -0.206 F 
ATOM     73  C   UNL A   1      46.503  26.895  36.460  1.00  0.00     0.060 A 
BRANCH  73  74
ATOM     74  S   UNL A   1      47.877  25.980  37.190  1.00  0.00     0.124 S 
ATOM     75  O   UNL A   1      47.825  26.432  38.577  1.00  0.00    -0.237 OA
ATOM     76  O   UNL A   1      47.483  24.594  36.961  1.00  0.00    -0.237 OA
ATOM     77  O   UNL A   1      49.034  26.434  36.425  1.00  0.00    -0.744 OA
ENDBRANCH  73  74
ENDBRANCH  52  66
BRANCH  53  78
ATOM     78  C   UNL A   1      36.758  33.074  30.878  1.00  0.00     0.058 A 
ATOM     79  C   UNL A   1      35.435  32.688  31.137  1.00  0.00     0.135 A 
ATOM     80  C   UNL A   1      36.964  34.136  29.982  1.00  0.00     0.135 A 
ATOM     81  F   UNL A   1      35.184  31.673  31.976  1.00  0.00    -0.206 F 
ATOM     82  C   UNL A   1      34.357  33.316  30.519  1.00  0.00     0.059 A 
ATOM     83  C   UNL A   1      35.903  34.798  29.375  1.00  0.00     0.059 A 
ATOM     84  F   UNL A   1      38.210  34.551  29.706  1.00  0.00    -0.206 F 
ATOM     85  C   UNL A   1      34.603  34.374  29.641  1.00  0.00     0.060 A 
BRANCH  85  86
ATOM     86  S   UNL A   1      33.195  35.212  28.879  1.00  0.00     0.124 S 
ATOM     87  O   UNL A   1      32.600  34.136  28.097  1.00  0.00    -0.237 OA
ATOM     88  O   UNL A   1      32.436  35.651  30.045  1.00  0.00    -0.237 OA
ATOM     89  O   UNL A   1      33.820  36.282  28.108  1.00  0.00    -0.744 OA
ENDBRANCH  85  86
ENDBRANCH  53  78
BRANCH  65  90
ATOM     90  C   UNL A   1      39.743  33.535  37.174  1.00  0.00     0.058 A 
ATOM     91  C   UNL A   1      40.432  34.743  37.369  1.00  0.00     0.135 A 
ATOM     92  C   UNL A   1      38.761  33.185  38.116  1.00  0.00     0.135 A 
ATOM     93  F   UNL A   1      41.381  35.128  36.500  1.00  0.00    -0.206 F 
ATOM     94  C   UNL A   1      40.191  35.547  38.478  1.00  0.00     0.059 A 
ATOM     95  C   UNL A   1      38.478  33.992  39.213  1.00  0.00     0.059 A 
ATOM     96  F   UNL A   1      38.058  32.050  37.971  1.00  0.00    -0.206 F 
ATOM     97  C   UNL A   1      39.213  35.161  39.397  1.00  0.00     0.060 A 
BRANCH  97  98
ATOM     98  S   UNL A   1      38.909  36.212  40.832  1.00  0.00     0.124 S 
ATOM     99  O   UNL A   1      38.495  37.460  40.200  1.00  0.00    -0.237 OA
ATOM    100  O   UNL A   1      37.863  35.481  41.540  1.00  0.00    -0.237 OA
ATOM    101  O   UNL A   1      40.204  36.250  41.507  1.00  0.00    -0.744 OA
ENDBRANCH  97  98
ENDBRANCH  65  90
ENDBRANCH  39  40
ENDBRANCH  32  34
ENDBRANCH  31  32
ENDBRANCH  30  31
ENDBRANCH  29  30
ENDBRANCH  28  29
ENDBRANCH  27  28
ENDBRANCH   1  27
TORSDOF 25
ENDMDL
MODEL 2
REMARK VINA RESULT:      -9.5      1.272      2.462
REMARK SMILES C[C@H]1[C@H](C(=O)OCCOCCOCCOCCOC(=O)c2ccc(-c3c4nc(c(-c5c(F)cc(S(=O)(=O)[O-])cc5F)c5ccc([nH]5)c(-c5c(F)cc(S(=O)(=O)[O-])cc5F)c5nc(c(-c6c(F)cc(S(=O)(=O)[O-])cc6F)c6ccc3[nH]6)C=C5)C=C4)cc2)CC[N@@H+]1Cc1ccc(Br)cc1F
REMARK SMILES IDX 13 1 12 2 11 3 10 4 9 5 8 6 7 7 6 8 4 9 5 10 3 11 1 12 2 13
REMARK SMILES IDX 89 14 87 15 88 16 90 18 91 19 92 20 97 21 93 22 96 23 98 24
REMARK SMILES IDX 94 25 95 26 14 27 15 28 16 29 17 30 18 31 19 32 20 33 21 34
REMARK SMILES IDX 22 35 86 36 23 37 85 38 24 39 25 40 26 41 79 42 27 43 84 44
REMARK SMILES IDX 78 45 80 46 28 47 83 48 77 49 76 50 29 52 63 53 42 54 62 55
REMARK SMILES IDX 43 56 46 57 61 58 81 59 44 60 45 61 60 63 82 64 47 65 30 66
REMARK SMILES IDX 31 67 40 68 32 69 33 70 39 71 41 72 34 73 35 74 36 75 37 76
REMARK SMILES IDX 38 77 64 78 65 79 74 80 66 81 67 82 73 83 75 84 68 85 69 86
REMARK SMILES IDX 70 87 71 88 72 89 48 90 49 91 58 92 50 93 51 94 57 95 59 96
REMARK SMILES IDX 52 97 53 98 54 99 55 100 56 101
REMARK H PARENT 89 17 80 51 46 62
REMARK Flexibility Score: inf
ROOT
ATOM      1  C   UNL A   1      40.976  20.936  27.577  1.00  0.00     0.188 C 
ENDROOT
BRANCH   1   2
ATOM      2  O   UNL A   1      41.085  19.891  26.638  1.00  0.00    -0.377 OA
BRANCH   2   3
ATOM      3  C   UNL A   1      39.966  19.748  25.804  1.00  0.00     0.188 C 
BRANCH   3   4
ATOM      4  C   UNL A   1      38.908  20.844  25.642  1.00  0.00     0.188 C 
BRANCH   4   5
ATOM      5  O   UNL A   1      37.598  20.536  25.203  1.00  0.00    -0.376 OA
BRANCH   5   6
ATOM      6  C   UNL A   1      36.508  21.434  25.286  1.00  0.00     0.202 C 
BRANCH   6   7
ATOM      7  C   UNL A   1      35.035  21.000  25.415  1.00  0.00     0.261 C 
BRANCH   7   8
ATOM      8  O   UNL A   1      34.144  21.363  24.346  1.00  0.00    -0.463 OA
BRANCH   8   9
ATOM      9  C   UNL A   1      33.283  22.372  24.597  1.00  0.00     0.315 C 
ATOM     10  O   UNL A   1      32.258  22.239  25.260  1.00  0.00    -0.252 OA
BRANCH   9  11
ATOM     11  C   UNL A   1      33.653  23.726  23.996  1.00  0.00     0.162 C 
ATOM     12  C   UNL A   1      33.062  24.970  21.871  1.00  0.00     0.076 C 
ATOM     13  C   UNL A   1      32.627  24.652  23.317  1.00  0.00     0.195 C 
ATOM     14  N   UNL A   1      32.636  25.929  24.034  1.00  0.00    -0.328 N 
ATOM     15  C   UNL A   1      34.299  24.578  25.079  1.00  0.00     0.083 C 
ATOM     16  C   UNL A   1      33.877  26.005  24.785  1.00  0.00     0.263 C 
ATOM     17  H   UNL A   1      32.627  26.691  23.356  1.00  0.00     0.348 HD
BRANCH  14  18
ATOM     18  C   UNL A   1      31.401  26.289  24.743  1.00  0.00     0.302 C 
BRANCH  18  19
ATOM     19  C   UNL A   1      30.548  27.408  24.192  1.00  0.00     0.042 A 
ATOM     20  C   UNL A   1      30.972  28.747  24.287  1.00  0.00     0.014 A 
ATOM     21  C   UNL A   1      29.297  27.158  23.621  1.00  0.00     0.133 A 
ATOM     22  C   UNL A   1      30.177  29.787  23.794  1.00  0.00     0.016 A 
ATOM     23  C   UNL A   1      28.511  28.180  23.099  1.00  0.00     0.055 A 
ATOM     24  F   UNL A   1      28.821  25.906  23.571  1.00  0.00    -0.206 F 
ATOM     25  C   UNL A   1      28.956  29.494  23.190  1.00  0.00     0.020 A 
ATOM     26  Br  UNL A   1      27.904  30.890  22.473  1.00  0.00    -0.051 Br
ENDBRANCH  18  19
ENDBRANCH  14  18
ENDBRANCH   9  11
ENDBRANCH   8   9
ENDBRANCH   7   8
ENDBRANCH   6   7
ENDBRANCH   5   6
ENDBRANCH   4   5
ENDBRANCH   3   4
ENDBRANCH   2   3
ENDBRANCH   1   2
BRANCH   1  27
ATOM     27  C   UNL A   1      42.041  21.990  27.305  1.00  0.00     0.188 C 
BRANCH  27  28
ATOM     28  O   UNL A   1      41.917  22.673  26.072  1.00  0.00    -0.376 OA
BRANCH  28  29
ATOM     29  C   UNL A   1      43.018  22.894  25.198  1.00  0.00     0.202 C 
BRANCH  29  30
ATOM     30  C   UNL A   1      43.753  24.222  24.873  1.00  0.00     0.261 C 
BRANCH  30  31
ATOM     31  O   UNL A   1      43.635  25.350  25.739  1.00  0.00    -0.460 OA
BRANCH  31  32
ATOM     32  C   UNL A   1      44.053  25.197  27.008  1.00  0.00     0.338 C 
ATOM     33  O   UNL A   1      45.012  24.549  27.391  1.00  0.00    -0.246 OA
BRANCH  32  34
ATOM     34  C   UNL A   1      43.262  26.127  27.844  1.00  0.00     0.060 A 
ATOM     35  C   UNL A   1      43.672  27.464  27.911  1.00  0.00     0.016 A 
ATOM     36  C   UNL A   1      42.125  25.698  28.539  1.00  0.00     0.016 A 
ATOM     37  C   UNL A   1      42.989  28.363  28.722  1.00  0.00     0.010 A 
ATOM     38  C   UNL A   1      41.457  26.594  29.380  1.00  0.00     0.010 A 
ATOM     39  C   UNL A   1      41.923  27.915  29.512  1.00  0.00    -0.014 A 
BRANCH  39  40
ATOM     40  C   UNL A   1      41.511  28.759  30.659  1.00  0.00     0.031 A 
ATOM     41  C   UNL A   1      42.332  28.675  31.919  1.00  0.00     0.074 A 
ATOM     42  C   UNL A   1      40.506  29.645  30.554  1.00  0.00     0.049 A 
ATOM     43  N   UNL A   1      42.217  29.349  33.032  1.00  0.00    -0.248 NA
ATOM     44  C   UNL A   1      43.439  27.702  31.917  1.00  0.00     0.031 C 
ATOM     45  C   UNL A   1      39.677  29.849  29.367  1.00  0.00     0.029 A 
ATOM     46  N   UNL A   1      40.022  30.550  31.463  1.00  0.00    -0.354 N 
ATOM     47  C   UNL A   1      43.232  28.883  33.861  1.00  0.00     0.074 A 
ATOM     48  C   UNL A   1      43.927  27.840  33.139  1.00  0.00     0.031 C 
ATOM     49  C   UNL A   1      38.780  30.818  29.625  1.00  0.00     0.029 A 
ATOM     50  C   UNL A   1      38.959  31.286  30.999  1.00  0.00     0.049 A 
ATOM     51  H   UNL A   1      40.400  30.661  32.366  1.00  0.00     0.167 HD
ATOM     52  C   UNL A   1      43.566  29.295  35.106  1.00  0.00     0.037 A 
ATOM     53  C   UNL A   1      38.213  32.221  31.621  1.00  0.00     0.037 A 
ATOM     54  C   UNL A   1      42.869  30.332  35.818  1.00  0.00     0.049 A 
ATOM     55  C   UNL A   1      38.562  32.618  33.034  1.00  0.00     0.074 A 
ATOM     56  C   UNL A   1      43.127  30.830  37.082  1.00  0.00     0.029 A 
ATOM     57  N   UNL A   1      41.768  31.024  35.332  1.00  0.00    -0.354 N 
ATOM     58  N   UNL A   1      39.536  32.183  33.801  1.00  0.00    -0.248 NA
ATOM     59  C   UNL A   1      37.718  33.644  33.663  1.00  0.00     0.031 C 
ATOM     60  C   UNL A   1      42.148  31.783  37.383  1.00  0.00     0.029 A 
ATOM     61  C   UNL A   1      41.321  31.928  36.280  1.00  0.00     0.049 A 
ATOM     62  H   UNL A   1      41.367  30.892  34.443  1.00  0.00     0.167 HD
ATOM     63  C   UNL A   1      39.441  32.905  34.987  1.00  0.00     0.074 A 
ATOM     64  C   UNL A   1      38.324  33.815  34.829  1.00  0.00     0.031 C 
ATOM     65  C   UNL A   1      40.208  32.829  36.104  1.00  0.00     0.037 A 
BRANCH  52  66
ATOM     66  C   UNL A   1      44.715  28.599  35.784  1.00  0.00     0.058 A 
ATOM     67  C   UNL A   1      44.528  27.469  36.594  1.00  0.00     0.135 A 
ATOM     68  C   UNL A   1      46.030  29.062  35.603  1.00  0.00     0.135 A 
ATOM     69  F   UNL A   1      43.291  26.997  36.823  1.00  0.00    -0.206 F 
ATOM     70  C   UNL A   1      45.596  26.837  37.223  1.00  0.00     0.059 A 
ATOM     71  C   UNL A   1      47.117  28.428  36.195  1.00  0.00     0.059 A 
ATOM     72  F   UNL A   1      46.266  30.144  34.845  1.00  0.00    -0.206 F 
ATOM     73  C   UNL A   1      46.889  27.324  37.014  1.00  0.00     0.060 A 
BRANCH  73  74
ATOM     74  S   UNL A   1      48.266  26.487  37.827  1.00  0.00     0.124 S 
ATOM     75  O   UNL A   1      48.430  25.307  36.984  1.00  0.00    -0.237 OA
ATOM     76  O   UNL A   1      49.329  27.483  37.738  1.00  0.00    -0.237 OA
ATOM     77  O   UNL A   1      47.763  26.231  39.173  1.00  0.00    -0.744 OA
ENDBRANCH  73  74
ENDBRANCH  52  66
BRANCH  53  78
ATOM     78  C   UNL A   1      37.061  32.846  30.915  1.00  0.00     0.058 A 
ATOM     79  C   UNL A   1      37.252  33.790  29.895  1.00  0.00     0.135 A 
ATOM     80  C   UNL A   1      35.739  32.518  31.259  1.00  0.00     0.135 A 
ATOM     81  F   UNL A   1      38.494  34.148  29.536  1.00  0.00    -0.206 F 
ATOM     82  C   UNL A   1      36.178  34.399  29.253  1.00  0.00     0.059 A 
ATOM     83  C   UNL A   1      34.650  33.090  30.613  1.00  0.00     0.059 A 
ATOM     84  F   UNL A   1      35.501  31.614  32.222  1.00  0.00    -0.206 F 
ATOM     85  C   UNL A   1      34.879  34.039  29.617  1.00  0.00     0.060 A 
BRANCH  85  86
ATOM     86  S   UNL A   1      33.492  34.801  28.747  1.00  0.00     0.124 S 
ATOM     87  O   UNL A   1      34.081  36.055  28.295  1.00  0.00    -0.237 OA
ATOM     88  O   UNL A   1      33.207  33.817  27.708  1.00  0.00    -0.237 OA
ATOM     89  O   UNL A   1      32.471  34.921  29.783  1.00  0.00    -0.744 OA
ENDBRANCH  85  86
ENDBRANCH  53  78
BRANCH  65  90
ATOM     90  C   UNL A   1      39.898  33.785  37.226  1.00  0.00     0.058 A 
ATOM     91  C   UNL A   1      38.978  33.472  38.240  1.00  0.00     0.135 A 
ATOM     92  C   UNL A   1      40.558  35.023  37.304  1.00  0.00     0.135 A 
ATOM     93  F   UNL A   1      38.319  32.302  38.217  1.00  0.00    -0.206 F 
ATOM     94  C   UNL A   1      38.689  34.370  39.263  1.00  0.00     0.059 A 
ATOM     95  C   UNL A   1      40.311  35.921  38.338  1.00  0.00     0.059 A 
ATOM     96  F   UNL A   1      41.461  35.369  36.373  1.00  0.00    -0.206 F 
ATOM     97  C   UNL A   1      39.359  35.594  39.300  1.00  0.00     0.060 A 
BRANCH  97  98
ATOM     98  S   UNL A   1      38.974  36.751  40.632  1.00  0.00     0.124 S 
ATOM     99  O   UNL A   1      40.306  37.090  41.120  1.00  0.00    -0.237 OA
ATOM    100  O   UNL A   1      38.266  37.816  39.927  1.00  0.00    -0.237 OA
ATOM    101  O   UNL A   1      38.154  35.959  41.544  1.00  0.00    -0.744 OA
ENDBRANCH  97  98
ENDBRANCH  65  90
ENDBRANCH  39  40
ENDBRANCH  32  34
ENDBRANCH  31  32
ENDBRANCH  30  31
ENDBRANCH  29  30
ENDBRANCH  28  29
ENDBRANCH  27  28
ENDBRANCH   1  27
TORSDOF 25
ENDMDL
MODEL 3
REMARK VINA RESULT:      -8.5      4.430      7.734
REMARK SMILES C[C@H]1[C@H](C(=O)OCCOCCOCCOCCOC(=O)c2ccc(-c3c4nc(c(-c5c(F)cc(S(=O)(=O)[O-])cc5F)c5ccc([nH]5)c(-c5c(F)cc(S(=O)(=O)[O-])cc5F)c5nc(c(-c6c(F)cc(S(=O)(=O)[O-])cc6F)c6ccc3[nH]6)C=C5)C=C4)cc2)CC[N@@H+]1Cc1ccc(Br)cc1F
REMARK SMILES IDX 13 1 12 2 11 3 10 4 9 5 8 6 7 7 6 8 4 9 5 10 3 11 1 12 2 13
REMARK SMILES IDX 89 14 87 15 88 16 90 18 91 19 92 20 97 21 93 22 96 23 98 24
REMARK SMILES IDX 94 25 95 26 14 27 15 28 16 29 17 30 18 31 19 32 20 33 21 34
REMARK SMILES IDX 22 35 86 36 23 37 85 38 24 39 25 40 26 41 79 42 27 43 84 44
REMARK SMILES IDX 78 45 80 46 28 47 83 48 77 49 76 50 29 52 63 53 42 54 62 55
REMARK SMILES IDX 43 56 46 57 61 58 81 59 44 60 45 61 60 63 82 64 47 65 30 66
REMARK SMILES IDX 31 67 40 68 32 69 33 70 39 71 41 72 34 73 35 74 36 75 37 76
REMARK SMILES IDX 38 77 64 78 65 79 74 80 66 81 67 82 73 83 75 84 68 85 69 86
REMARK SMILES IDX 70 87 71 88 72 89 48 90 49 91 58 92 50 93 51 94 57 95 59 96
REMARK SMILES IDX 52 97 53 98 54 99 55 100 56 101
REMARK H PARENT 89 17 80 51 46 62
REMARK Flexibility Score: inf
ROOT
ATOM      1  C   UNL A   1      48.533  25.980  24.308  1.00  0.00     0.188 C 
ENDROOT
BRANCH   1   2
ATOM      2  O   UNL A   1      48.805  27.073  25.154  1.00  0.00    -0.377 OA
BRANCH   2   3
ATOM      3  C   UNL A   1      50.115  27.100  25.657  1.00  0.00     0.188 C 
BRANCH   3   4
ATOM      4  C   UNL A   1      50.752  28.364  26.242  1.00  0.00     0.188 C 
BRANCH   4   5
ATOM      5  O   UNL A   1      49.964  29.492  26.576  1.00  0.00    -0.376 OA
BRANCH   5   6
ATOM      6  C   UNL A   1      49.212  29.602  27.769  1.00  0.00     0.202 C 
BRANCH   6   7
ATOM      7  C   UNL A   1      47.791  29.039  27.953  1.00  0.00     0.261 C 
BRANCH   7   8
ATOM      8  O   UNL A   1      46.993  29.592  29.015  1.00  0.00    -0.463 OA
BRANCH   8   9
ATOM      9  C   UNL A   1      45.668  29.339  28.966  1.00  0.00     0.315 C 
ATOM     10  O   UNL A   1      45.183  28.380  28.371  1.00  0.00    -0.252 OA
BRANCH   9  11
ATOM     11  C   UNL A   1      44.774  30.335  29.702  1.00  0.00     0.162 C 
ATOM     12  C   UNL A   1      45.091  31.957  31.619  1.00  0.00     0.076 C 
ATOM     13  C   UNL A   1      45.241  31.748  30.098  1.00  0.00     0.195 C 
ATOM     14  N   UNL A   1      44.335  32.710  29.465  1.00  0.00    -0.328 N 
ATOM     15  C   UNL A   1      43.511  30.551  28.881  1.00  0.00     0.083 C 
ATOM     16  C   UNL A   1      43.122  32.000  29.101  1.00  0.00     0.263 C 
ATOM     17  H   UNL A   1      44.091  33.432  30.142  1.00  0.00     0.348 HD
BRANCH  14  18
ATOM     18  C   UNL A   1      44.926  33.592  28.449  1.00  0.00     0.302 C 
BRANCH  18  19
ATOM     19  C   UNL A   1      44.188  34.854  28.068  1.00  0.00     0.042 A 
ATOM     20  C   UNL A   1      44.154  35.957  28.941  1.00  0.00     0.014 A 
ATOM     21  C   UNL A   1      43.478  34.948  26.867  1.00  0.00     0.133 A 
ATOM     22  C   UNL A   1      43.457  37.121  28.598  1.00  0.00     0.016 A 
ATOM     23  C   UNL A   1      42.807  36.111  26.501  1.00  0.00     0.055 A 
ATOM     24  F   UNL A   1      43.425  33.900  26.035  1.00  0.00    -0.206 F 
ATOM     25  C   UNL A   1      42.799  37.195  27.372  1.00  0.00     0.020 A 
ATOM     26  Br  UNL A   1      41.903  38.784  26.881  1.00  0.00    -0.051 Br
ENDBRANCH  18  19
ENDBRANCH  14  18
ENDBRANCH   9  11
ENDBRANCH   8   9
ENDBRANCH   7   8
ENDBRANCH   6   7
ENDBRANCH   5   6
ENDBRANCH   4   5
ENDBRANCH   3   4
ENDBRANCH   2   3
ENDBRANCH   1   2
BRANCH   1  27
ATOM     27  C   UNL A   1      47.126  25.459  24.571  1.00  0.00     0.188 C 
BRANCH  27  28
ATOM     28  O   UNL A   1      46.843  24.181  24.035  1.00  0.00    -0.376 OA
BRANCH  28  29
ATOM     29  C   UNL A   1      46.076  23.204  24.729  1.00  0.00     0.202 C 
BRANCH  29  30
ATOM     30  C   UNL A   1      44.627  22.723  24.451  1.00  0.00     0.261 C 
BRANCH  30  31
ATOM     31  O   UNL A   1      43.521  23.607  24.626  1.00  0.00    -0.460 OA
BRANCH  31  32
ATOM     32  C   UNL A   1      42.478  23.151  25.341  1.00  0.00     0.338 C 
ATOM     33  O   UNL A   1      42.063  22.005  25.385  1.00  0.00    -0.246 OA
BRANCH  32  34
ATOM     34  C   UNL A   1      42.044  24.250  26.233  1.00  0.00     0.060 A 
ATOM     35  C   UNL A   1      42.727  25.470  26.153  1.00  0.00     0.016 A 
ATOM     36  C   UNL A   1      40.975  24.092  27.121  1.00  0.00     0.016 A 
ATOM     37  C   UNL A   1      42.387  26.515  27.004  1.00  0.00     0.010 A 
ATOM     38  C   UNL A   1      40.654  25.132  28.000  1.00  0.00     0.010 A 
ATOM     39  C   UNL A   1      41.397  26.326  27.977  1.00  0.00    -0.014 A 
BRANCH  39  40
ATOM     40  C   UNL A   1      41.363  27.269  29.120  1.00  0.00     0.031 A 
ATOM     41  C   UNL A   1      42.440  27.139  30.165  1.00  0.00     0.074 A 
ATOM     42  C   UNL A   1      40.469  28.271  29.178  1.00  0.00     0.049 A 
ATOM     43  N   UNL A   1      42.666  27.874  31.221  1.00  0.00    -0.248 NA
ATOM     44  C   UNL A   1      43.398  26.033  29.987  1.00  0.00     0.031 C 
ATOM     45  C   UNL A   1      39.415  28.524  28.197  1.00  0.00     0.029 A 
ATOM     46  N   UNL A   1      40.318  29.272  30.102  1.00  0.00    -0.354 N 
ATOM     47  C   UNL A   1      43.787  27.321  31.832  1.00  0.00     0.074 A 
ATOM     48  C   UNL A   1      44.170  26.165  31.053  1.00  0.00     0.031 C 
ATOM     49  C   UNL A   1      38.720  29.611  28.577  1.00  0.00     0.029 A 
ATOM     50  C   UNL A   1      39.267  30.117  29.836  1.00  0.00     0.049 A 
ATOM     51  H   UNL A   1      40.906  29.376  30.885  1.00  0.00     0.167 HD
ATOM     52  C   UNL A   1      44.447  27.745  32.934  1.00  0.00     0.037 A 
ATOM     53  C   UNL A   1      38.799  31.168  30.538  1.00  0.00     0.037 A 
ATOM     54  C   UNL A   1      44.058  28.895  33.706  1.00  0.00     0.049 A 
ATOM     55  C   UNL A   1      39.510  31.582  31.802  1.00  0.00     0.074 A 
ATOM     56  C   UNL A   1      44.659  29.415  34.838  1.00  0.00     0.029 A 
ATOM     57  N   UNL A   1      42.961  29.700  33.430  1.00  0.00    -0.354 N 
ATOM     58  N   UNL A   1      40.580  31.062  32.359  1.00  0.00    -0.248 NA
ATOM     59  C   UNL A   1      38.959  32.737  32.525  1.00  0.00     0.031 C 
ATOM     60  C   UNL A   1      43.892  30.499  35.279  1.00  0.00     0.029 A 
ATOM     61  C   UNL A   1      42.853  30.697  34.384  1.00  0.00     0.049 A 
ATOM     62  H   UNL A   1      42.350  29.579  32.667  1.00  0.00     0.167 HD
ATOM     63  C   UNL A   1      40.847  31.846  33.478  1.00  0.00     0.074 A 
ATOM     64  C   UNL A   1      39.836  32.883  33.509  1.00  0.00     0.031 C 
ATOM     65  C   UNL A   1      41.840  31.724  34.396  1.00  0.00     0.037 A 
BRANCH  52  66
ATOM     66  C   UNL A   1      45.635  26.940  33.387  1.00  0.00     0.058 A 
ATOM     67  C   UNL A   1      45.508  25.858  34.271  1.00  0.00     0.135 A 
ATOM     68  C   UNL A   1      46.921  27.247  32.909  1.00  0.00     0.135 A 
ATOM     69  F   UNL A   1      44.308  25.535  34.780  1.00  0.00    -0.206 F 
ATOM     70  C   UNL A   1      46.615  25.125  34.689  1.00  0.00     0.059 A 
ATOM     71  C   UNL A   1      48.037  26.508  33.287  1.00  0.00     0.059 A 
ATOM     72  F   UNL A   1      47.100  28.276  32.068  1.00  0.00    -0.206 F 
ATOM     73  C   UNL A   1      47.876  25.457  34.188  1.00  0.00     0.060 A 
BRANCH  73  74
ATOM     74  S   UNL A   1      49.300  24.489  34.729  1.00  0.00     0.124 S 
ATOM     75  O   UNL A   1      49.614  23.730  33.523  1.00  0.00    -0.237 OA
ATOM     76  O   UNL A   1      50.260  25.527  35.092  1.00  0.00    -0.237 OA
ATOM     77  O   UNL A   1      48.777  23.707  35.844  1.00  0.00    -0.744 OA
ENDBRANCH  73  74
ENDBRANCH  52  66
BRANCH  53  78
ATOM     78  C   UNL A   1      37.592  31.902  30.065  1.00  0.00     0.058 A 
ATOM     79  C   UNL A   1      37.701  33.102  29.348  1.00  0.00     0.135 A 
ATOM     80  C   UNL A   1      36.301  31.419  30.336  1.00  0.00     0.135 A 
ATOM     81  F   UNL A   1      38.910  33.613  29.073  1.00  0.00    -0.206 F 
ATOM     82  C   UNL A   1      36.575  33.807  28.930  1.00  0.00     0.059 A 
ATOM     83  C   UNL A   1      35.163  32.089  29.904  1.00  0.00     0.059 A 
ATOM     84  F   UNL A   1      36.141  30.270  31.011  1.00  0.00    -0.206 F 
ATOM     85  C   UNL A   1      35.309  33.289  29.210  1.00  0.00     0.060 A 
BRANCH  85  86
ATOM     86  S   UNL A   1      33.856  34.188  28.624  1.00  0.00     0.124 S 
ATOM     87  O   UNL A   1      33.199  34.535  29.878  1.00  0.00    -0.237 OA
ATOM     88  O   UNL A   1      34.460  35.296  27.891  1.00  0.00    -0.237 OA
ATOM     89  O   UNL A   1      33.163  33.204  27.799  1.00  0.00    -0.744 OA
ENDBRANCH  85  86
ENDBRANCH  53  78
BRANCH  65  90
ATOM     90  C   UNL A   1      41.912  32.764  35.484  1.00  0.00     0.058 A 
ATOM     91  C   UNL A   1      41.234  32.614  36.705  1.00  0.00     0.135 A 
ATOM     92  C   UNL A   1      42.698  33.916  35.312  1.00  0.00     0.135 A 
ATOM     93  F   UNL A   1      40.469  31.532  36.924  1.00  0.00    -0.206 F 
ATOM     94  C   UNL A   1      41.296  33.589  37.696  1.00  0.00     0.059 A 
ATOM     95  C   UNL A   1      42.803  34.886  36.303  1.00  0.00     0.059 A 
ATOM     96  F   UNL A   1      43.382  34.104  34.172  1.00  0.00    -0.206 F 
ATOM     97  C   UNL A   1      42.081  34.724  37.483  1.00  0.00     0.060 A 
BRANCH  97  98
ATOM     98  S   UNL A   1      42.152  35.981  38.776  1.00  0.00     0.124 S 
ATOM     99  O   UNL A   1      43.526  35.841  39.247  1.00  0.00    -0.237 OA
ATOM    100  O   UNL A   1      41.855  37.206  38.038  1.00  0.00    -0.237 OA
ATOM    101  O   UNL A   1      41.119  35.560  39.719  1.00  0.00    -0.744 OA
ENDBRANCH  97  98
ENDBRANCH  65  90
ENDBRANCH  39  40
ENDBRANCH  32  34
ENDBRANCH  31  32
ENDBRANCH  30  31
ENDBRANCH  29  30
ENDBRANCH  28  29
ENDBRANCH  27  28
ENDBRANCH   1  27
TORSDOF 25
ENDMDL
