MODEL 1
REMARK VINA RESULT:      -9.6      0.000      0.000
REMARK SMILES C[C@@H]1OCC[C@H]1C(=O)N[C@]1(C(=O)OCCOCCOCCOCCOC(=O)c2ccc(-c3c4nc(c(-c5c(F)cc(S(=O)(=O)[O-])cc5F)c5ccc([nH]5)c(-c5c(F)cc(S(=O)(=O)[O-])cc5F)c5nc(c(-c6c(F)cc(S(=O)(=O)[O-])cc6F)c6ccc3[nH]6)C=C5)C=C4)cc2)CCOC1
REMARK SMILES IDX 20 1 19 2 18 3 17 4 16 5 15 6 14 7 13 8 11 9 12 10 10 11
REMARK SMILES IDX 94 12 97 13 95 14 96 15 9 16 7 17 8 18 6 20 1 21 2 22 3 23
REMARK SMILES IDX 4 24 5 25 21 26 22 27 23 28 24 29 25 30 26 31 27 32 28 33
REMARK SMILES IDX 29 34 93 35 30 36 92 37 31 38 32 39 33 40 86 41 34 42 91 43
REMARK SMILES IDX 85 44 87 45 35 46 90 47 84 48 83 49 36 51 70 52 49 53 69 54
REMARK SMILES IDX 50 55 53 56 68 57 88 58 51 59 52 60 67 62 89 63 54 64 37 65
REMARK SMILES IDX 38 66 47 67 39 68 40 69 46 70 48 71 41 72 42 73 43 74 44 75
REMARK SMILES IDX 45 76 71 77 72 78 81 79 73 80 74 81 80 82 82 83 75 84 76 85
REMARK SMILES IDX 77 86 78 87 79 88 55 89 56 90 65 91 57 92 58 93 64 94 66 95
REMARK SMILES IDX 59 96 60 97 61 98 62 99 63 100
REMARK H PARENT 9 19 87 50 53 61
REMARK Flexibility Score: inf
ROOT
ATOM      1  C   UNL A   1      41.223  20.964  26.367  1.00  0.00     0.188 C 
ENDROOT
BRANCH   1   2
ATOM      2  O   UNL A   1      40.385  21.976  25.814  1.00  0.00    -0.377 OA
BRANCH   2   3
ATOM      3  C   UNL A   1      39.276  22.284  26.629  1.00  0.00     0.188 C 
BRANCH   3   4
ATOM      4  C   UNL A   1      38.021  22.480  25.785  1.00  0.00     0.188 C 
BRANCH   4   5
ATOM      5  O   UNL A   1      37.490  21.346  25.092  1.00  0.00    -0.376 OA
BRANCH   5   6
ATOM      6  C   UNL A   1      36.114  20.953  25.201  1.00  0.00     0.202 C 
BRANCH   6   7
ATOM      7  C   UNL A   1      34.986  21.668  24.421  1.00  0.00     0.261 C 
BRANCH   7   8
ATOM      8  O   UNL A   1      34.040  22.330  25.268  1.00  0.00    -0.461 OA
BRANCH   8   9
ATOM      9  C   UNL A   1      33.284  23.334  24.739  1.00  0.00     0.334 C 
ATOM     10  O   UNL A   1      33.430  23.810  23.622  1.00  0.00    -0.249 OA
BRANCH   9  11
ATOM     11  C   UNL A   1      32.212  23.798  25.750  1.00  0.00     0.163 C 
ATOM     12  C   UNL A   1      30.798  23.251  25.481  1.00  0.00     0.071 C 
ATOM     13  C   UNL A   1      32.538  22.946  27.001  1.00  0.00     0.200 C 
ATOM     14  C   UNL A   1      30.242  22.810  26.821  1.00  0.00     0.163 C 
ATOM     15  O   UNL A   1      31.317  22.855  27.757  1.00  0.00    -0.378 OA
BRANCH  11  16
ATOM     16  N   UNL A   1      32.181  25.242  26.228  1.00  0.00    -0.338 N 
ATOM     17  C   UNL A   1      31.462  26.367  25.991  1.00  0.00     0.226 C 
ATOM     18  O   UNL A   1      30.837  26.790  26.978  1.00  0.00    -0.275 OA
ATOM     19  H   UNL A   1      32.880  25.406  26.901  1.00  0.00     0.164 HD
BRANCH  17  20
ATOM     20  C   UNL A   1      31.428  27.238  24.719  1.00  0.00     0.109 C 
ATOM     21  C   UNL A   1      30.726  29.426  23.550  1.00  0.00     0.039 C 
ATOM     22  C   UNL A   1      31.164  28.732  24.849  1.00  0.00     0.127 C 
ATOM     23  O   UNL A   1      32.447  29.303  25.073  1.00  0.00    -0.378 OA
ATOM     24  C   UNL A   1      33.392  28.431  24.463  1.00  0.00     0.161 C 
ATOM     25  C   UNL A   1      32.719  27.189  23.951  1.00  0.00     0.044 C 
ENDBRANCH  17  20
ENDBRANCH  11  16
ENDBRANCH   9  11
ENDBRANCH   8   9
ENDBRANCH   7   8
ENDBRANCH   6   7
ENDBRANCH   5   6
ENDBRANCH   4   5
ENDBRANCH   3   4
ENDBRANCH   2   3
ENDBRANCH   1   2
BRANCH   1  26
ATOM     26  C   UNL A   1      42.771  21.082  26.243  1.00  0.00     0.188 C 
BRANCH  26  27
ATOM     27  O   UNL A   1      43.199  21.647  25.018  1.00  0.00    -0.376 OA
BRANCH  27  28
ATOM     28  C   UNL A   1      43.569  22.998  24.862  1.00  0.00     0.202 C 
BRANCH  28  29
ATOM     29  C   UNL A   1      43.549  24.013  26.014  1.00  0.00     0.261 C 
BRANCH  29  30
ATOM     30  O   UNL A   1      42.279  24.496  26.443  1.00  0.00    -0.460 OA
BRANCH  30  31
ATOM     31  C   UNL A   1      41.944  25.762  26.106  1.00  0.00     0.338 C 
ATOM     32  O   UNL A   1      41.532  26.138  25.020  1.00  0.00    -0.246 OA
BRANCH  31  33
ATOM     33  C   UNL A   1      41.888  26.549  27.365  1.00  0.00     0.060 A 
ATOM     34  C   UNL A   1      40.924  26.200  28.326  1.00  0.00     0.016 A 
ATOM     35  C   UNL A   1      42.874  27.497  27.669  1.00  0.00     0.016 A 
ATOM     36  C   UNL A   1      40.922  26.821  29.575  1.00  0.00     0.010 A 
ATOM     37  C   UNL A   1      42.849  28.147  28.904  1.00  0.00     0.010 A 
ATOM     38  C   UNL A   1      41.841  27.845  29.838  1.00  0.00    -0.014 A 
BRANCH  38  39
ATOM     39  C   UNL A   1      41.501  28.863  30.859  1.00  0.00     0.031 A 
ATOM     40  C   UNL A   1      42.335  28.830  32.114  1.00  0.00     0.074 A 
ATOM     41  C   UNL A   1      40.518  29.764  30.702  1.00  0.00     0.049 A 
ATOM     42  N   UNL A   1      42.196  29.496  33.227  1.00  0.00    -0.248 NA
ATOM     43  C   UNL A   1      43.480  27.900  32.111  1.00  0.00     0.031 C 
ATOM     44  C   UNL A   1      39.692  29.931  29.508  1.00  0.00     0.029 A 
ATOM     45  N   UNL A   1      40.039  30.708  31.577  1.00  0.00    -0.354 N 
ATOM     46  C   UNL A   1      43.225  29.056  34.052  1.00  0.00     0.074 A 
ATOM     47  C   UNL A   1      43.961  28.046  33.332  1.00  0.00     0.031 C 
ATOM     48  C   UNL A   1      38.791  30.906  29.734  1.00  0.00     0.029 A 
ATOM     49  C   UNL A   1      38.951  31.402  31.102  1.00  0.00     0.049 A 
ATOM     50  H   UNL A   1      40.438  30.874  32.461  1.00  0.00     0.167 HD
ATOM     51  C   UNL A   1      43.534  29.463  35.302  1.00  0.00     0.037 A 
ATOM     52  C   UNL A   1      38.165  32.305  31.722  1.00  0.00     0.037 A 
ATOM     53  C   UNL A   1      42.787  30.458  36.014  1.00  0.00     0.049 A 
ATOM     54  C   UNL A   1      38.472  32.681  33.155  1.00  0.00     0.074 A 
ATOM     55  C   UNL A   1      42.995  30.938  37.293  1.00  0.00     0.029 A 
ATOM     56  N   UNL A   1      41.681  31.123  35.505  1.00  0.00    -0.354 N 
ATOM     57  N   UNL A   1      39.443  32.255  33.931  1.00  0.00    -0.248 NA
ATOM     58  C   UNL A   1      37.578  33.656  33.796  1.00  0.00     0.031 C 
ATOM     59  C   UNL A   1      41.984  31.859  37.576  1.00  0.00     0.029 A 
ATOM     60  C   UNL A   1      41.187  32.001  36.450  1.00  0.00     0.049 A 
ATOM     61  H   UNL A   1      41.305  30.990  34.605  1.00  0.00     0.167 HD
ATOM     62  C   UNL A   1      39.303  32.946  35.133  1.00  0.00     0.074 A 
ATOM     63  C   UNL A   1      38.153  33.813  34.982  1.00  0.00     0.031 C 
ATOM     64  C   UNL A   1      40.058  32.878  36.258  1.00  0.00     0.037 A 
BRANCH  51  65
ATOM     65  C   UNL A   1      44.702  28.803  35.977  1.00  0.00     0.058 A 
ATOM     66  C   UNL A   1      44.546  27.656  36.771  1.00  0.00     0.135 A 
ATOM     67  C   UNL A   1      45.996  29.321  35.820  1.00  0.00     0.135 A 
ATOM     68  F   UNL A   1      43.324  27.141  36.986  1.00  0.00    -0.206 F 
ATOM     69  C   UNL A   1      45.632  27.053  37.396  1.00  0.00     0.059 A 
ATOM     70  C   UNL A   1      47.101  28.717  36.409  1.00  0.00     0.059 A 
ATOM     71  F   UNL A   1      46.197  30.429  35.088  1.00  0.00    -0.206 F 
ATOM     72  C   UNL A   1      46.907  27.588  37.204  1.00  0.00     0.060 A 
BRANCH  72  73
ATOM     73  S   UNL A   1      48.308  26.777  37.999  1.00  0.00     0.124 S 
ATOM     74  O   UNL A   1      47.791  26.555  39.346  1.00  0.00    -0.237 OA
ATOM     75  O   UNL A   1      48.478  25.581  37.182  1.00  0.00    -0.237 OA
ATOM     76  O   UNL A   1      49.378  27.763  37.894  1.00  0.00    -0.744 OA
ENDBRANCH  72  73
ENDBRANCH  51  65
BRANCH  52  77
ATOM     77  C   UNL A   1      36.998  32.908  31.016  1.00  0.00     0.058 A 
ATOM     78  C   UNL A   1      35.696  32.428  31.225  1.00  0.00     0.135 A 
ATOM     79  C   UNL A   1      37.164  33.954  30.094  1.00  0.00     0.135 A 
ATOM     80  F   UNL A   1      35.483  31.421  32.085  1.00  0.00    -0.206 F 
ATOM     81  C   UNL A   1      34.606  32.944  30.530  1.00  0.00     0.059 A 
ATOM     82  C   UNL A   1      36.086  34.506  29.408  1.00  0.00     0.059 A 
ATOM     83  F   UNL A   1      38.386  34.456  29.859  1.00  0.00    -0.206 F 
ATOM     84  C   UNL A   1      34.811  33.984  29.622  1.00  0.00     0.060 A 
BRANCH  84  85
ATOM     85  S   UNL A   1      33.386  34.662  28.743  1.00  0.00     0.124 S 
ATOM     86  O   UNL A   1      32.484  34.976  29.845  1.00  0.00    -0.237 OA
ATOM     87  O   UNL A   1      33.973  35.807  28.051  1.00  0.00    -0.237 OA
ATOM     88  O   UNL A   1      32.970  33.562  27.879  1.00  0.00    -0.744 OA
ENDBRANCH  84  85
ENDBRANCH  52  77
BRANCH  64  89
ATOM     89  C   UNL A   1      39.726  33.812  37.388  1.00  0.00     0.058 A 
ATOM     90  C   UNL A   1      38.980  33.401  38.500  1.00  0.00     0.135 A 
ATOM     91  C   UNL A   1      40.253  35.116  37.394  1.00  0.00     0.135 A 
ATOM     92  F   UNL A   1      38.454  32.166  38.543  1.00  0.00    -0.206 F 
ATOM     93  C   UNL A   1      38.751  34.255  39.574  1.00  0.00     0.059 A 
ATOM     94  C   UNL A   1      40.064  35.974  38.470  1.00  0.00     0.059 A 
ATOM     95  F   UNL A   1      40.989  35.553  36.359  1.00  0.00    -0.206 F 
ATOM     96  C   UNL A   1      39.304  35.538  39.553  1.00  0.00     0.060 A 
BRANCH  96  97
ATOM     97  S   UNL A   1      39.047  36.614  40.978  1.00  0.00     0.124 S 
ATOM     98  O   UNL A   1      38.622  37.854  40.337  1.00  0.00    -0.237 OA
ATOM     99  O   UNL A   1      38.015  35.901  41.725  1.00  0.00    -0.237 OA
ATOM    100  O   UNL A   1      40.359  36.655  41.616  1.00  0.00    -0.744 OA
ENDBRANCH  96  97
ENDBRANCH  64  89
ENDBRANCH  38  39
ENDBRANCH  31  33
ENDBRANCH  30  31
ENDBRANCH  29  30
ENDBRANCH  28  29
ENDBRANCH  27  28
ENDBRANCH  26  27
ENDBRANCH   1  26
TORSDOF 25
ENDMDL
MODEL 2
REMARK VINA RESULT:      -9.4      3.148      9.884
REMARK SMILES C[C@@H]1OCC[C@H]1C(=O)N[C@]1(C(=O)OCCOCCOCCOCCOC(=O)c2ccc(-c3c4nc(c(-c5c(F)cc(S(=O)(=O)[O-])cc5F)c5ccc([nH]5)c(-c5c(F)cc(S(=O)(=O)[O-])cc5F)c5nc(c(-c6c(F)cc(S(=O)(=O)[O-])cc6F)c6ccc3[nH]6)C=C5)C=C4)cc2)CCOC1
REMARK SMILES IDX 20 1 19 2 18 3 17 4 16 5 15 6 14 7 13 8 11 9 12 10 10 11
REMARK SMILES IDX 94 12 97 13 95 14 96 15 9 16 7 17 8 18 6 20 1 21 2 22 3 23
REMARK SMILES IDX 4 24 5 25 21 26 22 27 23 28 24 29 25 30 26 31 27 32 28 33
REMARK SMILES IDX 29 34 93 35 30 36 92 37 31 38 32 39 33 40 86 41 34 42 91 43
REMARK SMILES IDX 85 44 87 45 35 46 90 47 84 48 83 49 36 51 70 52 49 53 69 54
REMARK SMILES IDX 50 55 53 56 68 57 88 58 51 59 52 60 67 62 89 63 54 64 37 65
REMARK SMILES IDX 38 66 47 67 39 68 40 69 46 70 48 71 41 72 42 73 43 74 44 75
REMARK SMILES IDX 45 76 71 77 72 78 81 79 73 80 74 81 80 82 82 83 75 84 76 85
REMARK SMILES IDX 77 86 78 87 79 88 55 89 56 90 65 91 57 92 58 93 64 94 66 95
REMARK SMILES IDX 59 96 60 97 61 98 62 99 63 100
REMARK H PARENT 9 19 87 50 53 61
REMARK Flexibility Score: inf
ROOT
ATOM      1  C   UNL A   1      30.275  28.839  23.728  1.00  0.00     0.188 C 
ENDROOT
BRANCH   1   2
ATOM      2  O   UNL A   1      30.447  28.273  22.430  1.00  0.00    -0.377 OA
BRANCH   2   3
ATOM      3  C   UNL A   1      30.570  26.869  22.449  1.00  0.00     0.188 C 
BRANCH   3   4
ATOM      4  C   UNL A   1      32.034  26.452  22.362  1.00  0.00     0.188 C 
BRANCH   4   5
ATOM      5  O   UNL A   1      32.702  26.077  23.570  1.00  0.00    -0.376 OA
BRANCH   5   6
ATOM      6  C   UNL A   1      31.991  25.779  24.781  1.00  0.00     0.202 C 
BRANCH   6   7
ATOM      7  C   UNL A   1      32.693  25.715  26.157  1.00  0.00     0.261 C 
BRANCH   7   8
ATOM      8  O   UNL A   1      33.526  24.562  26.316  1.00  0.00    -0.461 OA
BRANCH   8   9
ATOM      9  C   UNL A   1      32.932  23.350  26.512  1.00  0.00     0.334 C 
ATOM     10  O   UNL A   1      32.212  23.065  27.459  1.00  0.00    -0.249 OA
BRANCH   9  11
ATOM     11  C   UNL A   1      33.295  22.375  25.372  1.00  0.00     0.163 C 
ATOM     12  C   UNL A   1      32.165  22.128  24.355  1.00  0.00     0.071 C 
ATOM     13  C   UNL A   1      34.211  23.238  24.469  1.00  0.00     0.200 C 
ATOM     14  C   UNL A   1      32.801  22.183  22.979  1.00  0.00     0.163 C 
ATOM     15  O   UNL A   1      34.130  22.670  23.150  1.00  0.00    -0.378 OA
BRANCH  11  16
ATOM     16  N   UNL A   1      34.081  21.105  25.667  1.00  0.00    -0.338 N 
ATOM     17  C   UNL A   1      34.620  20.070  24.977  1.00  0.00     0.226 C 
ATOM     18  O   UNL A   1      35.856  19.988  25.066  1.00  0.00    -0.275 OA
ATOM     19  H   UNL A   1      34.244  21.009  26.633  1.00  0.00     0.164 HD
BRANCH  17  20
ATOM     20  C   UNL A   1      33.897  18.935  24.223  1.00  0.00     0.109 C 
ATOM     21  C   UNL A   1      33.967  16.589  23.156  1.00  0.00     0.039 C 
ATOM     22  C   UNL A   1      34.487  17.531  24.253  1.00  0.00     0.127 C 
ATOM     23  O   UNL A   1      33.949  16.943  25.430  1.00  0.00    -0.378 OA
ATOM     24  C   UNL A   1      32.704  17.587  25.673  1.00  0.00     0.161 C 
ATOM     25  C   UNL A   1      32.492  18.721  24.710  1.00  0.00     0.044 C 
ENDBRANCH  17  20
ENDBRANCH  11  16
ENDBRANCH   9  11
ENDBRANCH   8   9
ENDBRANCH   7   8
ENDBRANCH   6   7
ENDBRANCH   5   6
ENDBRANCH   4   5
ENDBRANCH   3   4
ENDBRANCH   2   3
ENDBRANCH   1   2
BRANCH   1  26
ATOM     26  C   UNL A   1      31.511  29.355  24.522  1.00  0.00     0.188 C 
BRANCH  26  27
ATOM     27  O   UNL A   1      31.471  29.035  25.901  1.00  0.00    -0.376 OA
BRANCH  27  28
ATOM     28  C   UNL A   1      32.472  29.402  26.822  1.00  0.00     0.202 C 
BRANCH  28  29
ATOM     29  C   UNL A   1      32.889  30.858  27.075  1.00  0.00     0.261 C 
BRANCH  29  30
ATOM     30  O   UNL A   1      33.814  31.104  28.131  1.00  0.00    -0.460 OA
BRANCH  30  31
ATOM     31  C   UNL A   1      34.821  31.974  27.892  1.00  0.00     0.338 C 
ATOM     32  O   UNL A   1      34.707  33.164  27.646  1.00  0.00    -0.246 OA
BRANCH  31  33
ATOM     33  C   UNL A   1      36.086  31.292  28.269  1.00  0.00     0.060 A 
ATOM     34  C   UNL A   1      36.114  29.887  28.259  1.00  0.00     0.016 A 
ATOM     35  C   UNL A   1      37.269  32.018  28.462  1.00  0.00     0.016 A 
ATOM     36  C   UNL A   1      37.313  29.207  28.475  1.00  0.00     0.010 A 
ATOM     37  C   UNL A   1      38.462  31.339  28.715  1.00  0.00     0.010 A 
ATOM     38  C   UNL A   1      38.473  29.934  28.774  1.00  0.00    -0.014 A 
BRANCH  38  39
ATOM     39  C   UNL A   1      39.550  29.271  29.544  1.00  0.00     0.031 A 
ATOM     40  C   UNL A   1      39.833  29.855  30.904  1.00  0.00     0.074 A 
ATOM     41  C   UNL A   1      40.247  28.219  29.082  1.00  0.00     0.049 A 
ATOM     42  N   UNL A   1      40.790  29.583  31.748  1.00  0.00    -0.248 NA
ATOM     43  C   UNL A   1      38.908  30.908  31.366  1.00  0.00     0.031 C 
ATOM     44  C   UNL A   1      40.017  27.532  27.813  1.00  0.00     0.029 A 
ATOM     45  N   UNL A   1      41.311  27.553  29.637  1.00  0.00    -0.354 N 
ATOM     46  C   UNL A   1      40.585  30.435  32.827  1.00  0.00     0.074 A 
ATOM     47  C   UNL A   1      39.439  31.256  32.524  1.00  0.00     0.031 C 
ATOM     48  C   UNL A   1      40.931  26.552  27.676  1.00  0.00     0.029 A 
ATOM     49  C   UNL A   1      41.833  26.572  28.828  1.00  0.00     0.049 A 
ATOM     50  H   UNL A   1      41.667  27.759  30.532  1.00  0.00     0.167 HD
ATOM     51  C   UNL A   1      41.289  30.523  33.976  1.00  0.00     0.037 A 
ATOM     52  C   UNL A   1      42.933  25.809  28.997  1.00  0.00     0.037 A 
ATOM     53  C   UNL A   1      42.436  29.710  34.262  1.00  0.00     0.049 A 
ATOM     54  C   UNL A   1      43.761  25.985  30.249  1.00  0.00     0.074 A 
ATOM     55  C   UNL A   1      43.240  29.723  35.385  1.00  0.00     0.029 A 
ATOM     56  N   UNL A   1      42.944  28.742  33.409  1.00  0.00    -0.354 N 
ATOM     57  N   UNL A   1      43.565  26.798  31.262  1.00  0.00    -0.248 NA
ATOM     58  C   UNL A   1      44.960  25.145  30.382  1.00  0.00     0.031 C 
ATOM     59  C   UNL A   1      44.265  28.795  35.190  1.00  0.00     0.029 A 
ATOM     60  C   UNL A   1      44.060  28.158  33.975  1.00  0.00     0.049 A 
ATOM     61  H   UNL A   1      42.565  28.505  32.531  1.00  0.00     0.167 HD
ATOM     62  C   UNL A   1      44.587  26.532  32.171  1.00  0.00     0.074 A 
ATOM     63  C   UNL A   1      45.400  25.486  31.586  1.00  0.00     0.031 C 
ATOM     64  C   UNL A   1      44.830  27.093  33.382  1.00  0.00     0.037 A 
BRANCH  51  65
ATOM     65  C   UNL A   1      40.854  31.552  34.979  1.00  0.00     0.058 A 
ATOM     66  C   UNL A   1      39.826  31.298  35.901  1.00  0.00     0.135 A 
ATOM     67  C   UNL A   1      41.480  32.807  35.024  1.00  0.00     0.135 A 
ATOM     68  F   UNL A   1      39.168  30.127  35.877  1.00  0.00    -0.206 F 
ATOM     69  C   UNL A   1      39.426  32.257  36.824  1.00  0.00     0.059 A 
ATOM     70  C   UNL A   1      41.118  33.770  35.959  1.00  0.00     0.059 A 
ATOM     71  F   UNL A   1      42.454  33.109  34.150  1.00  0.00    -0.206 F 
ATOM     72  C   UNL A   1      40.083  33.489  36.849  1.00  0.00     0.060 A 
BRANCH  72  73
ATOM     73  S   UNL A   1      39.569  34.712  38.072  1.00  0.00     0.124 S 
ATOM     74  O   UNL A   1      38.210  34.273  38.371  1.00  0.00    -0.237 OA
ATOM     75  O   UNL A   1      40.547  34.514  39.137  1.00  0.00    -0.237 OA
ATOM     76  O   UNL A   1      39.675  35.977  37.354  1.00  0.00    -0.744 OA
ENDBRANCH  72  73
ENDBRANCH  51  65
BRANCH  52  77
ATOM     77  C   UNL A   1      43.338  24.822  27.955  1.00  0.00     0.058 A 
ATOM     78  C   UNL A   1      42.790  23.530  27.926  1.00  0.00     0.135 A 
ATOM     79  C   UNL A   1      44.305  25.138  26.987  1.00  0.00     0.135 A 
ATOM     80  F   UNL A   1      41.873  23.171  28.837  1.00  0.00    -0.206 F 
ATOM     81  C   UNL A   1      43.202  22.581  26.995  1.00  0.00     0.059 A 
ATOM     82  C   UNL A   1      44.712  24.216  26.026  1.00  0.00     0.059 A 
ATOM     83  F   UNL A   1      44.858  26.360  26.963  1.00  0.00    -0.206 F 
ATOM     84  C   UNL A   1      44.164  22.934  26.048  1.00  0.00     0.060 A 
BRANCH  84  85
ATOM     85  S   UNL A   1      44.674  21.702  24.829  1.00  0.00     0.124 S 
ATOM     86  O   UNL A   1      46.096  21.571  25.121  1.00  0.00    -0.237 OA
ATOM     87  O   UNL A   1      43.840  20.558  25.186  1.00  0.00    -0.237 OA
ATOM     88  O   UNL A   1      44.347  22.335  23.555  1.00  0.00    -0.744 OA
ENDBRANCH  84  85
ENDBRANCH  52  77
BRANCH  64  89
ATOM     89  C   UNL A   1      45.968  26.545  34.198  1.00  0.00     0.058 A 
ATOM     90  C   UNL A   1      45.797  25.482  35.095  1.00  0.00     0.135 A 
ATOM     91  C   UNL A   1      47.270  27.036  33.999  1.00  0.00     0.135 A 
ATOM     92  F   UNL A   1      44.574  24.977  35.322  1.00  0.00    -0.206 F 
ATOM     93  C   UNL A   1      46.877  24.934  35.781  1.00  0.00     0.059 A 
ATOM     94  C   UNL A   1      48.366  26.483  34.649  1.00  0.00     0.059 A 
ATOM     95  F   UNL A   1      47.488  28.043  33.137  1.00  0.00    -0.206 F 
ATOM     96  C   UNL A   1      48.159  25.436  35.545  1.00  0.00     0.060 A 
BRANCH  96  97
ATOM     97  S   UNL A   1      49.556  24.679  36.399  1.00  0.00     0.124 S 
ATOM     98  O   UNL A   1      49.530  25.375  37.681  1.00  0.00    -0.237 OA
ATOM     99  O   UNL A   1      49.173  23.270  36.434  1.00  0.00    -0.237 OA
ATOM    100  O   UNL A   1      50.692  24.992  35.538  1.00  0.00    -0.744 OA
ENDBRANCH  96  97
ENDBRANCH  64  89
ENDBRANCH  38  39
ENDBRANCH  31  33
ENDBRANCH  30  31
ENDBRANCH  29  30
ENDBRANCH  28  29
ENDBRANCH  27  28
ENDBRANCH  26  27
ENDBRANCH   1  26
TORSDOF 25
ENDMDL
MODEL 3
REMARK VINA RESULT:      -8.9      2.280      8.718
REMARK SMILES C[C@@H]1OCC[C@H]1C(=O)N[C@]1(C(=O)OCCOCCOCCOCCOC(=O)c2ccc(-c3c4nc(c(-c5c(F)cc(S(=O)(=O)[O-])cc5F)c5ccc([nH]5)c(-c5c(F)cc(S(=O)(=O)[O-])cc5F)c5nc(c(-c6c(F)cc(S(=O)(=O)[O-])cc6F)c6ccc3[nH]6)C=C5)C=C4)cc2)CCOC1
REMARK SMILES IDX 20 1 19 2 18 3 17 4 16 5 15 6 14 7 13 8 11 9 12 10 10 11
REMARK SMILES IDX 94 12 97 13 95 14 96 15 9 16 7 17 8 18 6 20 1 21 2 22 3 23
REMARK SMILES IDX 4 24 5 25 21 26 22 27 23 28 24 29 25 30 26 31 27 32 28 33
REMARK SMILES IDX 29 34 93 35 30 36 92 37 31 38 32 39 33 40 86 41 34 42 91 43
REMARK SMILES IDX 85 44 87 45 35 46 90 47 84 48 83 49 36 51 70 52 49 53 69 54
REMARK SMILES IDX 50 55 53 56 68 57 88 58 51 59 52 60 67 62 89 63 54 64 37 65
REMARK SMILES IDX 38 66 47 67 39 68 40 69 46 70 48 71 41 72 42 73 43 74 44 75
REMARK SMILES IDX 45 76 71 77 72 78 81 79 73 80 74 81 80 82 82 83 75 84 76 85
REMARK SMILES IDX 77 86 78 87 79 88 55 89 56 90 65 91 57 92 58 93 64 94 66 95
REMARK SMILES IDX 59 96 60 97 61 98 62 99 63 100
REMARK H PARENT 9 19 87 50 53 61
REMARK Flexibility Score: inf
ROOT
ATOM      1  C   UNL A   1      31.411  28.977  24.503  1.00  0.00     0.188 C 
ENDROOT
BRANCH   1   2
ATOM      2  O   UNL A   1      31.670  27.966  23.532  1.00  0.00    -0.377 OA
BRANCH   2   3
ATOM      3  C   UNL A   1      32.993  27.990  23.045  1.00  0.00     0.188 C 
BRANCH   3   4
ATOM      4  C   UNL A   1      33.114  27.174  21.763  1.00  0.00     0.188 C 
BRANCH   4   5
ATOM      5  O   UNL A   1      33.667  25.858  21.850  1.00  0.00    -0.376 OA
BRANCH   5   6
ATOM      6  C   UNL A   1      32.978  24.700  21.354  1.00  0.00     0.202 C 
BRANCH   6   7
ATOM      7  C   UNL A   1      33.065  23.324  22.053  1.00  0.00     0.261 C 
BRANCH   7   8
ATOM      8  O   UNL A   1      34.393  22.974  22.456  1.00  0.00    -0.461 OA
BRANCH   8   9
ATOM      9  C   UNL A   1      34.824  23.366  23.689  1.00  0.00     0.334 C 
ATOM     10  O   UNL A   1      35.407  24.414  23.930  1.00  0.00    -0.249 OA
BRANCH   9  11
ATOM     11  C   UNL A   1      34.480  22.299  24.751  1.00  0.00     0.163 C 
ATOM     12  C   UNL A   1      33.506  21.207  24.270  1.00  0.00     0.071 C 
ATOM     13  C   UNL A   1      35.766  21.437  24.790  1.00  0.00     0.200 C 
ATOM     14  C   UNL A   1      34.060  19.885  24.765  1.00  0.00     0.163 C 
ATOM     15  O   UNL A   1      35.369  20.140  25.269  1.00  0.00    -0.378 OA
BRANCH  11  16
ATOM     16  N   UNL A   1      34.209  22.707  26.192  1.00  0.00    -0.338 N 
ATOM     17  C   UNL A   1      33.145  22.830  27.021  1.00  0.00     0.226 C 
ATOM     18  O   UNL A   1      33.175  22.074  28.006  1.00  0.00    -0.275 OA
ATOM     19  H   UNL A   1      35.045  22.949  26.652  1.00  0.00     0.164 HD
BRANCH  17  20
ATOM     20  C   UNL A   1      31.995  23.858  26.966  1.00  0.00     0.109 C 
ATOM     21  C   UNL A   1      31.203  26.275  26.543  1.00  0.00     0.039 C 
ATOM     22  C   UNL A   1      32.196  25.156  26.194  1.00  0.00     0.127 C 
ATOM     23  O   UNL A   1      31.829  24.837  24.858  1.00  0.00    -0.378 OA
ATOM     24  C   UNL A   1      30.887  23.773  24.939  1.00  0.00     0.161 C 
ATOM     25  C   UNL A   1      30.744  23.293  26.356  1.00  0.00     0.044 C 
ENDBRANCH  17  20
ENDBRANCH  11  16
ENDBRANCH   9  11
ENDBRANCH   8   9
ENDBRANCH   7   8
ENDBRANCH   6   7
ENDBRANCH   5   6
ENDBRANCH   4   5
ENDBRANCH   3   4
ENDBRANCH   2   3
ENDBRANCH   1   2
BRANCH   1  26
ATOM     26  C   UNL A   1      32.593  29.748  25.160  1.00  0.00     0.188 C 
BRANCH  26  27
ATOM     27  O   UNL A   1      32.499  29.832  26.570  1.00  0.00    -0.376 OA
BRANCH  27  28
ATOM     28  C   UNL A   1      33.138  30.822  27.343  1.00  0.00     0.202 C 
BRANCH  28  29
ATOM     29  C   UNL A   1      32.731  32.303  27.315  1.00  0.00     0.261 C 
BRANCH  29  30
ATOM     30  O   UNL A   1      33.251  33.147  28.339  1.00  0.00    -0.460 OA
BRANCH  30  31
ATOM     31  C   UNL A   1      34.331  33.904  28.037  1.00  0.00     0.338 C 
ATOM     32  O   UNL A   1      34.385  34.784  27.193  1.00  0.00    -0.246 OA
BRANCH  31  33
ATOM     33  C   UNL A   1      35.337  33.676  29.106  1.00  0.00     0.060 A 
ATOM     34  C   UNL A   1      36.618  34.230  28.943  1.00  0.00     0.016 A 
ATOM     35  C   UNL A   1      34.977  33.078  30.321  1.00  0.00     0.016 A 
ATOM     36  C   UNL A   1      37.551  34.157  29.978  1.00  0.00     0.010 A 
ATOM     37  C   UNL A   1      35.922  32.971  31.343  1.00  0.00     0.010 A 
ATOM     38  C   UNL A   1      37.226  33.465  31.152  1.00  0.00    -0.014 A 
BRANCH  38  39
ATOM     39  C   UNL A   1      38.321  32.893  31.968  1.00  0.00     0.031 A 
ATOM     40  C   UNL A   1      38.975  31.657  31.407  1.00  0.00     0.074 A 
ATOM     41  C   UNL A   1      38.721  33.420  33.137  1.00  0.00     0.049 A 
ATOM     42  N   UNL A   1      39.858  30.862  31.945  1.00  0.00    -0.248 NA
ATOM     43  C   UNL A   1      38.557  31.257  30.050  1.00  0.00     0.031 C 
ATOM     44  C   UNL A   1      38.207  34.646  33.743  1.00  0.00     0.029 A 
ATOM     45  N   UNL A   1      39.656  32.968  34.035  1.00  0.00    -0.354 N 
ATOM     46  C   UNL A   1      40.090  29.871  30.998  1.00  0.00     0.074 A 
ATOM     47  C   UNL A   1      39.234  30.139  29.868  1.00  0.00     0.031 C 
ATOM     48  C   UNL A   1      38.820  34.838  34.927  1.00  0.00     0.029 A 
ATOM     49  C   UNL A   1      39.737  33.726  35.179  1.00  0.00     0.049 A 
ATOM     50  H   UNL A   1      40.217  32.176  33.873  1.00  0.00     0.167 HD
ATOM     51  C   UNL A   1      40.945  28.827  31.062  1.00  0.00     0.037 A 
ATOM     52  C   UNL A   1      40.450  33.516  36.305  1.00  0.00     0.037 A 
ATOM     53  C   UNL A   1      41.781  28.563  32.196  1.00  0.00     0.049 A 
ATOM     54  C   UNL A   1      41.334  32.292  36.394  1.00  0.00     0.074 A 
ATOM     55  C   UNL A   1      42.674  27.525  32.382  1.00  0.00     0.029 A 
ATOM     56  N   UNL A   1      41.820  29.343  33.342  1.00  0.00    -0.354 N 
ATOM     57  N   UNL A   1      41.541  31.355  35.497  1.00  0.00    -0.248 NA
ATOM     58  C   UNL A   1      42.078  32.095  37.646  1.00  0.00     0.031 C 
ATOM     59  C   UNL A   1      43.218  27.651  33.662  1.00  0.00     0.029 A 
ATOM     60  C   UNL A   1      42.713  28.803  34.246  1.00  0.00     0.049 A 
ATOM     61  H   UNL A   1      41.290  30.160  33.489  1.00  0.00     0.167 HD
ATOM     62  C   UNL A   1      42.475  30.487  36.059  1.00  0.00     0.074 A 
ATOM     63  C   UNL A   1      42.787  31.008  37.373  1.00  0.00     0.031 C 
ATOM     64  C   UNL A   1      43.030  29.365  35.536  1.00  0.00     0.037 A 
BRANCH  51  65
ATOM     65  C   UNL A   1      40.984  27.890  29.890  1.00  0.00     0.058 A 
ATOM     66  C   UNL A   1      39.972  26.943  29.666  1.00  0.00     0.135 A 
ATOM     67  C   UNL A   1      42.044  27.946  28.972  1.00  0.00     0.135 A 
ATOM     68  F   UNL A   1      38.954  26.821  30.533  1.00  0.00    -0.206 F 
ATOM     69  C   UNL A   1      40.017  26.076  28.580  1.00  0.00     0.059 A 
ATOM     70  C   UNL A   1      42.094  27.110  27.862  1.00  0.00     0.059 A 
ATOM     71  F   UNL A   1      43.048  28.819  29.152  1.00  0.00    -0.206 F 
ATOM     72  C   UNL A   1      41.080  26.171  27.680  1.00  0.00     0.060 A 
BRANCH  72  73
ATOM     73  S   UNL A   1      41.108  25.057  26.262  1.00  0.00     0.124 S 
ATOM     74  O   UNL A   1      39.763  24.492  26.308  1.00  0.00    -0.237 OA
ATOM     75  O   UNL A   1      41.374  25.970  25.156  1.00  0.00    -0.237 OA
ATOM     76  O   UNL A   1      42.188  24.129  26.579  1.00  0.00    -0.744 OA
ENDBRANCH  72  73
ENDBRANCH  51  65
BRANCH  52  77
ATOM     77  C   UNL A   1      40.351  34.463  37.453  1.00  0.00     0.058 A 
ATOM     78  C   UNL A   1      39.386  34.290  38.456  1.00  0.00     0.135 A 
ATOM     79  C   UNL A   1      41.199  35.578  37.554  1.00  0.00     0.135 A 
ATOM     80  F   UNL A   1      38.541  33.249  38.401  1.00  0.00    -0.206 F 
ATOM     81  C   UNL A   1      39.246  35.198  39.502  1.00  0.00     0.059 A 
ATOM     82  C   UNL A   1      41.098  36.485  38.606  1.00  0.00     0.059 A 
ATOM     83  F   UNL A   1      42.145  35.790  36.626  1.00  0.00    -0.206 F 
ATOM     84  C   UNL A   1      40.108  36.293  39.568  1.00  0.00     0.060 A 
BRANCH  84  85
ATOM     85  S   UNL A   1      39.934  37.452  40.943  1.00  0.00     0.124 S 
ATOM     86  O   UNL A   1      39.473  38.653  40.257  1.00  0.00    -0.237 OA
ATOM     87  O   UNL A   1      38.948  36.779  41.785  1.00  0.00    -0.237 OA
ATOM     88  O   UNL A   1      41.281  37.519  41.498  1.00  0.00    -0.744 OA
ENDBRANCH  84  85
ENDBRANCH  52  77
BRANCH  64  89
ATOM     89  C   UNL A   1      44.087  28.661  36.340  1.00  0.00     0.058 A 
ATOM     90  C   UNL A   1      45.401  29.142  36.426  1.00  0.00     0.135 A 
ATOM     91  C   UNL A   1      43.745  27.538  37.113  1.00  0.00     0.135 A 
ATOM     92  F   UNL A   1      45.779  30.211  35.707  1.00  0.00    -0.206 F 
ATOM     93  C   UNL A   1      46.346  28.524  37.239  1.00  0.00     0.059 A 
ATOM     94  C   UNL A   1      44.664  26.925  37.956  1.00  0.00     0.059 A 
ATOM     95  F   UNL A   1      42.496  27.048  37.078  1.00  0.00    -0.206 F 
ATOM     96  C   UNL A   1      45.966  27.420  38.007  1.00  0.00     0.060 A 
BRANCH  96  97
ATOM     97  S   UNL A   1      47.186  26.664  39.100  1.00  0.00     0.124 S 
ATOM     98  O   UNL A   1      46.337  25.890  39.998  1.00  0.00    -0.237 OA
ATOM     99  O   UNL A   1      47.999  25.888  38.169  1.00  0.00    -0.237 OA
ATOM    100  O   UNL A   1      47.858  27.810  39.704  1.00  0.00    -0.744 OA
ENDBRANCH  96  97
ENDBRANCH  64  89
ENDBRANCH  38  39
ENDBRANCH  31  33
ENDBRANCH  30  31
ENDBRANCH  29  30
ENDBRANCH  28  29
ENDBRANCH  27  28
ENDBRANCH  26  27
ENDBRANCH   1  26
TORSDOF 25
ENDMDL
