MODEL 1
REMARK VINA RESULT:      -7.7      0.000      0.000
REMARK SMILES O=C(OCCOCCOCCOCCOC(=O)[C@@H](Cc1ccccc1Br)CC(F)(F)F)c1ccc(-c2c3nc(c(-c4c(F)cc(S(=O)(=O)[O-])cc4F)c4ccc([nH]4)c(-c4c(F)cc(S(=O)(=O)[O-])cc4F)c4nc(c(-c5c(F)cc(S(=O)(=O)[O-])cc5F)c5ccc2[nH]5)C=C4)C=C3)cc1
REMARK SMILES IDX 8 1 7 2 6 3 5 4 4 5 3 6 2 7 1 8 32 9 33 10 97 11 34 12 96 13
REMARK SMILES IDX 35 14 36 15 37 16 90 17 38 18 95 19 89 20 91 21 39 22 94 23
REMARK SMILES IDX 88 24 87 25 40 27 74 28 53 29 73 30 54 31 57 32 72 33 92 34
REMARK SMILES IDX 55 35 56 36 71 38 93 39 58 40 41 41 42 42 51 43 43 44 44 45
REMARK SMILES IDX 50 46 52 47 45 48 46 49 47 50 48 51 49 52 75 53 76 54 85 55
REMARK SMILES IDX 77 56 78 57 84 58 86 59 79 60 80 61 81 62 82 63 83 64 59 65
REMARK SMILES IDX 60 66 69 67 61 68 62 69 68 70 70 71 63 72 64 73 65 74 66 75
REMARK SMILES IDX 67 76 9 77 10 78 11 79 12 80 13 81 14 82 15 83 16 84 17 85
REMARK SMILES IDX 18 86 19 87 20 88 21 89 25 90 22 91 24 92 26 93 23 94 27 95
REMARK SMILES IDX 28 96 29 97 30 98 31 99
REMARK H PARENT 91 26 57 37
REMARK Flexibility Score: inf
ROOT
ATOM      1  C   UNL A   1      33.834  35.322  30.352  1.00  0.00     0.188 C 
ENDROOT
BRANCH   1   2
ATOM      2  C   UNL A   1      34.028  34.012  29.616  1.00  0.00     0.188 C 
BRANCH   2   3
ATOM      3  O   UNL A   1      33.082  33.970  28.561  1.00  0.00    -0.376 OA
BRANCH   3   4
ATOM      4  C   UNL A   1      33.181  32.881  27.656  1.00  0.00     0.202 C 
BRANCH   4   5
ATOM      5  C   UNL A   1      34.519  32.147  27.719  1.00  0.00     0.261 C 
BRANCH   5   6
ATOM      6  O   UNL A   1      34.427  30.845  28.324  1.00  0.00    -0.460 OA
BRANCH   6   7
ATOM      7  C   UNL A   1      35.131  29.727  28.007  1.00  0.00     0.338 C 
ATOM      8  O   UNL A   1      34.512  28.753  27.580  1.00  0.00    -0.246 OA
BRANCH   7   9
ATOM      9  C   UNL A   1      36.613  29.591  28.165  1.00  0.00     0.060 A 
ATOM     10  C   UNL A   1      37.549  29.845  27.165  1.00  0.00     0.016 A 
ATOM     11  C   UNL A   1      37.104  29.266  29.439  1.00  0.00     0.016 A 
ATOM     12  C   UNL A   1      38.908  29.749  27.375  1.00  0.00     0.010 A 
ATOM     13  C   UNL A   1      38.481  29.161  29.673  1.00  0.00     0.010 A 
ATOM     14  C   UNL A   1      39.379  29.379  28.622  1.00  0.00    -0.014 A 
BRANCH  14  15
ATOM     15  C   UNL A   1      40.795  28.992  28.683  1.00  0.00     0.031 A 
ATOM     16  C   UNL A   1      41.749  30.007  29.231  1.00  0.00     0.074 A 
ATOM     17  C   UNL A   1      41.150  27.714  28.461  1.00  0.00     0.049 A 
ATOM     18  N   UNL A   1      43.045  29.961  29.320  1.00  0.00    -0.248 NA
ATOM     19  C   UNL A   1      41.150  31.244  29.771  1.00  0.00     0.031 C 
ATOM     20  C   UNL A   1      40.226  26.625  28.131  1.00  0.00     0.029 A 
ATOM     21  N   UNL A   1      42.374  27.108  28.517  1.00  0.00    -0.354 N 
ATOM     22  C   UNL A   1      43.422  31.181  29.868  1.00  0.00     0.074 A 
ATOM     23  C   UNL A   1      42.221  31.943  30.108  1.00  0.00     0.031 C 
ATOM     24  C   UNL A   1      40.920  25.482  28.011  1.00  0.00     0.029 A 
ATOM     25  C   UNL A   1      42.338  25.778  28.171  1.00  0.00     0.049 A 
ATOM     26  H   UNL A   1      43.198  27.577  28.780  1.00  0.00     0.167 HD
ATOM     27  C   UNL A   1      44.675  31.619  30.120  1.00  0.00     0.037 A 
ATOM     28  C   UNL A   1      43.356  24.926  27.949  1.00  0.00     0.037 A 
ATOM     29  C   UNL A   1      45.833  30.808  29.867  1.00  0.00     0.049 A 
ATOM     30  C   UNL A   1      44.750  25.467  28.127  1.00  0.00     0.074 A 
ATOM     31  C   UNL A   1      47.167  31.135  29.989  1.00  0.00     0.029 A 
ATOM     32  N   UNL A   1      45.776  29.486  29.433  1.00  0.00    -0.354 N 
ATOM     33  N   UNL A   1      45.122  26.661  28.531  1.00  0.00    -0.248 NA
ATOM     34  C   UNL A   1      45.860  24.566  27.803  1.00  0.00     0.031 C 
ATOM     35  C   UNL A   1      47.918  30.026  29.580  1.00  0.00     0.029 A 
ATOM     36  C   UNL A   1      47.051  28.988  29.261  1.00  0.00     0.049 A 
ATOM     37  H   UNL A   1      44.947  28.981  29.273  1.00  0.00     0.167 HD
ATOM     38  C   UNL A   1      46.509  26.655  28.522  1.00  0.00     0.074 A 
ATOM     39  C   UNL A   1      46.908  25.327  28.090  1.00  0.00     0.031 C 
ATOM     40  C   UNL A   1      47.380  27.647  28.835  1.00  0.00     0.037 A 
BRANCH  27  41
ATOM     41  C   UNL A   1      44.823  33.042  30.576  1.00  0.00     0.058 A 
ATOM     42  C   UNL A   1      44.816  33.408  31.932  1.00  0.00     0.135 A 
ATOM     43  C   UNL A   1      44.898  34.073  29.624  1.00  0.00     0.135 A 
ATOM     44  F   UNL A   1      44.702  32.468  32.885  1.00  0.00    -0.206 F 
ATOM     45  C   UNL A   1      44.841  34.743  32.327  1.00  0.00     0.059 A 
ATOM     46  C   UNL A   1      44.951  35.412  29.995  1.00  0.00     0.059 A 
ATOM     47  F   UNL A   1      44.886  33.784  28.313  1.00  0.00    -0.206 F 
ATOM     48  C   UNL A   1      44.903  35.739  31.350  1.00  0.00     0.060 A 
BRANCH  48  49
ATOM     49  S   UNL A   1      44.905  37.467  31.872  1.00  0.00     0.124 S 
ATOM     50  O   UNL A   1      46.287  37.637  32.312  1.00  0.00    -0.237 OA
ATOM     51  O   UNL A   1      44.540  38.165  30.643  1.00  0.00    -0.237 OA
ATOM     52  O   UNL A   1      43.902  37.504  32.932  1.00  0.00    -0.744 OA
ENDBRANCH  48  49
ENDBRANCH  27  41
BRANCH  28  53
ATOM     53  C   UNL A   1      43.090  23.547  27.456  1.00  0.00     0.058 A 
ATOM     54  C   UNL A   1      43.183  23.216  26.096  1.00  0.00     0.135 A 
ATOM     55  C   UNL A   1      42.746  22.516  28.349  1.00  0.00     0.135 A 
ATOM     56  F   UNL A   1      43.500  24.160  25.197  1.00  0.00    -0.206 F 
ATOM     57  C   UNL A   1      42.937  21.922  25.640  1.00  0.00     0.059 A 
ATOM     58  C   UNL A   1      42.524  21.210  27.921  1.00  0.00     0.059 A 
ATOM     59  F   UNL A   1      42.647  22.767  29.664  1.00  0.00    -0.206 F 
ATOM     60  C   UNL A   1      42.611  20.924  26.561  1.00  0.00     0.060 A 
BRANCH  60  61
ATOM     61  S   UNL A   1      42.326  19.243  25.966  1.00  0.00     0.124 S 
ATOM     62  O   UNL A   1      40.867  19.199  25.899  1.00  0.00    -0.237 OA
ATOM     63  O   UNL A   1      43.023  19.248  24.685  1.00  0.00    -0.237 OA
ATOM     64  O   UNL A   1      42.933  18.412  26.999  1.00  0.00    -0.744 OA
ENDBRANCH  60  61
ENDBRANCH  28  53
BRANCH  40  65
ATOM     65  C   UNL A   1      48.839  27.313  28.754  1.00  0.00     0.058 A 
ATOM     66  C   UNL A   1      49.597  27.601  27.610  1.00  0.00     0.135 A 
ATOM     67  C   UNL A   1      49.497  26.774  29.871  1.00  0.00     0.135 A 
ATOM     68  F   UNL A   1      49.006  28.110  26.518  1.00  0.00    -0.206 F 
ATOM     69  C   UNL A   1      50.961  27.349  27.569  1.00  0.00     0.059 A 
ATOM     70  C   UNL A   1      50.866  26.542  29.862  1.00  0.00     0.059 A 
ATOM     71  F   UNL A   1      48.813  26.496  30.991  1.00  0.00    -0.206 F 
ATOM     72  C   UNL A   1      51.587  26.826  28.703  1.00  0.00     0.060 A 
BRANCH  72  73
ATOM     73  S   UNL A   1      53.369  26.556  28.656  1.00  0.00     0.124 S 
ATOM     74  O   UNL A   1      53.585  25.819  29.897  1.00  0.00    -0.237 OA
ATOM     75  O   UNL A   1      53.536  25.791  27.425  1.00  0.00    -0.237 OA
ATOM     76  O   UNL A   1      53.917  27.909  28.625  1.00  0.00    -0.744 OA
ENDBRANCH  72  73
ENDBRANCH  40  65
ENDBRANCH  14  15
ENDBRANCH   7   9
ENDBRANCH   6   7
ENDBRANCH   5   6
ENDBRANCH   4   5
ENDBRANCH   3   4
ENDBRANCH   2   3
ENDBRANCH   1   2
BRANCH   1  77
ATOM     77  O   UNL A   1      32.575  35.435  31.010  1.00  0.00    -0.377 OA
BRANCH  77  78
ATOM     78  C   UNL A   1      32.299  36.604  31.770  1.00  0.00     0.188 C 
BRANCH  78  79
ATOM     79  C   UNL A   1      32.752  36.640  33.231  1.00  0.00     0.188 C 
BRANCH  79  80
ATOM     80  O   UNL A   1      34.138  36.574  33.452  1.00  0.00    -0.376 OA
BRANCH  80  81
ATOM     81  C   UNL A   1      34.764  35.367  33.864  1.00  0.00     0.202 C 
BRANCH  81  82
ATOM     82  C   UNL A   1      36.038  34.721  33.266  1.00  0.00     0.261 C 
BRANCH  82  83
ATOM     83  O   UNL A   1      37.337  35.013  33.829  1.00  0.00    -0.463 OA
BRANCH  83  84
ATOM     84  C   UNL A   1      38.229  34.002  33.745  1.00  0.00     0.309 C 
ATOM     85  O   UNL A   1      38.402  33.178  34.641  1.00  0.00    -0.252 OA
BRANCH  84  86
ATOM     86  C   UNL A   1      39.095  33.922  32.487  1.00  0.00     0.112 C 
BRANCH  86  87
ATOM     87  C   UNL A   1      40.645  33.994  32.513  1.00  0.00     0.052 C 
BRANCH  87  88
ATOM     88  C   UNL A   1      41.492  34.053  33.766  1.00  0.00    -0.033 A 
ATOM     89  C   UNL A   1      41.818  35.271  34.371  1.00  0.00     0.005 A 
ATOM     90  C   UNL A   1      41.959  32.870  34.395  1.00  0.00     0.021 A 
ATOM     91  C   UNL A   1      42.639  35.322  35.504  1.00  0.00     0.000 A 
ATOM     92  C   UNL A   1      42.816  32.926  35.502  1.00  0.00     0.016 A 
ATOM     93  Br  UNL A   1      41.463  31.120  33.815  1.00  0.00    -0.051 Br
ATOM     94  C   UNL A   1      43.162  34.155  36.051  1.00  0.00     0.001 A 
ENDBRANCH  87  88
ENDBRANCH  86  87
BRANCH  86  95
ATOM     95  C   UNL A   1      38.549  32.917  31.466  1.00  0.00     0.131 C 
BRANCH  95  96
ATOM     96  C   UNL A   1      38.309  33.506  30.087  1.00  0.00     0.389 C 
ATOM     97  F   UNL A   1      37.120  34.134  30.010  1.00  0.00    -0.171 F 
ATOM     98  F   UNL A   1      39.267  34.426  29.819  1.00  0.00    -0.171 F 
ATOM     99  F   UNL A   1      38.384  32.565  29.126  1.00  0.00    -0.171 F 
ENDBRANCH  95  96
ENDBRANCH  86  95
ENDBRANCH  84  86
ENDBRANCH  83  84
ENDBRANCH  82  83
ENDBRANCH  81  82
ENDBRANCH  80  81
ENDBRANCH  79  80
ENDBRANCH  78  79
ENDBRANCH  77  78
ENDBRANCH   1  77
TORSDOF 27
ENDMDL
MODEL 2
REMARK VINA RESULT:      -7.2      4.666     11.247
REMARK SMILES O=C(OCCOCCOCCOCCOC(=O)[C@@H](Cc1ccccc1Br)CC(F)(F)F)c1ccc(-c2c3nc(c(-c4c(F)cc(S(=O)(=O)[O-])cc4F)c4ccc([nH]4)c(-c4c(F)cc(S(=O)(=O)[O-])cc4F)c4nc(c(-c5c(F)cc(S(=O)(=O)[O-])cc5F)c5ccc2[nH]5)C=C4)C=C3)cc1
REMARK SMILES IDX 8 1 7 2 6 3 5 4 4 5 3 6 2 7 1 8 32 9 33 10 97 11 34 12 96 13
REMARK SMILES IDX 35 14 36 15 37 16 90 17 38 18 95 19 89 20 91 21 39 22 94 23
REMARK SMILES IDX 88 24 87 25 40 27 74 28 53 29 73 30 54 31 57 32 72 33 92 34
REMARK SMILES IDX 55 35 56 36 71 38 93 39 58 40 41 41 42 42 51 43 43 44 44 45
REMARK SMILES IDX 50 46 52 47 45 48 46 49 47 50 48 51 49 52 75 53 76 54 85 55
REMARK SMILES IDX 77 56 78 57 84 58 86 59 79 60 80 61 81 62 82 63 83 64 59 65
REMARK SMILES IDX 60 66 69 67 61 68 62 69 68 70 70 71 63 72 64 73 65 74 66 75
REMARK SMILES IDX 67 76 9 77 10 78 11 79 12 80 13 81 14 82 15 83 16 84 17 85
REMARK SMILES IDX 18 86 19 87 20 88 21 89 25 90 22 91 24 92 26 93 23 94 27 95
REMARK SMILES IDX 28 96 29 97 30 98 31 99
REMARK H PARENT 91 26 57 37
REMARK Flexibility Score: inf
ROOT
ATOM      1  C   UNL A   1      36.537  22.606  23.736  1.00  0.00     0.188 C 
ENDROOT
BRANCH   1   2
ATOM      2  C   UNL A   1      36.568  21.452  24.718  1.00  0.00     0.188 C 
BRANCH   2   3
ATOM      3  O   UNL A   1      37.856  21.432  25.312  1.00  0.00    -0.376 OA
BRANCH   3   4
ATOM      4  C   UNL A   1      38.598  20.228  25.189  1.00  0.00     0.202 C 
BRANCH   4   5
ATOM      5  C   UNL A   1      39.728  20.093  26.208  1.00  0.00     0.261 C 
BRANCH   5   6
ATOM      6  O   UNL A   1      40.809  19.262  25.753  1.00  0.00    -0.460 OA
BRANCH   6   7
ATOM      7  C   UNL A   1      42.144  19.487  25.877  1.00  0.00     0.338 C 
ATOM      8  O   UNL A   1      42.908  18.530  25.749  1.00  0.00    -0.246 OA
BRANCH   7   9
ATOM      9  C   UNL A   1      42.748  20.821  26.182  1.00  0.00     0.060 A 
ATOM     10  C   UNL A   1      42.864  21.373  27.456  1.00  0.00     0.016 A 
ATOM     11  C   UNL A   1      43.320  21.535  25.117  1.00  0.00     0.016 A 
ATOM     12  C   UNL A   1      43.472  22.588  27.688  1.00  0.00     0.010 A 
ATOM     13  C   UNL A   1      43.940  22.772  25.332  1.00  0.00     0.010 A 
ATOM     14  C   UNL A   1      43.987  23.306  26.624  1.00  0.00    -0.014 A 
BRANCH  14  15
ATOM     15  C   UNL A   1      44.325  24.708  26.902  1.00  0.00     0.031 A 
ATOM     16  C   UNL A   1      45.734  25.131  26.624  1.00  0.00     0.074 A 
ATOM     17  C   UNL A   1      43.348  25.591  27.176  1.00  0.00     0.049 A 
ATOM     18  N   UNL A   1      46.316  26.271  26.853  1.00  0.00    -0.248 NA
ATOM     19  C   UNL A   1      46.604  24.126  25.981  1.00  0.00     0.031 C 
ATOM     20  C   UNL A   1      41.918  25.274  27.249  1.00  0.00     0.029 A 
ATOM     21  N   UNL A   1      43.403  26.937  27.407  1.00  0.00    -0.354 N 
ATOM     22  C   UNL A   1      47.632  26.104  26.439  1.00  0.00     0.074 A 
ATOM     23  C   UNL A   1      47.763  24.761  25.929  1.00  0.00     0.031 C 
ATOM     24  C   UNL A   1      41.232  26.398  27.510  1.00  0.00     0.029 A 
ATOM     25  C   UNL A   1      42.180  27.488  27.706  1.00  0.00     0.049 A 
ATOM     26  H   UNL A   1      44.236  27.460  27.363  1.00  0.00     0.167 HD
ATOM     27  C   UNL A   1      48.638  27.003  26.508  1.00  0.00     0.037 A 
ATOM     28  C   UNL A   1      41.886  28.723  28.151  1.00  0.00     0.037 A 
ATOM     29  C   UNL A   1      48.442  28.331  27.018  1.00  0.00     0.049 A 
ATOM     30  C   UNL A   1      43.038  29.677  28.329  1.00  0.00     0.074 A 
ATOM     31  C   UNL A   1      49.372  29.327  27.232  1.00  0.00     0.029 A 
ATOM     32  N   UNL A   1      47.203  28.842  27.397  1.00  0.00    -0.354 N 
ATOM     33  N   UNL A   1      44.309  29.489  28.053  1.00  0.00    -0.248 NA
ATOM     34  C   UNL A   1      42.731  30.994  28.894  1.00  0.00     0.031 C 
ATOM     35  C   UNL A   1      48.702  30.424  27.788  1.00  0.00     0.029 A 
ATOM     36  C   UNL A   1      47.346  30.133  27.864  1.00  0.00     0.049 A 
ATOM     37  H   UNL A   1      46.350  28.354  27.340  1.00  0.00     0.167 HD
ATOM     38  C   UNL A   1      44.956  30.667  28.399  1.00  0.00     0.074 A 
ATOM     39  C   UNL A   1      43.927  31.568  28.887  1.00  0.00     0.031 C 
ATOM     40  C   UNL A   1      46.274  30.983  28.329  1.00  0.00     0.037 A 
BRANCH  27  41
ATOM     41  C   UNL A   1      50.010  26.523  26.132  1.00  0.00     0.058 A 
ATOM     42  C   UNL A   1      50.840  25.826  27.025  1.00  0.00     0.135 A 
ATOM     43  C   UNL A   1      50.534  26.837  24.866  1.00  0.00     0.135 A 
ATOM     44  F   UNL A   1      50.409  25.538  28.264  1.00  0.00    -0.206 F 
ATOM     45  C   UNL A   1      52.150  25.491  26.692  1.00  0.00     0.059 A 
ATOM     46  C   UNL A   1      51.830  26.488  24.501  1.00  0.00     0.059 A 
ATOM     47  F   UNL A   1      49.794  27.521  23.980  1.00  0.00    -0.206 F 
ATOM     48  C   UNL A   1      52.638  25.831  25.429  1.00  0.00     0.060 A 
BRANCH  48  49
ATOM     49  S   UNL A   1      54.346  25.417  25.018  1.00  0.00     0.124 S 
ATOM     50  O   UNL A   1      55.059  25.933  26.183  1.00  0.00    -0.237 OA
ATOM     51  O   UNL A   1      54.295  23.963  24.901  1.00  0.00    -0.237 OA
ATOM     52  O   UNL A   1      54.581  26.136  23.770  1.00  0.00    -0.744 OA
ENDBRANCH  48  49
ENDBRANCH  27  41
BRANCH  28  53
ATOM     53  C   UNL A   1      40.491  29.074  28.535  1.00  0.00     0.058 A 
ATOM     54  C   UNL A   1      39.515  29.382  27.577  1.00  0.00     0.135 A 
ATOM     55  C   UNL A   1      40.099  29.096  29.886  1.00  0.00     0.135 A 
ATOM     56  F   UNL A   1      39.832  29.385  26.274  1.00  0.00    -0.206 F 
ATOM     57  C   UNL A   1      38.209  29.707  27.941  1.00  0.00     0.059 A 
ATOM     58  C   UNL A   1      38.795  29.388  30.273  1.00  0.00     0.059 A 
ATOM     59  F   UNL A   1      40.986  28.804  30.851  1.00  0.00    -0.206 F 
ATOM     60  C   UNL A   1      37.858  29.704  29.293  1.00  0.00     0.060 A 
BRANCH  60  61
ATOM     61  S   UNL A   1      36.155  30.093  29.756  1.00  0.00     0.124 S 
ATOM     62  O   UNL A   1      36.014  29.350  31.006  1.00  0.00    -0.237 OA
ATOM     63  O   UNL A   1      36.194  31.546  29.878  1.00  0.00    -0.237 OA
ATOM     64  O   UNL A   1      35.377  29.586  28.632  1.00  0.00    -0.744 OA
ENDBRANCH  60  61
ENDBRANCH  28  53
BRANCH  40  65
ATOM     65  C   UNL A   1      46.658  32.368  28.755  1.00  0.00     0.058 A 
ATOM     66  C   UNL A   1      46.615  33.449  27.864  1.00  0.00     0.135 A 
ATOM     67  C   UNL A   1      46.990  32.621  30.095  1.00  0.00     0.135 A 
ATOM     68  F   UNL A   1      46.308  33.251  26.572  1.00  0.00    -0.206 F 
ATOM     69  C   UNL A   1      46.907  34.740  28.285  1.00  0.00     0.059 A 
ATOM     70  C   UNL A   1      47.256  33.907  30.544  1.00  0.00     0.059 A 
ATOM     71  F   UNL A   1      47.030  31.616  30.985  1.00  0.00    -0.206 F 
ATOM     72  C   UNL A   1      47.220  34.958  29.628  1.00  0.00     0.060 A 
BRANCH  72  73
ATOM     73  S   UNL A   1      47.542  36.646  30.175  1.00  0.00     0.124 S 
ATOM     74  O   UNL A   1      46.546  36.807  31.229  1.00  0.00    -0.237 OA
ATOM     75  O   UNL A   1      48.930  36.570  30.619  1.00  0.00    -0.237 OA
ATOM     76  O   UNL A   1      47.317  37.441  28.971  1.00  0.00    -0.744 OA
ENDBRANCH  72  73
ENDBRANCH  40  65
ENDBRANCH  14  15
ENDBRANCH   7   9
ENDBRANCH   6   7
ENDBRANCH   5   6
ENDBRANCH   4   5
ENDBRANCH   3   4
ENDBRANCH   2   3
ENDBRANCH   1   2
BRANCH   1  77
ATOM     77  O   UNL A   1      35.307  22.727  23.026  1.00  0.00    -0.377 OA
BRANCH  77  78
ATOM     78  C   UNL A   1      34.098  22.862  23.762  1.00  0.00     0.188 C 
BRANCH  78  79
ATOM     79  C   UNL A   1      32.819  23.201  22.997  1.00  0.00     0.188 C 
BRANCH  79  80
ATOM     80  O   UNL A   1      32.986  23.900  21.789  1.00  0.00    -0.376 OA
BRANCH  80  81
ATOM     81  C   UNL A   1      33.456  25.241  21.770  1.00  0.00     0.202 C 
BRANCH  81  82
ATOM     82  C   UNL A   1      32.819  26.466  22.470  1.00  0.00     0.261 C 
BRANCH  82  83
ATOM     83  O   UNL A   1      33.656  27.485  23.061  1.00  0.00    -0.463 OA
BRANCH  83  84
ATOM     84  C   UNL A   1      32.984  28.509  23.631  1.00  0.00     0.309 C 
ATOM     85  O   UNL A   1      33.443  29.645  23.732  1.00  0.00    -0.252 OA
BRANCH  84  86
ATOM     86  C   UNL A   1      31.603  28.211  24.219  1.00  0.00     0.112 C 
BRANCH  86  87
ATOM     87  C   UNL A   1      31.393  27.559  25.611  1.00  0.00     0.052 C 
BRANCH  87  88
ATOM     88  C   UNL A   1      31.340  26.070  25.876  1.00  0.00    -0.033 A 
ATOM     89  C   UNL A   1      32.280  25.440  26.698  1.00  0.00     0.005 A 
ATOM     90  C   UNL A   1      30.312  25.261  25.329  1.00  0.00     0.021 A 
ATOM     91  C   UNL A   1      32.253  24.055  26.904  1.00  0.00     0.000 A 
ATOM     92  C   UNL A   1      30.312  23.870  25.500  1.00  0.00     0.016 A 
ATOM     93  Br  UNL A   1      28.846  25.977  24.336  1.00  0.00    -0.051 Br
ATOM     94  C   UNL A   1      31.290  23.268  26.283  1.00  0.00     0.001 A 
ENDBRANCH  87  88
ENDBRANCH  86  87
BRANCH  86  95
ATOM     95  C   UNL A   1      30.584  29.311  23.902  1.00  0.00     0.131 C 
BRANCH  95  96
ATOM     96  C   UNL A   1      29.992  29.221  22.506  1.00  0.00     0.389 C 
ATOM     97  F   UNL A   1      29.992  27.957  22.042  1.00  0.00    -0.171 F 
ATOM     98  F   UNL A   1      28.702  29.636  22.540  1.00  0.00    -0.171 F 
ATOM     99  F   UNL A   1      30.642  30.020  21.639  1.00  0.00    -0.171 F 
ENDBRANCH  95  96
ENDBRANCH  86  95
ENDBRANCH  84  86
ENDBRANCH  83  84
ENDBRANCH  82  83
ENDBRANCH  81  82
ENDBRANCH  80  81
ENDBRANCH  79  80
ENDBRANCH  78  79
ENDBRANCH  77  78
ENDBRANCH   1  77
TORSDOF 27
ENDMDL
MODEL 3
REMARK VINA RESULT:      -7.0      4.210     10.246
REMARK SMILES O=C(OCCOCCOCCOCCOC(=O)[C@@H](Cc1ccccc1Br)CC(F)(F)F)c1ccc(-c2c3nc(c(-c4c(F)cc(S(=O)(=O)[O-])cc4F)c4ccc([nH]4)c(-c4c(F)cc(S(=O)(=O)[O-])cc4F)c4nc(c(-c5c(F)cc(S(=O)(=O)[O-])cc5F)c5ccc2[nH]5)C=C4)C=C3)cc1
REMARK SMILES IDX 8 1 7 2 6 3 5 4 4 5 3 6 2 7 1 8 32 9 33 10 97 11 34 12 96 13
REMARK SMILES IDX 35 14 36 15 37 16 90 17 38 18 95 19 89 20 91 21 39 22 94 23
REMARK SMILES IDX 88 24 87 25 40 27 74 28 53 29 73 30 54 31 57 32 72 33 92 34
REMARK SMILES IDX 55 35 56 36 71 38 93 39 58 40 41 41 42 42 51 43 43 44 44 45
REMARK SMILES IDX 50 46 52 47 45 48 46 49 47 50 48 51 49 52 75 53 76 54 85 55
REMARK SMILES IDX 77 56 78 57 84 58 86 59 79 60 80 61 81 62 82 63 83 64 59 65
REMARK SMILES IDX 60 66 69 67 61 68 62 69 68 70 70 71 63 72 64 73 65 74 66 75
REMARK SMILES IDX 67 76 9 77 10 78 11 79 12 80 13 81 14 82 15 83 16 84 17 85
REMARK SMILES IDX 18 86 19 87 20 88 21 89 25 90 22 91 24 92 26 93 23 94 27 95
REMARK SMILES IDX 28 96 29 97 30 98 31 99
REMARK H PARENT 91 26 57 37
REMARK Flexibility Score: inf
ROOT
ATOM      1  C   UNL A   1      36.323  22.924  23.836  1.00  0.00     0.188 C 
ENDROOT
BRANCH   1   2
ATOM      2  C   UNL A   1      36.760  21.481  23.988  1.00  0.00     0.188 C 
BRANCH   2   3
ATOM      3  O   UNL A   1      37.796  21.448  24.956  1.00  0.00    -0.376 OA
BRANCH   3   4
ATOM      4  C   UNL A   1      38.499  20.223  25.099  1.00  0.00     0.202 C 
BRANCH   4   5
ATOM      5  C   UNL A   1      39.574  20.251  26.184  1.00  0.00     0.261 C 
BRANCH   5   6
ATOM      6  O   UNL A   1      40.792  19.593  25.796  1.00  0.00    -0.460 OA
BRANCH   6   7
ATOM      7  C   UNL A   1      42.068  19.971  26.071  1.00  0.00     0.338 C 
ATOM      8  O   UNL A   1      42.943  19.105  26.070  1.00  0.00    -0.246 OA
BRANCH   7   9
ATOM      9  C   UNL A   1      42.480  21.371  26.400  1.00  0.00     0.060 A 
ATOM     10  C   UNL A   1      42.497  22.431  25.496  1.00  0.00     0.016 A 
ATOM     11  C   UNL A   1      42.791  21.661  27.738  1.00  0.00     0.016 A 
ATOM     12  C   UNL A   1      42.842  23.715  25.861  1.00  0.00     0.010 A 
ATOM     13  C   UNL A   1      43.146  22.958  28.128  1.00  0.00     0.010 A 
ATOM     14  C   UNL A   1      43.195  23.979  27.172  1.00  0.00    -0.014 A 
BRANCH  14  15
ATOM     15  C   UNL A   1      43.847  25.273  27.412  1.00  0.00     0.031 A 
ATOM     16  C   UNL A   1      43.040  26.313  28.124  1.00  0.00     0.074 A 
ATOM     17  C   UNL A   1      45.167  25.409  27.193  1.00  0.00     0.049 A 
ATOM     18  N   UNL A   1      43.335  27.552  28.389  1.00  0.00    -0.248 NA
ATOM     19  C   UNL A   1      41.717  25.887  28.624  1.00  0.00     0.031 C 
ATOM     20  C   UNL A   1      46.055  24.353  26.698  1.00  0.00     0.029 A 
ATOM     21  N   UNL A   1      45.998  26.476  27.394  1.00  0.00    -0.354 N 
ATOM     22  C   UNL A   1      42.217  28.070  29.030  1.00  0.00     0.074 A 
ATOM     23  C   UNL A   1      41.241  27.012  29.131  1.00  0.00     0.031 C 
ATOM     24  C   UNL A   1      47.308  24.829  26.631  1.00  0.00     0.029 A 
ATOM     25  C   UNL A   1      47.292  26.240  26.995  1.00  0.00     0.049 A 
ATOM     26  H   UNL A   1      45.699  27.328  27.785  1.00  0.00     0.167 HD
ATOM     27  C   UNL A   1      42.030  29.334  29.469  1.00  0.00     0.037 A 
ATOM     28  C   UNL A   1      48.320  27.100  26.883  1.00  0.00     0.037 A 
ATOM     29  C   UNL A   1      43.045  30.342  29.346  1.00  0.00     0.049 A 
ATOM     30  C   UNL A   1      48.060  28.531  27.272  1.00  0.00     0.074 A 
ATOM     31  C   UNL A   1      42.981  31.683  29.663  1.00  0.00     0.029 A 
ATOM     32  N   UNL A   1      44.326  30.099  28.858  1.00  0.00    -0.354 N 
ATOM     33  N   UNL A   1      46.963  29.060  27.768  1.00  0.00    -0.248 NA
ATOM     34  C   UNL A   1      49.153  29.486  27.069  1.00  0.00     0.031 C 
ATOM     35  C   UNL A   1      44.209  32.262  29.319  1.00  0.00     0.029 A 
ATOM     36  C   UNL A   1      45.058  31.269  28.845  1.00  0.00     0.049 A 
ATOM     37  H   UNL A   1      44.662  29.221  28.567  1.00  0.00     0.167 HD
ATOM     38  C   UNL A   1      47.236  30.408  27.950  1.00  0.00     0.074 A 
ATOM     39  C   UNL A   1      48.610  30.607  27.526  1.00  0.00     0.031 C 
ATOM     40  C   UNL A   1      46.432  31.397  28.417  1.00  0.00     0.037 A 
BRANCH  27  41
ATOM     41  C   UNL A   1      40.667  29.681  29.994  1.00  0.00     0.058 A 
ATOM     42  C   UNL A   1      39.551  29.842  29.157  1.00  0.00     0.135 A 
ATOM     43  C   UNL A   1      40.493  29.930  31.367  1.00  0.00     0.135 A 
ATOM     44  F   UNL A   1      39.667  29.660  27.832  1.00  0.00    -0.206 F 
ATOM     45  C   UNL A   1      38.324  30.274  29.655  1.00  0.00     0.059 A 
ATOM     46  C   UNL A   1      39.270  30.336  31.890  1.00  0.00     0.059 A 
ATOM     47  F   UNL A   1      41.530  29.813  32.211  1.00  0.00    -0.206 F 
ATOM     48  C   UNL A   1      38.194  30.523  31.023  1.00  0.00     0.060 A 
BRANCH  48  49
ATOM     49  S   UNL A   1      36.607  31.110  31.651  1.00  0.00     0.124 S 
ATOM     50  O   UNL A   1      36.618  32.503  31.213  1.00  0.00    -0.237 OA
ATOM     51  O   UNL A   1      35.659  30.238  30.966  1.00  0.00    -0.237 OA
ATOM     52  O   UNL A   1      36.715  30.906  33.092  1.00  0.00    -0.744 OA
ENDBRANCH  48  49
ENDBRANCH  27  41
BRANCH  28  53
ATOM     53  C   UNL A   1      49.618  26.652  26.306  1.00  0.00     0.058 A 
ATOM     54  C   UNL A   1      49.914  26.805  24.944  1.00  0.00     0.135 A 
ATOM     55  C   UNL A   1      50.604  26.065  27.119  1.00  0.00     0.135 A 
ATOM     56  F   UNL A   1      49.008  27.351  24.118  1.00  0.00    -0.206 F 
ATOM     57  C   UNL A   1      51.131  26.388  24.408  1.00  0.00     0.059 A 
ATOM     58  C   UNL A   1      51.839  25.668  26.614  1.00  0.00     0.059 A 
ATOM     59  F   UNL A   1      50.384  25.897  28.432  1.00  0.00    -0.206 F 
ATOM     60  C   UNL A   1      52.090  25.822  25.253  1.00  0.00     0.060 A 
BRANCH  60  61
ATOM     61  S   UNL A   1      53.678  25.314  24.558  1.00  0.00     0.124 S 
ATOM     62  O   UNL A   1      54.616  26.047  25.405  1.00  0.00    -0.237 OA
ATOM     63  O   UNL A   1      53.647  23.868  24.744  1.00  0.00    -0.237 OA
ATOM     64  O   UNL A   1      53.598  25.763  23.173  1.00  0.00    -0.744 OA
ENDBRANCH  60  61
ENDBRANCH  28  53
BRANCH  40  65
ATOM     65  C   UNL A   1      47.040  32.763  28.525  1.00  0.00     0.058 A 
ATOM     66  C   UNL A   1      46.952  33.691  27.477  1.00  0.00     0.135 A 
ATOM     67  C   UNL A   1      47.642  33.169  29.726  1.00  0.00     0.135 A 
ATOM     68  F   UNL A   1      46.390  33.342  26.309  1.00  0.00    -0.206 F 
ATOM     69  C   UNL A   1      47.459  34.977  27.611  1.00  0.00     0.059 A 
ATOM     70  C   UNL A   1      48.128  34.459  29.892  1.00  0.00     0.059 A 
ATOM     71  F   UNL A   1      47.735  32.317  30.759  1.00  0.00    -0.206 F 
ATOM     72  C   UNL A   1      48.039  35.352  28.825  1.00  0.00     0.060 A 
BRANCH  72  73
ATOM     73  S   UNL A   1      48.642  37.042  29.005  1.00  0.00     0.124 S 
ATOM     74  O   UNL A   1      47.393  37.797  29.026  1.00  0.00    -0.237 OA
ATOM     75  O   UNL A   1      49.367  36.980  30.271  1.00  0.00    -0.237 OA
ATOM     76  O   UNL A   1      49.474  37.234  27.822  1.00  0.00    -0.744 OA
ENDBRANCH  72  73
ENDBRANCH  40  65
ENDBRANCH  14  15
ENDBRANCH   7   9
ENDBRANCH   6   7
ENDBRANCH   5   6
ENDBRANCH   4   5
ENDBRANCH   3   4
ENDBRANCH   2   3
ENDBRANCH   1   2
BRANCH   1  77
ATOM     77  O   UNL A   1      35.041  23.202  24.392  1.00  0.00    -0.377 OA
BRANCH  77  78
ATOM     78  C   UNL A   1      34.660  22.554  25.599  1.00  0.00     0.188 C 
BRANCH  78  79
ATOM     79  C   UNL A   1      33.341  21.781  25.620  1.00  0.00     0.188 C 
BRANCH  79  80
ATOM     80  O   UNL A   1      32.317  22.278  24.795  1.00  0.00    -0.376 OA
BRANCH  80  81
ATOM     81  C   UNL A   1      31.695  23.528  25.062  1.00  0.00     0.202 C 
BRANCH  81  82
ATOM     82  C   UNL A   1      31.510  24.206  26.441  1.00  0.00     0.261 C 
BRANCH  82  83
ATOM     83  O   UNL A   1      32.351  25.315  26.828  1.00  0.00    -0.463 OA
BRANCH  83  84
ATOM     84  C   UNL A   1      31.802  26.535  26.637  1.00  0.00     0.309 C 
ATOM     85  O   UNL A   1      30.613  26.777  26.833  1.00  0.00    -0.252 OA
BRANCH  84  86
ATOM     86  C   UNL A   1      32.709  27.646  26.105  1.00  0.00     0.112 C 
BRANCH  86  87
ATOM     87  C   UNL A   1      32.737  28.082  24.616  1.00  0.00     0.052 C 
BRANCH  87  88
ATOM     88  C   UNL A   1      32.620  27.146  23.433  1.00  0.00    -0.033 A 
ATOM     89  C   UNL A   1      33.647  26.257  23.100  1.00  0.00     0.005 A 
ATOM     90  C   UNL A   1      31.448  27.110  22.635  1.00  0.00     0.021 A 
ATOM     91  C   UNL A   1      33.552  25.424  21.978  1.00  0.00     0.000 A 
ATOM     92  C   UNL A   1      31.373  26.309  21.488  1.00  0.00     0.016 A 
ATOM     93  Br  UNL A   1      29.880  28.119  23.048  1.00  0.00    -0.051 Br
ATOM     94  C   UNL A   1      32.431  25.472  21.156  1.00  0.00     0.001 A 
ENDBRANCH  87  88
ENDBRANCH  86  87
BRANCH  86  95
ATOM     95  C   UNL A   1      32.832  28.818  27.085  1.00  0.00     0.131 C 
BRANCH  95  96
ATOM     96  C   UNL A   1      34.220  29.431  27.143  1.00  0.00     0.389 C 
ATOM     97  F   UNL A   1      35.050  28.880  26.237  1.00  0.00    -0.171 F 
ATOM     98  F   UNL A   1      34.138  30.753  26.861  1.00  0.00    -0.171 F 
ATOM     99  F   UNL A   1      34.760  29.321  28.372  1.00  0.00    -0.171 F 
ENDBRANCH  95  96
ENDBRANCH  86  95
ENDBRANCH  84  86
ENDBRANCH  83  84
ENDBRANCH  82  83
ENDBRANCH  81  82
ENDBRANCH  80  81
ENDBRANCH  79  80
ENDBRANCH  78  79
ENDBRANCH  77  78
ENDBRANCH   1  77
TORSDOF 27
ENDMDL
