MODEL 1
REMARK VINA RESULT:      -9.4      0.000      0.000
REMARK SMILES Nc1c(Nc2ccc(I)cc2)ncnc1Nc1ccc(C(=O)OCCOCCOCCOCCOC(=O)c2ccc(-c3c4nc(c(-c5c(F)cc(S(=O)(=O)[O-])cc5F)c5ccc([nH]5)c(-c5c(F)cc(S(=O)(=O)[O-])cc5F)c5nc(c(-c6c(F)cc(S(=O)(=O)[O-])cc6F)c6ccc3[nH]6)C=C5)C=C4)cc2)cc1
REMARK SMILES IDX 28 1 27 2 26 3 25 4 24 5 23 6 21 7 22 8 20 9 17 10 18 11
REMARK SMILES IDX 105 12 19 13 104 14 16 15 15 17 2 18 3 19 12 20 14 21 13 22
REMARK SMILES IDX 1 23 4 26 5 28 6 29 11 30 7 31 10 32 8 33 9 34 29 35 30 36
REMARK SMILES IDX 31 37 32 38 33 39 34 40 35 41 36 42 37 43 38 44 39 45 103 46
REMARK SMILES IDX 40 47 102 48 41 49 42 50 43 51 96 52 44 53 101 54 95 55
REMARK SMILES IDX 97 56 45 57 100 58 94 59 93 60 46 62 80 63 59 64 79 65 60 66
REMARK SMILES IDX 63 67 78 68 98 69 61 70 62 71 77 73 99 74 64 75 47 76 48 77
REMARK SMILES IDX 57 78 49 79 50 80 56 81 58 82 51 83 52 84 53 85 54 86 55 87
REMARK SMILES IDX 81 88 82 89 91 90 83 91 84 92 90 93 92 94 85 95 86 96 87 97
REMARK SMILES IDX 88 98 89 99 65 100 66 101 75 102 67 103 68 104 74 105 76 106
REMARK SMILES IDX 69 107 70 108 71 109 72 110 73 111
REMARK H PARENT 16 16 1 24 1 25 4 27 97 61 63 72
REMARK Flexibility Score: inf
ROOT
ATOM      1  C   UNL A   1      38.277  23.995  26.445  1.00  0.00     0.188 C 
ENDROOT
BRANCH   1   2
ATOM      2  C   UNL A   1      36.957  23.730  25.692  1.00  0.00     0.188 C 
BRANCH   2   3
ATOM      3  O   UNL A   1      37.129  23.086  24.444  1.00  0.00    -0.376 OA
BRANCH   3   4
ATOM      4  C   UNL A   1      36.701  21.752  24.244  1.00  0.00     0.202 C 
BRANCH   4   5
ATOM      5  C   UNL A   1      36.047  20.903  25.348  1.00  0.00     0.261 C 
BRANCH   5   6
ATOM      6  O   UNL A   1      34.651  21.094  25.570  1.00  0.00    -0.460 OA
BRANCH   6   7
ATOM      7  C   UNL A   1      33.813  20.671  24.602  1.00  0.00     0.338 C 
ATOM      8  O   UNL A   1      33.619  19.520  24.249  1.00  0.00    -0.246 OA
BRANCH   7   9
ATOM      9  C   UNL A   1      32.981  21.826  24.196  1.00  0.00     0.060 A 
ATOM     10  C   UNL A   1      31.548  24.096  23.433  1.00  0.00     0.040 A 
ATOM     11  C   UNL A   1      32.625  23.658  22.655  1.00  0.00     0.027 A 
ATOM     12  C   UNL A   1      31.121  23.317  24.521  1.00  0.00     0.027 A 
ATOM     13  C   UNL A   1      33.352  22.535  23.046  1.00  0.00     0.018 A 
ATOM     14  C   UNL A   1      31.831  22.181  24.904  1.00  0.00     0.018 A 
BRANCH  10  15
ATOM     15  N   UNL A   1      31.137  25.447  23.331  1.00  0.00    -0.338 N 
ATOM     16  H   UNL A   1      30.263  25.666  22.934  1.00  0.00     0.168 HD
BRANCH  15  17
ATOM     17  C   UNL A   1      31.985  26.490  23.801  1.00  0.00     0.159 A 
ATOM     18  C   UNL A   1      31.978  26.837  25.151  1.00  0.00     0.118 A 
ATOM     19  C   UNL A   1      32.845  27.888  25.490  1.00  0.00     0.159 A 
ATOM     20  N   UNL A   1      33.594  28.544  24.582  1.00  0.00    -0.217 NA
ATOM     21  N   UNL A   1      32.768  27.117  22.898  1.00  0.00    -0.217 NA
ATOM     22  C   UNL A   1      33.530  28.115  23.328  1.00  0.00     0.226 A 
BRANCH  18  23
ATOM     23  N   UNL A   1      31.176  26.189  26.095  1.00  0.00    -0.393 N 
ATOM     24  H   UNL A   1      31.109  26.543  27.010  1.00  0.00     0.156 HD
ATOM     25  H   UNL A   1      30.678  25.378  25.843  1.00  0.00     0.156 HD
ENDBRANCH  18  23
BRANCH  19  26
ATOM     26  N   UNL A   1      32.971  28.254  26.854  1.00  0.00    -0.338 N 
ATOM     27  H   UNL A   1      32.539  27.673  27.522  1.00  0.00     0.168 HD
BRANCH  26  28
ATOM     28  C   UNL A   1      33.665  29.384  27.327  1.00  0.00     0.040 A 
ATOM     29  C   UNL A   1      35.021  29.272  27.654  1.00  0.00     0.027 A 
ATOM     30  C   UNL A   1      33.070  30.652  27.353  1.00  0.00     0.027 A 
ATOM     31  C   UNL A   1      35.771  30.404  27.985  1.00  0.00     0.017 A 
ATOM     32  C   UNL A   1      33.811  31.787  27.693  1.00  0.00     0.017 A 
ATOM     33  C   UNL A   1      35.163  31.658  28.001  1.00  0.00     0.013 A 
ATOM     34  I   UNL A   1      36.286  33.346  28.458  1.00  0.00    -0.044 I 
ENDBRANCH  26  28
ENDBRANCH  19  26
ENDBRANCH  15  17
ENDBRANCH  10  15
ENDBRANCH   7   9
ENDBRANCH   6   7
ENDBRANCH   5   6
ENDBRANCH   4   5
ENDBRANCH   3   4
ENDBRANCH   2   3
ENDBRANCH   1   2
BRANCH   1  35
ATOM     35  O   UNL A   1      39.042  22.861  26.812  1.00  0.00    -0.377 OA
BRANCH  35  36
ATOM     36  C   UNL A   1      40.411  23.017  27.181  1.00  0.00     0.188 C 
BRANCH  36  37
ATOM     37  C   UNL A   1      41.196  21.948  27.984  1.00  0.00     0.188 C 
BRANCH  37  38
ATOM     38  O   UNL A   1      40.738  20.615  27.827  1.00  0.00    -0.376 OA
BRANCH  38  39
ATOM     39  C   UNL A   1      40.906  19.992  26.568  1.00  0.00     0.202 C 
BRANCH  39  40
ATOM     40  C   UNL A   1      42.313  19.477  26.237  1.00  0.00     0.261 C 
BRANCH  40  41
ATOM     41  O   UNL A   1      42.734  19.638  24.876  1.00  0.00    -0.460 OA
BRANCH  41  42
ATOM     42  C   UNL A   1      44.018  19.997  24.670  1.00  0.00     0.338 C 
ATOM     43  O   UNL A   1      44.846  19.413  23.987  1.00  0.00    -0.246 OA
BRANCH  42  44
ATOM     44  C   UNL A   1      44.210  21.330  25.270  1.00  0.00     0.060 A 
ATOM     45  C   UNL A   1      43.894  22.473  24.522  1.00  0.00     0.016 A 
ATOM     46  C   UNL A   1      44.696  21.445  26.575  1.00  0.00     0.016 A 
ATOM     47  C   UNL A   1      44.100  23.740  25.068  1.00  0.00     0.010 A 
ATOM     48  C   UNL A   1      44.927  22.713  27.107  1.00  0.00     0.010 A 
ATOM     49  C   UNL A   1      44.664  23.863  26.344  1.00  0.00    -0.014 A 
BRANCH  49  50
ATOM     50  C   UNL A   1      45.175  25.172  26.812  1.00  0.00     0.031 A 
ATOM     51  C   UNL A   1      44.252  26.039  27.623  1.00  0.00     0.074 A 
ATOM     52  C   UNL A   1      46.420  25.583  26.519  1.00  0.00     0.049 A 
ATOM     53  N   UNL A   1      44.413  27.270  28.029  1.00  0.00    -0.248 NA
ATOM     54  C   UNL A   1      42.972  25.432  28.028  1.00  0.00     0.031 C 
ATOM     55  C   UNL A   1      47.424  24.798  25.802  1.00  0.00     0.029 A 
ATOM     56  N   UNL A   1      47.045  26.776  26.780  1.00  0.00    -0.354 N 
ATOM     57  C   UNL A   1      43.256  27.589  28.731  1.00  0.00     0.074 A 
ATOM     58  C   UNL A   1      42.390  26.431  28.673  1.00  0.00     0.031 C 
ATOM     59  C   UNL A   1      48.537  25.540  25.664  1.00  0.00     0.029 A 
ATOM     60  C   UNL A   1      48.306  26.865  26.241  1.00  0.00     0.049 A 
ATOM     61  H   UNL A   1      46.630  27.500  27.302  1.00  0.00     0.167 HD
ATOM     62  C   UNL A   1      42.948  28.741  29.369  1.00  0.00     0.037 A 
ATOM     63  C   UNL A   1      49.159  27.908  26.194  1.00  0.00     0.037 A 
ATOM     64  C   UNL A   1      43.813  29.891  29.405  1.00  0.00     0.049 A 
ATOM     65  C   UNL A   1      48.754  29.216  26.824  1.00  0.00     0.074 A 
ATOM     66  C   UNL A   1      43.589  31.117  30.005  1.00  0.00     0.029 A 
ATOM     67  N   UNL A   1      45.067  29.958  28.814  1.00  0.00    -0.354 N 
ATOM     68  N   UNL A   1      47.645  29.521  27.459  1.00  0.00    -0.248 NA
ATOM     69  C   UNL A   1      49.716  30.323  26.734  1.00  0.00     0.031 C 
ATOM     70  C   UNL A   1      44.685  31.943  29.732  1.00  0.00     0.029 A 
ATOM     71  C   UNL A   1      45.622  31.211  29.021  1.00  0.00     0.049 A 
ATOM     72  H   UNL A   1      45.499  29.224  28.320  1.00  0.00     0.167 HD
ATOM     73  C   UNL A   1      47.794  30.841  27.875  1.00  0.00     0.074 A 
ATOM     74  C   UNL A   1      49.102  31.272  27.426  1.00  0.00     0.031 C 
ATOM     75  C   UNL A   1      46.929  31.624  28.570  1.00  0.00     0.037 A 
BRANCH  62  76
ATOM     76  C   UNL A   1      41.613  28.827  30.056  1.00  0.00     0.058 A 
ATOM     77  C   UNL A   1      41.450  28.475  31.405  1.00  0.00     0.135 A 
ATOM     78  C   UNL A   1      40.489  29.313  29.368  1.00  0.00     0.135 A 
ATOM     79  F   UNL A   1      42.484  27.979  32.104  1.00  0.00    -0.206 F 
ATOM     80  C   UNL A   1      40.221  28.592  32.044  1.00  0.00     0.059 A 
ATOM     81  C   UNL A   1      39.255  29.466  29.996  1.00  0.00     0.059 A 
ATOM     82  F   UNL A   1      40.583  29.655  28.073  1.00  0.00    -0.206 F 
ATOM     83  C   UNL A   1      39.130  29.095  31.333  1.00  0.00     0.060 A 
BRANCH  83  84
ATOM     84  S   UNL A   1      37.550  29.265  32.188  1.00  0.00     0.124 S 
ATOM     85  O   UNL A   1      36.604  29.170  31.080  1.00  0.00    -0.237 OA
ATOM     86  O   UNL A   1      37.570  28.128  33.103  1.00  0.00    -0.237 OA
ATOM     87  O   UNL A   1      37.642  30.577  32.820  1.00  0.00    -0.744 OA
ENDBRANCH  83  84
ENDBRANCH  62  76
BRANCH  63  88
ATOM     88  C   UNL A   1      50.479  27.758  25.523  1.00  0.00     0.058 A 
ATOM     89  C   UNL A   1      50.596  27.869  24.130  1.00  0.00     0.135 A 
ATOM     90  C   UNL A   1      51.650  27.516  26.259  1.00  0.00     0.135 A 
ATOM     91  F   UNL A   1      49.505  28.083  23.380  1.00  0.00    -0.206 F 
ATOM     92  C   UNL A   1      51.824  27.742  23.489  1.00  0.00     0.059 A 
ATOM     93  C   UNL A   1      52.894  27.415  25.643  1.00  0.00     0.059 A 
ATOM     94  F   UNL A   1      51.595  27.405  27.595  1.00  0.00    -0.206 F 
ATOM     95  C   UNL A   1      52.970  27.525  24.256  1.00  0.00     0.060 A 
BRANCH  95  96
ATOM     96  S   UNL A   1      54.565  27.430  23.414  1.00  0.00     0.124 S 
ATOM     97  O   UNL A   1      54.742  28.804  22.959  1.00  0.00    -0.237 OA
ATOM     98  O   UNL A   1      55.448  26.993  24.489  1.00  0.00    -0.237 OA
ATOM     99  O   UNL A   1      54.332  26.444  22.363  1.00  0.00    -0.744 OA
ENDBRANCH  95  96
ENDBRANCH  63  88
BRANCH  75 100
ATOM    100  C   UNL A   1      47.388  33.011  28.935  1.00  0.00     0.058 A 
ATOM    101  C   UNL A   1      47.137  34.120  28.113  1.00  0.00     0.135 A 
ATOM    102  C   UNL A   1      48.058  33.237  30.151  1.00  0.00     0.135 A 
ATOM    103  F   UNL A   1      46.500  33.964  26.942  1.00  0.00    -0.206 F 
ATOM    104  C   UNL A   1      47.573  35.396  28.460  1.00  0.00     0.059 A 
ATOM    105  C   UNL A   1      48.471  34.509  30.534  1.00  0.00     0.059 A 
ATOM    106  F   UNL A   1      48.309  32.216  30.986  1.00  0.00    -0.206 F 
ATOM    107  C   UNL A   1      48.241  35.580  29.672  1.00  0.00     0.060 A 
BRANCH 107 108
ATOM    108  S   UNL A   1      48.805  37.238  30.105  1.00  0.00     0.124 S 
ATOM    109  O   UNL A   1      47.816  37.634  31.101  1.00  0.00    -0.237 OA
ATOM    110  O   UNL A   1      50.150  36.988  30.612  1.00  0.00    -0.237 OA
ATOM    111  O   UNL A   1      48.742  37.962  28.838  1.00  0.00    -0.744 OA
ENDBRANCH 107 108
ENDBRANCH  75 100
ENDBRANCH  49  50
ENDBRANCH  42  44
ENDBRANCH  41  42
ENDBRANCH  40  41
ENDBRANCH  39  40
ENDBRANCH  38  39
ENDBRANCH  37  38
ENDBRANCH  36  37
ENDBRANCH  35  36
ENDBRANCH   1  35
TORSDOF 28
ENDMDL
MODEL 2
REMARK VINA RESULT:      -8.8      7.195     12.661
REMARK SMILES Nc1c(Nc2ccc(I)cc2)ncnc1Nc1ccc(C(=O)OCCOCCOCCOCCOC(=O)c2ccc(-c3c4nc(c(-c5c(F)cc(S(=O)(=O)[O-])cc5F)c5ccc([nH]5)c(-c5c(F)cc(S(=O)(=O)[O-])cc5F)c5nc(c(-c6c(F)cc(S(=O)(=O)[O-])cc6F)c6ccc3[nH]6)C=C5)C=C4)cc2)cc1
REMARK SMILES IDX 28 1 27 2 26 3 25 4 24 5 23 6 21 7 22 8 20 9 17 10 18 11
REMARK SMILES IDX 105 12 19 13 104 14 16 15 15 17 2 18 3 19 12 20 14 21 13 22
REMARK SMILES IDX 1 23 4 26 5 28 6 29 11 30 7 31 10 32 8 33 9 34 29 35 30 36
REMARK SMILES IDX 31 37 32 38 33 39 34 40 35 41 36 42 37 43 38 44 39 45 103 46
REMARK SMILES IDX 40 47 102 48 41 49 42 50 43 51 96 52 44 53 101 54 95 55
REMARK SMILES IDX 97 56 45 57 100 58 94 59 93 60 46 62 80 63 59 64 79 65 60 66
REMARK SMILES IDX 63 67 78 68 98 69 61 70 62 71 77 73 99 74 64 75 47 76 48 77
REMARK SMILES IDX 57 78 49 79 50 80 56 81 58 82 51 83 52 84 53 85 54 86 55 87
REMARK SMILES IDX 81 88 82 89 91 90 83 91 84 92 90 93 92 94 85 95 86 96 87 97
REMARK SMILES IDX 88 98 89 99 65 100 66 101 75 102 67 103 68 104 74 105 76 106
REMARK SMILES IDX 69 107 70 108 71 109 72 110 73 111
REMARK H PARENT 16 16 1 24 1 25 4 27 97 61 63 72
REMARK Flexibility Score: inf
ROOT
ATOM      1  C   UNL A   1      46.566  24.135  25.590  1.00  0.00     0.188 C 
ENDROOT
BRANCH   1   2
ATOM      2  C   UNL A   1      47.318  25.472  25.745  1.00  0.00     0.188 C 
BRANCH   2   3
ATOM      3  O   UNL A   1      46.876  26.255  26.836  1.00  0.00    -0.376 OA
BRANCH   3   4
ATOM      4  C   UNL A   1      46.710  25.689  28.123  1.00  0.00     0.202 C 
BRANCH   4   5
ATOM      5  C   UNL A   1      45.333  25.384  28.738  1.00  0.00     0.261 C 
BRANCH   5   6
ATOM      6  O   UNL A   1      45.283  25.200  30.151  1.00  0.00    -0.460 OA
BRANCH   6   7
ATOM      7  C   UNL A   1      44.363  24.336  30.624  1.00  0.00     0.338 C 
ATOM      8  O   UNL A   1      43.639  23.603  29.973  1.00  0.00    -0.246 OA
BRANCH   7   9
ATOM      9  C   UNL A   1      44.545  24.249  32.091  1.00  0.00     0.060 A 
ATOM     10  C   UNL A   1      45.045  24.041  34.829  1.00  0.00     0.040 A 
ATOM     11  C   UNL A   1      45.806  24.916  34.046  1.00  0.00     0.027 A 
ATOM     12  C   UNL A   1      43.955  23.368  34.252  1.00  0.00     0.027 A 
ATOM     13  C   UNL A   1      45.568  25.007  32.676  1.00  0.00     0.018 A 
ATOM     14  C   UNL A   1      43.699  23.472  32.886  1.00  0.00     0.018 A 
BRANCH  10  15
ATOM     15  N   UNL A   1      45.577  23.590  36.061  1.00  0.00    -0.338 N 
ATOM     16  H   UNL A   1      45.558  24.180  36.849  1.00  0.00     0.168 HD
BRANCH  15  17
ATOM     17  C   UNL A   1      46.138  22.286  36.163  1.00  0.00     0.159 A 
ATOM     18  C   UNL A   1      47.507  22.132  36.379  1.00  0.00     0.118 A 
ATOM     19  C   UNL A   1      47.943  20.800  36.447  1.00  0.00     0.159 A 
ATOM     20  N   UNL A   1      47.119  19.747  36.275  1.00  0.00    -0.217 NA
ATOM     21  N   UNL A   1      45.304  21.232  36.034  1.00  0.00    -0.217 NA
ATOM     22  C   UNL A   1      45.832  20.016  36.091  1.00  0.00     0.226 A 
BRANCH  18  23
ATOM     23  N   UNL A   1      48.377  23.217  36.520  1.00  0.00    -0.393 N 
ATOM     24  H   UNL A   1      48.275  24.008  35.945  1.00  0.00     0.156 HD
ATOM     25  H   UNL A   1      49.092  23.188  37.196  1.00  0.00     0.156 HD
ENDBRANCH  18  23
BRANCH  19  26
ATOM     26  N   UNL A   1      49.304  20.543  36.750  1.00  0.00    -0.338 N 
ATOM     27  H   UNL A   1      49.508  20.160  37.635  1.00  0.00     0.168 HD
BRANCH  26  28
ATOM     28  C   UNL A   1      50.386  20.793  35.886  1.00  0.00     0.040 A 
ATOM     29  C   UNL A   1      50.169  20.829  34.504  1.00  0.00     0.027 A 
ATOM     30  C   UNL A   1      51.652  21.141  36.376  1.00  0.00     0.027 A 
ATOM     31  C   UNL A   1      51.189  21.219  33.631  1.00  0.00     0.017 A 
ATOM     32  C   UNL A   1      52.679  21.521  35.509  1.00  0.00     0.017 A 
ATOM     33  C   UNL A   1      52.441  21.565  34.138  1.00  0.00     0.013 A 
ATOM     34  I   UNL A   1      53.946  22.180  32.844  1.00  0.00    -0.044 I 
ENDBRANCH  26  28
ENDBRANCH  19  26
ENDBRANCH  15  17
ENDBRANCH  10  15
ENDBRANCH   7   9
ENDBRANCH   6   7
ENDBRANCH   5   6
ENDBRANCH   4   5
ENDBRANCH   3   4
ENDBRANCH   2   3
ENDBRANCH   1   2
BRANCH   1  35
ATOM     35  O   UNL A   1      46.055  23.834  24.304  1.00  0.00    -0.377 OA
BRANCH  35  36
ATOM     36  C   UNL A   1      45.554  22.527  24.026  1.00  0.00     0.188 C 
BRANCH  36  37
ATOM     37  C   UNL A   1      45.046  21.566  25.132  1.00  0.00     0.188 C 
BRANCH  37  38
ATOM     38  O   UNL A   1      43.653  21.301  25.111  1.00  0.00    -0.376 OA
BRANCH  38  39
ATOM     39  C   UNL A   1      42.823  22.007  26.014  1.00  0.00     0.202 C 
BRANCH  39  40
ATOM     40  C   UNL A   1      42.690  23.519  25.790  1.00  0.00     0.261 C 
BRANCH  40  41
ATOM     41  O   UNL A   1      42.278  24.286  26.930  1.00  0.00    -0.460 OA
BRANCH  41  42
ATOM     42  C   UNL A   1      40.950  24.429  27.125  1.00  0.00     0.338 C 
ATOM     43  O   UNL A   1      40.064  23.687  26.729  1.00  0.00    -0.246 OA
BRANCH  42  44
ATOM     44  C   UNL A   1      40.756  25.550  28.063  1.00  0.00     0.060 A 
ATOM     45  C   UNL A   1      41.807  26.449  28.287  1.00  0.00     0.016 A 
ATOM     46  C   UNL A   1      39.530  25.710  28.713  1.00  0.00     0.016 A 
ATOM     47  C   UNL A   1      41.645  27.495  29.196  1.00  0.00     0.010 A 
ATOM     48  C   UNL A   1      39.380  26.740  29.641  1.00  0.00     0.010 A 
ATOM     49  C   UNL A   1      40.447  27.614  29.912  1.00  0.00    -0.014 A 
BRANCH  49  50
ATOM     50  C   UNL A   1      40.365  28.509  31.088  1.00  0.00     0.031 A 
ATOM     51  C   UNL A   1      39.387  29.651  31.037  1.00  0.00     0.074 A 
ATOM     52  C   UNL A   1      41.142  28.321  32.167  1.00  0.00     0.049 A 
ATOM     53  N   UNL A   1      39.225  30.643  31.871  1.00  0.00    -0.248 NA
ATOM     54  C   UNL A   1      38.470  29.675  29.885  1.00  0.00     0.031 C 
ATOM     55  C   UNL A   1      42.073  27.209  32.356  1.00  0.00     0.029 A 
ATOM     56  N   UNL A   1      41.279  29.075  33.305  1.00  0.00    -0.354 N 
ATOM     57  C   UNL A   1      38.194  31.412  31.344  1.00  0.00     0.074 A 
ATOM     58  C   UNL A   1      37.786  30.787  30.105  1.00  0.00     0.031 C 
ATOM     59  C   UNL A   1      42.700  27.365  33.536  1.00  0.00     0.029 A 
ATOM     60  C   UNL A   1      42.248  28.608  34.160  1.00  0.00     0.049 A 
ATOM     61  H   UNL A   1      40.736  29.874  33.491  1.00  0.00     0.167 HD
ATOM     62  C   UNL A   1      37.636  32.535  31.853  1.00  0.00     0.037 A 
ATOM     63  C   UNL A   1      42.734  29.144  35.298  1.00  0.00     0.037 A 
ATOM     64  C   UNL A   1      38.062  33.155  33.081  1.00  0.00     0.049 A 
ATOM     65  C   UNL A   1      42.167  30.450  35.794  1.00  0.00     0.074 A 
ATOM     66  C   UNL A   1      37.579  34.306  33.676  1.00  0.00     0.029 A 
ATOM     67  N   UNL A   1      39.074  32.675  33.900  1.00  0.00    -0.354 N 
ATOM     68  N   UNL A   1      41.214  31.189  35.275  1.00  0.00    -0.248 NA
ATOM     69  C   UNL A   1      42.740  30.995  37.033  1.00  0.00     0.031 C 
ATOM     70  C   UNL A   1      38.335  34.552  34.827  1.00  0.00     0.029 A 
ATOM     71  C   UNL A   1      39.243  33.518  34.987  1.00  0.00     0.049 A 
ATOM     72  H   UNL A   1      39.597  31.857  33.734  1.00  0.00     0.167 HD
ATOM     73  C   UNL A   1      41.049  32.265  36.143  1.00  0.00     0.074 A 
ATOM     74  C   UNL A   1      41.995  32.074  37.223  1.00  0.00     0.031 C 
ATOM     75  C   UNL A   1      40.188  33.312  36.058  1.00  0.00     0.037 A 
BRANCH  62  76
ATOM     76  C   UNL A   1      36.524  33.180  31.072  1.00  0.00     0.058 A 
ATOM     77  C   UNL A   1      35.184  33.093  31.481  1.00  0.00     0.135 A 
ATOM     78  C   UNL A   1      36.809  33.940  29.925  1.00  0.00     0.135 A 
ATOM     79  F   UNL A   1      34.852  32.358  32.555  1.00  0.00    -0.206 F 
ATOM     80  C   UNL A   1      34.165  33.723  30.775  1.00  0.00     0.059 A 
ATOM     81  C   UNL A   1      35.808  34.604  29.220  1.00  0.00     0.059 A 
ATOM     82  F   UNL A   1      38.071  34.050  29.482  1.00  0.00    -0.206 F 
ATOM     83  C   UNL A   1      34.488  34.482  29.649  1.00  0.00     0.060 A 
BRANCH  83  84
ATOM     84  S   UNL A   1      33.155  35.315  28.762  1.00  0.00     0.124 S 
ATOM     85  O   UNL A   1      32.604  34.222  27.967  1.00  0.00    -0.237 OA
ATOM     86  O   UNL A   1      32.311  35.794  29.852  1.00  0.00    -0.237 OA
ATOM     87  O   UNL A   1      33.845  36.354  28.004  1.00  0.00    -0.744 OA
ENDBRANCH  83  84
ENDBRANCH  62  76
BRANCH  63  88
ATOM     88  C   UNL A   1      43.817  28.447  36.044  1.00  0.00     0.058 A 
ATOM     89  C   UNL A   1      45.159  28.823  35.885  1.00  0.00     0.135 A 
ATOM     90  C   UNL A   1      43.534  27.405  36.941  1.00  0.00     0.135 A 
ATOM     91  F   UNL A   1      45.484  29.802  35.027  1.00  0.00    -0.206 F 
ATOM     92  C   UNL A   1      46.182  28.189  36.582  1.00  0.00     0.059 A 
ATOM     93  C   UNL A   1      44.537  26.775  37.672  1.00  0.00     0.059 A 
ATOM     94  F   UNL A   1      42.266  27.009  37.135  1.00  0.00    -0.206 F 
ATOM     95  C   UNL A   1      45.859  27.172  37.482  1.00  0.00     0.060 A 
BRANCH  95  96
ATOM     96  S   UNL A   1      47.192  26.406  38.429  1.00  0.00     0.124 S 
ATOM     97  O   UNL A   1      47.739  27.549  39.150  1.00  0.00    -0.237 OA
ATOM     98  O   UNL A   1      46.466  25.430  39.236  1.00  0.00    -0.237 OA
ATOM     99  O   UNL A   1      48.056  25.839  37.398  1.00  0.00    -0.744 OA
ENDBRANCH  95  96
ENDBRANCH  63  88
BRANCH  75 100
ATOM    100  C   UNL A   1      40.192  34.308  37.187  1.00  0.00     0.058 A 
ATOM    101  C   UNL A   1      41.054  35.416  37.202  1.00  0.00     0.135 A 
ATOM    102  C   UNL A   1      39.288  34.169  38.256  1.00  0.00     0.135 A 
ATOM    103  F   UNL A   1      41.936  35.600  36.208  1.00  0.00    -0.206 F 
ATOM    104  C   UNL A   1      41.050  36.325  38.257  1.00  0.00     0.059 A 
ATOM    105  C   UNL A   1      39.243  35.085  39.301  1.00  0.00     0.059 A 
ATOM    106  F   UNL A   1      38.427  33.139  38.284  1.00  0.00    -0.206 F 
ATOM    107  C   UNL A   1      40.142  36.149  39.303  1.00  0.00     0.060 A 
BRANCH 107 108
ATOM    108  S   UNL A   1      40.155  37.333  40.665  1.00  0.00     0.124 S 
ATOM    109  O   UNL A   1      40.615  38.545  39.996  1.00  0.00    -0.237 OA
ATOM    110  O   UNL A   1      38.759  37.334  41.090  1.00  0.00    -0.237 OA
ATOM    111  O   UNL A   1      41.096  36.748  41.617  1.00  0.00    -0.744 OA
ENDBRANCH 107 108
ENDBRANCH  75 100
ENDBRANCH  49  50
ENDBRANCH  42  44
ENDBRANCH  41  42
ENDBRANCH  40  41
ENDBRANCH  39  40
ENDBRANCH  38  39
ENDBRANCH  37  38
ENDBRANCH  36  37
ENDBRANCH  35  36
ENDBRANCH   1  35
TORSDOF 28
ENDMDL
MODEL 3
REMARK VINA RESULT:      -8.4      7.025     12.728
REMARK SMILES Nc1c(Nc2ccc(I)cc2)ncnc1Nc1ccc(C(=O)OCCOCCOCCOCCOC(=O)c2ccc(-c3c4nc(c(-c5c(F)cc(S(=O)(=O)[O-])cc5F)c5ccc([nH]5)c(-c5c(F)cc(S(=O)(=O)[O-])cc5F)c5nc(c(-c6c(F)cc(S(=O)(=O)[O-])cc6F)c6ccc3[nH]6)C=C5)C=C4)cc2)cc1
REMARK SMILES IDX 28 1 27 2 26 3 25 4 24 5 23 6 21 7 22 8 20 9 17 10 18 11
REMARK SMILES IDX 105 12 19 13 104 14 16 15 15 17 2 18 3 19 12 20 14 21 13 22
REMARK SMILES IDX 1 23 4 26 5 28 6 29 11 30 7 31 10 32 8 33 9 34 29 35 30 36
REMARK SMILES IDX 31 37 32 38 33 39 34 40 35 41 36 42 37 43 38 44 39 45 103 46
REMARK SMILES IDX 40 47 102 48 41 49 42 50 43 51 96 52 44 53 101 54 95 55
REMARK SMILES IDX 97 56 45 57 100 58 94 59 93 60 46 62 80 63 59 64 79 65 60 66
REMARK SMILES IDX 63 67 78 68 98 69 61 70 62 71 77 73 99 74 64 75 47 76 48 77
REMARK SMILES IDX 57 78 49 79 50 80 56 81 58 82 51 83 52 84 53 85 54 86 55 87
REMARK SMILES IDX 81 88 82 89 91 90 83 91 84 92 90 93 92 94 85 95 86 96 87 97
REMARK SMILES IDX 88 98 89 99 65 100 66 101 75 102 67 103 68 104 74 105 76 106
REMARK SMILES IDX 69 107 70 108 71 109 72 110 73 111
REMARK H PARENT 16 16 1 24 1 25 4 27 97 61 63 72
REMARK Flexibility Score: inf
ROOT
ATOM      1  C   UNL A   1      46.534  24.167  25.214  1.00  0.00     0.188 C 
ENDROOT
BRANCH   1   2
ATOM      2  C   UNL A   1      47.148  25.582  25.202  1.00  0.00     0.188 C 
BRANCH   2   3
ATOM      3  O   UNL A   1      46.617  26.445  26.188  1.00  0.00    -0.376 OA
BRANCH   3   4
ATOM      4  C   UNL A   1      46.431  26.008  27.520  1.00  0.00     0.202 C 
BRANCH   4   5
ATOM      5  C   UNL A   1      45.049  25.687  28.116  1.00  0.00     0.261 C 
BRANCH   5   6
ATOM      6  O   UNL A   1      44.889  25.883  29.520  1.00  0.00    -0.460 OA
BRANCH   6   7
ATOM      7  C   UNL A   1      44.118  24.995  30.179  1.00  0.00     0.338 C 
ATOM      8  O   UNL A   1      43.226  24.307  29.712  1.00  0.00    -0.246 OA
BRANCH   7   9
ATOM      9  C   UNL A   1      44.695  24.818  31.530  1.00  0.00     0.060 A 
ATOM     10  C   UNL A   1      45.933  24.517  34.013  1.00  0.00     0.040 A 
ATOM     11  C   UNL A   1      46.049  25.725  33.319  1.00  0.00     0.027 A 
ATOM     12  C   UNL A   1      45.092  23.510  33.511  1.00  0.00     0.027 A 
ATOM     13  C   UNL A   1      45.446  25.870  32.071  1.00  0.00     0.018 A 
ATOM     14  C   UNL A   1      44.469  23.657  32.273  1.00  0.00     0.018 A 
BRANCH  10  15
ATOM     15  N   UNL A   1      46.902  24.198  34.995  1.00  0.00    -0.338 N 
ATOM     16  H   UNL A   1      46.898  24.669  35.859  1.00  0.00     0.168 HD
BRANCH  15  17
ATOM     17  C   UNL A   1      47.880  23.197  34.736  1.00  0.00     0.159 A 
ATOM     18  C   UNL A   1      48.970  23.485  33.914  1.00  0.00     0.118 A 
ATOM     19  C   UNL A   1      49.858  22.415  33.723  1.00  0.00     0.159 A 
ATOM     20  N   UNL A   1      49.657  21.190  34.249  1.00  0.00    -0.217 NA
ATOM     21  N   UNL A   1      47.702  21.984  35.299  1.00  0.00    -0.217 NA
ATOM     22  C   UNL A   1      48.593  21.038  35.027  1.00  0.00     0.226 A 
BRANCH  18  23
ATOM     23  N   UNL A   1      49.167  24.740  33.332  1.00  0.00    -0.393 N 
ATOM     24  H   UNL A   1      49.918  25.305  33.622  1.00  0.00     0.156 HD
ATOM     25  H   UNL A   1      48.554  25.058  32.630  1.00  0.00     0.156 HD
ENDBRANCH  18  23
BRANCH  19  26
ATOM     26  N   UNL A   1      51.041  22.637  32.974  1.00  0.00    -0.338 N 
ATOM     27  H   UNL A   1      50.977  22.571  31.993  1.00  0.00     0.168 HD
BRANCH  26  28
ATOM     28  C   UNL A   1      52.300  22.944  33.523  1.00  0.00     0.040 A 
ATOM     29  C   UNL A   1      52.372  23.612  34.750  1.00  0.00     0.027 A 
ATOM     30  C   UNL A   1      53.487  22.478  32.941  1.00  0.00     0.027 A 
ATOM     31  C   UNL A   1      53.601  23.800  35.390  1.00  0.00     0.017 A 
ATOM     32  C   UNL A   1      54.720  22.671  33.570  1.00  0.00     0.017 A 
ATOM     33  C   UNL A   1      54.770  23.326  34.798  1.00  0.00     0.013 A 
ATOM     34  I   UNL A   1      56.592  23.572  35.766  1.00  0.00    -0.044 I 
ENDBRANCH  26  28
ENDBRANCH  19  26
ENDBRANCH  15  17
ENDBRANCH  10  15
ENDBRANCH   7   9
ENDBRANCH   6   7
ENDBRANCH   5   6
ENDBRANCH   4   5
ENDBRANCH   3   4
ENDBRANCH   2   3
ENDBRANCH   1   2
BRANCH   1  35
ATOM     35  O   UNL A   1      46.023  23.681  23.986  1.00  0.00    -0.377 OA
BRANCH  35  36
ATOM     36  C   UNL A   1      45.451  22.375  23.921  1.00  0.00     0.188 C 
BRANCH  36  37
ATOM     37  C   UNL A   1      44.728  21.711  25.121  1.00  0.00     0.188 C 
BRANCH  37  38
ATOM     38  O   UNL A   1      43.327  21.548  24.971  1.00  0.00    -0.376 OA
BRANCH  38  39
ATOM     39  C   UNL A   1      42.470  22.368  25.743  1.00  0.00     0.202 C 
BRANCH  39  40
ATOM     40  C   UNL A   1      42.609  23.883  25.551  1.00  0.00     0.261 C 
BRANCH  40  41
ATOM     41  O   UNL A   1      42.199  24.694  26.660  1.00  0.00    -0.460 OA
BRANCH  41  42
ATOM     42  C   UNL A   1      40.873  24.786  26.895  1.00  0.00     0.338 C 
ATOM     43  O   UNL A   1      40.000  24.031  26.493  1.00  0.00    -0.246 OA
BRANCH  42  44
ATOM     44  C   UNL A   1      40.668  25.862  27.881  1.00  0.00     0.060 A 
ATOM     45  C   UNL A   1      41.604  26.902  27.969  1.00  0.00     0.016 A 
ATOM     46  C   UNL A   1      39.546  25.842  28.712  1.00  0.00     0.016 A 
ATOM     47  C   UNL A   1      41.437  27.909  28.919  1.00  0.00     0.010 A 
ATOM     48  C   UNL A   1      39.396  26.835  29.680  1.00  0.00     0.010 A 
ATOM     49  C   UNL A   1      40.358  27.852  29.810  1.00  0.00    -0.014 A 
BRANCH  49  50
ATOM     50  C   UNL A   1      40.332  28.720  31.009  1.00  0.00     0.031 A 
ATOM     51  C   UNL A   1      39.374  29.879  31.018  1.00  0.00     0.074 A 
ATOM     52  C   UNL A   1      41.141  28.493  32.057  1.00  0.00     0.049 A 
ATOM     53  N   UNL A   1      39.257  30.854  31.879  1.00  0.00    -0.248 NA
ATOM     54  C   UNL A   1      38.420  29.948  29.897  1.00  0.00     0.031 C 
ATOM     55  C   UNL A   1      42.057  27.361  32.189  1.00  0.00     0.029 A 
ATOM     56  N   UNL A   1      41.329  29.217  33.206  1.00  0.00    -0.354 N 
ATOM     57  C   UNL A   1      38.223  31.654  31.405  1.00  0.00     0.074 A 
ATOM     58  C   UNL A   1      37.764  31.066  30.167  1.00  0.00     0.031 C 
ATOM     59  C   UNL A   1      42.725  27.477  33.350  1.00  0.00     0.029 A 
ATOM     60  C   UNL A   1      42.318  28.714  34.017  1.00  0.00     0.049 A 
ATOM     61  H   UNL A   1      40.807  30.021  33.429  1.00  0.00     0.167 HD
ATOM     62  C   UNL A   1      37.704  32.774  31.958  1.00  0.00     0.037 A 
ATOM     63  C   UNL A   1      42.850  29.214  35.150  1.00  0.00     0.037 A 
ATOM     64  C   UNL A   1      38.182  33.357  33.185  1.00  0.00     0.049 A 
ATOM     65  C   UNL A   1      42.324  30.517  35.696  1.00  0.00     0.074 A 
ATOM     66  C   UNL A   1      37.740  34.502  33.822  1.00  0.00     0.029 A 
ATOM     67  N   UNL A   1      39.212  32.840  33.959  1.00  0.00    -0.354 N 
ATOM     68  N   UNL A   1      41.368  31.285  35.226  1.00  0.00    -0.248 NA
ATOM     69  C   UNL A   1      42.948  31.023  36.926  1.00  0.00     0.031 C 
ATOM     70  C   UNL A   1      38.538  34.708  34.953  1.00  0.00     0.029 A 
ATOM     71  C   UNL A   1      39.431  33.654  35.058  1.00  0.00     0.049 A 
ATOM     72  H   UNL A   1      39.713  32.018  33.756  1.00  0.00     0.167 HD
ATOM     73  C   UNL A   1      41.252  32.343  36.124  1.00  0.00     0.074 A 
ATOM     74  C   UNL A   1      42.230  32.110  37.166  1.00  0.00     0.031 C 
ATOM     75  C   UNL A   1      40.408  33.406  36.092  1.00  0.00     0.037 A 
BRANCH  62  76
ATOM     76  C   UNL A   1      36.579  33.457  31.230  1.00  0.00     0.058 A 
ATOM     77  C   UNL A   1      36.789  34.156  30.031  1.00  0.00     0.135 A 
ATOM     78  C   UNL A   1      35.262  33.370  31.713  1.00  0.00     0.135 A 
ATOM     79  F   UNL A   1      38.030  34.293  29.537  1.00  0.00    -0.206 F 
ATOM     80  C   UNL A   1      35.738  34.754  29.344  1.00  0.00     0.059 A 
ATOM     81  C   UNL A   1      34.192  33.936  31.026  1.00  0.00     0.059 A 
ATOM     82  F   UNL A   1      35.004  32.723  32.861  1.00  0.00    -0.206 F 
ATOM     83  C   UNL A   1      34.442  34.633  29.846  1.00  0.00     0.060 A 
BRANCH  83  84
ATOM     84  S   UNL A   1      33.088  35.392  28.925  1.00  0.00     0.124 S 
ATOM     85  O   UNL A   1      32.243  35.894  30.004  1.00  0.00    -0.237 OA
ATOM     86  O   UNL A   1      33.781  36.407  28.138  1.00  0.00    -0.237 OA
ATOM     87  O   UNL A   1      32.530  34.282  28.159  1.00  0.00    -0.744 OA
ENDBRANCH  83  84
ENDBRANCH  62  76
BRANCH  63  88
ATOM     88  C   UNL A   1      43.944  28.480  35.843  1.00  0.00     0.058 A 
ATOM     89  C   UNL A   1      43.660  27.433  36.732  1.00  0.00     0.135 A 
ATOM     90  C   UNL A   1      45.294  28.799  35.622  1.00  0.00     0.135 A 
ATOM     91  F   UNL A   1      42.386  27.100  36.991  1.00  0.00    -0.206 F 
ATOM     92  C   UNL A   1      44.671  26.731  37.379  1.00  0.00     0.059 A 
ATOM     93  C   UNL A   1      46.324  28.092  36.235  1.00  0.00     0.059 A 
ATOM     94  F   UNL A   1      45.621  29.790  34.777  1.00  0.00    -0.206 F 
ATOM     95  C   UNL A   1      46.002  27.061  37.116  1.00  0.00     0.060 A 
BRANCH  95  96
ATOM     96  S   UNL A   1      47.303  26.096  37.913  1.00  0.00     0.124 S 
ATOM     97  O   UNL A   1      48.313  26.036  36.863  1.00  0.00    -0.237 OA
ATOM     98  O   UNL A   1      47.630  26.925  39.068  1.00  0.00    -0.237 OA
ATOM     99  O   UNL A   1      46.642  24.832  38.224  1.00  0.00    -0.744 OA
ENDBRANCH  95  96
ENDBRANCH  63  88
BRANCH  75 100
ATOM    100  C   UNL A   1      40.467  34.375  37.243  1.00  0.00     0.058 A 
ATOM    101  C   UNL A   1      41.318  35.491  37.236  1.00  0.00     0.135 A 
ATOM    102  C   UNL A   1      39.628  34.201  38.358  1.00  0.00     0.135 A 
ATOM    103  F   UNL A   1      42.141  35.708  36.198  1.00  0.00    -0.206 F 
ATOM    104  C   UNL A   1      41.367  36.374  38.311  1.00  0.00     0.059 A 
ATOM    105  C   UNL A   1      39.634  35.091  39.426  1.00  0.00     0.059 A 
ATOM    106  F   UNL A   1      38.779  33.161  38.410  1.00  0.00    -0.206 F 
ATOM    107  C   UNL A   1      40.523  36.165  39.403  1.00  0.00     0.060 A 
BRANCH 107 108
ATOM    108  S   UNL A   1      40.603  37.315  40.790  1.00  0.00     0.124 S 
ATOM    109  O   UNL A   1      41.027  36.438  41.876  1.00  0.00    -0.237 OA
ATOM    110  O   UNL A   1      41.595  38.284  40.334  1.00  0.00    -0.237 OA
ATOM    111  O   UNL A   1      39.238  37.823  40.893  1.00  0.00    -0.744 OA
ENDBRANCH 107 108
ENDBRANCH  75 100
ENDBRANCH  49  50
ENDBRANCH  42  44
ENDBRANCH  41  42
ENDBRANCH  40  41
ENDBRANCH  39  40
ENDBRANCH  38  39
ENDBRANCH  37  38
ENDBRANCH  36  37
ENDBRANCH  35  36
ENDBRANCH   1  35
TORSDOF 28
ENDMDL
