MODEL 1
REMARK VINA RESULT:      -7.7      0.000      0.000
REMARK SMILES O=C(OCCOCCOCCOCCOC(=O)[C@H]1CC2(CC[NH+](C(=O)C3CC3)CC2)CN1C(=O)CCn1cccn1)c1ccc(-c2c3nc(c(-c4c(F)cc(S(=O)(=O)[O-])cc4F)c4ccc([nH]4)c(-c4c(F)cc(S(=O)(=O)[O-])cc4F)c4nc(c(-c5c(F)cc(S(=O)(=O)[O-])cc5F)c5ccc2[nH]5)C=C4)C=C3)cc1
REMARK SMILES IDX 10 1 9 2 8 3 7 4 6 5 5 6 4 7 3 8 2 9 1 10 42 11 43 12 107 13
REMARK SMILES IDX 44 14 106 15 45 16 46 17 47 18 100 19 48 20 105 21 99 22
REMARK SMILES IDX 101 23 49 24 104 25 98 26 97 27 50 29 84 30 63 31 83 32
REMARK SMILES IDX 64 33 67 34 82 35 102 36 65 37 66 38 81 40 103 41 68 42
REMARK SMILES IDX 51 43 52 44 61 45 53 46 54 47 60 48 62 49 55 50 56 51 57 52
REMARK SMILES IDX 58 53 59 54 85 55 86 56 95 57 87 58 88 59 94 60 96 61 89 62
REMARK SMILES IDX 90 63 91 64 92 65 93 66 69 67 70 68 79 69 71 70 72 71 78 72
REMARK SMILES IDX 80 73 73 74 74 75 75 76 76 77 77 78 11 79 12 80 13 81 14 82
REMARK SMILES IDX 15 83 16 84 17 85 18 86 19 87 32 88 20 89 31 90 21 91 30 92
REMARK SMILES IDX 22 93 29 94 23 95 33 97 34 98 35 99 36 100 37 101 38 102
REMARK SMILES IDX 41 103 39 104 40 105 24 106 25 107 26 108 27 109 28 110
REMARK H PARENT 101 28 67 39 23 96
REMARK Flexibility Score: inf
ROOT
ATOM      1  C   UNL A   1      39.276  26.071  28.898  1.00  0.00     0.188 C 
ENDROOT
BRANCH   1   2
ATOM      2  O   UNL A   1      40.444  25.395  28.486  1.00  0.00    -0.377 OA
BRANCH   2   3
ATOM      3  C   UNL A   1      40.357  24.663  27.268  1.00  0.00     0.188 C 
BRANCH   3   4
ATOM      4  C   UNL A   1      40.251  23.129  27.375  1.00  0.00     0.188 C 
BRANCH   4   5
ATOM      5  O   UNL A   1      41.386  22.623  28.060  1.00  0.00    -0.376 OA
BRANCH   5   6
ATOM      6  C   UNL A   1      42.056  21.479  27.568  1.00  0.00     0.202 C 
BRANCH   6   7
ATOM      7  C   UNL A   1      42.017  21.049  26.083  1.00  0.00     0.261 C 
BRANCH   7   8
ATOM      8  O   UNL A   1      43.200  21.149  25.267  1.00  0.00    -0.460 OA
BRANCH   8   9
ATOM      9  C   UNL A   1      43.876  22.247  24.841  1.00  0.00     0.338 C 
ATOM     10  O   UNL A   1      44.243  22.349  23.675  1.00  0.00    -0.246 OA
BRANCH   9  11
ATOM     11  C   UNL A   1      44.351  23.225  25.836  1.00  0.00     0.060 A 
ATOM     12  C   UNL A   1      45.429  22.961  26.678  1.00  0.00     0.016 A 
ATOM     13  C   UNL A   1      43.703  24.473  25.875  1.00  0.00     0.016 A 
ATOM     14  C   UNL A   1      45.950  23.975  27.455  1.00  0.00     0.010 A 
ATOM     15  C   UNL A   1      44.190  25.479  26.700  1.00  0.00     0.010 A 
ATOM     16  C   UNL A   1      45.314  25.217  27.485  1.00  0.00    -0.014 A 
BRANCH  16  17
ATOM     17  C   UNL A   1      45.797  26.123  28.513  1.00  0.00     0.031 A 
ATOM     18  C   UNL A   1      45.130  26.080  29.842  1.00  0.00     0.074 A 
ATOM     19  C   UNL A   1      46.726  27.038  28.184  1.00  0.00     0.049 A 
ATOM     20  N   UNL A   1      44.398  26.990  30.403  1.00  0.00    -0.248 NA
ATOM     21  C   UNL A   1      45.210  24.827  30.606  1.00  0.00     0.031 C 
ATOM     22  C   UNL A   1      47.589  27.051  26.997  1.00  0.00     0.029 A 
ATOM     23  N   UNL A   1      47.147  28.118  28.891  1.00  0.00    -0.354 N 
ATOM     24  C   UNL A   1      44.101  26.516  31.681  1.00  0.00     0.074 A 
ATOM     25  C   UNL A   1      44.501  25.132  31.694  1.00  0.00     0.031 C 
ATOM     26  C   UNL A   1      48.573  27.955  27.179  1.00  0.00     0.029 A 
ATOM     27  C   UNL A   1      48.333  28.659  28.426  1.00  0.00     0.049 A 
ATOM     28  H   UNL A   1      46.654  28.481  29.661  1.00  0.00     0.167 HD
ATOM     29  C   UNL A   1      43.745  27.351  32.698  1.00  0.00     0.037 A 
ATOM     30  C   UNL A   1      49.122  29.540  29.083  1.00  0.00     0.037 A 
ATOM     31  C   UNL A   1      43.222  28.597  32.197  1.00  0.00     0.049 A 
ATOM     32  C   UNL A   1      48.270  30.249  30.073  1.00  0.00     0.074 A 
ATOM     33  C   UNL A   1      42.150  28.953  31.401  1.00  0.00     0.029 A 
ATOM     34  N   UNL A   1      44.015  29.718  32.266  1.00  0.00    -0.354 N 
ATOM     35  N   UNL A   1      47.301  31.066  29.750  1.00  0.00    -0.248 NA
ATOM     36  C   UNL A   1      48.206  29.724  31.428  1.00  0.00     0.031 C 
ATOM     37  C   UNL A   1      42.594  30.085  30.658  1.00  0.00     0.029 A 
ATOM     38  C   UNL A   1      43.897  30.371  31.067  1.00  0.00     0.049 A 
ATOM     39  H   UNL A   1      44.565  29.999  33.033  1.00  0.00     0.167 HD
ATOM     40  C   UNL A   1      46.308  30.842  30.694  1.00  0.00     0.074 A 
ATOM     41  C   UNL A   1      46.963  30.085  31.757  1.00  0.00     0.031 C 
ATOM     42  C   UNL A   1      44.989  31.052  30.406  1.00  0.00     0.037 A 
BRANCH  29  43
ATOM     43  C   UNL A   1      44.209  27.187  34.135  1.00  0.00     0.058 A 
ATOM     44  C   UNL A   1      45.593  27.140  34.418  1.00  0.00     0.135 A 
ATOM     45  C   UNL A   1      43.367  26.761  35.187  1.00  0.00     0.135 A 
ATOM     46  F   UNL A   1      46.492  27.545  33.507  1.00  0.00    -0.206 F 
ATOM     47  C   UNL A   1      46.100  26.592  35.598  1.00  0.00     0.059 A 
ATOM     48  C   UNL A   1      43.850  26.257  36.389  1.00  0.00     0.059 A 
ATOM     49  F   UNL A   1      42.036  26.716  35.071  1.00  0.00    -0.206 F 
ATOM     50  C   UNL A   1      45.216  26.119  36.562  1.00  0.00     0.060 A 
BRANCH  50  51
ATOM     51  S   UNL A   1      45.851  25.236  37.998  1.00  0.00     0.124 S 
ATOM     52  O   UNL A   1      47.260  25.100  37.648  1.00  0.00    -0.237 OA
ATOM     53  O   UNL A   1      45.546  26.161  39.084  1.00  0.00    -0.237 OA
ATOM     54  O   UNL A   1      45.076  23.999  37.998  1.00  0.00    -0.744 OA
ENDBRANCH  50  51
ENDBRANCH  29  43
BRANCH  30  55
ATOM     55  C   UNL A   1      50.603  29.463  29.153  1.00  0.00     0.058 A 
ATOM     56  C   UNL A   1      51.409  30.560  28.815  1.00  0.00     0.135 A 
ATOM     57  C   UNL A   1      51.256  28.379  29.781  1.00  0.00     0.135 A 
ATOM     58  F   UNL A   1      50.864  31.647  28.249  1.00  0.00    -0.206 F 
ATOM     59  C   UNL A   1      52.778  30.590  29.105  1.00  0.00     0.059 A 
ATOM     60  C   UNL A   1      52.619  28.376  30.057  1.00  0.00     0.059 A 
ATOM     61  F   UNL A   1      50.574  27.314  30.228  1.00  0.00    -0.206 F 
ATOM     62  C   UNL A   1      53.371  29.495  29.736  1.00  0.00     0.060 A 
BRANCH  62  63
ATOM     63  S   UNL A   1      55.102  29.584  30.244  1.00  0.00     0.124 S 
ATOM     64  O   UNL A   1      55.132  28.657  31.370  1.00  0.00    -0.237 OA
ATOM     65  O   UNL A   1      55.799  29.150  29.039  1.00  0.00    -0.237 OA
ATOM     66  O   UNL A   1      55.282  30.993  30.593  1.00  0.00    -0.744 OA
ENDBRANCH  62  63
ENDBRANCH  30  55
BRANCH  42  67
ATOM     67  C   UNL A   1      44.645  31.818  29.156  1.00  0.00     0.058 A 
ATOM     68  C   UNL A   1      44.565  33.221  29.099  1.00  0.00     0.135 A 
ATOM     69  C   UNL A   1      44.564  31.122  27.940  1.00  0.00     0.135 A 
ATOM     70  F   UNL A   1      44.749  33.965  30.199  1.00  0.00    -0.206 F 
ATOM     71  C   UNL A   1      44.372  33.898  27.894  1.00  0.00     0.059 A 
ATOM     72  C   UNL A   1      44.401  31.778  26.722  1.00  0.00     0.059 A 
ATOM     73  F   UNL A   1      44.705  29.786  27.920  1.00  0.00    -0.206 F 
ATOM     74  C   UNL A   1      44.295  33.167  26.708  1.00  0.00     0.060 A 
BRANCH  74  75
ATOM     75  S   UNL A   1      44.152  34.057  25.143  1.00  0.00     0.124 S 
ATOM     76  O   UNL A   1      42.952  34.856  25.351  1.00  0.00    -0.237 OA
ATOM     77  O   UNL A   1      45.408  34.798  25.081  1.00  0.00    -0.237 OA
ATOM     78  O   UNL A   1      44.026  32.984  24.153  1.00  0.00    -0.744 OA
ENDBRANCH  74  75
ENDBRANCH  42  67
ENDBRANCH  16  17
ENDBRANCH   9  11
ENDBRANCH   8   9
ENDBRANCH   7   8
ENDBRANCH   6   7
ENDBRANCH   5   6
ENDBRANCH   4   5
ENDBRANCH   3   4
ENDBRANCH   2   3
ENDBRANCH   1   2
BRANCH   1  79
ATOM     79  C   UNL A   1      39.298  27.211  29.932  1.00  0.00     0.188 C 
BRANCH  79  80
ATOM     80  O   UNL A   1      38.161  27.987  30.249  1.00  0.00    -0.376 OA
BRANCH  80  81
ATOM     81  C   UNL A   1      38.536  29.144  31.043  1.00  0.00     0.202 C 
BRANCH  81  82
ATOM     82  C   UNL A   1      38.038  29.218  32.524  1.00  0.00     0.261 C 
BRANCH  82  83
ATOM     83  O   UNL A   1      39.059  29.388  33.573  1.00  0.00    -0.462 OA
BRANCH  83  84
ATOM     84  C   UNL A   1      39.456  30.694  33.759  1.00  0.00     0.328 C 
ATOM     85  O   UNL A   1      40.281  31.220  33.003  1.00  0.00    -0.250 OA
BRANCH  84  86
ATOM     86  C   UNL A   1      38.996  31.484  35.072  1.00  0.00     0.195 C 
ATOM     87  C   UNL A   1      39.819  32.224  36.172  1.00  0.00     0.046 C 
ATOM     88  N   UNL A   1      37.661  32.129  35.181  1.00  0.00    -0.328 N 
ATOM     89  C   UNL A   1      38.810  33.177  36.959  1.00  0.00     0.001 C 
ATOM     90  C   UNL A   1      37.460  32.507  36.584  1.00  0.00     0.128 C 
ATOM     91  C   UNL A   1      38.671  34.687  36.592  1.00  0.00     0.071 C 
ATOM     92  C   UNL A   1      39.122  33.186  38.466  1.00  0.00     0.071 C 
ATOM     93  C   UNL A   1      39.761  35.660  37.060  1.00  0.00     0.270 C 
ATOM     94  C   UNL A   1      40.377  34.021  38.768  1.00  0.00     0.270 C 
ATOM     95  N   UNL A   1      40.208  35.435  38.421  1.00  0.00    -0.272 N 
ATOM     96  H   UNL A   1      39.986  36.144  39.068  1.00  0.00     0.356 HD
BRANCH  88  97
ATOM     97  C   UNL A   1      36.942  32.820  34.223  1.00  0.00     0.225 C 
ATOM     98  O   UNL A   1      37.153  32.657  33.016  1.00  0.00    -0.275 OA
BRANCH  97  99
ATOM     99  C   UNL A   1      35.841  33.772  34.614  1.00  0.00     0.124 C 
BRANCH  99 100
ATOM    100  C   UNL A   1      34.614  33.607  33.713  1.00  0.00     0.154 C 
BRANCH 100 101
ATOM    101  N   UNL A   1      34.139  34.787  33.011  1.00  0.00    -0.272 N 
ATOM    102  C   UNL A   1      34.391  36.099  33.300  1.00  0.00     0.108 A 
ATOM    103  N   UNL A   1      33.250  34.666  32.023  1.00  0.00    -0.182 NA
ATOM    104  C   UNL A   1      33.535  36.844  32.518  1.00  0.00     0.042 A 
ATOM    105  C   UNL A   1      32.837  35.905  31.762  1.00  0.00     0.135 A 
ENDBRANCH 100 101
ENDBRANCH  99 100
ENDBRANCH  97  99
ENDBRANCH  88  97
BRANCH  95 106
ATOM    106  C   UNL A   1      40.823  36.381  39.261  1.00  0.00     0.315 C 
ATOM    107  O   UNL A   1      42.052  36.459  39.297  1.00  0.00    -0.231 OA
BRANCH 106 108
ATOM    108  C   UNL A   1      40.115  37.337  40.178  1.00  0.00     0.119 C 
ATOM    109  C   UNL A   1      40.026  38.835  40.133  1.00  0.00     0.019 C 
ATOM    110  C   UNL A   1      38.805  38.001  39.839  1.00  0.00     0.019 C 
ENDBRANCH 106 108
ENDBRANCH  95 106
ENDBRANCH  84  86
ENDBRANCH  83  84
ENDBRANCH  82  83
ENDBRANCH  81  82
ENDBRANCH  80  81
ENDBRANCH  79  80
ENDBRANCH   1  79
TORSDOF 29
ENDMDL
MODEL 2
REMARK VINA RESULT:      -7.7      4.537     11.640
REMARK SMILES O=C(OCCOCCOCCOCCOC(=O)[C@H]1CC2(CC[NH+](C(=O)C3CC3)CC2)CN1C(=O)CCn1cccn1)c1ccc(-c2c3nc(c(-c4c(F)cc(S(=O)(=O)[O-])cc4F)c4ccc([nH]4)c(-c4c(F)cc(S(=O)(=O)[O-])cc4F)c4nc(c(-c5c(F)cc(S(=O)(=O)[O-])cc5F)c5ccc2[nH]5)C=C4)C=C3)cc1
REMARK SMILES IDX 10 1 9 2 8 3 7 4 6 5 5 6 4 7 3 8 2 9 1 10 42 11 43 12 107 13
REMARK SMILES IDX 44 14 106 15 45 16 46 17 47 18 100 19 48 20 105 21 99 22
REMARK SMILES IDX 101 23 49 24 104 25 98 26 97 27 50 29 84 30 63 31 83 32
REMARK SMILES IDX 64 33 67 34 82 35 102 36 65 37 66 38 81 40 103 41 68 42
REMARK SMILES IDX 51 43 52 44 61 45 53 46 54 47 60 48 62 49 55 50 56 51 57 52
REMARK SMILES IDX 58 53 59 54 85 55 86 56 95 57 87 58 88 59 94 60 96 61 89 62
REMARK SMILES IDX 90 63 91 64 92 65 93 66 69 67 70 68 79 69 71 70 72 71 78 72
REMARK SMILES IDX 80 73 73 74 74 75 75 76 76 77 77 78 11 79 12 80 13 81 14 82
REMARK SMILES IDX 15 83 16 84 17 85 18 86 19 87 32 88 20 89 31 90 21 91 30 92
REMARK SMILES IDX 22 93 29 94 23 95 33 97 34 98 35 99 36 100 37 101 38 102
REMARK SMILES IDX 41 103 39 104 40 105 24 106 25 107 26 108 27 109 28 110
REMARK H PARENT 101 28 67 39 23 96
REMARK Flexibility Score: inf
ROOT
ATOM      1  C   UNL A   1      43.050  22.937  25.007  1.00  0.00     0.188 C 
ENDROOT
BRANCH   1   2
ATOM      2  O   UNL A   1      43.982  22.247  24.206  1.00  0.00    -0.377 OA
BRANCH   2   3
ATOM      3  C   UNL A   1      45.286  22.079  24.752  1.00  0.00     0.188 C 
BRANCH   3   4
ATOM      4  C   UNL A   1      46.329  23.169  24.433  1.00  0.00     0.188 C 
BRANCH   4   5
ATOM      5  O   UNL A   1      46.350  24.126  25.479  1.00  0.00    -0.376 OA
BRANCH   5   6
ATOM      6  C   UNL A   1      45.685  25.363  25.318  1.00  0.00     0.202 C 
BRANCH   6   7
ATOM      7  C   UNL A   1      46.427  26.695  25.056  1.00  0.00     0.261 C 
BRANCH   7   8
ATOM      8  O   UNL A   1      47.221  27.299  26.095  1.00  0.00    -0.460 OA
BRANCH   8   9
ATOM      9  C   UNL A   1      47.641  28.583  26.238  1.00  0.00     0.338 C 
ATOM     10  O   UNL A   1      48.739  28.939  25.823  1.00  0.00    -0.246 OA
BRANCH   9  11
ATOM     11  C   UNL A   1      46.856  29.501  27.082  1.00  0.00     0.060 A 
ATOM     12  C   UNL A   1      47.226  29.804  28.391  1.00  0.00     0.016 A 
ATOM     13  C   UNL A   1      45.732  30.113  26.499  1.00  0.00     0.016 A 
ATOM     14  C   UNL A   1      46.569  30.808  29.070  1.00  0.00     0.010 A 
ATOM     15  C   UNL A   1      45.031  31.085  27.202  1.00  0.00     0.010 A 
ATOM     16  C   UNL A   1      45.459  31.423  28.487  1.00  0.00    -0.014 A 
BRANCH  16  17
ATOM     17  C   UNL A   1      44.702  32.284  29.378  1.00  0.00     0.031 A 
ATOM     18  C   UNL A   1      45.352  33.537  29.847  1.00  0.00     0.074 A 
ATOM     19  C   UNL A   1      43.513  31.855  29.838  1.00  0.00     0.049 A 
ATOM     20  N   UNL A   1      45.732  33.844  31.047  1.00  0.00    -0.248 NA
ATOM     21  C   UNL A   1      45.712  34.540  28.835  1.00  0.00     0.031 C 
ATOM     22  C   UNL A   1      42.690  30.762  29.306  1.00  0.00     0.029 A 
ATOM     23  N   UNL A   1      42.752  32.363  30.840  1.00  0.00    -0.354 N 
ATOM     24  C   UNL A   1      46.182  35.164  30.985  1.00  0.00     0.074 A 
ATOM     25  C   UNL A   1      46.281  35.484  29.585  1.00  0.00     0.031 C 
ATOM     26  C   UNL A   1      41.457  30.838  29.847  1.00  0.00     0.029 A 
ATOM     27  C   UNL A   1      41.450  31.896  30.841  1.00  0.00     0.049 A 
ATOM     28  H   UNL A   1      43.095  33.003  31.504  1.00  0.00     0.167 HD
ATOM     29  C   UNL A   1      46.237  35.961  32.090  1.00  0.00     0.037 A 
ATOM     30  C   UNL A   1      40.410  32.424  31.528  1.00  0.00     0.037 A 
ATOM     31  C   UNL A   1      46.297  35.182  33.301  1.00  0.00     0.049 A 
ATOM     32  C   UNL A   1      40.975  33.181  32.676  1.00  0.00     0.074 A 
ATOM     33  C   UNL A   1      47.177  34.247  33.814  1.00  0.00     0.029 A 
ATOM     34  N   UNL A   1      45.169  35.088  34.079  1.00  0.00    -0.354 N 
ATOM     35  N   UNL A   1      41.602  32.625  33.680  1.00  0.00    -0.248 NA
ATOM     36  C   UNL A   1      41.224  34.605  32.507  1.00  0.00     0.031 C 
ATOM     37  C   UNL A   1      46.367  33.331  34.545  1.00  0.00     0.029 A 
ATOM     38  C   UNL A   1      45.047  33.777  34.460  1.00  0.00     0.049 A 
ATOM     39  H   UNL A   1      44.561  35.826  34.319  1.00  0.00     0.167 HD
ATOM     40  C   UNL A   1      42.618  33.512  34.008  1.00  0.00     0.074 A 
ATOM     41  C   UNL A   1      42.270  34.754  33.324  1.00  0.00     0.031 C 
ATOM     42  C   UNL A   1      43.783  33.084  34.579  1.00  0.00     0.037 A 
BRANCH  29  43
ATOM     43  C   UNL A   1      45.867  37.435  32.094  1.00  0.00     0.058 A 
ATOM     44  C   UNL A   1      44.534  37.818  31.822  1.00  0.00     0.135 A 
ATOM     45  C   UNL A   1      46.816  38.481  32.038  1.00  0.00     0.135 A 
ATOM     46  F   UNL A   1      43.539  36.919  31.871  1.00  0.00    -0.206 F 
ATOM     47  C   UNL A   1      44.194  39.106  31.401  1.00  0.00     0.059 A 
ATOM     48  C   UNL A   1      46.491  39.782  31.669  1.00  0.00     0.059 A 
ATOM     49  F   UNL A   1      48.122  38.281  32.240  1.00  0.00    -0.206 F 
ATOM     50  C   UNL A   1      45.190  40.070  31.293  1.00  0.00     0.060 A 
BRANCH  50  51
ATOM     51  S   UNL A   1      44.804  41.674  30.570  1.00  0.00     0.124 S 
ATOM     52  O   UNL A   1      43.734  41.319  29.645  1.00  0.00    -0.237 OA
ATOM     53  O   UNL A   1      44.407  42.449  31.741  1.00  0.00    -0.237 OA
ATOM     54  O   UNL A   1      46.066  42.076  29.956  1.00  0.00    -0.744 OA
ENDBRANCH  50  51
ENDBRANCH  29  43
BRANCH  30  55
ATOM     55  C   UNL A   1      39.047  32.626  30.979  1.00  0.00     0.058 A 
ATOM     56  C   UNL A   1      38.798  33.562  29.964  1.00  0.00     0.135 A 
ATOM     57  C   UNL A   1      37.991  31.734  31.276  1.00  0.00     0.135 A 
ATOM     58  F   UNL A   1      39.758  34.423  29.593  1.00  0.00    -0.206 F 
ATOM     59  C   UNL A   1      37.584  33.596  29.268  1.00  0.00     0.059 A 
ATOM     60  C   UNL A   1      36.769  31.764  30.615  1.00  0.00     0.059 A 
ATOM     61  F   UNL A   1      38.144  30.741  32.165  1.00  0.00    -0.206 F 
ATOM     62  C   UNL A   1      36.579  32.684  29.595  1.00  0.00     0.060 A 
BRANCH  62  63
ATOM     63  S   UNL A   1      35.068  32.624  28.608  1.00  0.00     0.124 S 
ATOM     64  O   UNL A   1      34.063  33.064  29.570  1.00  0.00    -0.237 OA
ATOM     65  O   UNL A   1      35.370  33.556  27.527  1.00  0.00    -0.237 OA
ATOM     66  O   UNL A   1      34.977  31.220  28.210  1.00  0.00    -0.744 OA
ENDBRANCH  62  63
ENDBRANCH  30  55
BRANCH  42  67
ATOM     67  C   UNL A   1      43.835  31.682  35.128  1.00  0.00     0.058 A 
ATOM     68  C   UNL A   1      44.160  30.554  34.355  1.00  0.00     0.135 A 
ATOM     69  C   UNL A   1      43.723  31.498  36.515  1.00  0.00     0.135 A 
ATOM     70  F   UNL A   1      44.398  30.667  33.040  1.00  0.00    -0.206 F 
ATOM     71  C   UNL A   1      44.325  29.292  34.928  1.00  0.00     0.059 A 
ATOM     72  C   UNL A   1      43.913  30.254  37.113  1.00  0.00     0.059 A 
ATOM     73  F   UNL A   1      43.486  32.550  37.317  1.00  0.00    -0.206 F 
ATOM     74  C   UNL A   1      44.203  29.153  36.311  1.00  0.00     0.060 A 
BRANCH  74  75
ATOM     75  S   UNL A   1      44.523  27.538  37.056  1.00  0.00     0.124 S 
ATOM     76  O   UNL A   1      45.083  26.789  35.940  1.00  0.00    -0.237 OA
ATOM     77  O   UNL A   1      45.449  27.863  38.136  1.00  0.00    -0.237 OA
ATOM     78  O   UNL A   1      43.196  27.102  37.499  1.00  0.00    -0.744 OA
ENDBRANCH  74  75
ENDBRANCH  42  67
ENDBRANCH  16  17
ENDBRANCH   9  11
ENDBRANCH   8   9
ENDBRANCH   7   8
ENDBRANCH   6   7
ENDBRANCH   5   6
ENDBRANCH   4   5
ENDBRANCH   3   4
ENDBRANCH   2   3
ENDBRANCH   1   2
BRANCH   1  79
ATOM     79  C   UNL A   1      41.915  22.222  25.764  1.00  0.00     0.188 C 
BRANCH  79  80
ATOM     80  O   UNL A   1      42.121  21.069  26.552  1.00  0.00    -0.376 OA
BRANCH  80  81
ATOM     81  C   UNL A   1      42.367  21.432  27.937  1.00  0.00     0.202 C 
BRANCH  81  82
ATOM     82  C   UNL A   1      41.930  22.856  28.417  1.00  0.00     0.261 C 
BRANCH  82  83
ATOM     83  O   UNL A   1      42.917  23.943  28.295  1.00  0.00    -0.462 OA
BRANCH  83  84
ATOM     84  C   UNL A   1      44.044  23.764  29.065  1.00  0.00     0.328 C 
ATOM     85  O   UNL A   1      45.059  23.241  28.590  1.00  0.00    -0.250 OA
BRANCH  84  86
ATOM     86  C   UNL A   1      43.987  24.057  30.636  1.00  0.00     0.195 C 
ATOM     87  C   UNL A   1      44.085  23.103  31.868  1.00  0.00     0.046 C 
ATOM     88  N   UNL A   1      44.388  25.368  31.212  1.00  0.00    -0.328 N 
ATOM     89  C   UNL A   1      44.408  24.007  33.143  1.00  0.00     0.001 C 
ATOM     90  C   UNL A   1      43.952  25.393  32.612  1.00  0.00     0.128 C 
ATOM     91  C   UNL A   1      45.870  24.189  33.655  1.00  0.00     0.071 C 
ATOM     92  C   UNL A   1      43.638  23.510  34.379  1.00  0.00     0.071 C 
ATOM     93  C   UNL A   1      46.517  23.049  34.452  1.00  0.00     0.270 C 
ATOM     94  C   UNL A   1      44.268  22.227  34.947  1.00  0.00     0.270 C 
ATOM     95  N   UNL A   1      45.636  22.437  35.427  1.00  0.00    -0.272 N 
ATOM     96  H   UNL A   1      45.878  22.576  36.372  1.00  0.00     0.356 HD
BRANCH  88  97
ATOM     97  C   UNL A   1      45.433  26.200  30.853  1.00  0.00     0.225 C 
ATOM     98  O   UNL A   1      46.604  25.919  31.130  1.00  0.00    -0.275 OA
BRANCH  97  99
ATOM     99  C   UNL A   1      45.187  27.464  30.072  1.00  0.00     0.124 C 
BRANCH  99 100
ATOM    100  C   UNL A   1      44.718  27.157  28.647  1.00  0.00     0.154 C 
BRANCH 100 101
ATOM    101  N   UNL A   1      43.325  27.425  28.331  1.00  0.00    -0.272 N 
ATOM    102  C   UNL A   1      42.218  27.121  29.073  1.00  0.00     0.108 A 
ATOM    103  N   UNL A   1      42.992  27.922  27.138  1.00  0.00    -0.182 NA
ATOM    104  C   UNL A   1      41.128  27.344  28.261  1.00  0.00     0.042 A 
ATOM    105  C   UNL A   1      41.666  27.819  27.067  1.00  0.00     0.135 A 
ENDBRANCH 100 101
ENDBRANCH  99 100
ENDBRANCH  97  99
ENDBRANCH  88  97
BRANCH  95 106
ATOM    106  C   UNL A   1      46.032  21.722  36.572  1.00  0.00     0.315 C 
ATOM    107  O   UNL A   1      46.025  22.277  37.672  1.00  0.00    -0.231 OA
BRANCH 106 108
ATOM    108  C   UNL A   1      46.503  20.296  36.601  1.00  0.00     0.119 C 
ATOM    109  C   UNL A   1      46.375  19.256  37.676  1.00  0.00     0.019 C 
ATOM    110  C   UNL A   1      45.593  19.113  36.396  1.00  0.00     0.019 C 
ENDBRANCH 106 108
ENDBRANCH  95 106
ENDBRANCH  84  86
ENDBRANCH  83  84
ENDBRANCH  82  83
ENDBRANCH  81  82
ENDBRANCH  80  81
ENDBRANCH  79  80
ENDBRANCH   1  79
TORSDOF 29
ENDMDL
MODEL 3
REMARK VINA RESULT:      -7.1      4.676     11.861
REMARK SMILES O=C(OCCOCCOCCOCCOC(=O)[C@H]1CC2(CC[NH+](C(=O)C3CC3)CC2)CN1C(=O)CCn1cccn1)c1ccc(-c2c3nc(c(-c4c(F)cc(S(=O)(=O)[O-])cc4F)c4ccc([nH]4)c(-c4c(F)cc(S(=O)(=O)[O-])cc4F)c4nc(c(-c5c(F)cc(S(=O)(=O)[O-])cc5F)c5ccc2[nH]5)C=C4)C=C3)cc1
REMARK SMILES IDX 10 1 9 2 8 3 7 4 6 5 5 6 4 7 3 8 2 9 1 10 42 11 43 12 107 13
REMARK SMILES IDX 44 14 106 15 45 16 46 17 47 18 100 19 48 20 105 21 99 22
REMARK SMILES IDX 101 23 49 24 104 25 98 26 97 27 50 29 84 30 63 31 83 32
REMARK SMILES IDX 64 33 67 34 82 35 102 36 65 37 66 38 81 40 103 41 68 42
REMARK SMILES IDX 51 43 52 44 61 45 53 46 54 47 60 48 62 49 55 50 56 51 57 52
REMARK SMILES IDX 58 53 59 54 85 55 86 56 95 57 87 58 88 59 94 60 96 61 89 62
REMARK SMILES IDX 90 63 91 64 92 65 93 66 69 67 70 68 79 69 71 70 72 71 78 72
REMARK SMILES IDX 80 73 73 74 74 75 75 76 76 77 77 78 11 79 12 80 13 81 14 82
REMARK SMILES IDX 15 83 16 84 17 85 18 86 19 87 32 88 20 89 31 90 21 91 30 92
REMARK SMILES IDX 22 93 29 94 23 95 33 97 34 98 35 99 36 100 37 101 38 102
REMARK SMILES IDX 41 103 39 104 40 105 24 106 25 107 26 108 27 109 28 110
REMARK H PARENT 101 28 67 39 23 96
REMARK Flexibility Score: inf
ROOT
ATOM      1  C   UNL A   1      42.946  23.015  25.037  1.00  0.00     0.188 C 
ENDROOT
BRANCH   1   2
ATOM      2  O   UNL A   1      43.847  22.202  24.321  1.00  0.00    -0.377 OA
BRANCH   2   3
ATOM      3  C   UNL A   1      45.088  21.915  24.959  1.00  0.00     0.188 C 
BRANCH   3   4
ATOM      4  C   UNL A   1      46.249  22.898  24.712  1.00  0.00     0.188 C 
BRANCH   4   5
ATOM      5  O   UNL A   1      46.149  23.987  25.614  1.00  0.00    -0.376 OA
BRANCH   5   6
ATOM      6  C   UNL A   1      45.871  25.285  25.127  1.00  0.00     0.202 C 
BRANCH   6   7
ATOM      7  C   UNL A   1      46.954  26.377  24.960  1.00  0.00     0.261 C 
BRANCH   7   8
ATOM      8  O   UNL A   1      47.645  26.894  26.112  1.00  0.00    -0.460 OA
BRANCH   8   9
ATOM      9  C   UNL A   1      48.393  28.020  26.250  1.00  0.00     0.338 C 
ATOM     10  O   UNL A   1      49.612  27.989  26.118  1.00  0.00    -0.246 OA
BRANCH   9  11
ATOM     11  C   UNL A   1      47.754  29.244  26.764  1.00  0.00     0.060 A 
ATOM     12  C   UNL A   1      48.284  29.962  27.834  1.00  0.00     0.016 A 
ATOM     13  C   UNL A   1      46.602  29.700  26.100  1.00  0.00     0.016 A 
ATOM     14  C   UNL A   1      47.757  31.196  28.154  1.00  0.00     0.010 A 
ATOM     15  C   UNL A   1      46.033  30.916  26.457  1.00  0.00     0.010 A 
ATOM     16  C   UNL A   1      46.620  31.654  27.486  1.00  0.00    -0.014 A 
BRANCH  16  17
ATOM     17  C   UNL A   1      46.011  32.839  28.064  1.00  0.00     0.031 A 
ATOM     18  C   UNL A   1      46.589  34.161  27.701  1.00  0.00     0.074 A 
ATOM     19  C   UNL A   1      45.047  32.686  28.990  1.00  0.00     0.049 A 
ATOM     20  N   UNL A   1      47.221  34.998  28.462  1.00  0.00    -0.248 NA
ATOM     21  C   UNL A   1      46.540  34.562  26.288  1.00  0.00     0.031 C 
ATOM     22  C   UNL A   1      44.267  31.477  29.278  1.00  0.00     0.029 A 
ATOM     23  N   UNL A   1      44.511  33.613  29.823  1.00  0.00    -0.354 N 
ATOM     24  C   UNL A   1      47.462  36.128  27.680  1.00  0.00     0.074 A 
ATOM     25  C   UNL A   1      47.154  35.746  26.326  1.00  0.00     0.031 C 
ATOM     26  C   UNL A   1      43.216  31.808  30.055  1.00  0.00     0.029 A 
ATOM     27  C   UNL A   1      43.325  33.211  30.414  1.00  0.00     0.049 A 
ATOM     28  H   UNL A   1      44.925  34.489  29.992  1.00  0.00     0.167 HD
ATOM     29  C   UNL A   1      47.694  37.353  28.231  1.00  0.00     0.037 A 
ATOM     30  C   UNL A   1      42.438  34.008  31.052  1.00  0.00     0.037 A 
ATOM     31  C   UNL A   1      48.166  37.240  29.588  1.00  0.00     0.049 A 
ATOM     32  C   UNL A   1      43.174  35.215  31.511  1.00  0.00     0.074 A 
ATOM     33  C   UNL A   1      49.263  36.654  30.191  1.00  0.00     0.029 A 
ATOM     34  N   UNL A   1      47.298  37.533  30.613  1.00  0.00    -0.354 N 
ATOM     35  N   UNL A   1      44.106  35.197  32.428  1.00  0.00    -0.248 NA
ATOM     36  C   UNL A   1      43.181  36.387  30.649  1.00  0.00     0.031 C 
ATOM     37  C   UNL A   1      48.796  36.198  31.458  1.00  0.00     0.029 A 
ATOM     38  C   UNL A   1      47.453  36.560  31.566  1.00  0.00     0.049 A 
ATOM     39  H   UNL A   1      46.681  38.300  30.655  1.00  0.00     0.167 HD
ATOM     40  C   UNL A   1      45.046  36.127  32.007  1.00  0.00     0.074 A 
ATOM     41  C   UNL A   1      44.373  36.899  30.966  1.00  0.00     0.031 C 
ATOM     42  C   UNL A   1      46.365  36.013  32.346  1.00  0.00     0.037 A 
BRANCH  29  43
ATOM     43  C   UNL A   1      47.147  38.654  27.671  1.00  0.00     0.058 A 
ATOM     44  C   UNL A   1      45.764  38.769  27.401  1.00  0.00     0.135 A 
ATOM     45  C   UNL A   1      47.955  39.663  27.099  1.00  0.00     0.135 A 
ATOM     46  F   UNL A   1      44.891  37.886  27.910  1.00  0.00    -0.206 F 
ATOM     47  C   UNL A   1      45.247  39.728  26.528  1.00  0.00     0.059 A 
ATOM     48  C   UNL A   1      47.454  40.657  26.266  1.00  0.00     0.059 A 
ATOM     49  F   UNL A   1      49.285  39.684  27.234  1.00  0.00    -0.206 F 
ATOM     50  C   UNL A   1      46.110  40.645  25.937  1.00  0.00     0.060 A 
BRANCH  50  51
ATOM     51  S   UNL A   1      45.491  41.761  24.665  1.00  0.00     0.124 S 
ATOM     52  O   UNL A   1      45.902  43.055  25.197  1.00  0.00    -0.237 OA
ATOM     53  O   UNL A   1      46.206  41.298  23.480  1.00  0.00    -0.237 OA
ATOM     54  O   UNL A   1      44.054  41.502  24.665  1.00  0.00    -0.744 OA
ENDBRANCH  50  51
ENDBRANCH  29  43
BRANCH  30  55
ATOM     55  C   UNL A   1      40.964  33.934  30.891  1.00  0.00     0.058 A 
ATOM     56  C   UNL A   1      40.331  34.395  29.728  1.00  0.00     0.135 A 
ATOM     57  C   UNL A   1      40.160  33.190  31.785  1.00  0.00     0.135 A 
ATOM     58  F   UNL A   1      41.029  35.078  28.808  1.00  0.00    -0.206 F 
ATOM     59  C   UNL A   1      38.987  34.115  29.455  1.00  0.00     0.059 A 
ATOM     60  C   UNL A   1      38.818  32.919  31.546  1.00  0.00     0.059 A 
ATOM     61  F   UNL A   1      40.678  32.624  32.885  1.00  0.00    -0.206 F 
ATOM     62  C   UNL A   1      38.242  33.366  30.367  1.00  0.00     0.060 A 
BRANCH  62  63
ATOM     63  S   UNL A   1      36.553  32.876  29.956  1.00  0.00     0.124 S 
ATOM     64  O   UNL A   1      36.237  31.951  31.039  1.00  0.00    -0.237 OA
ATOM     65  O   UNL A   1      35.848  34.153  29.979  1.00  0.00    -0.237 OA
ATOM     66  O   UNL A   1      36.689  32.265  28.635  1.00  0.00    -0.744 OA
ENDBRANCH  62  63
ENDBRANCH  30  55
BRANCH  42  67
ATOM     67  C   UNL A   1      46.741  35.039  33.432  1.00  0.00     0.058 A 
ATOM     68  C   UNL A   1      46.739  35.359  34.800  1.00  0.00     0.135 A 
ATOM     69  C   UNL A   1      46.940  33.693  33.089  1.00  0.00     0.135 A 
ATOM     70  F   UNL A   1      46.441  36.598  35.216  1.00  0.00    -0.206 F 
ATOM     71  C   UNL A   1      46.967  34.392  35.782  1.00  0.00     0.059 A 
ATOM     72  C   UNL A   1      47.140  32.706  34.052  1.00  0.00     0.059 A 
ATOM     73  F   UNL A   1      46.882  33.311  31.802  1.00  0.00    -0.206 F 
ATOM     74  C   UNL A   1      47.162  33.066  35.397  1.00  0.00     0.060 A 
BRANCH  74  75
ATOM     75  S   UNL A   1      47.350  31.806  36.678  1.00  0.00     0.124 S 
ATOM     76  O   UNL A   1      47.834  32.585  37.809  1.00  0.00    -0.237 OA
ATOM     77  O   UNL A   1      45.997  31.273  36.802  1.00  0.00    -0.237 OA
ATOM     78  O   UNL A   1      48.322  30.875  36.097  1.00  0.00    -0.744 OA
ENDBRANCH  74  75
ENDBRANCH  42  67
ENDBRANCH  16  17
ENDBRANCH   9  11
ENDBRANCH   8   9
ENDBRANCH   7   8
ENDBRANCH   6   7
ENDBRANCH   5   6
ENDBRANCH   4   5
ENDBRANCH   3   4
ENDBRANCH   2   3
ENDBRANCH   1   2
BRANCH   1  79
ATOM     79  C   UNL A   1      41.771  22.437  25.848  1.00  0.00     0.188 C 
BRANCH  79  80
ATOM     80  O   UNL A   1      41.889  21.297  26.673  1.00  0.00    -0.376 OA
BRANCH  80  81
ATOM     81  C   UNL A   1      42.386  21.666  27.988  1.00  0.00     0.202 C 
BRANCH  81  82
ATOM     82  C   UNL A   1      42.023  23.081  28.546  1.00  0.00     0.261 C 
BRANCH  82  83
ATOM     83  O   UNL A   1      43.033  24.144  28.400  1.00  0.00    -0.462 OA
BRANCH  83  84
ATOM     84  C   UNL A   1      44.158  23.955  29.171  1.00  0.00     0.328 C 
ATOM     85  O   UNL A   1      45.162  23.407  28.702  1.00  0.00    -0.250 OA
BRANCH  84  86
ATOM     86  C   UNL A   1      44.110  24.271  30.738  1.00  0.00     0.195 C 
ATOM     87  C   UNL A   1      44.164  23.330  31.983  1.00  0.00     0.046 C 
ATOM     88  N   UNL A   1      44.564  25.571  31.298  1.00  0.00    -0.328 N 
ATOM     89  C   UNL A   1      44.522  24.236  33.246  1.00  0.00     0.001 C 
ATOM     90  C   UNL A   1      44.127  25.633  32.697  1.00  0.00     0.128 C 
ATOM     91  C   UNL A   1      45.990  24.362  33.760  1.00  0.00     0.071 C 
ATOM     92  C   UNL A   1      43.729  23.789  34.487  1.00  0.00     0.071 C 
ATOM     93  C   UNL A   1      46.585  23.206  34.574  1.00  0.00     0.270 C 
ATOM     94  C   UNL A   1      44.302  22.488  35.073  1.00  0.00     0.270 C 
ATOM     95  N   UNL A   1      45.677  22.645  35.555  1.00  0.00    -0.272 N 
ATOM     96  H   UNL A   1      45.923  22.786  36.498  1.00  0.00     0.356 HD
BRANCH  88  97
ATOM     97  C   UNL A   1      45.645  26.353  30.931  1.00  0.00     0.225 C 
ATOM     98  O   UNL A   1      46.804  26.016  31.198  1.00  0.00    -0.275 OA
BRANCH  97  99
ATOM     99  C   UNL A   1      45.453  27.629  30.154  1.00  0.00     0.124 C 
BRANCH  99 100
ATOM    100  C   UNL A   1      45.049  27.344  28.705  1.00  0.00     0.154 C 
BRANCH 100 101
ATOM    101  N   UNL A   1      43.775  27.875  28.251  1.00  0.00    -0.272 N 
ATOM    102  C   UNL A   1      43.453  28.349  27.009  1.00  0.00     0.108 A 
ATOM    103  N   UNL A   1      42.780  28.065  29.119  1.00  0.00    -0.182 NA
ATOM    104  C   UNL A   1      42.226  28.963  27.130  1.00  0.00     0.042 A 
ATOM    105  C   UNL A   1      41.865  28.776  28.463  1.00  0.00     0.135 A 
ENDBRANCH 100 101
ENDBRANCH  99 100
ENDBRANCH  97  99
ENDBRANCH  88  97
BRANCH  95 106
ATOM    106  C   UNL A   1      46.039  21.929  36.710  1.00  0.00     0.315 C 
ATOM    107  O   UNL A   1      45.933  22.461  37.817  1.00  0.00    -0.231 OA
BRANCH 106 108
ATOM    108  C   UNL A   1      46.585  20.530  36.745  1.00  0.00     0.119 C 
ATOM    109  C   UNL A   1      46.271  19.391  37.670  1.00  0.00     0.019 C 
ATOM    110  C   UNL A   1      45.835  19.329  36.228  1.00  0.00     0.019 C 
ENDBRANCH 106 108
ENDBRANCH  95 106
ENDBRANCH  84  86
ENDBRANCH  83  84
ENDBRANCH  82  83
ENDBRANCH  81  82
ENDBRANCH  80  81
ENDBRANCH  79  80
ENDBRANCH   1  79
TORSDOF 29
ENDMDL
