MODEL 1
REMARK VINA RESULT:      -7.9      0.000      0.000
REMARK SMILES CCN1C(=O)/C(=C/c2ccccc2O[C@H](C)C(=O)OCCOCCOCCOCCOC(=O)c2ccc(-c3c4nc(c(-c5c(F)cc(S(=O)(=O)[O-])cc5F)c5ccc([nH]5)c(-c5c(F)cc(S(=O)(=O)[O-])cc5F)c5nc(c(-c6c(F)cc(S(=O)(=O)[O-])cc6F)c6ccc3[nH]6)C=C5)C=C4)cc2)S/C1=[NH+]\c1ccc(C)cc1O
REMARK SMILES IDX 24 1 23 2 22 3 21 4 20 5 19 6 17 7 18 8 15 9 16 10 14 11
REMARK SMILES IDX 13 12 8 13 9 14 10 15 12 16 11 17 7 18 3 19 4 20 101 21 5 22
REMARK SMILES IDX 6 23 100 24 102 25 2 27 1 28 103 29 104 30 109 31 105 32
REMARK SMILES IDX 108 33 106 34 107 35 110 36 25 38 26 39 27 40 28 41 29 42
REMARK SMILES IDX 30 43 31 44 32 45 33 46 34 47 35 48 99 49 36 50 98 51 37 52
REMARK SMILES IDX 38 53 39 54 92 55 40 56 97 57 91 58 93 59 41 60 96 61 90 62
REMARK SMILES IDX 89 63 42 65 76 66 55 67 75 68 56 69 59 70 74 71 94 72 57 73
REMARK SMILES IDX 58 74 73 76 95 77 60 78 43 79 44 80 53 81 45 82 46 83 52 84
REMARK SMILES IDX 54 85 47 86 48 87 49 88 50 89 51 90 77 91 78 92 87 93 79 94
REMARK SMILES IDX 80 95 86 96 88 97 81 98 82 99 83 100 84 101 85 102 61 103
REMARK SMILES IDX 62 104 71 105 63 106 64 107 70 108 72 109 65 110 66 111
REMARK SMILES IDX 67 112 68 113 69 114
REMARK H PARENT 102 26 110 37 93 64 59 75
REMARK Flexibility Score: inf
ROOT
ATOM      1  C   UNL A   1      45.460  22.544  25.847  1.00  0.00     0.188 C 
ENDROOT
BRANCH   1   2
ATOM      2  C   UNL A   1      46.500  22.629  24.719  1.00  0.00     0.188 C 
BRANCH   2   3
ATOM      3  O   UNL A   1      46.705  23.810  23.958  1.00  0.00    -0.376 OA
BRANCH   3   4
ATOM      4  C   UNL A   1      47.475  24.905  24.427  1.00  0.00     0.202 C 
BRANCH   4   5
ATOM      5  C   UNL A   1      47.679  25.187  25.921  1.00  0.00     0.261 C 
BRANCH   5   6
ATOM      6  O   UNL A   1      47.783  26.562  26.305  1.00  0.00    -0.461 OA
BRANCH   6   7
ATOM      7  C   UNL A   1      46.606  27.169  26.590  1.00  0.00     0.347 C 
ATOM      8  O   UNL A   1      45.519  26.597  26.634  1.00  0.00    -0.248 OA
BRANCH   7   9
ATOM      9  C   UNL A   1      46.735  28.672  26.721  1.00  0.00     0.279 C 
ATOM     10  C   UNL A   1      45.605  29.651  26.428  1.00  0.00     0.066 C 
BRANCH   9  11
ATOM     11  O   UNL A   1      47.413  28.796  27.959  1.00  0.00    -0.478 OA
BRANCH  11  12
ATOM     12  C   UNL A   1      46.818  29.069  29.146  1.00  0.00     0.127 A 
ATOM     13  C   UNL A   1      47.290  30.260  29.732  1.00  0.00     0.018 A 
ATOM     14  C   UNL A   1      46.802  30.650  30.978  1.00  0.00     0.012 A 
ATOM     15  C   UNL A   1      45.838  29.868  31.622  1.00  0.00     0.001 A 
ATOM     16  C   UNL A   1      45.897  28.265  29.813  1.00  0.00     0.047 A 
ATOM     17  C   UNL A   1      45.388  28.681  31.043  1.00  0.00     0.004 A 
BRANCH  13  18
ATOM     18  C   UNL A   1      48.358  31.012  29.039  1.00  0.00     0.036 C 
ATOM     19  N   UNL A   1      48.718  33.551  26.475  1.00  0.00    -0.186 N 
ATOM     20  C   UNL A   1      49.207  32.504  27.240  1.00  0.00     0.348 C 
ATOM     21  C   UNL A   1      47.408  33.910  26.709  1.00  0.00     0.324 C 
ATOM     22  O   UNL A   1      50.333  32.032  27.215  1.00  0.00    -0.240 OA
ATOM     23  C   UNL A   1      48.143  31.996  28.150  1.00  0.00     0.110 C 
ATOM     24  S   UNL A   1      46.661  32.795  27.815  1.00  0.00     0.007 SA
ATOM     25  N   UNL A   1      46.881  34.980  26.209  1.00  0.00    -0.231 N 
ATOM     26  H   UNL A   1      47.424  35.525  25.594  1.00  0.00     0.313 HD
BRANCH  19  27
ATOM     27  C   UNL A   1      49.508  34.306  25.504  1.00  0.00     0.244 C 
ATOM     28  C   UNL A   1      50.791  34.967  25.980  1.00  0.00     0.055 C 
ENDBRANCH  19  27
BRANCH  25  29
ATOM     29  C   UNL A   1      45.565  35.404  26.500  1.00  0.00     0.167 A 
ATOM     30  C   UNL A   1      45.376  36.270  27.584  1.00  0.00     0.056 A 
ATOM     31  C   UNL A   1      44.413  34.911  25.860  1.00  0.00     0.162 A 
ATOM     32  C   UNL A   1      44.089  36.662  27.986  1.00  0.00     0.008 A 
ATOM     33  C   UNL A   1      43.134  35.317  26.235  1.00  0.00     0.054 A 
ATOM     34  C   UNL A   1      42.960  36.201  27.301  1.00  0.00    -0.047 A 
ATOM     35  C   UNL A   1      41.580  36.596  27.734  1.00  0.00     0.044 C 
BRANCH  31  36
ATOM     36  O   UNL A   1      44.458  33.988  24.850  1.00  0.00    -0.504 OA
ATOM     37  H   UNL A   1      45.166  33.999  24.236  1.00  0.00     0.293 HD
ENDBRANCH  31  36
ENDBRANCH  25  29
ENDBRANCH  13  18
ENDBRANCH  11  12
ENDBRANCH   9  11
ENDBRANCH   7   9
ENDBRANCH   6   7
ENDBRANCH   5   6
ENDBRANCH   4   5
ENDBRANCH   3   4
ENDBRANCH   2   3
ENDBRANCH   1   2
BRANCH   1  38
ATOM     38  O   UNL A   1      44.330  23.374  25.708  1.00  0.00    -0.377 OA
BRANCH  38  39
ATOM     39  C   UNL A   1      43.123  22.752  25.288  1.00  0.00     0.188 C 
BRANCH  39  40
ATOM     40  C   UNL A   1      42.935  21.257  25.613  1.00  0.00     0.188 C 
BRANCH  40  41
ATOM     41  O   UNL A   1      41.692  20.945  26.228  1.00  0.00    -0.376 OA
BRANCH  41  42
ATOM     42  C   UNL A   1      40.614  21.865  26.127  1.00  0.00     0.202 C 
BRANCH  42  43
ATOM     43  C   UNL A   1      40.213  22.673  27.372  1.00  0.00     0.261 C 
BRANCH  43  44
ATOM     44  O   UNL A   1      39.454  23.872  27.160  1.00  0.00    -0.460 OA
BRANCH  44  45
ATOM     45  C   UNL A   1      40.112  24.982  26.753  1.00  0.00     0.338 C 
ATOM     46  O   UNL A   1      40.401  25.284  25.617  1.00  0.00    -0.246 OA
BRANCH  45  47
ATOM     47  C   UNL A   1      40.236  25.876  27.929  1.00  0.00     0.060 A 
ATOM     48  C   UNL A   1      39.196  25.912  28.868  1.00  0.00     0.016 A 
ATOM     49  C   UNL A   1      41.375  26.663  28.105  1.00  0.00     0.016 A 
ATOM     50  C   UNL A   1      39.277  26.767  29.970  1.00  0.00     0.010 A 
ATOM     51  C   UNL A   1      41.443  27.537  29.192  1.00  0.00     0.010 A 
ATOM     52  C   UNL A   1      40.380  27.618  30.110  1.00  0.00    -0.014 A 
BRANCH  52  53
ATOM     53  C   UNL A   1      40.333  28.739  31.080  1.00  0.00     0.031 A 
ATOM     54  C   UNL A   1      41.254  28.685  32.269  1.00  0.00     0.074 A 
ATOM     55  C   UNL A   1      39.498  29.781  30.913  1.00  0.00     0.049 A 
ATOM     56  N   UNL A   1      41.329  29.484  33.299  1.00  0.00    -0.248 NA
ATOM     57  C   UNL A   1      42.215  27.569  32.300  1.00  0.00     0.031 C 
ATOM     58  C   UNL A   1      38.597  29.971  29.780  1.00  0.00     0.029 A 
ATOM     59  N   UNL A   1      39.263  30.869  31.718  1.00  0.00    -0.354 N 
ATOM     60  C   UNL A   1      42.332  28.962  34.108  1.00  0.00     0.074 A 
ATOM     61  C   UNL A   1      42.819  27.763  33.462  1.00  0.00     0.031 C 
ATOM     62  C   UNL A   1      37.888  31.099  29.972  1.00  0.00     0.029 A 
ATOM     63  C   UNL A   1      38.257  31.686  31.259  1.00  0.00     0.049 A 
ATOM     64  H   UNL A   1      39.768  31.048  32.545  1.00  0.00     0.167 HD
ATOM     65  C   UNL A   1      42.807  29.442  35.282  1.00  0.00     0.037 A 
ATOM     66  C   UNL A   1      37.680  32.763  31.832  1.00  0.00     0.037 A 
ATOM     67  C   UNL A   1      42.316  30.636  35.916  1.00  0.00     0.049 A 
ATOM     68  C   UNL A   1      38.172  33.236  33.178  1.00  0.00     0.074 A 
ATOM     69  C   UNL A   1      42.743  31.218  37.097  1.00  0.00     0.029 A 
ATOM     70  N   UNL A   1      41.283  31.425  35.432  1.00  0.00    -0.354 N 
ATOM     71  N   UNL A   1      39.135  32.748  33.925  1.00  0.00    -0.248 NA
ATOM     72  C   UNL A   1      37.501  34.408  33.760  1.00  0.00     0.031 C 
ATOM     73  C   UNL A   1      41.927  32.322  37.358  1.00  0.00     0.029 A 
ATOM     74  C   UNL A   1      41.038  32.472  36.305  1.00  0.00     0.049 A 
ATOM     75  H   UNL A   1      40.797  31.265  34.591  1.00  0.00     0.167 HD
ATOM     76  C   UNL A   1      39.207  33.573  35.044  1.00  0.00     0.074 A 
ATOM     77  C   UNL A   1      38.197  34.595  34.874  1.00  0.00     0.031 C 
ATOM     78  C   UNL A   1      40.038  33.493  36.114  1.00  0.00     0.037 A 
BRANCH  65  79
ATOM     79  C   UNL A   1      43.889  28.658  35.973  1.00  0.00     0.058 A 
ATOM     80  C   UNL A   1      43.598  27.573  36.815  1.00  0.00     0.135 A 
ATOM     81  C   UNL A   1      45.240  28.975  35.756  1.00  0.00     0.135 A 
ATOM     82  F   UNL A   1      42.324  27.240  37.075  1.00  0.00    -0.206 F 
ATOM     83  C   UNL A   1      44.608  26.843  37.434  1.00  0.00     0.059 A 
ATOM     84  C   UNL A   1      46.267  28.239  36.340  1.00  0.00     0.059 A 
ATOM     85  F   UNL A   1      45.575  30.006  34.966  1.00  0.00    -0.206 F 
ATOM     86  C   UNL A   1      45.940  27.182  37.186  1.00  0.00     0.060 A 
BRANCH  86  87
ATOM     87  S   UNL A   1      47.237  26.213  37.985  1.00  0.00     0.124 S 
ATOM     88  O   UNL A   1      48.396  27.083  37.816  1.00  0.00    -0.237 OA
ATOM     89  O   UNL A   1      46.734  26.085  39.349  1.00  0.00    -0.237 OA
ATOM     90  O   UNL A   1      47.264  24.976  37.211  1.00  0.00    -0.744 OA
ENDBRANCH  86  87
ENDBRANCH  65  79
BRANCH  66  91
ATOM     91  C   UNL A   1      36.552  33.456  31.151  1.00  0.00     0.058 A 
ATOM     92  C   UNL A   1      35.254  33.428  31.681  1.00  0.00     0.135 A 
ATOM     93  C   UNL A   1      36.747  34.149  29.945  1.00  0.00     0.135 A 
ATOM     94  F   UNL A   1      35.011  32.768  32.824  1.00  0.00    -0.206 F 
ATOM     95  C   UNL A   1      34.187  34.046  31.036  1.00  0.00     0.059 A 
ATOM     96  C   UNL A   1      35.703  34.800  29.296  1.00  0.00     0.059 A 
ATOM     97  F   UNL A   1      37.969  34.213  29.395  1.00  0.00    -0.206 F 
ATOM     98  C   UNL A   1      34.423  34.733  29.844  1.00  0.00     0.060 A 
BRANCH  98  99
ATOM     99  S   UNL A   1      33.039  35.568  29.036  1.00  0.00     0.124 S 
ATOM    100  O   UNL A   1      32.206  35.925  30.177  1.00  0.00    -0.237 OA
ATOM    101  O   UNL A   1      33.707  36.675  28.359  1.00  0.00    -0.237 OA
ATOM    102  O   UNL A   1      32.496  34.539  28.155  1.00  0.00    -0.744 OA
ENDBRANCH  98  99
ENDBRANCH  66  91
BRANCH  78 103
ATOM    103  C   UNL A   1      39.932  34.564  37.169  1.00  0.00     0.058 A 
ATOM    104  C   UNL A   1      39.109  34.421  38.296  1.00  0.00     0.135 A 
ATOM    105  C   UNL A   1      40.728  35.720  37.082  1.00  0.00     0.135 A 
ATOM    106  F   UNL A   1      38.324  33.340  38.427  1.00  0.00    -0.206 F 
ATOM    107  C   UNL A   1      39.063  35.395  39.289  1.00  0.00     0.059 A 
ATOM    108  C   UNL A   1      40.723  36.689  38.080  1.00  0.00     0.059 A 
ATOM    109  F   UNL A   1      41.544  35.903  36.031  1.00  0.00    -0.206 F 
ATOM    110  C   UNL A   1      39.878  36.522  39.177  1.00  0.00     0.060 A 
BRANCH 110 111
ATOM    111  S   UNL A   1      39.842  37.752  40.498  1.00  0.00     0.124 S 
ATOM    112  O   UNL A   1      40.956  38.618  40.124  1.00  0.00    -0.237 OA
ATOM    113  O   UNL A   1      38.511  38.330  40.348  1.00  0.00    -0.237 OA
ATOM    114  O   UNL A   1      40.044  36.959  41.707  1.00  0.00    -0.744 OA
ENDBRANCH 110 111
ENDBRANCH  78 103
ENDBRANCH  52  53
ENDBRANCH  45  47
ENDBRANCH  44  45
ENDBRANCH  43  44
ENDBRANCH  42  43
ENDBRANCH  41  42
ENDBRANCH  40  41
ENDBRANCH  39  40
ENDBRANCH  38  39
ENDBRANCH   1  38
TORSDOF 29
ENDMDL
MODEL 2
REMARK VINA RESULT:      -7.5      5.685     12.206
REMARK SMILES CCN1C(=O)/C(=C/c2ccccc2O[C@H](C)C(=O)OCCOCCOCCOCCOC(=O)c2ccc(-c3c4nc(c(-c5c(F)cc(S(=O)(=O)[O-])cc5F)c5ccc([nH]5)c(-c5c(F)cc(S(=O)(=O)[O-])cc5F)c5nc(c(-c6c(F)cc(S(=O)(=O)[O-])cc6F)c6ccc3[nH]6)C=C5)C=C4)cc2)S/C1=[NH+]\c1ccc(C)cc1O
REMARK SMILES IDX 24 1 23 2 22 3 21 4 20 5 19 6 17 7 18 8 15 9 16 10 14 11
REMARK SMILES IDX 13 12 8 13 9 14 10 15 12 16 11 17 7 18 3 19 4 20 101 21 5 22
REMARK SMILES IDX 6 23 100 24 102 25 2 27 1 28 103 29 104 30 109 31 105 32
REMARK SMILES IDX 108 33 106 34 107 35 110 36 25 38 26 39 27 40 28 41 29 42
REMARK SMILES IDX 30 43 31 44 32 45 33 46 34 47 35 48 99 49 36 50 98 51 37 52
REMARK SMILES IDX 38 53 39 54 92 55 40 56 97 57 91 58 93 59 41 60 96 61 90 62
REMARK SMILES IDX 89 63 42 65 76 66 55 67 75 68 56 69 59 70 74 71 94 72 57 73
REMARK SMILES IDX 58 74 73 76 95 77 60 78 43 79 44 80 53 81 45 82 46 83 52 84
REMARK SMILES IDX 54 85 47 86 48 87 49 88 50 89 51 90 77 91 78 92 87 93 79 94
REMARK SMILES IDX 80 95 86 96 88 97 81 98 82 99 83 100 84 101 85 102 61 103
REMARK SMILES IDX 62 104 71 105 63 106 64 107 70 108 72 109 65 110 66 111
REMARK SMILES IDX 67 112 68 113 69 114
REMARK H PARENT 102 26 110 37 93 64 59 75
REMARK Flexibility Score: inf
ROOT
ATOM      1  C   UNL A   1      34.620  31.472  27.699  1.00  0.00     0.188 C 
ENDROOT
BRANCH   1   2
ATOM      2  C   UNL A   1      34.900  29.998  27.363  1.00  0.00     0.188 C 
BRANCH   2   3
ATOM      3  O   UNL A   1      34.291  29.338  26.264  1.00  0.00    -0.376 OA
BRANCH   3   4
ATOM      4  C   UNL A   1      32.912  29.468  25.955  1.00  0.00     0.202 C 
BRANCH   4   5
ATOM      5  C   UNL A   1      31.809  28.940  26.881  1.00  0.00     0.261 C 
BRANCH   5   6
ATOM      6  O   UNL A   1      30.918  27.968  26.325  1.00  0.00    -0.461 OA
BRANCH   6   7
ATOM      7  C   UNL A   1      31.309  26.679  26.474  1.00  0.00     0.347 C 
ATOM      8  O   UNL A   1      32.155  26.296  27.277  1.00  0.00    -0.248 OA
BRANCH   7   9
ATOM      9  C   UNL A   1      30.691  25.754  25.446  1.00  0.00     0.279 C 
ATOM     10  C   UNL A   1      29.475  26.112  24.602  1.00  0.00     0.066 C 
BRANCH   9  11
ATOM     11  O   UNL A   1      31.839  25.260  24.778  1.00  0.00    -0.478 OA
BRANCH  11  12
ATOM     12  C   UNL A   1      32.276  25.686  23.567  1.00  0.00     0.127 A 
ATOM     13  C   UNL A   1      32.421  24.636  22.639  1.00  0.00     0.018 A 
ATOM     14  C   UNL A   1      32.905  24.913  21.361  1.00  0.00     0.012 A 
ATOM     15  C   UNL A   1      33.220  26.230  21.009  1.00  0.00     0.001 A 
ATOM     16  C   UNL A   1      32.639  26.986  23.231  1.00  0.00     0.047 A 
ATOM     17  C   UNL A   1      33.089  27.262  21.939  1.00  0.00     0.004 A 
BRANCH  13  18
ATOM     18  C   UNL A   1      32.138  23.255  23.086  1.00  0.00     0.036 C 
ATOM     19  N   UNL A   1      33.916  20.336  24.298  1.00  0.00    -0.186 N 
ATOM     20  C   UNL A   1      32.819  20.946  23.713  1.00  0.00     0.348 C 
ATOM     21  C   UNL A   1      34.959  21.168  24.642  1.00  0.00     0.324 C 
ATOM     22  O   UNL A   1      31.782  20.414  23.346  1.00  0.00    -0.240 OA
ATOM     23  C   UNL A   1      33.060  22.410  23.578  1.00  0.00     0.110 C 
ATOM     24  S   UNL A   1      34.664  22.782  24.064  1.00  0.00     0.007 SA
ATOM     25  N   UNL A   1      35.959  20.770  25.359  1.00  0.00    -0.231 N 
ATOM     26  H   UNL A   1      35.999  19.822  25.621  1.00  0.00     0.313 HD
BRANCH  19  27
ATOM     27  C   UNL A   1      34.000  18.911  24.612  1.00  0.00     0.244 C 
ATOM     28  C   UNL A   1      32.930  18.306  25.506  1.00  0.00     0.055 C 
ENDBRANCH  19  27
BRANCH  25  29
ATOM     29  C   UNL A   1      36.998  21.629  25.785  1.00  0.00     0.167 A 
ATOM     30  C   UNL A   1      36.666  22.945  26.131  1.00  0.00     0.056 A 
ATOM     31  C   UNL A   1      38.364  21.294  25.757  1.00  0.00     0.162 A 
ATOM     32  C   UNL A   1      37.657  23.877  26.477  1.00  0.00     0.008 A 
ATOM     33  C   UNL A   1      39.351  22.206  26.127  1.00  0.00     0.054 A 
ATOM     34  C   UNL A   1      39.006  23.507  26.494  1.00  0.00    -0.047 A 
ATOM     35  C   UNL A   1      40.074  24.500  26.842  1.00  0.00     0.044 C 
BRANCH  31  36
ATOM     36  O   UNL A   1      38.825  20.072  25.348  1.00  0.00    -0.504 OA
ATOM     37  H   UNL A   1      38.554  19.294  25.795  1.00  0.00     0.293 HD
ENDBRANCH  31  36
ENDBRANCH  25  29
ENDBRANCH  13  18
ENDBRANCH  11  12
ENDBRANCH   9  11
ENDBRANCH   7   9
ENDBRANCH   6   7
ENDBRANCH   5   6
ENDBRANCH   4   5
ENDBRANCH   3   4
ENDBRANCH   2   3
ENDBRANCH   1   2
BRANCH   1  38
ATOM     38  O   UNL A   1      34.718  31.823  29.060  1.00  0.00    -0.377 OA
BRANCH  38  39
ATOM     39  C   UNL A   1      34.438  33.175  29.396  1.00  0.00     0.188 C 
BRANCH  39  40
ATOM     40  C   UNL A   1      35.439  33.910  30.310  1.00  0.00     0.188 C 
BRANCH  40  41
ATOM     41  O   UNL A   1      35.746  33.220  31.514  1.00  0.00    -0.376 OA
BRANCH  41  42
ATOM     42  C   UNL A   1      37.043  32.670  31.691  1.00  0.00     0.202 C 
BRANCH  42  43
ATOM     43  C   UNL A   1      37.796  32.139  30.460  1.00  0.00     0.261 C 
BRANCH  43  44
ATOM     44  O   UNL A   1      39.225  32.054  30.550  1.00  0.00    -0.460 OA
BRANCH  44  45
ATOM     45  C   UNL A   1      39.808  30.846  30.371  1.00  0.00     0.338 C 
ATOM     46  O   UNL A   1      39.845  30.198  29.350  1.00  0.00    -0.246 OA
BRANCH  45  47
ATOM     47  C   UNL A   1      40.583  30.545  31.598  1.00  0.00     0.060 A 
ATOM     48  C   UNL A   1      39.957  29.855  32.646  1.00  0.00     0.016 A 
ATOM     49  C   UNL A   1      41.919  30.932  31.706  1.00  0.00     0.016 A 
ATOM     50  C   UNL A   1      40.657  29.584  33.823  1.00  0.00     0.010 A 
ATOM     51  C   UNL A   1      42.611  30.684  32.894  1.00  0.00     0.010 A 
ATOM     52  C   UNL A   1      41.972  30.040  33.971  1.00  0.00    -0.014 A 
BRANCH  52  53
ATOM     53  C   UNL A   1      42.611  30.043  35.309  1.00  0.00     0.031 A 
ATOM     54  C   UNL A   1      43.472  28.866  35.684  1.00  0.00     0.074 A 
ATOM     55  C   UNL A   1      42.436  31.060  36.172  1.00  0.00     0.049 A 
ATOM     56  N   UNL A   1      44.050  28.589  36.822  1.00  0.00    -0.248 NA
ATOM     57  C   UNL A   1      43.703  27.863  34.630  1.00  0.00     0.031 C 
ATOM     58  C   UNL A   1      41.668  32.273  35.906  1.00  0.00     0.029 A 
ATOM     59  N   UNL A   1      42.883  31.219  37.460  1.00  0.00    -0.354 N 
ATOM     60  C   UNL A   1      44.700  27.375  36.628  1.00  0.00     0.074 A 
ATOM     61  C   UNL A   1      44.423  26.956  35.271  1.00  0.00     0.031 C 
ATOM     62  C   UNL A   1      41.678  33.045  37.008  1.00  0.00     0.029 A 
ATOM     63  C   UNL A   1      42.418  32.361  38.068  1.00  0.00     0.049 A 
ATOM     64  H   UNL A   1      43.481  30.576  37.908  1.00  0.00     0.167 HD
ATOM     65  C   UNL A   1      45.463  26.675  37.500  1.00  0.00     0.037 A 
ATOM     66  C   UNL A   1      42.547  32.785  39.342  1.00  0.00     0.037 A 
ATOM     67  C   UNL A   1      45.733  27.101  38.848  1.00  0.00     0.049 A 
ATOM     68  C   UNL A   1      43.337  31.951  40.321  1.00  0.00     0.074 A 
ATOM     69  C   UNL A   1      46.509  26.474  39.806  1.00  0.00     0.029 A 
ATOM     70  N   UNL A   1      45.228  28.253  39.433  1.00  0.00    -0.354 N 
ATOM     71  N   UNL A   1      43.965  30.815  40.122  1.00  0.00    -0.248 NA
ATOM     72  C   UNL A   1      43.439  32.456  41.699  1.00  0.00     0.031 C 
ATOM     73  C   UNL A   1      46.422  27.214  40.989  1.00  0.00     0.029 A 
ATOM     74  C   UNL A   1      45.651  28.340  40.748  1.00  0.00     0.049 A 
ATOM     75  H   UNL A   1      44.654  28.912  38.979  1.00  0.00     0.167 HD
ATOM     76  C   UNL A   1      44.563  30.490  41.337  1.00  0.00     0.074 A 
ATOM     77  C   UNL A   1      44.228  31.551  42.262  1.00  0.00     0.031 C 
ATOM     78  C   UNL A   1      45.323  29.412  41.656  1.00  0.00     0.037 A 
BRANCH  65  79
ATOM     79  C   UNL A   1      46.031  25.361  37.038  1.00  0.00     0.058 A 
ATOM     80  C   UNL A   1      45.327  24.156  37.182  1.00  0.00     0.135 A 
ATOM     81  C   UNL A   1      47.284  25.317  36.406  1.00  0.00     0.135 A 
ATOM     82  F   UNL A   1      44.134  24.137  37.799  1.00  0.00    -0.206 F 
ATOM     83  C   UNL A   1      45.854  22.949  36.733  1.00  0.00     0.059 A 
ATOM     84  C   UNL A   1      47.816  24.126  35.921  1.00  0.00     0.059 A 
ATOM     85  F   UNL A   1      48.003  26.439  36.248  1.00  0.00    -0.206 F 
ATOM     86  C   UNL A   1      47.098  22.945  36.100  1.00  0.00     0.060 A 
BRANCH  86  87
ATOM     87  S   UNL A   1      47.759  21.373  35.510  1.00  0.00     0.124 S 
ATOM     88  O   UNL A   1      49.117  21.751  35.131  1.00  0.00    -0.237 OA
ATOM     89  O   UNL A   1      47.642  20.524  36.691  1.00  0.00    -0.237 OA
ATOM     90  O   UNL A   1      46.874  21.026  34.401  1.00  0.00    -0.744 OA
ENDBRANCH  86  87
ENDBRANCH  65  79
BRANCH  66  91
ATOM     91  C   UNL A   1      41.893  34.049  39.778  1.00  0.00     0.058 A 
ATOM     92  C   UNL A   1      42.550  35.284  39.670  1.00  0.00     0.135 A 
ATOM     93  C   UNL A   1      40.601  34.047  40.328  1.00  0.00     0.135 A 
ATOM     94  F   UNL A   1      43.792  35.340  39.164  1.00  0.00    -0.206 F 
ATOM     95  C   UNL A   1      41.960  36.467  40.104  1.00  0.00     0.059 A 
ATOM     96  C   UNL A   1      39.978  35.220  40.742  1.00  0.00     0.059 A 
ATOM     97  F   UNL A   1      39.923  32.895  40.450  1.00  0.00    -0.206 F 
ATOM     98  C   UNL A   1      40.670  36.425  40.636  1.00  0.00     0.060 A 
BRANCH  98  99
ATOM     99  S   UNL A   1      39.896  37.971  41.158  1.00  0.00     0.124 S 
ATOM    100  O   UNL A   1      40.934  38.942  40.833  1.00  0.00    -0.237 OA
ATOM    101  O   UNL A   1      38.701  38.009  40.322  1.00  0.00    -0.237 OA
ATOM    102  O   UNL A   1      39.653  37.761  42.581  1.00  0.00    -0.744 OA
ENDBRANCH  98  99
ENDBRANCH  66  91
BRANCH  78 103
ATOM    103  C   UNL A   1      45.894  29.340  43.048  1.00  0.00     0.058 A 
ATOM    104  C   UNL A   1      45.277  28.600  44.069  1.00  0.00     0.135 A 
ATOM    105  C   UNL A   1      47.119  29.964  43.341  1.00  0.00     0.135 A 
ATOM    106  F   UNL A   1      44.103  27.989  43.845  1.00  0.00    -0.206 F 
ATOM    107  C   UNL A   1      45.844  28.498  45.335  1.00  0.00     0.059 A 
ATOM    108  C   UNL A   1      47.720  29.846  44.591  1.00  0.00     0.059 A 
ATOM    109  F   UNL A   1      47.759  30.675  42.399  1.00  0.00    -0.206 F 
ATOM    110  C   UNL A   1      47.069  29.118  45.585  1.00  0.00     0.060 A 
BRANCH 110 111
ATOM    111  S   UNL A   1      47.815  28.935  47.219  1.00  0.00     0.124 S 
ATOM    112  O   UNL A   1      47.170  27.720  47.703  1.00  0.00    -0.237 OA
ATOM    113  O   UNL A   1      49.234  28.818  46.903  1.00  0.00    -0.237 OA
ATOM    114  O   UNL A   1      47.431  30.165  47.908  1.00  0.00    -0.744 OA
ENDBRANCH 110 111
ENDBRANCH  78 103
ENDBRANCH  52  53
ENDBRANCH  45  47
ENDBRANCH  44  45
ENDBRANCH  43  44
ENDBRANCH  42  43
ENDBRANCH  41  42
ENDBRANCH  40  41
ENDBRANCH  39  40
ENDBRANCH  38  39
ENDBRANCH   1  38
TORSDOF 29
ENDMDL
MODEL 3
REMARK VINA RESULT:      -7.2      4.828     13.850
REMARK SMILES CCN1C(=O)/C(=C/c2ccccc2O[C@H](C)C(=O)OCCOCCOCCOCCOC(=O)c2ccc(-c3c4nc(c(-c5c(F)cc(S(=O)(=O)[O-])cc5F)c5ccc([nH]5)c(-c5c(F)cc(S(=O)(=O)[O-])cc5F)c5nc(c(-c6c(F)cc(S(=O)(=O)[O-])cc6F)c6ccc3[nH]6)C=C5)C=C4)cc2)S/C1=[NH+]\c1ccc(C)cc1O
REMARK SMILES IDX 24 1 23 2 22 3 21 4 20 5 19 6 17 7 18 8 15 9 16 10 14 11
REMARK SMILES IDX 13 12 8 13 9 14 10 15 12 16 11 17 7 18 3 19 4 20 101 21 5 22
REMARK SMILES IDX 6 23 100 24 102 25 2 27 1 28 103 29 104 30 109 31 105 32
REMARK SMILES IDX 108 33 106 34 107 35 110 36 25 38 26 39 27 40 28 41 29 42
REMARK SMILES IDX 30 43 31 44 32 45 33 46 34 47 35 48 99 49 36 50 98 51 37 52
REMARK SMILES IDX 38 53 39 54 92 55 40 56 97 57 91 58 93 59 41 60 96 61 90 62
REMARK SMILES IDX 89 63 42 65 76 66 55 67 75 68 56 69 59 70 74 71 94 72 57 73
REMARK SMILES IDX 58 74 73 76 95 77 60 78 43 79 44 80 53 81 45 82 46 83 52 84
REMARK SMILES IDX 54 85 47 86 48 87 49 88 50 89 51 90 77 91 78 92 87 93 79 94
REMARK SMILES IDX 80 95 86 96 88 97 81 98 82 99 83 100 84 101 85 102 61 103
REMARK SMILES IDX 62 104 71 105 63 106 64 107 70 108 72 109 65 110 66 111
REMARK SMILES IDX 67 112 68 113 69 114
REMARK H PARENT 102 26 110 37 93 64 59 75
REMARK Flexibility Score: inf
ROOT
ATOM      1  C   UNL A   1      40.595  29.977  35.023  1.00  0.00     0.188 C 
ENDROOT
BRANCH   1   2
ATOM      2  C   UNL A   1      41.984  29.393  35.331  1.00  0.00     0.188 C 
BRANCH   2   3
ATOM      3  O   UNL A   1      42.270  28.705  36.539  1.00  0.00    -0.376 OA
BRANCH   3   4
ATOM      4  C   UNL A   1      43.567  28.234  36.869  1.00  0.00     0.202 C 
BRANCH   4   5
ATOM      5  C   UNL A   1      44.611  29.120  37.562  1.00  0.00     0.261 C 
BRANCH   5   6
ATOM      6  O   UNL A   1      44.936  28.787  38.915  1.00  0.00    -0.461 OA
BRANCH   6   7
ATOM      7  C   UNL A   1      46.155  29.203  39.333  1.00  0.00     0.347 C 
ATOM      8  O   UNL A   1      47.191  29.090  38.682  1.00  0.00    -0.248 OA
BRANCH   7   9
ATOM      9  C   UNL A   1      46.148  29.711  40.760  1.00  0.00     0.279 C 
ATOM     10  C   UNL A   1      47.025  30.852  41.260  1.00  0.00     0.066 C 
BRANCH   9  11
ATOM     11  O   UNL A   1      44.760  29.773  41.036  1.00  0.00    -0.478 OA
BRANCH  11  12
ATOM     12  C   UNL A   1      44.205  29.622  42.263  1.00  0.00     0.127 A 
ATOM     13  C   UNL A   1      43.473  30.753  42.675  1.00  0.00     0.018 A 
ATOM     14  C   UNL A   1      42.879  30.763  43.936  1.00  0.00     0.012 A 
ATOM     15  C   UNL A   1      42.999  29.646  44.769  1.00  0.00     0.001 A 
ATOM     16  C   UNL A   1      44.367  28.532  43.114  1.00  0.00     0.047 A 
ATOM     17  C   UNL A   1      43.740  28.536  44.361  1.00  0.00     0.004 A 
BRANCH  13  18
ATOM     18  C   UNL A   1      43.436  31.932  41.783  1.00  0.00     0.036 C 
ATOM     19  N   UNL A   1      41.066  33.758  39.733  1.00  0.00    -0.186 N 
ATOM     20  C   UNL A   1      42.355  33.388  40.081  1.00  0.00     0.348 C 
ATOM     21  C   UNL A   1      40.054  33.197  40.481  1.00  0.00     0.324 C 
ATOM     22  O   UNL A   1      43.398  33.770  39.572  1.00  0.00    -0.240 OA
ATOM     23  C   UNL A   1      42.321  32.420  41.212  1.00  0.00     0.110 C 
ATOM     24  S   UNL A   1      40.695  32.006  41.575  1.00  0.00     0.007 SA
ATOM     25  N   UNL A   1      38.825  33.591  40.394  1.00  0.00    -0.231 N 
ATOM     26  H   UNL A   1      38.601  34.280  39.727  1.00  0.00     0.313 HD
BRANCH  19  27
ATOM     27  C   UNL A   1      40.736  34.724  38.687  1.00  0.00     0.244 C 
ATOM     28  C   UNL A   1      41.377  36.101  38.750  1.00  0.00     0.055 C 
ENDBRANCH  19  27
BRANCH  25  29
ATOM     29  C   UNL A   1      37.788  33.080  41.207  1.00  0.00     0.167 A 
ATOM     30  C   UNL A   1      37.029  32.012  40.714  1.00  0.00     0.056 A 
ATOM     31  C   UNL A   1      37.375  33.659  42.421  1.00  0.00     0.162 A 
ATOM     32  C   UNL A   1      35.927  31.512  41.428  1.00  0.00     0.008 A 
ATOM     33  C   UNL A   1      36.300  33.151  43.148  1.00  0.00     0.054 A 
ATOM     34  C   UNL A   1      35.567  32.069  42.660  1.00  0.00    -0.047 A 
ATOM     35  C   UNL A   1      34.381  31.558  43.420  1.00  0.00     0.044 C 
BRANCH  31  36
ATOM     36  O   UNL A   1      37.973  34.765  42.962  1.00  0.00    -0.504 OA
ATOM     37  H   UNL A   1      38.777  35.086  42.604  1.00  0.00     0.293 HD
ENDBRANCH  31  36
ENDBRANCH  25  29
ENDBRANCH  13  18
ENDBRANCH  11  12
ENDBRANCH   9  11
ENDBRANCH   7   9
ENDBRANCH   6   7
ENDBRANCH   5   6
ENDBRANCH   4   5
ENDBRANCH   3   4
ENDBRANCH   2   3
ENDBRANCH   1   2
BRANCH   1  38
ATOM     38  O   UNL A   1      39.736  30.142  36.128  1.00  0.00    -0.377 OA
BRANCH  38  39
ATOM     39  C   UNL A   1      38.445  30.675  35.863  1.00  0.00     0.188 C 
BRANCH  39  40
ATOM     40  C   UNL A   1      38.209  32.168  36.168  1.00  0.00     0.188 C 
BRANCH  40  41
ATOM     41  O   UNL A   1      36.967  32.671  35.694  1.00  0.00    -0.376 OA
BRANCH  41  42
ATOM     42  C   UNL A   1      36.855  33.092  34.342  1.00  0.00     0.202 C 
BRANCH  42  43
ATOM     43  C   UNL A   1      36.345  32.088  33.294  1.00  0.00     0.261 C 
BRANCH  43  44
ATOM     44  O   UNL A   1      37.326  31.442  32.472  1.00  0.00    -0.460 OA
BRANCH  44  45
ATOM     45  C   UNL A   1      37.419  31.813  31.174  1.00  0.00     0.338 C 
ATOM     46  O   UNL A   1      36.777  32.672  30.613  1.00  0.00    -0.246 OA
BRANCH  45  47
ATOM     47  C   UNL A   1      38.599  31.123  30.602  1.00  0.00     0.060 A 
ATOM     48  C   UNL A   1      39.649  30.752  31.453  1.00  0.00     0.016 A 
ATOM     49  C   UNL A   1      38.661  30.835  29.238  1.00  0.00     0.016 A 
ATOM     50  C   UNL A   1      40.784  30.126  30.934  1.00  0.00     0.010 A 
ATOM     51  C   UNL A   1      39.808  30.233  28.715  1.00  0.00     0.010 A 
ATOM     52  C   UNL A   1      40.889  29.907  29.555  1.00  0.00    -0.014 A 
BRANCH  52  53
ATOM     53  C   UNL A   1      42.197  29.543  28.958  1.00  0.00     0.031 A 
ATOM     54  C   UNL A   1      42.390  28.126  28.489  1.00  0.00     0.074 A 
ATOM     55  C   UNL A   1      43.189  30.442  28.833  1.00  0.00     0.049 A 
ATOM     56  N   UNL A   1      43.464  27.541  28.032  1.00  0.00    -0.248 NA
ATOM     57  C   UNL A   1      41.208  27.249  28.556  1.00  0.00     0.031 C 
ATOM     58  C   UNL A   1      43.106  31.852  29.203  1.00  0.00     0.029 A 
ATOM     59  N   UNL A   1      44.474  30.289  28.372  1.00  0.00    -0.354 N 
ATOM     60  C   UNL A   1      43.095  26.227  27.769  1.00  0.00     0.074 A 
ATOM     61  C   UNL A   1      41.704  26.093  28.144  1.00  0.00     0.031 C 
ATOM     62  C   UNL A   1      44.298  32.433  28.976  1.00  0.00     0.029 A 
ATOM     63  C   UNL A   1      45.238  31.427  28.484  1.00  0.00     0.049 A 
ATOM     64  H   UNL A   1      44.816  29.445  27.997  1.00  0.00     0.167 HD
ATOM     65  C   UNL A   1      43.846  25.224  27.257  1.00  0.00     0.037 A 
ATOM     66  C   UNL A   1      46.552  31.620  28.247  1.00  0.00     0.037 A 
ATOM     67  C   UNL A   1      45.229  25.367  26.887  1.00  0.00     0.049 A 
ATOM     68  C   UNL A   1      47.390  30.468  27.750  1.00  0.00     0.074 A 
ATOM     69  C   UNL A   1      46.075  24.417  26.342  1.00  0.00     0.029 A 
ATOM     70  N   UNL A   1      45.973  26.529  27.033  1.00  0.00    -0.354 N 
ATOM     71  N   UNL A   1      47.027  29.234  27.486  1.00  0.00    -0.248 NA
ATOM     72  C   UNL A   1      48.818  30.732  27.518  1.00  0.00     0.031 C 
ATOM     73  C   UNL A   1      47.346  24.986  26.218  1.00  0.00     0.029 A 
ATOM     74  C   UNL A   1      47.276  26.311  26.617  1.00  0.00     0.049 A 
ATOM     75  H   UNL A   1      45.627  27.382  27.381  1.00  0.00     0.167 HD
ATOM     76  C   UNL A   1      48.171  28.589  27.024  1.00  0.00     0.074 A 
ATOM     77  C   UNL A   1      49.236  29.569  27.039  1.00  0.00     0.031 C 
ATOM     78  C   UNL A   1      48.324  27.302  26.622  1.00  0.00     0.037 A 
BRANCH  65  79
ATOM     79  C   UNL A   1      43.201  23.874  27.100  1.00  0.00     0.058 A 
ATOM     80  C   UNL A   1      43.152  22.947  28.152  1.00  0.00     0.135 A 
ATOM     81  C   UNL A   1      42.586  23.522  25.887  1.00  0.00     0.135 A 
ATOM     82  F   UNL A   1      43.743  23.222  29.326  1.00  0.00    -0.206 F 
ATOM     83  C   UNL A   1      42.535  21.709  28.001  1.00  0.00     0.059 A 
ATOM     84  C   UNL A   1      41.937  22.302  25.724  1.00  0.00     0.059 A 
ATOM     85  F   UNL A   1      42.608  24.368  24.846  1.00  0.00    -0.206 F 
ATOM     86  C   UNL A   1      41.926  21.398  26.784  1.00  0.00     0.060 A 
BRANCH  86  87
ATOM     87  S   UNL A   1      41.117  19.794  26.612  1.00  0.00     0.124 S 
ATOM     88  O   UNL A   1      42.099  19.054  25.826  1.00  0.00    -0.237 OA
ATOM     89  O   UNL A   1      40.967  19.371  28.000  1.00  0.00    -0.237 OA
ATOM     90  O   UNL A   1      39.873  20.112  25.918  1.00  0.00    -0.744 OA
ENDBRANCH  86  87
ENDBRANCH  65  79
BRANCH  66  91
ATOM     91  C   UNL A   1      47.168  32.952  28.501  1.00  0.00     0.058 A 
ATOM     92  C   UNL A   1      47.676  33.290  29.763  1.00  0.00     0.135 A 
ATOM     93  C   UNL A   1      47.248  33.920  27.487  1.00  0.00     0.135 A 
ATOM     94  F   UNL A   1      47.611  32.406  30.771  1.00  0.00    -0.206 F 
ATOM     95  C   UNL A   1      48.225  34.543  30.019  1.00  0.00     0.059 A 
ATOM     96  C   UNL A   1      47.819  35.169  27.709  1.00  0.00     0.059 A 
ATOM     97  F   UNL A   1      46.783  33.648  26.257  1.00  0.00    -0.206 F 
ATOM     98  C   UNL A   1      48.295  35.476  28.982  1.00  0.00     0.060 A 
BRANCH  98  99
ATOM     99  S   UNL A   1      49.048  37.085  29.313  1.00  0.00     0.124 S 
ATOM    100  O   UNL A   1      49.605  36.879  30.644  1.00  0.00    -0.237 OA
ATOM    101  O   UNL A   1      50.015  37.196  28.225  1.00  0.00    -0.237 OA
ATOM    102  O   UNL A   1      47.918  38.005  29.236  1.00  0.00    -0.744 OA
ENDBRANCH  98  99
ENDBRANCH  66  91
BRANCH  78 103
ATOM    103  C   UNL A   1      49.678  26.880  26.113  1.00  0.00     0.058 A 
ATOM    104  C   UNL A   1      50.112  27.182  24.813  1.00  0.00     0.135 A 
ATOM    105  C   UNL A   1      50.583  26.229  26.970  1.00  0.00     0.135 A 
ATOM    106  F   UNL A   1      49.288  27.798  23.951  1.00  0.00    -0.206 F 
ATOM    107  C   UNL A   1      51.386  26.834  24.373  1.00  0.00     0.059 A 
ATOM    108  C   UNL A   1      51.872  25.902  26.562  1.00  0.00     0.059 A 
ATOM    109  F   UNL A   1      50.225  25.927  28.228  1.00  0.00    -0.206 F 
ATOM    110  C   UNL A   1      52.262  26.201  25.257  1.00  0.00     0.060 A 
BRANCH 110 111
ATOM    111  S   UNL A   1      53.927  25.800  24.687  1.00  0.00     0.124 S 
ATOM    112  O   UNL A   1      53.699  25.542  23.270  1.00  0.00    -0.237 OA
ATOM    113  O   UNL A   1      54.665  27.019  25.000  1.00  0.00    -0.237 OA
ATOM    114  O   UNL A   1      54.289  24.632  25.486  1.00  0.00    -0.744 OA
ENDBRANCH 110 111
ENDBRANCH  78 103
ENDBRANCH  52  53
ENDBRANCH  45  47
ENDBRANCH  44  45
ENDBRANCH  43  44
ENDBRANCH  42  43
ENDBRANCH  41  42
ENDBRANCH  40  41
ENDBRANCH  39  40
ENDBRANCH  38  39
ENDBRANCH   1  38
TORSDOF 29
ENDMDL
