MODEL 1
REMARK VINA RESULT:      -9.8      0.000      0.000
REMARK SMILES C=CCc1c(C)nn(CC(=O)OCCOCCOCCOCCOC(=O)c2ccc(-c3c4nc(c(-c5c(F)cc(S(=O)(=O)[O-])cc5F)c5ccc([nH]5)c(-c5c(F)cc(S(=O)(=O)[O-])cc5F)c5nc(c(-c6c(F)cc(S(=O)(=O)[O-])cc6F)c6ccc3[nH]6)C=C5)C=C4)cc2)c1-c1ccccc1
REMARK SMILES IDX 18 1 17 2 16 3 15 4 14 5 13 6 12 7 10 8 11 9 9 10 8 11 4 12
REMARK SMILES IDX 5 13 93 14 6 15 7 16 3 17 2 18 1 19 94 20 95 21 99 22 96 23
REMARK SMILES IDX 98 24 97 25 19 26 20 27 21 28 22 29 23 30 24 31 25 32 26 33
REMARK SMILES IDX 27 34 28 35 92 36 29 37 91 38 30 39 31 40 32 41 85 42 33 43
REMARK SMILES IDX 90 44 84 45 86 46 34 47 89 48 83 49 82 50 35 52 69 53 48 54
REMARK SMILES IDX 68 55 49 56 52 57 67 58 87 59 50 60 51 61 66 63 88 64 53 65
REMARK SMILES IDX 36 66 37 67 46 68 38 69 39 70 45 71 47 72 40 73 41 74 42 75
REMARK SMILES IDX 43 76 44 77 70 78 71 79 80 80 72 81 73 82 79 83 81 84 74 85
REMARK SMILES IDX 75 86 76 87 77 88 78 89 54 90 55 91 64 92 56 93 57 94 63 95
REMARK SMILES IDX 65 96 58 97 59 98 60 99 61 100 62 101
REMARK H PARENT 86 51 52 62
REMARK Flexibility Score: inf
ROOT
ATOM      1  O   UNL A   1      32.493  29.007  23.053  1.00  0.00    -0.377 OA
ENDROOT
BRANCH   1   2
ATOM      2  C   UNL A   1      33.177  27.841  23.459  1.00  0.00     0.188 C 
BRANCH   2   3
ATOM      3  C   UNL A   1      32.281  26.660  23.873  1.00  0.00     0.188 C 
BRANCH   3   4
ATOM      4  O   UNL A   1      31.715  26.611  25.179  1.00  0.00    -0.376 OA
BRANCH   4   5
ATOM      5  C   UNL A   1      30.304  26.498  25.323  1.00  0.00     0.202 C 
BRANCH   5   6
ATOM      6  C   UNL A   1      29.729  25.356  26.188  1.00  0.00     0.261 C 
BRANCH   6   7
ATOM      7  O   UNL A   1      30.709  24.463  26.772  1.00  0.00    -0.462 OA
BRANCH   7   8
ATOM      8  C   UNL A   1      30.362  23.164  26.945  1.00  0.00     0.327 C 
ATOM      9  O   UNL A   1      29.433  22.808  27.670  1.00  0.00    -0.250 OA
BRANCH   8  10
ATOM     10  C   UNL A   1      31.040  22.182  26.015  1.00  0.00     0.267 C 
BRANCH  10  11
ATOM     11  N   UNL A   1      32.450  22.373  25.678  1.00  0.00    -0.253 N 
ATOM     12  C   UNL A   1      34.505  22.173  24.889  1.00  0.00     0.005 A 
ATOM     13  C   UNL A   1      34.226  23.495  25.335  1.00  0.00     0.064 A 
ATOM     14  C   UNL A   1      33.311  21.480  25.077  1.00  0.00     0.073 A 
ATOM     15  C   UNL A   1      35.131  24.672  25.421  1.00  0.00     0.069 C 
ATOM     16  N   UNL A   1      32.941  23.634  25.673  1.00  0.00    -0.177 NA
BRANCH  12  17
ATOM     17  C   UNL A   1      35.781  21.685  24.280  1.00  0.00     0.066 C 
BRANCH  17  18
ATOM     18  C   UNL A   1      36.555  20.787  25.201  1.00  0.00    -0.030 C 
ATOM     19  C   UNL A   1      37.594  20.033  24.816  1.00  0.00     0.004 C 
ENDBRANCH  17  18
ENDBRANCH  12  17
BRANCH  14  20
ATOM     20  C   UNL A   1      32.925  20.114  24.754  1.00  0.00     0.000 A 
ATOM     21  C   UNL A   1      32.957  19.131  25.750  1.00  0.00     0.010 A 
ATOM     22  C   UNL A   1      32.603  19.757  23.444  1.00  0.00     0.010 A 
ATOM     23  C   UNL A   1      32.751  17.793  25.429  1.00  0.00     0.001 A 
ATOM     24  C   UNL A   1      32.365  18.419  23.127  1.00  0.00     0.001 A 
ATOM     25  C   UNL A   1      32.461  17.437  24.115  1.00  0.00     0.000 A 
ENDBRANCH  14  20
ENDBRANCH  10  11
ENDBRANCH   8  10
ENDBRANCH   7   8
ENDBRANCH   6   7
ENDBRANCH   5   6
ENDBRANCH   4   5
ENDBRANCH   3   4
ENDBRANCH   2   3
ENDBRANCH   1   2
BRANCH   1  26
ATOM     26  C   UNL A   1      31.262  29.258  23.703  1.00  0.00     0.188 C 
BRANCH  26  27
ATOM     27  C   UNL A   1      31.264  30.275  24.867  1.00  0.00     0.188 C 
BRANCH  27  28
ATOM     28  O   UNL A   1      31.753  29.782  26.115  1.00  0.00    -0.376 OA
BRANCH  28  29
ATOM     29  C   UNL A   1      33.148  29.657  26.370  1.00  0.00     0.202 C 
BRANCH  29  30
ATOM     30  C   UNL A   1      33.830  30.761  27.186  1.00  0.00     0.261 C 
BRANCH  30  31
ATOM     31  O   UNL A   1      35.154  30.442  27.565  1.00  0.00    -0.460 OA
BRANCH  31  32
ATOM     32  C   UNL A   1      35.833  31.438  28.159  1.00  0.00     0.338 C 
ATOM     33  O   UNL A   1      35.990  32.579  27.743  1.00  0.00    -0.246 OA
BRANCH  32  34
ATOM     34  C   UNL A   1      36.411  30.934  29.406  1.00  0.00     0.060 A 
ATOM     35  C   UNL A   1      37.254  31.833  30.056  1.00  0.00     0.016 A 
ATOM     36  C   UNL A   1      36.518  29.543  29.540  1.00  0.00     0.016 A 
ATOM     37  C   UNL A   1      38.467  31.347  30.450  1.00  0.00     0.010 A 
ATOM     38  C   UNL A   1      37.736  29.062  29.901  1.00  0.00     0.010 A 
ATOM     39  C   UNL A   1      38.721  29.996  30.210  1.00  0.00    -0.014 A 
BRANCH  39  40
ATOM     40  C   UNL A   1      40.090  29.563  30.213  1.00  0.00     0.031 A 
ATOM     41  C   UNL A   1      40.613  29.414  31.578  1.00  0.00     0.074 A 
ATOM     42  C   UNL A   1      40.697  29.229  29.061  1.00  0.00     0.049 A 
ATOM     43  N   UNL A   1      41.444  30.180  32.197  1.00  0.00    -0.248 NA
ATOM     44  C   UNL A   1      39.919  28.443  32.443  1.00  0.00     0.031 C 
ATOM     45  C   UNL A   1      40.112  29.082  27.722  1.00  0.00     0.029 A 
ATOM     46  N   UNL A   1      41.979  28.834  28.878  1.00  0.00    -0.354 N 
ATOM     47  C   UNL A   1      41.559  29.614  33.459  1.00  0.00     0.074 A 
ATOM     48  C   UNL A   1      40.408  28.773  33.636  1.00  0.00     0.031 C 
ATOM     49  C   UNL A   1      40.982  28.415  26.930  1.00  0.00     0.029 A 
ATOM     50  C   UNL A   1      42.215  28.199  27.666  1.00  0.00     0.049 A 
ATOM     51  H   UNL A   1      42.685  28.983  29.549  1.00  0.00     0.167 HD
ATOM     52  C   UNL A   1      42.744  29.605  34.123  1.00  0.00     0.037 A 
ATOM     53  C   UNL A   1      43.311  27.447  27.397  1.00  0.00     0.037 A 
ATOM     54  C   UNL A   1      43.657  30.577  33.578  1.00  0.00     0.049 A 
ATOM     55  C   UNL A   1      44.348  27.836  28.402  1.00  0.00     0.074 A 
ATOM     56  C   UNL A   1      43.623  31.951  33.432  1.00  0.00     0.029 A 
ATOM     57  N   UNL A   1      44.626  30.128  32.710  1.00  0.00    -0.354 N 
ATOM     58  N   UNL A   1      44.888  29.027  28.464  1.00  0.00    -0.248 NA
ATOM     59  C   UNL A   1      44.409  27.069  29.640  1.00  0.00     0.031 C 
ATOM     60  C   UNL A   1      44.240  32.209  32.174  1.00  0.00     0.029 A 
ATOM     61  C   UNL A   1      44.667  30.991  31.641  1.00  0.00     0.049 A 
ATOM     62  H   UNL A   1      45.191  29.331  32.833  1.00  0.00     0.167 HD
ATOM     63  C   UNL A   1      45.000  29.311  29.822  1.00  0.00     0.074 A 
ATOM     64  C   UNL A   1      44.749  28.039  30.495  1.00  0.00     0.031 C 
ATOM     65  C   UNL A   1      44.998  30.598  30.284  1.00  0.00     0.037 A 
BRANCH  52  66
ATOM     66  C   UNL A   1      43.172  28.462  35.006  1.00  0.00     0.058 A 
ATOM     67  C   UNL A   1      43.505  28.718  36.347  1.00  0.00     0.135 A 
ATOM     68  C   UNL A   1      43.495  27.165  34.534  1.00  0.00     0.135 A 
ATOM     69  F   UNL A   1      43.264  29.921  36.891  1.00  0.00    -0.206 F 
ATOM     70  C   UNL A   1      44.157  27.775  37.143  1.00  0.00     0.059 A 
ATOM     71  C   UNL A   1      44.077  26.189  35.329  1.00  0.00     0.059 A 
ATOM     72  F   UNL A   1      43.360  26.803  33.254  1.00  0.00    -0.206 F 
ATOM     73  C   UNL A   1      44.447  26.518  36.618  1.00  0.00     0.060 A 
BRANCH  73  74
ATOM     74  S   UNL A   1      45.386  25.337  37.596  1.00  0.00     0.124 S 
ATOM     75  O   UNL A   1      44.738  24.082  37.232  1.00  0.00    -0.237 OA
ATOM     76  O   UNL A   1      46.740  25.533  37.087  1.00  0.00    -0.237 OA
ATOM     77  O   UNL A   1      45.166  25.786  38.968  1.00  0.00    -0.744 OA
ENDBRANCH  73  74
ENDBRANCH  52  66
BRANCH  53  78
ATOM     78  C   UNL A   1      43.338  26.164  26.643  1.00  0.00     0.058 A 
ATOM     79  C   UNL A   1      44.126  26.004  25.491  1.00  0.00     0.135 A 
ATOM     80  C   UNL A   1      42.782  24.983  27.179  1.00  0.00     0.135 A 
ATOM     81  F   UNL A   1      44.724  27.068  24.932  1.00  0.00    -0.206 F 
ATOM     82  C   UNL A   1      44.368  24.747  24.919  1.00  0.00     0.059 A 
ATOM     83  C   UNL A   1      42.997  23.724  26.622  1.00  0.00     0.059 A 
ATOM     84  F   UNL A   1      42.079  25.001  28.322  1.00  0.00    -0.206 F 
ATOM     85  C   UNL A   1      43.807  23.610  25.502  1.00  0.00     0.060 A 
BRANCH  85  86
ATOM     86  S   UNL A   1      44.228  21.972  24.861  1.00  0.00     0.124 S 
ATOM     87  O   UNL A   1      45.476  21.687  25.559  1.00  0.00    -0.237 OA
ATOM     88  O   UNL A   1      43.073  21.177  25.267  1.00  0.00    -0.237 OA
ATOM     89  O   UNL A   1      44.354  22.192  23.422  1.00  0.00    -0.744 OA
ENDBRANCH  85  86
ENDBRANCH  53  78
BRANCH  65  90
ATOM     90  C   UNL A   1      45.106  31.716  29.272  1.00  0.00     0.058 A 
ATOM     91  C   UNL A   1      43.996  32.365  28.700  1.00  0.00     0.135 A 
ATOM     92  C   UNL A   1      46.368  32.271  29.016  1.00  0.00     0.135 A 
ATOM     93  F   UNL A   1      42.750  31.963  28.980  1.00  0.00    -0.206 F 
ATOM     94  C   UNL A   1      44.134  33.493  27.888  1.00  0.00     0.059 A 
ATOM     95  C   UNL A   1      46.529  33.413  28.233  1.00  0.00     0.059 A 
ATOM     96  F   UNL A   1      47.463  31.739  29.584  1.00  0.00    -0.206 F 
ATOM     97  C   UNL A   1      45.408  34.015  27.665  1.00  0.00     0.060 A 
BRANCH  97  98
ATOM     98  S   UNL A   1      45.578  35.533  26.700  1.00  0.00     0.124 S 
ATOM     99  O   UNL A   1      45.915  35.019  25.376  1.00  0.00    -0.237 OA
ATOM    100  O   UNL A   1      44.257  36.141  26.826  1.00  0.00    -0.237 OA
ATOM    101  O   UNL A   1      46.652  36.252  27.381  1.00  0.00    -0.744 OA
ENDBRANCH  97  98
ENDBRANCH  65  90
ENDBRANCH  39  40
ENDBRANCH  32  34
ENDBRANCH  31  32
ENDBRANCH  30  31
ENDBRANCH  29  30
ENDBRANCH  28  29
ENDBRANCH  27  28
ENDBRANCH  26  27
ENDBRANCH   1  26
TORSDOF 27
ENDMDL
MODEL 2
REMARK VINA RESULT:      -8.4      1.421      2.649
REMARK SMILES C=CCc1c(C)nn(CC(=O)OCCOCCOCCOCCOC(=O)c2ccc(-c3c4nc(c(-c5c(F)cc(S(=O)(=O)[O-])cc5F)c5ccc([nH]5)c(-c5c(F)cc(S(=O)(=O)[O-])cc5F)c5nc(c(-c6c(F)cc(S(=O)(=O)[O-])cc6F)c6ccc3[nH]6)C=C5)C=C4)cc2)c1-c1ccccc1
REMARK SMILES IDX 18 1 17 2 16 3 15 4 14 5 13 6 12 7 10 8 11 9 9 10 8 11 4 12
REMARK SMILES IDX 5 13 93 14 6 15 7 16 3 17 2 18 1 19 94 20 95 21 99 22 96 23
REMARK SMILES IDX 98 24 97 25 19 26 20 27 21 28 22 29 23 30 24 31 25 32 26 33
REMARK SMILES IDX 27 34 28 35 92 36 29 37 91 38 30 39 31 40 32 41 85 42 33 43
REMARK SMILES IDX 90 44 84 45 86 46 34 47 89 48 83 49 82 50 35 52 69 53 48 54
REMARK SMILES IDX 68 55 49 56 52 57 67 58 87 59 50 60 51 61 66 63 88 64 53 65
REMARK SMILES IDX 36 66 37 67 46 68 38 69 39 70 45 71 47 72 40 73 41 74 42 75
REMARK SMILES IDX 43 76 44 77 70 78 71 79 80 80 72 81 73 82 79 83 81 84 74 85
REMARK SMILES IDX 75 86 76 87 77 88 78 89 54 90 55 91 64 92 56 93 57 94 63 95
REMARK SMILES IDX 65 96 58 97 59 98 60 99 61 100 62 101
REMARK H PARENT 86 51 52 62
REMARK Flexibility Score: inf
ROOT
ATOM      1  O   UNL A   1      31.808  27.972  22.593  1.00  0.00    -0.377 OA
ENDROOT
BRANCH   1   2
ATOM      2  C   UNL A   1      33.187  27.707  22.727  1.00  0.00     0.188 C 
BRANCH   2   3
ATOM      3  C   UNL A   1      33.595  26.231  22.567  1.00  0.00     0.188 C 
BRANCH   3   4
ATOM      4  O   UNL A   1      32.654  25.194  22.829  1.00  0.00    -0.376 OA
BRANCH   4   5
ATOM      5  C   UNL A   1      32.366  24.242  21.812  1.00  0.00     0.202 C 
BRANCH   5   6
ATOM      6  C   UNL A   1      32.801  22.774  22.016  1.00  0.00     0.261 C 
BRANCH   6   7
ATOM      7  O   UNL A   1      31.731  21.844  22.316  1.00  0.00    -0.462 OA
BRANCH   7   8
ATOM      8  C   UNL A   1      32.060  20.548  22.540  1.00  0.00     0.327 C 
ATOM      9  O   UNL A   1      32.202  19.725  21.636  1.00  0.00    -0.250 OA
BRANCH   8  10
ATOM     10  C   UNL A   1      32.468  20.219  23.959  1.00  0.00     0.267 C 
BRANCH  10  11
ATOM     11  N   UNL A   1      32.265  21.213  25.011  1.00  0.00    -0.253 N 
ATOM     12  C   UNL A   1      32.471  22.890  26.437  1.00  0.00     0.005 A 
ATOM     13  C   UNL A   1      31.122  22.454  26.311  1.00  0.00     0.064 A 
ATOM     14  C   UNL A   1      33.182  22.097  25.539  1.00  0.00     0.073 A 
ATOM     15  C   UNL A   1      29.913  22.899  27.053  1.00  0.00     0.069 C 
ATOM     16  N   UNL A   1      30.994  21.542  25.343  1.00  0.00    -0.177 NA
BRANCH  12  17
ATOM     17  C   UNL A   1      32.972  24.010  27.292  1.00  0.00     0.066 C 
BRANCH  17  18
ATOM     18  C   UNL A   1      32.927  25.337  26.592  1.00  0.00    -0.030 C 
ATOM     19  C   UNL A   1      31.796  25.972  26.255  1.00  0.00     0.004 C 
ENDBRANCH  17  18
ENDBRANCH  12  17
BRANCH  14  20
ATOM     20  C   UNL A   1      34.583  22.099  25.148  1.00  0.00     0.000 A 
ATOM     21  C   UNL A   1      35.062  23.095  24.289  1.00  0.00     0.010 A 
ATOM     22  C   UNL A   1      35.437  21.073  25.555  1.00  0.00     0.010 A 
ATOM     23  C   UNL A   1      36.353  23.024  23.774  1.00  0.00     0.001 A 
ATOM     24  C   UNL A   1      36.742  21.019  25.063  1.00  0.00     0.001 A 
ATOM     25  C   UNL A   1      37.191  21.981  24.158  1.00  0.00     0.000 A 
ENDBRANCH  14  20
ENDBRANCH  10  11
ENDBRANCH   8  10
ENDBRANCH   7   8
ENDBRANCH   6   7
ENDBRANCH   5   6
ENDBRANCH   4   5
ENDBRANCH   3   4
ENDBRANCH   2   3
ENDBRANCH   1   2
BRANCH   1  26
ATOM     26  C   UNL A   1      31.119  28.277  23.790  1.00  0.00     0.188 C 
BRANCH  26  27
ATOM     27  C   UNL A   1      31.619  29.488  24.611  1.00  0.00     0.188 C 
BRANCH  27  28
ATOM     28  O   UNL A   1      32.300  29.171  25.826  1.00  0.00    -0.376 OA
BRANCH  28  29
ATOM     29  C   UNL A   1      33.647  29.572  26.049  1.00  0.00     0.202 C 
BRANCH  29  30
ATOM     30  C   UNL A   1      33.931  30.508  27.229  1.00  0.00     0.261 C 
BRANCH  30  31
ATOM     31  O   UNL A   1      34.996  30.071  28.049  1.00  0.00    -0.460 OA
BRANCH  31  32
ATOM     32  C   UNL A   1      35.857  31.030  28.426  1.00  0.00     0.338 C 
ATOM     33  O   UNL A   1      36.145  32.051  27.812  1.00  0.00    -0.246 OA
BRANCH  32  34
ATOM     34  C   UNL A   1      36.453  30.651  29.708  1.00  0.00     0.060 A 
ATOM     35  C   UNL A   1      37.197  31.658  30.319  1.00  0.00     0.016 A 
ATOM     36  C   UNL A   1      36.684  29.285  29.921  1.00  0.00     0.016 A 
ATOM     37  C   UNL A   1      38.440  31.308  30.760  1.00  0.00     0.010 A 
ATOM     38  C   UNL A   1      37.934  28.939  30.328  1.00  0.00     0.010 A 
ATOM     39  C   UNL A   1      38.822  29.976  30.600  1.00  0.00    -0.014 A 
BRANCH  39  40
ATOM     40  C   UNL A   1      40.224  29.672  30.649  1.00  0.00     0.031 A 
ATOM     41  C   UNL A   1      40.748  29.730  32.019  1.00  0.00     0.074 A 
ATOM     42  C   UNL A   1      40.868  29.264  29.541  1.00  0.00     0.049 A 
ATOM     43  N   UNL A   1      41.502  30.635  32.543  1.00  0.00    -0.248 NA
ATOM     44  C   UNL A   1      40.140  28.806  32.994  1.00  0.00     0.031 C 
ATOM     45  C   UNL A   1      40.308  28.911  28.230  1.00  0.00     0.029 A 
ATOM     46  N   UNL A   1      42.182  28.969  29.401  1.00  0.00    -0.354 N 
ATOM     47  C   UNL A   1      41.659  30.231  33.862  1.00  0.00     0.074 A 
ATOM     48  C   UNL A   1      40.588  29.315  34.138  1.00  0.00     0.031 C 
ATOM     49  C   UNL A   1      41.240  28.238  27.517  1.00  0.00     0.029 A 
ATOM     50  C   UNL A   1      42.482  28.222  28.269  1.00  0.00     0.049 A 
ATOM     51  H   UNL A   1      42.866  29.258  30.047  1.00  0.00     0.167 HD
ATOM     52  C   UNL A   1      42.835  30.406  34.518  1.00  0.00     0.037 A 
ATOM     53  C   UNL A   1      43.645  27.547  28.085  1.00  0.00     0.037 A 
ATOM     54  C   UNL A   1      43.661  31.387  33.862  1.00  0.00     0.049 A 
ATOM     55  C   UNL A   1      44.635  28.141  29.035  1.00  0.00     0.074 A 
ATOM     56  C   UNL A   1      43.503  32.726  33.558  1.00  0.00     0.029 A 
ATOM     57  N   UNL A   1      44.672  30.931  33.049  1.00  0.00    -0.354 N 
ATOM     58  N   UNL A   1      45.064  29.376  28.958  1.00  0.00    -0.248 NA
ATOM     59  C   UNL A   1      44.756  27.532  30.354  1.00  0.00     0.031 C 
ATOM     60  C   UNL A   1      44.104  32.893  32.277  1.00  0.00     0.029 A 
ATOM     61  C   UNL A   1      44.643  31.665  31.887  1.00  0.00     0.049 A 
ATOM     62  H   UNL A   1      45.306  30.209  33.261  1.00  0.00     0.167 HD
ATOM     63  C   UNL A   1      45.140  29.824  30.273  1.00  0.00     0.074 A 
ATOM     64  C   UNL A   1      45.000  28.620  31.090  1.00  0.00     0.031 C 
ATOM     65  C   UNL A   1      45.017  31.149  30.583  1.00  0.00     0.037 A 
BRANCH  52  66
ATOM     66  C   UNL A   1      43.358  29.416  35.526  1.00  0.00     0.058 A 
ATOM     67  C   UNL A   1      43.726  29.868  36.806  1.00  0.00     0.135 A 
ATOM     68  C   UNL A   1      43.736  28.086  35.218  1.00  0.00     0.135 A 
ATOM     69  F   UNL A   1      43.438  31.120  37.194  1.00  0.00    -0.206 F 
ATOM     70  C   UNL A   1      44.457  29.076  37.690  1.00  0.00     0.059 A 
ATOM     71  C   UNL A   1      44.400  27.257  36.109  1.00  0.00     0.059 A 
ATOM     72  F   UNL A   1      43.575  27.547  34.004  1.00  0.00    -0.206 F 
ATOM     73  C   UNL A   1      44.798  27.775  37.326  1.00  0.00     0.060 A 
BRANCH  73  74
ATOM     74  S   UNL A   1      45.837  26.787  38.410  1.00  0.00     0.124 S 
ATOM     75  O   UNL A   1      46.388  25.815  37.473  1.00  0.00    -0.237 OA
ATOM     76  O   UNL A   1      46.769  27.784  38.926  1.00  0.00    -0.237 OA
ATOM     77  O   UNL A   1      44.892  26.254  39.388  1.00  0.00    -0.744 OA
ENDBRANCH  73  74
ENDBRANCH  52  66
BRANCH  53  78
ATOM     78  C   UNL A   1      43.793  26.192  27.485  1.00  0.00     0.058 A 
ATOM     79  C   UNL A   1      43.131  25.075  28.019  1.00  0.00     0.135 A 
ATOM     80  C   UNL A   1      44.394  26.008  26.221  1.00  0.00     0.135 A 
ATOM     81  F   UNL A   1      42.501  25.167  29.201  1.00  0.00    -0.206 F 
ATOM     82  C   UNL A   1      43.048  23.856  27.332  1.00  0.00     0.059 A 
ATOM     83  C   UNL A   1      44.336  24.804  25.524  1.00  0.00     0.059 A 
ATOM     84  F   UNL A   1      44.985  27.026  25.577  1.00  0.00    -0.206 F 
ATOM     85  C   UNL A   1      43.644  23.735  26.076  1.00  0.00     0.060 A 
BRANCH  85  86
ATOM     86  S   UNL A   1      43.421  22.218  25.118  1.00  0.00     0.124 S 
ATOM     87  O   UNL A   1      43.558  22.702  23.750  1.00  0.00    -0.237 OA
ATOM     88  O   UNL A   1      44.511  21.381  25.610  1.00  0.00    -0.237 OA
ATOM     89  O   UNL A   1      42.081  21.774  25.491  1.00  0.00    -0.744 OA
ENDBRANCH  85  86
ENDBRANCH  53  78
BRANCH  65  90
ATOM     90  C   UNL A   1      45.031  32.148  29.449  1.00  0.00     0.058 A 
ATOM     91  C   UNL A   1      43.875  32.594  28.782  1.00  0.00     0.135 A 
ATOM     92  C   UNL A   1      46.230  32.814  29.153  1.00  0.00     0.135 A 
ATOM     93  F   UNL A   1      42.673  32.084  29.083  1.00  0.00    -0.206 F 
ATOM     94  C   UNL A   1      43.911  33.629  27.845  1.00  0.00     0.059 A 
ATOM     95  C   UNL A   1      46.286  33.869  28.244  1.00  0.00     0.059 A 
ATOM     96  F   UNL A   1      47.359  32.482  29.801  1.00  0.00    -0.206 F 
ATOM     97  C   UNL A   1      45.123  34.266  27.587  1.00  0.00     0.060 A 
BRANCH  97  98
ATOM     98  S   UNL A   1      45.152  35.672  26.452  1.00  0.00     0.124 S 
ATOM     99  O   UNL A   1      43.897  35.508  25.726  1.00  0.00    -0.237 OA
ATOM    100  O   UNL A   1      45.214  36.814  27.361  1.00  0.00    -0.237 OA
ATOM    101  O   UNL A   1      46.362  35.450  25.664  1.00  0.00    -0.744 OA
ENDBRANCH  97  98
ENDBRANCH  65  90
ENDBRANCH  39  40
ENDBRANCH  32  34
ENDBRANCH  31  32
ENDBRANCH  30  31
ENDBRANCH  29  30
ENDBRANCH  28  29
ENDBRANCH  27  28
ENDBRANCH  26  27
ENDBRANCH   1  26
TORSDOF 27
ENDMDL
MODEL 3
REMARK VINA RESULT:      -8.1      5.086     12.072
REMARK SMILES C=CCc1c(C)nn(CC(=O)OCCOCCOCCOCCOC(=O)c2ccc(-c3c4nc(c(-c5c(F)cc(S(=O)(=O)[O-])cc5F)c5ccc([nH]5)c(-c5c(F)cc(S(=O)(=O)[O-])cc5F)c5nc(c(-c6c(F)cc(S(=O)(=O)[O-])cc6F)c6ccc3[nH]6)C=C5)C=C4)cc2)c1-c1ccccc1
REMARK SMILES IDX 18 1 17 2 16 3 15 4 14 5 13 6 12 7 10 8 11 9 9 10 8 11 4 12
REMARK SMILES IDX 5 13 93 14 6 15 7 16 3 17 2 18 1 19 94 20 95 21 99 22 96 23
REMARK SMILES IDX 98 24 97 25 19 26 20 27 21 28 22 29 23 30 24 31 25 32 26 33
REMARK SMILES IDX 27 34 28 35 92 36 29 37 91 38 30 39 31 40 32 41 85 42 33 43
REMARK SMILES IDX 90 44 84 45 86 46 34 47 89 48 83 49 82 50 35 52 69 53 48 54
REMARK SMILES IDX 68 55 49 56 52 57 67 58 87 59 50 60 51 61 66 63 88 64 53 65
REMARK SMILES IDX 36 66 37 67 46 68 38 69 39 70 45 71 47 72 40 73 41 74 42 75
REMARK SMILES IDX 43 76 44 77 70 78 71 79 80 80 72 81 73 82 79 83 81 84 74 85
REMARK SMILES IDX 75 86 76 87 77 88 78 89 54 90 55 91 64 92 56 93 57 94 63 95
REMARK SMILES IDX 65 96 58 97 59 98 60 99 61 100 62 101
REMARK H PARENT 86 51 52 62
REMARK Flexibility Score: inf
ROOT
ATOM      1  O   UNL A   1      42.426  21.777  28.448  1.00  0.00    -0.377 OA
ENDROOT
BRANCH   1   2
ATOM      2  C   UNL A   1      43.452  22.648  28.874  1.00  0.00     0.188 C 
BRANCH   2   3
ATOM      3  C   UNL A   1      43.937  23.663  27.823  1.00  0.00     0.188 C 
BRANCH   3   4
ATOM      4  O   UNL A   1      45.256  23.572  27.292  1.00  0.00    -0.376 OA
BRANCH   4   5
ATOM      5  C   UNL A   1      45.436  23.483  25.884  1.00  0.00     0.202 C 
BRANCH   5   6
ATOM      6  C   UNL A   1      46.006  24.701  25.124  1.00  0.00     0.261 C 
BRANCH   6   7
ATOM      7  O   UNL A   1      47.451  24.775  25.063  1.00  0.00    -0.462 OA
BRANCH   7   8
ATOM      8  C   UNL A   1      48.076  25.663  25.875  1.00  0.00     0.327 C 
ATOM      9  O   UNL A   1      48.158  26.865  25.620  1.00  0.00    -0.250 OA
BRANCH   8  10
ATOM     10  C   UNL A   1      48.474  25.131  27.234  1.00  0.00     0.267 C 
BRANCH  10  11
ATOM     11  N   UNL A   1      48.176  25.922  28.428  1.00  0.00    -0.253 N 
ATOM     12  C   UNL A   1      48.228  27.351  30.112  1.00  0.00     0.005 A 
ATOM     13  C   UNL A   1      46.920  26.846  29.877  1.00  0.00     0.064 A 
ATOM     14  C   UNL A   1      49.013  26.771  29.119  1.00  0.00     0.073 A 
ATOM     15  C   UNL A   1      45.667  27.074  30.645  1.00  0.00     0.069 C 
ATOM     16  N   UNL A   1      46.878  26.098  28.770  1.00  0.00    -0.177 NA
BRANCH  12  17
ATOM     17  C   UNL A   1      48.627  28.349  31.153  1.00  0.00     0.066 C 
BRANCH  17  18
ATOM     18  C   UNL A   1      48.933  27.713  32.478  1.00  0.00    -0.030 C 
ATOM     19  C   UNL A   1      50.165  27.383  32.887  1.00  0.00     0.004 C 
ENDBRANCH  17  18
ENDBRANCH  12  17
BRANCH  14  20
ATOM     20  C   UNL A   1      50.418  26.938  28.776  1.00  0.00     0.000 A 
ATOM     21  C   UNL A   1      51.396  26.248  29.502  1.00  0.00     0.010 A 
ATOM     22  C   UNL A   1      50.806  27.841  27.785  1.00  0.00     0.010 A 
ATOM     23  C   UNL A   1      52.746  26.517  29.301  1.00  0.00     0.001 A 
ATOM     24  C   UNL A   1      52.161  28.087  27.561  1.00  0.00     0.001 A 
ATOM     25  C   UNL A   1      53.128  27.442  28.333  1.00  0.00     0.000 A 
ENDBRANCH  14  20
ENDBRANCH  10  11
ENDBRANCH   8  10
ENDBRANCH   7   8
ENDBRANCH   6   7
ENDBRANCH   5   6
ENDBRANCH   4   5
ENDBRANCH   3   4
ENDBRANCH   2   3
ENDBRANCH   1   2
BRANCH   1  26
ATOM     26  C   UNL A   1      42.269  21.648  27.048  1.00  0.00     0.188 C 
BRANCH  26  27
ATOM     27  C   UNL A   1      40.888  21.999  26.450  1.00  0.00     0.188 C 
BRANCH  27  28
ATOM     28  O   UNL A   1      40.009  22.724  27.313  1.00  0.00    -0.376 OA
BRANCH  28  29
ATOM     29  C   UNL A   1      39.561  24.035  26.985  1.00  0.00     0.202 C 
BRANCH  29  30
ATOM     30  C   UNL A   1      40.452  25.217  27.385  1.00  0.00     0.261 C 
BRANCH  30  31
ATOM     31  O   UNL A   1      40.727  26.099  26.314  1.00  0.00    -0.460 OA
BRANCH  31  32
ATOM     32  C   UNL A   1      41.899  25.892  25.691  1.00  0.00     0.338 C 
ATOM     33  O   UNL A   1      42.256  24.879  25.101  1.00  0.00    -0.246 OA
BRANCH  32  34
ATOM     34  C   UNL A   1      42.736  27.081  25.854  1.00  0.00     0.060 A 
ATOM     35  C   UNL A   1      43.673  26.992  26.881  1.00  0.00     0.016 A 
ATOM     36  C   UNL A   1      42.208  28.296  25.396  1.00  0.00     0.016 A 
ATOM     37  C   UNL A   1      43.724  28.047  27.745  1.00  0.00     0.010 A 
ATOM     38  C   UNL A   1      42.231  29.334  26.272  1.00  0.00     0.010 A 
ATOM     39  C   UNL A   1      42.874  29.124  27.489  1.00  0.00    -0.014 A 
BRANCH  39  40
ATOM     40  C   UNL A   1      42.593  30.026  28.569  1.00  0.00     0.031 A 
ATOM     41  C   UNL A   1      43.717  30.935  28.827  1.00  0.00     0.074 A 
ATOM     42  C   UNL A   1      41.372  30.051  29.131  1.00  0.00     0.049 A 
ATOM     43  N   UNL A   1      44.549  30.910  29.812  1.00  0.00    -0.248 NA
ATOM     44  C   UNL A   1      44.119  31.813  27.713  1.00  0.00     0.031 C 
ATOM     45  C   UNL A   1      40.147  29.366  28.698  1.00  0.00     0.029 A 
ATOM     46  N   UNL A   1      40.947  30.808  30.170  1.00  0.00    -0.354 N 
ATOM     47  C   UNL A   1      45.427  31.952  29.547  1.00  0.00     0.074 A 
ATOM     48  C   UNL A   1      45.299  32.248  28.147  1.00  0.00     0.031 C 
ATOM     49  C   UNL A   1      39.084  29.920  29.326  1.00  0.00     0.029 A 
ATOM     50  C   UNL A   1      39.566  30.902  30.281  1.00  0.00     0.049 A 
ATOM     51  H   UNL A   1      41.564  31.255  30.793  1.00  0.00     0.167 HD
ATOM     52  C   UNL A   1      45.936  32.717  30.547  1.00  0.00     0.037 A 
ATOM     53  C   UNL A   1      38.921  31.838  31.021  1.00  0.00     0.037 A 
ATOM     54  C   UNL A   1      45.807  32.063  31.824  1.00  0.00     0.049 A 
ATOM     55  C   UNL A   1      39.920  32.366  32.001  1.00  0.00     0.074 A 
ATOM     56  C   UNL A   1      46.277  30.873  32.346  1.00  0.00     0.029 A 
ATOM     57  N   UNL A   1      44.766  32.448  32.637  1.00  0.00    -0.354 N 
ATOM     58  N   UNL A   1      40.458  31.642  32.951  1.00  0.00    -0.248 NA
ATOM     59  C   UNL A   1      40.694  33.538  31.611  1.00  0.00     0.031 C 
ATOM     60  C   UNL A   1      45.218  30.376  33.159  1.00  0.00     0.029 A 
ATOM     61  C   UNL A   1      44.179  31.310  33.137  1.00  0.00     0.049 A 
ATOM     62  H   UNL A   1      44.490  33.373  32.828  1.00  0.00     0.167 HD
ATOM     63  C   UNL A   1      41.792  32.033  33.003  1.00  0.00     0.074 A 
ATOM     64  C   UNL A   1      41.860  33.251  32.198  1.00  0.00     0.031 C 
ATOM     65  C   UNL A   1      42.767  31.185  33.447  1.00  0.00     0.037 A 
BRANCH  52  66
ATOM     66  C   UNL A   1      46.201  34.192  30.388  1.00  0.00     0.058 A 
ATOM     67  C   UNL A   1      47.491  34.689  30.644  1.00  0.00     0.135 A 
ATOM     68  C   UNL A   1      45.191  35.172  30.223  1.00  0.00     0.135 A 
ATOM     69  F   UNL A   1      48.518  33.848  30.840  1.00  0.00    -0.206 F 
ATOM     70  C   UNL A   1      47.746  36.054  30.778  1.00  0.00     0.059 A 
ATOM     71  C   UNL A   1      45.437  36.535  30.280  1.00  0.00     0.059 A 
ATOM     72  F   UNL A   1      43.895  34.866  30.099  1.00  0.00    -0.206 F 
ATOM     73  C   UNL A   1      46.709  36.967  30.604  1.00  0.00     0.060 A 
BRANCH  73  74
ATOM     74  S   UNL A   1      47.002  38.718  30.886  1.00  0.00     0.124 S 
ATOM     75  O   UNL A   1      46.467  39.300  29.660  1.00  0.00    -0.237 OA
ATOM     76  O   UNL A   1      46.233  38.960  32.103  1.00  0.00    -0.237 OA
ATOM     77  O   UNL A   1      48.452  38.795  31.041  1.00  0.00    -0.744 OA
ENDBRANCH  73  74
ENDBRANCH  52  66
BRANCH  53  78
ATOM     78  C   UNL A   1      37.683  32.570  30.635  1.00  0.00     0.058 A 
ATOM     79  C   UNL A   1      37.695  33.558  29.637  1.00  0.00     0.135 A 
ATOM     80  C   UNL A   1      36.409  32.142  31.065  1.00  0.00     0.135 A 
ATOM     81  F   UNL A   1      38.862  34.001  29.142  1.00  0.00    -0.206 F 
ATOM     82  C   UNL A   1      36.516  34.073  29.080  1.00  0.00     0.059 A 
ATOM     83  C   UNL A   1      35.223  32.647  30.538  1.00  0.00     0.059 A 
ATOM     84  F   UNL A   1      36.273  31.148  31.956  1.00  0.00    -0.206 F 
ATOM     85  C   UNL A   1      35.283  33.600  29.530  1.00  0.00     0.060 A 
BRANCH  85  86
ATOM     86  S   UNL A   1      33.761  34.148  28.722  1.00  0.00     0.124 S 
ATOM     87  O   UNL A   1      34.238  35.253  27.899  1.00  0.00    -0.237 OA
ATOM     88  O   UNL A   1      33.346  32.948  28.001  1.00  0.00    -0.237 OA
ATOM     89  O   UNL A   1      32.900  34.529  29.839  1.00  0.00    -0.744 OA
ENDBRANCH  85  86
ENDBRANCH  53  78
BRANCH  65  90
ATOM     90  C   UNL A   1      42.339  29.891  34.101  1.00  0.00     0.058 A 
ATOM     91  C   UNL A   1      42.187  28.676  33.409  1.00  0.00     0.135 A 
ATOM     92  C   UNL A   1      42.261  29.838  35.500  1.00  0.00     0.135 A 
ATOM     93  F   UNL A   1      42.350  28.620  32.081  1.00  0.00    -0.206 F 
ATOM     94  C   UNL A   1      41.939  27.470  34.071  1.00  0.00     0.059 A 
ATOM     95  C   UNL A   1      42.045  28.644  36.185  1.00  0.00     0.059 A 
ATOM     96  F   UNL A   1      42.462  30.951  36.226  1.00  0.00    -0.206 F 
ATOM     97  C   UNL A   1      41.876  27.464  35.463  1.00  0.00     0.060 A 
BRANCH  97  98
ATOM     98  S   UNL A   1      41.659  25.891  36.325  1.00  0.00     0.124 S 
ATOM     99  O   UNL A   1      42.881  25.176  35.973  1.00  0.00    -0.237 OA
ATOM    100  O   UNL A   1      41.547  26.305  37.721  1.00  0.00    -0.237 OA
ATOM    101  O   UNL A   1      40.432  25.350  35.746  1.00  0.00    -0.744 OA
ENDBRANCH  97  98
ENDBRANCH  65  90
ENDBRANCH  39  40
ENDBRANCH  32  34
ENDBRANCH  31  32
ENDBRANCH  30  31
ENDBRANCH  29  30
ENDBRANCH  28  29
ENDBRANCH  27  28
ENDBRANCH  26  27
ENDBRANCH   1  26
TORSDOF 27
ENDMDL
