MODEL 1
REMARK VINA RESULT:     -10.5      0.000      0.000
REMARK SMILES Cc1cc(C)c2c(c1)C=C(C(=O)OCCOCCOCCOCCOC(=O)c1ccc(-c3c4nc(c(-c5c(F)cc(S(=O)(=O)[O-])cc5F)c5ccc([nH]5)c(-c5c(F)cc(S(=O)(=O)[O-])cc5F)c5nc(c(-c6c(F)cc(S(=O)(=O)[O-])cc6F)c6ccc3[nH]6)C=C5)C=C4)cc1)[C@@H](C(F)(F)F)O2
REMARK SMILES IDX 20 1 19 2 18 3 17 4 16 5 15 6 14 7 13 8 11 9 12 10 10 11
REMARK SMILES IDX 1 12 2 13 3 14 8 15 4 16 7 17 5 18 6 19 9 20 99 21 94 22
REMARK SMILES IDX 95 23 96 24 97 25 98 26 21 27 22 28 23 29 24 30 25 31 26 32
REMARK SMILES IDX 27 33 28 34 29 35 93 36 30 37 92 38 31 39 32 40 33 41 86 42
REMARK SMILES IDX 34 43 91 44 85 45 87 46 35 47 90 48 84 49 83 50 36 52 70 53
REMARK SMILES IDX 49 54 69 55 50 56 53 57 68 58 88 59 51 60 52 61 67 63 89 64
REMARK SMILES IDX 54 65 37 66 38 67 47 68 39 69 40 70 46 71 48 72 41 73 42 74
REMARK SMILES IDX 43 75 44 76 45 77 71 78 72 79 81 80 73 81 74 82 80 83 82 84
REMARK SMILES IDX 75 85 76 86 77 87 78 88 79 89 55 90 56 91 65 92 57 93 58 94
REMARK SMILES IDX 64 95 66 96 59 97 60 98 61 99 62 100 63 101
REMARK H PARENT 87 51 53 62
REMARK Flexibility Score: inf
ROOT
ATOM      1  C   UNL A   1      34.139  21.130  25.892  1.00  0.00     0.188 C 
ENDROOT
BRANCH   1   2
ATOM      2  O   UNL A   1      33.686  20.438  24.728  1.00  0.00    -0.377 OA
BRANCH   2   3
ATOM      3  C   UNL A   1      32.344  20.626  24.313  1.00  0.00     0.188 C 
BRANCH   3   4
ATOM      4  C   UNL A   1      32.001  22.088  23.977  1.00  0.00     0.188 C 
BRANCH   4   5
ATOM      5  O   UNL A   1      32.530  22.512  22.726  1.00  0.00    -0.376 OA
BRANCH   5   6
ATOM      6  C   UNL A   1      33.343  23.677  22.698  1.00  0.00     0.202 C 
BRANCH   6   7
ATOM      7  C   UNL A   1      32.890  24.884  21.862  1.00  0.00     0.261 C 
BRANCH   7   8
ATOM      8  O   UNL A   1      33.335  26.167  22.322  1.00  0.00    -0.460 OA
BRANCH   8   9
ATOM      9  C   UNL A   1      32.925  26.582  23.534  1.00  0.00     0.338 C 
ATOM     10  O   UNL A   1      33.596  26.658  24.549  1.00  0.00    -0.246 OA
BRANCH   9  11
ATOM     11  C   UNL A   1      31.550  27.110  23.386  1.00  0.00     0.087 C 
ATOM     12  C   UNL A   1      28.397  31.916  21.156  1.00  0.00     0.044 C 
ATOM     13  C   UNL A   1      28.593  30.578  21.803  1.00  0.00    -0.050 A 
ATOM     14  C   UNL A   1      27.516  29.924  22.415  1.00  0.00     0.010 A 
ATOM     15  C   UNL A   1      29.869  30.008  21.885  1.00  0.00     0.015 A 
ATOM     16  C   UNL A   1      27.696  28.696  23.069  1.00  0.00    -0.008 A 
ATOM     17  C   UNL A   1      30.067  28.794  22.554  1.00  0.00     0.018 A 
ATOM     18  C   UNL A   1      26.529  28.022  23.736  1.00  0.00     0.048 C 
ATOM     19  C   UNL A   1      28.977  28.122  23.110  1.00  0.00     0.130 A 
ATOM     20  C   UNL A   1      31.411  28.267  22.726  1.00  0.00     0.027 C 
ATOM     21  O   UNL A   1      29.083  26.909  23.730  1.00  0.00    -0.475 OA
ATOM     22  C   UNL A   1      30.390  26.295  23.898  1.00  0.00     0.316 C 
BRANCH  22  23
ATOM     23  C   UNL A   1      30.544  25.934  25.383  1.00  0.00     0.430 C 
ATOM     24  F   UNL A   1      31.404  24.903  25.551  1.00  0.00    -0.167 F 
ATOM     25  F   UNL A   1      31.018  26.967  26.114  1.00  0.00    -0.167 F 
ATOM     26  F   UNL A   1      29.359  25.566  25.927  1.00  0.00    -0.167 F 
ENDBRANCH  22  23
ENDBRANCH   9  11
ENDBRANCH   8   9
ENDBRANCH   7   8
ENDBRANCH   6   7
ENDBRANCH   5   6
ENDBRANCH   4   5
ENDBRANCH   3   4
ENDBRANCH   2   3
ENDBRANCH   1   2
BRANCH   1  27
ATOM     27  C   UNL A   1      35.534  21.798  25.972  1.00  0.00     0.188 C 
BRANCH  27  28
ATOM     28  O   UNL A   1      36.558  21.122  25.249  1.00  0.00    -0.376 OA
BRANCH  28  29
ATOM     29  C   UNL A   1      37.895  21.530  25.502  1.00  0.00     0.202 C 
BRANCH  29  30
ATOM     30  C   UNL A   1      38.920  20.389  25.467  1.00  0.00     0.261 C 
BRANCH  30  31
ATOM     31  O   UNL A   1      39.819  20.340  26.586  1.00  0.00    -0.460 OA
BRANCH  31  32
ATOM     32  C   UNL A   1      41.086  19.939  26.347  1.00  0.00     0.338 C 
ATOM     33  O   UNL A   1      41.448  18.862  25.908  1.00  0.00    -0.246 OA
BRANCH  32  34
ATOM     34  C   UNL A   1      41.960  21.116  26.525  1.00  0.00     0.060 A 
ATOM     35  C   UNL A   1      42.288  21.530  27.823  1.00  0.00     0.016 A 
ATOM     36  C   UNL A   1      42.471  21.789  25.413  1.00  0.00     0.016 A 
ATOM     37  C   UNL A   1      43.110  22.640  28.010  1.00  0.00     0.010 A 
ATOM     38  C   UNL A   1      43.273  22.917  25.602  1.00  0.00     0.010 A 
ATOM     39  C   UNL A   1      43.569  23.365  26.901  1.00  0.00    -0.014 A 
BRANCH  39  40
ATOM     40  C   UNL A   1      44.158  24.710  27.101  1.00  0.00     0.031 A 
ATOM     41  C   UNL A   1      43.238  25.820  27.529  1.00  0.00     0.074 A 
ATOM     42  C   UNL A   1      45.473  24.938  26.940  1.00  0.00     0.049 A 
ATOM     43  N   UNL A   1      43.506  27.077  27.760  1.00  0.00    -0.248 NA
ATOM     44  C   UNL A   1      41.822  25.460  27.726  1.00  0.00     0.031 C 
ATOM     45  C   UNL A   1      46.469  23.934  26.572  1.00  0.00     0.029 A 
ATOM     46  N   UNL A   1      46.197  26.098  27.071  1.00  0.00    -0.354 N 
ATOM     47  C   UNL A   1      42.301  27.654  28.142  1.00  0.00     0.074 A 
ATOM     48  C   UNL A   1      41.291  26.623  28.070  1.00  0.00     0.031 C 
ATOM     49  C   UNL A   1      47.676  24.523  26.505  1.00  0.00     0.029 A 
ATOM     50  C   UNL A   1      47.535  25.950  26.800  1.00  0.00     0.049 A 
ATOM     51  H   UNL A   1      45.793  26.956  27.336  1.00  0.00     0.167 HD
ATOM     52  C   UNL A   1      42.060  28.926  28.534  1.00  0.00     0.037 A 
ATOM     53  C   UNL A   1      48.527  26.864  26.782  1.00  0.00     0.037 A 
ATOM     54  C   UNL A   1      43.063  29.954  28.590  1.00  0.00     0.049 A 
ATOM     55  C   UNL A   1      48.212  28.301  27.118  1.00  0.00     0.074 A 
ATOM     56  C   UNL A   1      42.918  31.275  28.974  1.00  0.00     0.029 A 
ATOM     57  N   UNL A   1      44.394  29.780  28.242  1.00  0.00    -0.354 N 
ATOM     58  N   UNL A   1      47.073  28.831  27.498  1.00  0.00    -0.248 NA
ATOM     59  C   UNL A   1      49.316  29.268  27.015  1.00  0.00     0.031 C 
ATOM     60  C   UNL A   1      44.151  31.913  28.811  1.00  0.00     0.029 A 
ATOM     61  C   UNL A   1      45.075  30.978  28.372  1.00  0.00     0.049 A 
ATOM     62  H   UNL A   1      44.795  28.930  27.946  1.00  0.00     0.167 HD
ATOM     63  C   UNL A   1      47.327  30.185  27.696  1.00  0.00     0.074 A 
ATOM     64  C   UNL A   1      48.731  30.392  27.409  1.00  0.00     0.031 C 
ATOM     65  C   UNL A   1      46.475  31.167  28.080  1.00  0.00     0.037 A 
BRANCH  52  66
ATOM     66  C   UNL A   1      40.653  29.277  28.923  1.00  0.00     0.058 A 
ATOM     67  C   UNL A   1      39.652  29.468  27.956  1.00  0.00     0.135 A 
ATOM     68  C   UNL A   1      40.291  29.390  30.274  1.00  0.00     0.135 A 
ATOM     69  F   UNL A   1      39.952  29.395  26.649  1.00  0.00    -0.206 F 
ATOM     70  C   UNL A   1      38.346  29.775  28.315  1.00  0.00     0.059 A 
ATOM     71  C   UNL A   1      38.984  29.673  30.657  1.00  0.00     0.059 A 
ATOM     72  F   UNL A   1      41.212  29.226  31.237  1.00  0.00    -0.206 F 
ATOM     73  C   UNL A   1      38.020  29.873  29.670  1.00  0.00     0.060 A 
BRANCH  73  74
ATOM     74  S   UNL A   1      36.315  30.258  30.116  1.00  0.00     0.124 S 
ATOM     75  O   UNL A   1      36.330  31.718  30.090  1.00  0.00    -0.237 OA
ATOM     76  O   UNL A   1      35.561  29.613  29.046  1.00  0.00    -0.237 OA
ATOM     77  O   UNL A   1      36.163  29.657  31.437  1.00  0.00    -0.744 OA
ENDBRANCH  73  74
ENDBRANCH  52  66
BRANCH  53  78
ATOM     78  C   UNL A   1      49.914  26.455  26.429  1.00  0.00     0.058 A 
ATOM     79  C   UNL A   1      50.781  25.933  27.400  1.00  0.00     0.135 A 
ATOM     80  C   UNL A   1      50.401  26.582  25.119  1.00  0.00     0.135 A 
ATOM     81  F   UNL A   1      50.368  25.808  28.670  1.00  0.00    -0.206 F 
ATOM     82  C   UNL A   1      52.083  25.554  27.086  1.00  0.00     0.059 A 
ATOM     83  C   UNL A   1      51.692  26.187  24.775  1.00  0.00     0.059 A 
ATOM     84  F   UNL A   1      49.612  27.075  24.152  1.00  0.00    -0.206 F 
ATOM     85  C   UNL A   1      52.528  25.679  25.769  1.00  0.00     0.060 A 
BRANCH  85  86
ATOM     86  S   UNL A   1      54.202  25.133  25.367  1.00  0.00     0.124 S 
ATOM     87  O   UNL A   1      53.960  23.784  24.866  1.00  0.00    -0.237 OA
ATOM     88  O   UNL A   1      54.612  26.120  24.373  1.00  0.00    -0.237 OA
ATOM     89  O   UNL A   1      54.899  25.214  26.648  1.00  0.00    -0.744 OA
ENDBRANCH  85  86
ENDBRANCH  53  78
BRANCH  65  90
ATOM     90  C   UNL A   1      47.022  32.562  28.216  1.00  0.00     0.058 A 
ATOM     91  C   UNL A   1      47.710  32.967  29.370  1.00  0.00     0.135 A 
ATOM     92  C   UNL A   1      46.946  33.468  27.145  1.00  0.00     0.135 A 
ATOM     93  F   UNL A   1      47.806  32.142  30.424  1.00  0.00    -0.206 F 
ATOM     94  C   UNL A   1      48.303  34.223  29.459  1.00  0.00     0.059 A 
ATOM     95  C   UNL A   1      47.554  34.719  27.203  1.00  0.00     0.059 A 
ATOM     96  F   UNL A   1      46.310  33.126  26.014  1.00  0.00    -0.206 F 
ATOM     97  C   UNL A   1      48.227  35.088  28.366  1.00  0.00     0.060 A 
BRANCH  97  98
ATOM     98  S   UNL A   1      49.057  36.689  28.476  1.00  0.00     0.124 S 
ATOM     99  O   UNL A   1      48.907  37.003  29.892  1.00  0.00    -0.237 OA
ATOM    100  O   UNL A   1      50.412  36.365  28.039  1.00  0.00    -0.237 OA
ATOM    101  O   UNL A   1      48.295  37.533  27.561  1.00  0.00    -0.744 OA
ENDBRANCH  97  98
ENDBRANCH  65  90
ENDBRANCH  39  40
ENDBRANCH  32  34
ENDBRANCH  31  32
ENDBRANCH  30  31
ENDBRANCH  29  30
ENDBRANCH  28  29
ENDBRANCH  27  28
ENDBRANCH   1  27
TORSDOF 24
ENDMDL
MODEL 2
REMARK VINA RESULT:     -10.2      2.579      8.879
REMARK SMILES Cc1cc(C)c2c(c1)C=C(C(=O)OCCOCCOCCOCCOC(=O)c1ccc(-c3c4nc(c(-c5c(F)cc(S(=O)(=O)[O-])cc5F)c5ccc([nH]5)c(-c5c(F)cc(S(=O)(=O)[O-])cc5F)c5nc(c(-c6c(F)cc(S(=O)(=O)[O-])cc6F)c6ccc3[nH]6)C=C5)C=C4)cc1)[C@@H](C(F)(F)F)O2
REMARK SMILES IDX 20 1 19 2 18 3 17 4 16 5 15 6 14 7 13 8 11 9 12 10 10 11
REMARK SMILES IDX 1 12 2 13 3 14 8 15 4 16 7 17 5 18 6 19 9 20 99 21 94 22
REMARK SMILES IDX 95 23 96 24 97 25 98 26 21 27 22 28 23 29 24 30 25 31 26 32
REMARK SMILES IDX 27 33 28 34 29 35 93 36 30 37 92 38 31 39 32 40 33 41 86 42
REMARK SMILES IDX 34 43 91 44 85 45 87 46 35 47 90 48 84 49 83 50 36 52 70 53
REMARK SMILES IDX 49 54 69 55 50 56 53 57 68 58 88 59 51 60 52 61 67 63 89 64
REMARK SMILES IDX 54 65 37 66 38 67 47 68 39 69 40 70 46 71 48 72 41 73 42 74
REMARK SMILES IDX 43 75 44 76 45 77 71 78 72 79 81 80 73 81 74 82 80 83 82 84
REMARK SMILES IDX 75 85 76 86 77 87 78 88 79 89 55 90 56 91 65 92 57 93 58 94
REMARK SMILES IDX 64 95 66 96 59 97 60 98 61 99 62 100 63 101
REMARK H PARENT 87 51 53 62
REMARK Flexibility Score: inf
ROOT
ATOM      1  C   UNL A   1      36.148  31.924  28.266  1.00  0.00     0.188 C 
ENDROOT
BRANCH   1   2
ATOM      2  O   UNL A   1      34.976  32.431  27.625  1.00  0.00    -0.377 OA
BRANCH   2   3
ATOM      3  C   UNL A   1      33.761  31.720  27.784  1.00  0.00     0.188 C 
BRANCH   3   4
ATOM      4  C   UNL A   1      33.673  30.449  26.921  1.00  0.00     0.188 C 
BRANCH   4   5
ATOM      5  O   UNL A   1      33.013  29.372  27.578  1.00  0.00    -0.376 OA
BRANCH   5   6
ATOM      6  C   UNL A   1      31.790  28.898  27.032  1.00  0.00     0.202 C 
BRANCH   6   7
ATOM      7  C   UNL A   1      31.825  28.031  25.764  1.00  0.00     0.261 C 
BRANCH   7   8
ATOM      8  O   UNL A   1      32.946  27.145  25.643  1.00  0.00    -0.460 OA
BRANCH   8   9
ATOM      9  C   UNL A   1      33.247  26.667  24.421  1.00  0.00     0.338 C 
ATOM     10  O   UNL A   1      33.561  27.315  23.438  1.00  0.00    -0.246 OA
BRANCH   9  11
ATOM     11  C   UNL A   1      33.310  25.192  24.520  1.00  0.00     0.087 C 
ATOM     12  C   UNL A   1      37.299  20.502  24.852  1.00  0.00     0.044 C 
ATOM     13  C   UNL A   1      35.956  21.170  24.835  1.00  0.00    -0.050 A 
ATOM     14  C   UNL A   1      34.788  20.406  24.731  1.00  0.00     0.010 A 
ATOM     15  C   UNL A   1      35.857  22.567  24.827  1.00  0.00     0.015 A 
ATOM     16  C   UNL A   1      33.528  21.020  24.660  1.00  0.00    -0.008 A 
ATOM     17  C   UNL A   1      34.609  23.193  24.735  1.00  0.00     0.018 A 
ATOM     18  C   UNL A   1      32.288  20.179  24.529  1.00  0.00     0.048 C 
ATOM     19  C   UNL A   1      33.446  22.421  24.691  1.00  0.00     0.130 A 
ATOM     20  C   UNL A   1      34.526  24.640  24.621  1.00  0.00     0.027 C 
ATOM     21  O   UNL A   1      32.192  22.961  24.656  1.00  0.00    -0.475 OA
ATOM     22  C   UNL A   1      32.026  24.403  24.587  1.00  0.00     0.316 C 
BRANCH  22  23
ATOM     23  C   UNL A   1      31.095  24.707  23.404  1.00  0.00     0.430 C 
ATOM     24  F   UNL A   1      30.221  23.695  23.195  1.00  0.00    -0.167 F 
ATOM     25  F   UNL A   1      30.362  25.826  23.605  1.00  0.00    -0.167 F 
ATOM     26  F   UNL A   1      31.793  24.883  22.257  1.00  0.00    -0.167 F 
ENDBRANCH  22  23
ENDBRANCH   9  11
ENDBRANCH   8   9
ENDBRANCH   7   8
ENDBRANCH   6   7
ENDBRANCH   5   6
ENDBRANCH   4   5
ENDBRANCH   3   4
ENDBRANCH   2   3
ENDBRANCH   1   2
BRANCH   1  27
ATOM     27  C   UNL A   1      37.177  32.846  28.967  1.00  0.00     0.188 C 
BRANCH  27  28
ATOM     28  O   UNL A   1      37.281  32.655  30.375  1.00  0.00    -0.376 OA
BRANCH  28  29
ATOM     29  C   UNL A   1      36.064  32.572  31.101  1.00  0.00     0.202 C 
BRANCH  29  30
ATOM     30  C   UNL A   1      35.913  31.295  31.936  1.00  0.00     0.261 C 
BRANCH  30  31
ATOM     31  O   UNL A   1      36.499  30.116  31.363  1.00  0.00    -0.460 OA
BRANCH  31  32
ATOM     32  C   UNL A   1      37.357  29.411  32.132  1.00  0.00     0.338 C 
ATOM     33  O   UNL A   1      37.082  28.702  33.083  1.00  0.00    -0.246 OA
BRANCH  32  34
ATOM     34  C   UNL A   1      38.686  29.490  31.493  1.00  0.00     0.060 A 
ATOM     35  C   UNL A   1      38.766  29.581  30.097  1.00  0.00     0.016 A 
ATOM     36  C   UNL A   1      39.845  29.497  32.274  1.00  0.00     0.016 A 
ATOM     37  C   UNL A   1      40.013  29.654  29.477  1.00  0.00     0.010 A 
ATOM     38  C   UNL A   1      41.093  29.543  31.650  1.00  0.00     0.010 A 
ATOM     39  C   UNL A   1      41.182  29.590  30.248  1.00  0.00    -0.014 A 
BRANCH  39  40
ATOM     40  C   UNL A   1      42.482  29.338  29.582  1.00  0.00     0.031 A 
ATOM     41  C   UNL A   1      42.718  27.971  29.002  1.00  0.00     0.074 A 
ATOM     42  C   UNL A   1      43.415  30.299  29.466  1.00  0.00     0.049 A 
ATOM     43  N   UNL A   1      43.768  27.504  28.381  1.00  0.00    -0.248 NA
ATOM     44  C   UNL A   1      41.616  27.001  29.137  1.00  0.00     0.031 C 
ATOM     45  C   UNL A   1      43.283  31.672  29.949  1.00  0.00     0.029 A 
ATOM     46  N   UNL A   1      44.665  30.261  28.898  1.00  0.00    -0.354 N 
ATOM     47  C   UNL A   1      43.450  26.195  28.040  1.00  0.00     0.074 A 
ATOM     48  C   UNL A   1      42.128  25.926  28.560  1.00  0.00     0.031 C 
ATOM     49  C   UNL A   1      44.409  32.346  29.657  1.00  0.00     0.029 A 
ATOM     50  C   UNL A   1      45.352  31.446  28.990  1.00  0.00     0.049 A 
ATOM     51  H   UNL A   1      45.033  29.458  28.464  1.00  0.00     0.167 HD
ATOM     52  C   UNL A   1      44.187  25.301  27.342  1.00  0.00     0.037 A 
ATOM     53  C   UNL A   1      46.602  31.762  28.593  1.00  0.00     0.037 A 
ATOM     54  C   UNL A   1      45.508  25.565  26.840  1.00  0.00     0.049 A 
ATOM     55  C   UNL A   1      47.447  30.713  27.912  1.00  0.00     0.074 A 
ATOM     56  C   UNL A   1      46.337  24.723  26.120  1.00  0.00     0.029 A 
ATOM     57  N   UNL A   1      46.196  26.756  27.013  1.00  0.00    -0.354 N 
ATOM     58  N   UNL A   1      47.128  29.486  27.576  1.00  0.00    -0.248 NA
ATOM     59  C   UNL A   1      48.825  31.090  27.562  1.00  0.00     0.031 C 
ATOM     60  C   UNL A   1      47.547  25.389  25.902  1.00  0.00     0.029 A 
ATOM     61  C   UNL A   1      47.453  26.662  26.442  1.00  0.00     0.049 A 
ATOM     62  H   UNL A   1      45.843  27.551  27.475  1.00  0.00     0.167 HD
ATOM     63  C   UNL A   1      48.256  28.951  26.961  1.00  0.00     0.074 A 
ATOM     64  C   UNL A   1      49.262  29.993  26.957  1.00  0.00     0.031 C 
ATOM     65  C   UNL A   1      48.444  27.709  26.448  1.00  0.00     0.037 A 
BRANCH  52  66
ATOM     66  C   UNL A   1      43.582  23.949  27.091  1.00  0.00     0.058 A 
ATOM     67  C   UNL A   1      43.790  22.879  27.977  1.00  0.00     0.135 A 
ATOM     68  C   UNL A   1      42.762  23.729  25.974  1.00  0.00     0.135 A 
ATOM     69  F   UNL A   1      44.586  23.031  29.047  1.00  0.00    -0.206 F 
ATOM     70  C   UNL A   1      43.216  21.633  27.754  1.00  0.00     0.059 A 
ATOM     71  C   UNL A   1      42.158  22.497  25.745  1.00  0.00     0.059 A 
ATOM     72  F   UNL A   1      42.541  24.717  25.092  1.00  0.00    -0.206 F 
ATOM     73  C   UNL A   1      42.399  21.452  26.637  1.00  0.00     0.060 A 
BRANCH  73  74
ATOM     74  S   UNL A   1      41.652  19.831  26.374  1.00  0.00     0.124 S 
ATOM     75  O   UNL A   1      41.866  19.198  27.672  1.00  0.00    -0.237 OA
ATOM     76  O   UNL A   1      40.270  20.174  26.057  1.00  0.00    -0.237 OA
ATOM     77  O   UNL A   1      42.426  19.272  25.271  1.00  0.00    -0.744 OA
ENDBRANCH  73  74
ENDBRANCH  52  66
BRANCH  53  78
ATOM     78  C   UNL A   1      47.139  33.130  28.830  1.00  0.00     0.058 A 
ATOM     79  C   UNL A   1      47.002  34.136  27.862  1.00  0.00     0.135 A 
ATOM     80  C   UNL A   1      47.801  33.458  30.023  1.00  0.00     0.135 A 
ATOM     81  F   UNL A   1      46.392  33.868  26.698  1.00  0.00    -0.206 F 
ATOM     82  C   UNL A   1      47.505  35.417  28.066  1.00  0.00     0.059 A 
ATOM     83  C   UNL A   1      48.292  34.739  30.261  1.00  0.00     0.059 A 
ATOM     84  F   UNL A   1      47.958  32.532  30.981  1.00  0.00    -0.206 F 
ATOM     85  C   UNL A   1      48.144  35.711  29.272  1.00  0.00     0.060 A 
BRANCH  85  86
ATOM     86  S   UNL A   1      48.744  37.393  29.544  1.00  0.00     0.124 S 
ATOM     87  O   UNL A   1      49.937  37.420  28.704  1.00  0.00    -0.237 OA
ATOM     88  O   UNL A   1      47.617  38.196  29.079  1.00  0.00    -0.237 OA
ATOM     89  O   UNL A   1      48.986  37.436  30.983  1.00  0.00    -0.744 OA
ENDBRANCH  85  86
ENDBRANCH  53  78
BRANCH  65  90
ATOM     90  C   UNL A   1      49.781  27.393  25.835  1.00  0.00     0.058 A 
ATOM     91  C   UNL A   1      50.880  27.030  26.628  1.00  0.00     0.135 A 
ATOM     92  C   UNL A   1      49.937  27.354  24.440  1.00  0.00     0.135 A 
ATOM     93  F   UNL A   1      50.786  27.057  27.967  1.00  0.00    -0.206 F 
ATOM     94  C   UNL A   1      52.089  26.641  26.059  1.00  0.00     0.059 A 
ATOM     95  C   UNL A   1      51.129  26.942  23.849  1.00  0.00     0.059 A 
ATOM     96  F   UNL A   1      48.913  27.680  23.635  1.00  0.00    -0.206 F 
ATOM     97  C   UNL A   1      52.200  26.591  24.668  1.00  0.00     0.060 A 
BRANCH  97  98
ATOM     98  S   UNL A   1      53.756  26.022  23.948  1.00  0.00     0.124 S 
ATOM     99  O   UNL A   1      53.818  24.646  24.429  1.00  0.00    -0.237 OA
ATOM    100  O   UNL A   1      53.512  26.183  22.518  1.00  0.00    -0.237 OA
ATOM    101  O   UNL A   1      54.747  26.931  24.516  1.00  0.00    -0.744 OA
ENDBRANCH  97  98
ENDBRANCH  65  90
ENDBRANCH  39  40
ENDBRANCH  32  34
ENDBRANCH  31  32
ENDBRANCH  30  31
ENDBRANCH  29  30
ENDBRANCH  28  29
ENDBRANCH  27  28
ENDBRANCH   1  27
TORSDOF 24
ENDMDL
MODEL 3
REMARK VINA RESULT:     -10.1      6.341     10.886
REMARK SMILES Cc1cc(C)c2c(c1)C=C(C(=O)OCCOCCOCCOCCOC(=O)c1ccc(-c3c4nc(c(-c5c(F)cc(S(=O)(=O)[O-])cc5F)c5ccc([nH]5)c(-c5c(F)cc(S(=O)(=O)[O-])cc5F)c5nc(c(-c6c(F)cc(S(=O)(=O)[O-])cc6F)c6ccc3[nH]6)C=C5)C=C4)cc1)[C@@H](C(F)(F)F)O2
REMARK SMILES IDX 20 1 19 2 18 3 17 4 16 5 15 6 14 7 13 8 11 9 12 10 10 11
REMARK SMILES IDX 1 12 2 13 3 14 8 15 4 16 7 17 5 18 6 19 9 20 99 21 94 22
REMARK SMILES IDX 95 23 96 24 97 25 98 26 21 27 22 28 23 29 24 30 25 31 26 32
REMARK SMILES IDX 27 33 28 34 29 35 93 36 30 37 92 38 31 39 32 40 33 41 86 42
REMARK SMILES IDX 34 43 91 44 85 45 87 46 35 47 90 48 84 49 83 50 36 52 70 53
REMARK SMILES IDX 49 54 69 55 50 56 53 57 68 58 88 59 51 60 52 61 67 63 89 64
REMARK SMILES IDX 54 65 37 66 38 67 47 68 39 69 40 70 46 71 48 72 41 73 42 74
REMARK SMILES IDX 43 75 44 76 45 77 71 78 72 79 81 80 73 81 74 82 80 83 82 84
REMARK SMILES IDX 75 85 76 86 77 87 78 88 79 89 55 90 56 91 65 92 57 93 58 94
REMARK SMILES IDX 64 95 66 96 59 97 60 98 61 99 62 100 63 101
REMARK H PARENT 87 51 53 62
REMARK Flexibility Score: inf
ROOT
ATOM      1  C   UNL A   1      36.095  21.790  25.308  1.00  0.00     0.188 C 
ENDROOT
BRANCH   1   2
ATOM      2  O   UNL A   1      35.194  21.134  24.414  1.00  0.00    -0.377 OA
BRANCH   2   3
ATOM      3  C   UNL A   1      34.679  19.868  24.787  1.00  0.00     0.188 C 
BRANCH   3   4
ATOM      4  C   UNL A   1      33.160  19.735  24.580  1.00  0.00     0.188 C 
BRANCH   4   5
ATOM      5  O   UNL A   1      32.484  20.987  24.576  1.00  0.00    -0.376 OA
BRANCH   5   6
ATOM      6  C   UNL A   1      31.867  21.423  25.779  1.00  0.00     0.202 C 
BRANCH   6   7
ATOM      7  C   UNL A   1      32.720  22.135  26.840  1.00  0.00     0.261 C 
BRANCH   7   8
ATOM      8  O   UNL A   1      32.125  23.286  27.454  1.00  0.00    -0.460 OA
BRANCH   8   9
ATOM      9  C   UNL A   1      31.153  23.931  26.782  1.00  0.00     0.338 C 
ATOM     10  O   UNL A   1      29.958  23.694  26.815  1.00  0.00    -0.246 OA
BRANCH   9  11
ATOM     11  C   UNL A   1      31.767  25.108  26.126  1.00  0.00     0.087 C 
ATOM     12  C   UNL A   1      33.857  30.789  27.294  1.00  0.00     0.044 C 
ATOM     13  C   UNL A   1      33.562  29.572  26.469  1.00  0.00    -0.050 A 
ATOM     14  C   UNL A   1      33.697  29.614  25.076  1.00  0.00     0.010 A 
ATOM     15  C   UNL A   1      33.061  28.411  27.069  1.00  0.00     0.015 A 
ATOM     16  C   UNL A   1      33.373  28.499  24.287  1.00  0.00    -0.008 A 
ATOM     17  C   UNL A   1      32.714  27.299  26.292  1.00  0.00     0.018 A 
ATOM     18  C   UNL A   1      33.507  28.573  22.791  1.00  0.00     0.048 C 
ATOM     19  C   UNL A   1      32.907  27.330  24.909  1.00  0.00     0.130 A 
ATOM     20  C   UNL A   1      32.094  26.140  26.914  1.00  0.00     0.027 C 
ATOM     21  O   UNL A   1      32.643  26.267  24.094  1.00  0.00    -0.475 OA
ATOM     22  C   UNL A   1      32.065  25.055  24.650  1.00  0.00     0.316 C 
BRANCH  22  23
ATOM     23  C   UNL A   1      30.822  24.709  23.817  1.00  0.00     0.430 C 
ATOM     24  F   UNL A   1      29.755  25.451  24.195  1.00  0.00    -0.167 F 
ATOM     25  F   UNL A   1      31.012  24.936  22.497  1.00  0.00    -0.167 F 
ATOM     26  F   UNL A   1      30.480  23.406  23.956  1.00  0.00    -0.167 F 
ENDBRANCH  22  23
ENDBRANCH   9  11
ENDBRANCH   8   9
ENDBRANCH   7   8
ENDBRANCH   6   7
ENDBRANCH   5   6
ENDBRANCH   4   5
ENDBRANCH   3   4
ENDBRANCH   2   3
ENDBRANCH   1   2
BRANCH   1  27
ATOM     27  C   UNL A   1      37.487  22.300  24.860  1.00  0.00     0.188 C 
BRANCH  27  28
ATOM     28  O   UNL A   1      38.586  21.695  25.537  1.00  0.00    -0.376 OA
BRANCH  28  29
ATOM     29  C   UNL A   1      39.260  22.492  26.500  1.00  0.00     0.202 C 
BRANCH  29  30
ATOM     30  C   UNL A   1      40.749  22.714  26.204  1.00  0.00     0.261 C 
BRANCH  30  31
ATOM     31  O   UNL A   1      41.370  23.772  26.950  1.00  0.00    -0.460 OA
BRANCH  31  32
ATOM     32  C   UNL A   1      41.129  25.039  26.549  1.00  0.00     0.338 C 
ATOM     33  O   UNL A   1      40.844  25.415  25.426  1.00  0.00    -0.246 OA
BRANCH  32  34
ATOM     34  C   UNL A   1      41.073  25.880  27.761  1.00  0.00     0.060 A 
ATOM     35  C   UNL A   1      39.940  25.814  28.584  1.00  0.00     0.016 A 
ATOM     36  C   UNL A   1      42.146  26.711  28.094  1.00  0.00     0.016 A 
ATOM     37  C   UNL A   1      39.870  26.603  29.731  1.00  0.00     0.010 A 
ATOM     38  C   UNL A   1      42.062  27.519  29.229  1.00  0.00     0.010 A 
ATOM     39  C   UNL A   1      40.910  27.492  30.034  1.00  0.00    -0.014 A 
BRANCH  39  40
ATOM     40  C   UNL A   1      40.695  28.549  31.050  1.00  0.00     0.031 A 
ATOM     41  C   UNL A   1      41.580  28.542  32.266  1.00  0.00     0.074 A 
ATOM     42  C   UNL A   1      39.766  29.507  30.889  1.00  0.00     0.049 A 
ATOM     43  N   UNL A   1      41.586  29.349  33.292  1.00  0.00    -0.248 NA
ATOM     44  C   UNL A   1      42.601  27.481  32.328  1.00  0.00     0.031 C 
ATOM     45  C   UNL A   1      38.880  29.644  29.734  1.00  0.00     0.029 A 
ATOM     46  N   UNL A   1      39.416  30.554  31.707  1.00  0.00    -0.354 N 
ATOM     47  C   UNL A   1      42.615  28.905  34.114  1.00  0.00     0.074 A 
ATOM     48  C   UNL A   1      43.184  27.731  33.490  1.00  0.00     0.031 C 
ATOM     49  C   UNL A   1      38.086  30.714  29.919  1.00  0.00     0.029 A 
ATOM     50  C   UNL A   1      38.389  31.322  31.215  1.00  0.00     0.049 A 
ATOM     51  H   UNL A   1      39.861  30.736  32.566  1.00  0.00     0.167 HD
ATOM     52  C   UNL A   1      43.057  29.435  35.276  1.00  0.00     0.037 A 
ATOM     53  C   UNL A   1      37.761  32.386  31.757  1.00  0.00     0.037 A 
ATOM     54  C   UNL A   1      42.480  30.593  35.903  1.00  0.00     0.049 A 
ATOM     55  C   UNL A   1      38.202  32.895  33.107  1.00  0.00     0.074 A 
ATOM     56  C   UNL A   1      42.858  31.209  37.083  1.00  0.00     0.029 A 
ATOM     57  N   UNL A   1      41.398  31.303  35.407  1.00  0.00    -0.354 N 
ATOM     58  N   UNL A   1      39.190  32.480  33.865  1.00  0.00    -0.248 NA
ATOM     59  C   UNL A   1      37.438  34.014  33.681  1.00  0.00     0.031 C 
ATOM     60  C   UNL A   1      41.971  32.262  37.326  1.00  0.00     0.029 A 
ATOM     61  C   UNL A   1      41.072  32.333  36.273  1.00  0.00     0.049 A 
ATOM     62  H   UNL A   1      40.929  31.105  34.564  1.00  0.00     0.167 HD
ATOM     63  C   UNL A   1      39.177  33.294  34.993  1.00  0.00     0.074 A 
ATOM     64  C   UNL A   1      38.093  34.237  34.813  1.00  0.00     0.031 C 
ATOM     65  C   UNL A   1      39.987  33.263  36.080  1.00  0.00     0.037 A 
BRANCH  52  66
ATOM     66  C   UNL A   1      44.217  28.760  35.950  1.00  0.00     0.058 A 
ATOM     67  C   UNL A   1      45.537  29.191  35.741  1.00  0.00     0.135 A 
ATOM     68  C   UNL A   1      44.006  27.694  36.838  1.00  0.00     0.135 A 
ATOM     69  F   UNL A   1      45.794  30.191  34.882  1.00  0.00    -0.206 F 
ATOM     70  C   UNL A   1      46.609  28.578  36.378  1.00  0.00     0.059 A 
ATOM     71  C   UNL A   1      45.062  27.081  37.505  1.00  0.00     0.059 A 
ATOM     72  F   UNL A   1      42.764  27.237  37.064  1.00  0.00    -0.206 F 
ATOM     73  C   UNL A   1      46.362  27.525  37.261  1.00  0.00     0.060 A 
BRANCH  73  74
ATOM     74  S   UNL A   1      47.766  26.752  38.089  1.00  0.00     0.124 S 
ATOM     75  O   UNL A   1      48.062  27.729  39.133  1.00  0.00    -0.237 OA
ATOM     76  O   UNL A   1      47.198  25.488  38.548  1.00  0.00    -0.237 OA
ATOM     77  O   UNL A   1      48.767  26.641  37.034  1.00  0.00    -0.744 OA
ENDBRANCH  73  74
ENDBRANCH  52  66
BRANCH  53  78
ATOM     78  C   UNL A   1      36.643  33.045  31.028  1.00  0.00     0.058 A 
ATOM     79  C   UNL A   1      35.314  32.875  31.440  1.00  0.00     0.135 A 
ATOM     80  C   UNL A   1      36.880  33.854  29.905  1.00  0.00     0.135 A 
ATOM     81  F   UNL A   1      35.034  32.098  32.497  1.00  0.00    -0.206 F 
ATOM     82  C   UNL A   1      34.257  33.478  30.764  1.00  0.00     0.059 A 
ATOM     83  C   UNL A   1      35.842  34.488  29.226  1.00  0.00     0.059 A 
ATOM     84  F   UNL A   1      38.134  34.050  29.470  1.00  0.00    -0.206 F 
ATOM     85  C   UNL A   1      34.532  34.288  29.660  1.00  0.00     0.060 A 
BRANCH  85  86
ATOM     86  S   UNL A   1      33.156  35.108  28.826  1.00  0.00     0.124 S 
ATOM     87  O   UNL A   1      32.729  34.081  27.882  1.00  0.00    -0.237 OA
ATOM     88  O   UNL A   1      32.244  35.373  29.936  1.00  0.00    -0.237 OA
ATOM     89  O   UNL A   1      33.776  36.289  28.235  1.00  0.00    -0.744 OA
ENDBRANCH  85  86
ENDBRANCH  53  78
BRANCH  65  90
ATOM     90  C   UNL A   1      39.747  34.273  37.169  1.00  0.00     0.058 A 
ATOM     91  C   UNL A   1      39.020  33.943  38.322  1.00  0.00     0.135 A 
ATOM     92  C   UNL A   1      40.335  35.547  37.106  1.00  0.00     0.135 A 
ATOM     93  F   UNL A   1      38.433  32.741  38.431  1.00  0.00    -0.206 F 
ATOM     94  C   UNL A   1      38.880  34.842  39.375  1.00  0.00     0.059 A 
ATOM     95  C   UNL A   1      40.230  36.453  38.158  1.00  0.00     0.059 A 
ATOM     96  F   UNL A   1      41.051  35.909  36.030  1.00  0.00    -0.206 F 
ATOM     97  C   UNL A   1      39.498  36.092  39.287  1.00  0.00     0.060 A 
BRANCH  97  98
ATOM     98  S   UNL A   1      39.360  37.221  40.690  1.00  0.00     0.124 S 
ATOM     99  O   UNL A   1      40.742  37.657  40.856  1.00  0.00    -0.237 OA
ATOM    100  O   UNL A   1      38.432  38.229  40.186  1.00  0.00    -0.237 OA
ATOM    101  O   UNL A   1      38.836  36.375  41.759  1.00  0.00    -0.744 OA
ENDBRANCH  97  98
ENDBRANCH  65  90
ENDBRANCH  39  40
ENDBRANCH  32  34
ENDBRANCH  31  32
ENDBRANCH  30  31
ENDBRANCH  29  30
ENDBRANCH  28  29
ENDBRANCH  27  28
ENDBRANCH   1  27
TORSDOF 24
ENDMDL
