MODEL 1
REMARK VINA RESULT:      -9.7      0.000      0.000
REMARK SMILES Cc1cc([N+](=O)[O-])ccc1-c1ccc(/C=C/C(=O)Nc2ccc(O)c(C(=O)OCCOCCOCCOCCOC(=O)c3ccc(-c4c5nc(c(-c6c(F)cc(S(=O)(=O)[O-])cc6F)c6ccc([nH]6)c(-c6c(F)cc(S(=O)(=O)[O-])cc6F)c6nc(c(-c7c(F)cc(S(=O)(=O)[O-])cc7F)c7ccc4[nH]7)C=C6)C=C5)cc3)c2)o1
REMARK SMILES IDX 33 1 32 2 31 3 30 4 29 5 28 6 26 7 27 8 25 9 20 10 21 11
REMARK SMILES IDX 109 12 22 13 23 14 19 15 17 16 18 17 16 19 15 20 14 21 11 22
REMARK SMILES IDX 12 23 110 24 13 25 10 26 1 27 2 28 3 29 4 30 9 31 8 32 5 33
REMARK SMILES IDX 6 34 7 35 24 36 34 38 35 39 36 40 37 41 38 42 39 43 40 44
REMARK SMILES IDX 41 45 42 46 43 47 44 48 108 49 45 50 107 51 46 52 47 53
REMARK SMILES IDX 48 54 101 55 49 56 106 57 100 58 102 59 50 60 105 61 99 62
REMARK SMILES IDX 98 63 51 65 85 66 64 67 84 68 65 69 68 70 83 71 103 72 66 73
REMARK SMILES IDX 67 74 82 76 104 77 69 78 52 79 53 80 62 81 54 82 55 83 61 84
REMARK SMILES IDX 63 85 56 86 57 87 58 88 59 89 60 90 86 91 87 92 96 93 88 94
REMARK SMILES IDX 89 95 95 96 97 97 90 98 91 99 92 100 93 101 94 102 70 103
REMARK SMILES IDX 71 104 80 105 72 106 73 107 79 108 81 109 74 110 75 111
REMARK SMILES IDX 76 112 77 113 78 114
REMARK H PARENT 19 18 24 37 102 64 68 75
REMARK Flexibility Score: inf
ROOT
ATOM      1  C   UNL A   1      39.672  27.065  29.485  1.00  0.00     0.188 C 
ENDROOT
BRANCH   1   2
ATOM      2  C   UNL A   1      39.049  27.403  28.111  1.00  0.00     0.188 C 
BRANCH   2   3
ATOM      3  O   UNL A   1      38.670  26.346  27.237  1.00  0.00    -0.376 OA
BRANCH   3   4
ATOM      4  C   UNL A   1      39.201  25.050  27.502  1.00  0.00     0.202 C 
BRANCH   4   5
ATOM      5  C   UNL A   1      38.976  23.924  26.496  1.00  0.00     0.261 C 
BRANCH   5   6
ATOM      6  O   UNL A   1      37.615  23.847  26.061  1.00  0.00    -0.460 OA
BRANCH   6   7
ATOM      7  C   UNL A   1      37.277  22.703  25.448  1.00  0.00     0.342 C 
ATOM      8  O   UNL A   1      37.734  21.589  25.608  1.00  0.00    -0.246 OA
BRANCH   7   9
ATOM      9  C   UNL A   1      35.952  22.903  24.853  1.00  0.00     0.103 A 
ATOM     10  C   UNL A   1      33.610  22.957  25.394  1.00  0.00     0.042 A 
ATOM     11  C   UNL A   1      33.296  23.033  24.037  1.00  0.00     0.030 A 
ATOM     12  C   UNL A   1      34.930  22.942  25.804  1.00  0.00     0.045 A 
ATOM     13  C   UNL A   1      34.329  23.092  23.089  1.00  0.00     0.049 A 
ATOM     14  C   UNL A   1      35.664  23.027  23.498  1.00  0.00     0.130 A 
BRANCH  10  15
ATOM     15  N   UNL A   1      32.659  22.663  26.380  1.00  0.00    -0.322 N 
ATOM     16  C   UNL A   1      31.714  23.569  26.813  1.00  0.00     0.248 C 
ATOM     17  O   UNL A   1      30.744  23.205  27.472  1.00  0.00    -0.270 OA
ATOM     18  H   UNL A   1      32.667  21.766  26.784  1.00  0.00     0.170 HD
BRANCH  16  19
ATOM     19  C   UNL A   1      31.940  25.007  26.540  1.00  0.00     0.075 C 
ATOM     20  C   UNL A   1      30.938  25.839  26.215  1.00  0.00     0.053 C 
BRANCH  20  21
ATOM     21  C   UNL A   1      31.244  27.120  25.699  1.00  0.00     0.127 A 
ATOM     22  C   UNL A   1      31.932  29.216  25.676  1.00  0.00     0.135 A 
ATOM     23  C   UNL A   1      31.569  28.934  24.381  1.00  0.00     0.051 A 
ATOM     24  O   UNL A   1      31.804  28.115  26.454  1.00  0.00    -0.457 OA
ATOM     25  C   UNL A   1      31.090  27.602  24.404  1.00  0.00     0.051 A 
BRANCH  22  26
ATOM     26  C   UNL A   1      32.337  30.406  26.394  1.00  0.00     0.021 A 
ATOM     27  C   UNL A   1      34.608  29.375  26.998  1.00  0.00     0.045 C 
ATOM     28  C   UNL A   1      33.603  30.500  27.009  1.00  0.00    -0.033 A 
ATOM     29  C   UNL A   1      33.956  31.696  27.658  1.00  0.00     0.089 A 
ATOM     30  C   UNL A   1      33.076  32.786  27.658  1.00  0.00     0.269 A 
ATOM     31  C   UNL A   1      31.470  31.512  26.397  1.00  0.00     0.019 A 
ATOM     32  C   UNL A   1      31.832  32.702  27.025  1.00  0.00     0.086 A 
BRANCH  30  33
ATOM     33  N   UNL A   1      33.466  34.034  28.323  1.00  0.00     0.062 N 
ATOM     34  O   UNL A   1      32.574  34.710  28.858  1.00  0.00    -0.258 OA
ATOM     35  O   UNL A   1      34.666  34.349  28.306  1.00  0.00    -0.258 OA
ENDBRANCH  30  33
ENDBRANCH  22  26
ENDBRANCH  20  21
ENDBRANCH  16  19
ENDBRANCH  10  15
BRANCH  14  36
ATOM     36  O   UNL A   1      36.618  23.073  22.526  1.00  0.00    -0.507 OA
ATOM     37  H   UNL A   1      36.372  23.220  21.635  1.00  0.00     0.293 HD
ENDBRANCH  14  36
ENDBRANCH   7   9
ENDBRANCH   6   7
ENDBRANCH   5   6
ENDBRANCH   4   5
ENDBRANCH   3   4
ENDBRANCH   2   3
ENDBRANCH   1   2
BRANCH   1  38
ATOM     38  O   UNL A   1      41.066  27.313  29.535  1.00  0.00    -0.377 OA
BRANCH  38  39
ATOM     39  C   UNL A   1      41.633  28.134  28.512  1.00  0.00     0.188 C 
BRANCH  39  40
ATOM     40  C   UNL A   1      42.554  27.426  27.505  1.00  0.00     0.188 C 
BRANCH  40  41
ATOM     41  O   UNL A   1      41.987  27.413  26.198  1.00  0.00    -0.376 OA
BRANCH  41  42
ATOM     42  C   UNL A   1      42.224  26.236  25.430  1.00  0.00     0.202 C 
BRANCH  42  43
ATOM     43  C   UNL A   1      43.674  25.766  25.509  1.00  0.00     0.261 C 
BRANCH  43  44
ATOM     44  O   UNL A   1      43.703  24.404  25.964  1.00  0.00    -0.460 OA
BRANCH  44  45
ATOM     45  C   UNL A   1      44.947  23.978  26.320  1.00  0.00     0.338 C 
ATOM     46  O   UNL A   1      45.802  23.642  25.520  1.00  0.00    -0.246 OA
BRANCH  45  47
ATOM     47  C   UNL A   1      45.043  23.877  27.806  1.00  0.00     0.060 A 
ATOM     48  C   UNL A   1      43.997  23.309  28.544  1.00  0.00     0.016 A 
ATOM     49  C   UNL A   1      46.069  24.533  28.480  1.00  0.00     0.016 A 
ATOM     50  C   UNL A   1      43.918  23.503  29.938  1.00  0.00     0.010 A 
ATOM     51  C   UNL A   1      45.948  24.771  29.843  1.00  0.00     0.010 A 
ATOM     52  C   UNL A   1      44.860  24.299  30.601  1.00  0.00    -0.014 A 
BRANCH  52  53
ATOM     53  C   UNL A   1      44.711  24.872  31.971  1.00  0.00     0.031 A 
ATOM     54  C   UNL A   1      44.231  26.304  32.166  1.00  0.00     0.074 A 
ATOM     55  C   UNL A   1      44.631  24.042  33.053  1.00  0.00     0.049 A 
ATOM     56  N   UNL A   1      43.828  26.780  33.300  1.00  0.00    -0.248 NA
ATOM     57  C   UNL A   1      44.137  27.332  31.120  1.00  0.00     0.031 C 
ATOM     58  C   UNL A   1      43.762  24.278  34.216  1.00  0.00     0.029 A 
ATOM     59  N   UNL A   1      45.135  22.780  33.352  1.00  0.00    -0.354 N 
ATOM     60  C   UNL A   1      43.086  27.913  33.081  1.00  0.00     0.074 A 
ATOM     61  C   UNL A   1      43.417  28.289  31.729  1.00  0.00     0.031 C 
ATOM     62  C   UNL A   1      43.768  23.232  35.044  1.00  0.00     0.029 A 
ATOM     63  C   UNL A   1      44.944  22.486  34.717  1.00  0.00     0.049 A 
ATOM     64  H   UNL A   1      45.563  22.178  32.702  1.00  0.00     0.167 HD
ATOM     65  C   UNL A   1      42.201  28.330  34.037  1.00  0.00     0.037 A 
ATOM     66  C   UNL A   1      45.970  22.386  35.627  1.00  0.00     0.037 A 
ATOM     67  C   UNL A   1      42.335  27.603  35.311  1.00  0.00     0.049 A 
ATOM     68  C   UNL A   1      46.021  23.494  36.683  1.00  0.00     0.074 A 
ATOM     69  C   UNL A   1      41.479  26.973  36.196  1.00  0.00     0.029 A 
ATOM     70  N   UNL A   1      43.603  27.414  35.841  1.00  0.00    -0.354 N 
ATOM     71  N   UNL A   1      45.083  24.393  36.835  1.00  0.00    -0.248 NA
ATOM     72  C   UNL A   1      47.131  23.743  37.606  1.00  0.00     0.031 C 
ATOM     73  C   UNL A   1      42.255  26.404  37.255  1.00  0.00     0.029 A 
ATOM     74  C   UNL A   1      43.581  26.729  37.036  1.00  0.00     0.049 A 
ATOM     75  H   UNL A   1      44.429  27.735  35.411  1.00  0.00     0.167 HD
ATOM     76  C   UNL A   1      45.506  25.399  37.655  1.00  0.00     0.074 A 
ATOM     77  C   UNL A   1      46.770  24.913  38.174  1.00  0.00     0.031 C 
ATOM     78  C   UNL A   1      44.826  26.577  37.774  1.00  0.00     0.037 A 
BRANCH  65  79
ATOM     79  C   UNL A   1      41.109  29.372  33.840  1.00  0.00     0.058 A 
ATOM     80  C   UNL A   1      39.868  29.007  33.264  1.00  0.00     0.135 A 
ATOM     81  C   UNL A   1      41.253  30.753  34.095  1.00  0.00     0.135 A 
ATOM     82  F   UNL A   1      39.588  27.729  32.974  1.00  0.00    -0.206 F 
ATOM     83  C   UNL A   1      38.863  29.930  32.954  1.00  0.00     0.059 A 
ATOM     84  C   UNL A   1      40.236  31.687  33.848  1.00  0.00     0.059 A 
ATOM     85  F   UNL A   1      42.404  31.267  34.548  1.00  0.00    -0.206 F 
ATOM     86  C   UNL A   1      39.052  31.271  33.255  1.00  0.00     0.060 A 
BRANCH  86  87
ATOM     87  S   UNL A   1      37.742  32.454  32.877  1.00  0.00     0.124 S 
ATOM     88  O   UNL A   1      38.480  33.711  32.808  1.00  0.00    -0.237 OA
ATOM     89  O   UNL A   1      37.215  31.955  31.612  1.00  0.00    -0.237 OA
ATOM     90  O   UNL A   1      36.834  32.326  34.016  1.00  0.00    -0.744 OA
ENDBRANCH  86  87
ENDBRANCH  65  79
BRANCH  66  91
ATOM     91  C   UNL A   1      47.068  21.518  35.120  1.00  0.00     0.058 A 
ATOM     92  C   UNL A   1      48.234  22.233  34.775  1.00  0.00     0.135 A 
ATOM     93  C   UNL A   1      47.221  20.236  35.667  1.00  0.00     0.135 A 
ATOM     94  F   UNL A   1      48.130  23.444  34.201  1.00  0.00    -0.206 F 
ATOM     95  C   UNL A   1      49.475  21.845  35.255  1.00  0.00     0.059 A 
ATOM     96  C   UNL A   1      48.462  19.821  36.149  1.00  0.00     0.059 A 
ATOM     97  F   UNL A   1      46.141  19.498  35.964  1.00  0.00    -0.206 F 
ATOM     98  C   UNL A   1      49.552  20.688  36.031  1.00  0.00     0.060 A 
BRANCH  98  99
ATOM     99  S   UNL A   1      50.966  20.543  37.153  1.00  0.00     0.124 S 
ATOM    100  O   UNL A   1      50.667  19.310  37.869  1.00  0.00    -0.237 OA
ATOM    101  O   UNL A   1      52.071  20.478  36.197  1.00  0.00    -0.237 OA
ATOM    102  O   UNL A   1      50.897  21.771  37.936  1.00  0.00    -0.744 OA
ENDBRANCH  98  99
ENDBRANCH  66  91
BRANCH  78 103
ATOM    103  C   UNL A   1      45.313  27.754  38.567  1.00  0.00     0.058 A 
ATOM    104  C   UNL A   1      45.122  27.861  39.949  1.00  0.00     0.135 A 
ATOM    105  C   UNL A   1      45.881  28.876  37.920  1.00  0.00     0.135 A 
ATOM    106  F   UNL A   1      44.548  26.861  40.636  1.00  0.00    -0.206 F 
ATOM    107  C   UNL A   1      45.510  29.000  40.658  1.00  0.00     0.059 A 
ATOM    108  C   UNL A   1      46.230  30.039  38.597  1.00  0.00     0.059 A 
ATOM    109  F   UNL A   1      46.157  28.861  36.608  1.00  0.00    -0.206 F 
ATOM    110  C   UNL A   1      46.073  30.079  39.974  1.00  0.00     0.060 A 
BRANCH 110 111
ATOM    111  S   UNL A   1      46.634  31.526  40.890  1.00  0.00     0.124 S 
ATOM    112  O   UNL A   1      45.548  32.480  40.684  1.00  0.00    -0.237 OA
ATOM    113  O   UNL A   1      46.746  30.983  42.241  1.00  0.00    -0.237 OA
ATOM    114  O   UNL A   1      47.895  31.871  40.244  1.00  0.00    -0.744 OA
ENDBRANCH 110 111
ENDBRANCH  78 103
ENDBRANCH  52  53
ENDBRANCH  45  47
ENDBRANCH  44  45
ENDBRANCH  43  44
ENDBRANCH  42  43
ENDBRANCH  41  42
ENDBRANCH  40  41
ENDBRANCH  39  40
ENDBRANCH  38  39
ENDBRANCH   1  38
TORSDOF 29
ENDMDL
MODEL 2
REMARK VINA RESULT:      -9.0      2.498      5.368
REMARK SMILES Cc1cc([N+](=O)[O-])ccc1-c1ccc(/C=C/C(=O)Nc2ccc(O)c(C(=O)OCCOCCOCCOCCOC(=O)c3ccc(-c4c5nc(c(-c6c(F)cc(S(=O)(=O)[O-])cc6F)c6ccc([nH]6)c(-c6c(F)cc(S(=O)(=O)[O-])cc6F)c6nc(c(-c7c(F)cc(S(=O)(=O)[O-])cc7F)c7ccc4[nH]7)C=C6)C=C5)cc3)c2)o1
REMARK SMILES IDX 33 1 32 2 31 3 30 4 29 5 28 6 26 7 27 8 25 9 20 10 21 11
REMARK SMILES IDX 109 12 22 13 23 14 19 15 17 16 18 17 16 19 15 20 14 21 11 22
REMARK SMILES IDX 12 23 110 24 13 25 10 26 1 27 2 28 3 29 4 30 9 31 8 32 5 33
REMARK SMILES IDX 6 34 7 35 24 36 34 38 35 39 36 40 37 41 38 42 39 43 40 44
REMARK SMILES IDX 41 45 42 46 43 47 44 48 108 49 45 50 107 51 46 52 47 53
REMARK SMILES IDX 48 54 101 55 49 56 106 57 100 58 102 59 50 60 105 61 99 62
REMARK SMILES IDX 98 63 51 65 85 66 64 67 84 68 65 69 68 70 83 71 103 72 66 73
REMARK SMILES IDX 67 74 82 76 104 77 69 78 52 79 53 80 62 81 54 82 55 83 61 84
REMARK SMILES IDX 63 85 56 86 57 87 58 88 59 89 60 90 86 91 87 92 96 93 88 94
REMARK SMILES IDX 89 95 95 96 97 97 90 98 91 99 92 100 93 101 94 102 70 103
REMARK SMILES IDX 71 104 80 105 72 106 73 107 79 108 81 109 74 110 75 111
REMARK SMILES IDX 76 112 77 113 78 114
REMARK H PARENT 19 18 24 37 102 64 68 75
REMARK Flexibility Score: inf
ROOT
ATOM      1  C   UNL A   1      39.135  21.460  25.935  1.00  0.00     0.188 C 
ENDROOT
BRANCH   1   2
ATOM      2  C   UNL A   1      37.801  22.059  25.431  1.00  0.00     0.188 C 
BRANCH   2   3
ATOM      3  O   UNL A   1      37.492  23.418  25.722  1.00  0.00    -0.376 OA
BRANCH   3   4
ATOM      4  C   UNL A   1      36.328  23.676  26.503  1.00  0.00     0.202 C 
BRANCH   4   5
ATOM      5  C   UNL A   1      35.021  22.962  26.167  1.00  0.00     0.261 C 
BRANCH   5   6
ATOM      6  O   UNL A   1      33.885  23.821  26.289  1.00  0.00    -0.460 OA
BRANCH   6   7
ATOM      7  C   UNL A   1      32.867  23.322  27.006  1.00  0.00     0.342 C 
ATOM      8  O   UNL A   1      32.905  22.614  27.992  1.00  0.00    -0.246 OA
BRANCH   7   9
ATOM      9  C   UNL A   1      31.678  24.116  26.687  1.00  0.00     0.103 A 
ATOM     10  C   UNL A   1      30.984  26.190  25.685  1.00  0.00     0.042 A 
ATOM     11  C   UNL A   1      29.677  25.962  26.113  1.00  0.00     0.030 A 
ATOM     12  C   UNL A   1      31.970  25.251  25.926  1.00  0.00     0.045 A 
ATOM     13  C   UNL A   1      29.367  24.774  26.792  1.00  0.00     0.049 A 
ATOM     14  C   UNL A   1      30.371  23.846  27.081  1.00  0.00     0.130 A 
BRANCH  10  15
ATOM     15  N   UNL A   1      31.425  27.433  25.214  1.00  0.00    -0.322 N 
ATOM     16  C   UNL A   1      31.941  27.622  23.948  1.00  0.00     0.248 C 
ATOM     17  O   UNL A   1      32.067  28.750  23.479  1.00  0.00    -0.270 OA
ATOM     18  H   UNL A   1      31.364  28.210  25.815  1.00  0.00     0.170 HD
BRANCH  16  19
ATOM     19  C   UNL A   1      32.421  26.438  23.200  1.00  0.00     0.075 C 
ATOM     20  C   UNL A   1      31.585  25.492  22.745  1.00  0.00     0.053 C 
BRANCH  20  21
ATOM     21  C   UNL A   1      32.116  24.263  22.289  1.00  0.00     0.127 A 
ATOM     22  C   UNL A   1      32.568  22.104  22.260  1.00  0.00     0.135 A 
ATOM     23  C   UNL A   1      33.144  22.616  21.122  1.00  0.00     0.051 A 
ATOM     24  O   UNL A   1      31.894  23.072  22.927  1.00  0.00    -0.457 OA
ATOM     25  C   UNL A   1      32.888  24.007  21.161  1.00  0.00     0.051 A 
BRANCH  22  26
ATOM     26  C   UNL A   1      32.578  20.821  22.930  1.00  0.00     0.021 A 
ATOM     27  C   UNL A   1      31.951  19.588  20.769  1.00  0.00     0.045 C 
ATOM     28  C   UNL A   1      32.304  19.624  22.235  1.00  0.00    -0.033 A 
ATOM     29  C   UNL A   1      32.369  18.405  22.931  1.00  0.00     0.089 A 
ATOM     30  C   UNL A   1      32.736  18.380  24.282  1.00  0.00     0.269 A 
ATOM     31  C   UNL A   1      32.953  20.777  24.284  1.00  0.00     0.019 A 
ATOM     32  C   UNL A   1      33.034  19.564  24.965  1.00  0.00     0.086 A 
BRANCH  30  33
ATOM     33  N   UNL A   1      32.817  17.098  24.990  1.00  0.00     0.062 N 
ATOM     34  O   UNL A   1      32.727  17.111  26.227  1.00  0.00    -0.258 OA
ATOM     35  O   UNL A   1      32.980  16.072  24.312  1.00  0.00    -0.258 OA
ENDBRANCH  30  33
ENDBRANCH  22  26
ENDBRANCH  20  21
ENDBRANCH  16  19
ENDBRANCH  10  15
BRANCH  14  36
ATOM     36  O   UNL A   1      30.007  22.720  27.758  1.00  0.00    -0.507 OA
ATOM     37  H   UNL A   1      30.633  22.269  28.287  1.00  0.00     0.293 HD
ENDBRANCH  14  36
ENDBRANCH   7   9
ENDBRANCH   6   7
ENDBRANCH   5   6
ENDBRANCH   4   5
ENDBRANCH   3   4
ENDBRANCH   2   3
ENDBRANCH   1   2
BRANCH   1  38
ATOM     38  O   UNL A   1      39.757  22.259  26.927  1.00  0.00    -0.377 OA
BRANCH  38  39
ATOM     39  C   UNL A   1      40.927  22.990  26.556  1.00  0.00     0.188 C 
BRANCH  39  40
ATOM     40  C   UNL A   1      42.211  22.166  26.365  1.00  0.00     0.188 C 
BRANCH  40  41
ATOM     41  O   UNL A   1      42.702  22.264  25.032  1.00  0.00    -0.376 OA
BRANCH  41  42
ATOM     42  C   UNL A   1      43.279  23.517  24.673  1.00  0.00     0.202 C 
BRANCH  42  43
ATOM     43  C   UNL A   1      44.796  23.533  24.842  1.00  0.00     0.261 C 
BRANCH  43  44
ATOM     44  O   UNL A   1      45.141  24.442  25.900  1.00  0.00    -0.460 OA
BRANCH  44  45
ATOM     45  C   UNL A   1      45.574  23.817  27.031  1.00  0.00     0.338 C 
ATOM     46  O   UNL A   1      46.028  22.687  27.048  1.00  0.00    -0.246 OA
BRANCH  45  47
ATOM     47  C   UNL A   1      45.294  24.672  28.221  1.00  0.00     0.060 A 
ATOM     48  C   UNL A   1      46.333  25.365  28.854  1.00  0.00     0.016 A 
ATOM     49  C   UNL A   1      44.045  24.618  28.834  1.00  0.00     0.016 A 
ATOM     50  C   UNL A   1      46.155  25.897  30.148  1.00  0.00     0.010 A 
ATOM     51  C   UNL A   1      43.900  25.090  30.133  1.00  0.00     0.010 A 
ATOM     52  C   UNL A   1      44.952  25.706  30.837  1.00  0.00    -0.014 A 
BRANCH  52  53
ATOM     53  C   UNL A   1      44.745  25.893  32.303  1.00  0.00     0.031 A 
ATOM     54  C   UNL A   1      44.270  27.230  32.857  1.00  0.00     0.074 A 
ATOM     55  C   UNL A   1      44.606  24.804  33.117  1.00  0.00     0.049 A 
ATOM     56  N   UNL A   1      43.819  27.392  34.059  1.00  0.00    -0.248 NA
ATOM     57  C   UNL A   1      44.234  28.503  32.123  1.00  0.00     0.031 C 
ATOM     58  C   UNL A   1      43.685  24.738  34.262  1.00  0.00     0.029 A 
ATOM     59  N   UNL A   1      45.083  23.498  33.085  1.00  0.00    -0.354 N 
ATOM     60  C   UNL A   1      43.099  28.559  34.122  1.00  0.00     0.074 A 
ATOM     61  C   UNL A   1      43.496  29.277  32.937  1.00  0.00     0.031 C 
ATOM     62  C   UNL A   1      43.643  23.508  34.777  1.00  0.00     0.029 A 
ATOM     63  C   UNL A   1      44.826  22.852  34.311  1.00  0.00     0.049 A 
ATOM     64  H   UNL A   1      45.535  23.084  32.315  1.00  0.00     0.167 HD
ATOM     65  C   UNL A   1      42.174  28.722  35.116  1.00  0.00     0.037 A 
ATOM     66  C   UNL A   1      45.807  22.488  35.203  1.00  0.00     0.037 A 
ATOM     67  C   UNL A   1      42.242  27.677  36.152  1.00  0.00     0.049 A 
ATOM     68  C   UNL A   1      45.820  23.270  36.520  1.00  0.00     0.074 A 
ATOM     69  C   UNL A   1      41.339  26.851  36.797  1.00  0.00     0.029 A 
ATOM     70  N   UNL A   1      43.481  27.324  36.665  1.00  0.00    -0.354 N 
ATOM     71  N   UNL A   1      44.884  24.116  36.869  1.00  0.00    -0.248 NA
ATOM     72  C   UNL A   1      46.888  23.237  37.522  1.00  0.00     0.031 C 
ATOM     73  C   UNL A   1      42.059  26.001  37.695  1.00  0.00     0.029 A 
ATOM     74  C   UNL A   1      43.397  26.343  37.628  1.00  0.00     0.049 A 
ATOM     75  H   UNL A   1      44.330  27.730  36.373  1.00  0.00     0.167 HD
ATOM     76  C   UNL A   1      45.278  24.854  37.946  1.00  0.00     0.074 A 
ATOM     77  C   UNL A   1      46.512  24.219  38.369  1.00  0.00     0.031 C 
ATOM     78  C   UNL A   1      44.605  25.971  38.350  1.00  0.00     0.037 A 
BRANCH  65  79
ATOM     79  C   UNL A   1      41.103  29.803  35.162  1.00  0.00     0.058 A 
ATOM     80  C   UNL A   1      40.063  29.818  34.201  1.00  0.00     0.135 A 
ATOM     81  C   UNL A   1      41.099  30.901  36.048  1.00  0.00     0.135 A 
ATOM     82  F   UNL A   1      39.937  28.835  33.299  1.00  0.00    -0.206 F 
ATOM     83  C   UNL A   1      39.110  30.840  34.117  1.00  0.00     0.059 A 
ATOM     84  C   UNL A   1      40.120  31.905  36.019  1.00  0.00     0.059 A 
ATOM     85  F   UNL A   1      42.074  31.080  36.949  1.00  0.00    -0.206 F 
ATOM     86  C   UNL A   1      39.141  31.879  35.034  1.00  0.00     0.060 A 
BRANCH  86  87
ATOM     87  S   UNL A   1      37.893  33.181  34.937  1.00  0.00     0.124 S 
ATOM     88  O   UNL A   1      36.891  32.711  35.887  1.00  0.00    -0.237 OA
ATOM     89  O   UNL A   1      38.640  34.369  35.335  1.00  0.00    -0.237 OA
ATOM     90  O   UNL A   1      37.484  33.151  33.534  1.00  0.00    -0.744 OA
ENDBRANCH  86  87
ENDBRANCH  65  79
BRANCH  66  91
ATOM     91  C   UNL A   1      46.919  21.765  34.528  1.00  0.00     0.058 A 
ATOM     92  C   UNL A   1      48.110  22.516  34.447  1.00  0.00     0.135 A 
ATOM     93  C   UNL A   1      47.028  20.378  34.707  1.00  0.00     0.135 A 
ATOM     94  F   UNL A   1      48.051  23.841  34.225  1.00  0.00    -0.206 F 
ATOM     95  C   UNL A   1      49.320  21.979  34.858  1.00  0.00     0.059 A 
ATOM     96  C   UNL A   1      48.238  19.814  35.113  1.00  0.00     0.059 A 
ATOM     97  F   UNL A   1      45.925  19.616  34.738  1.00  0.00    -0.206 F 
ATOM     98  C   UNL A   1      49.342  20.652  35.288  1.00  0.00     0.060 A 
BRANCH  98  99
ATOM     99  S   UNL A   1      50.695  20.168  36.391  1.00  0.00     0.124 S 
ATOM    100  O   UNL A   1      50.032  20.111  37.687  1.00  0.00    -0.237 OA
ATOM    101  O   UNL A   1      51.078  18.882  35.809  1.00  0.00    -0.237 OA
ATOM    102  O   UNL A   1      51.668  21.240  36.215  1.00  0.00    -0.744 OA
ENDBRANCH  98  99
ENDBRANCH  66  91
BRANCH  78 103
ATOM    103  C   UNL A   1      45.066  26.881  39.451  1.00  0.00     0.058 A 
ATOM    104  C   UNL A   1      44.741  26.661  40.794  1.00  0.00     0.135 A 
ATOM    105  C   UNL A   1      45.750  28.083  39.157  1.00  0.00     0.135 A 
ATOM    106  F   UNL A   1      44.053  25.566  41.158  1.00  0.00    -0.206 F 
ATOM    107  C   UNL A   1      45.111  27.560  41.796  1.00  0.00     0.059 A 
ATOM    108  C   UNL A   1      46.084  29.017  40.130  1.00  0.00     0.059 A 
ATOM    109  F   UNL A   1      46.155  28.370  37.911  1.00  0.00    -0.206 F 
ATOM    110  C   UNL A   1      45.791  28.731  41.455  1.00  0.00     0.060 A 
BRANCH 110 111
ATOM    111  S   UNL A   1      46.326  29.866  42.748  1.00  0.00     0.124 S 
ATOM    112  O   UNL A   1      46.758  28.964  43.811  1.00  0.00    -0.237 OA
ATOM    113  O   UNL A   1      47.395  30.591  42.066  1.00  0.00    -0.237 OA
ATOM    114  O   UNL A   1      45.126  30.643  43.040  1.00  0.00    -0.744 OA
ENDBRANCH 110 111
ENDBRANCH  78 103
ENDBRANCH  52  53
ENDBRANCH  45  47
ENDBRANCH  44  45
ENDBRANCH  43  44
ENDBRANCH  42  43
ENDBRANCH  41  42
ENDBRANCH  40  41
ENDBRANCH  39  40
ENDBRANCH  38  39
ENDBRANCH   1  38
TORSDOF 29
ENDMDL
MODEL 3
REMARK VINA RESULT:      -8.3      7.440     12.617
REMARK SMILES Cc1cc([N+](=O)[O-])ccc1-c1ccc(/C=C/C(=O)Nc2ccc(O)c(C(=O)OCCOCCOCCOCCOC(=O)c3ccc(-c4c5nc(c(-c6c(F)cc(S(=O)(=O)[O-])cc6F)c6ccc([nH]6)c(-c6c(F)cc(S(=O)(=O)[O-])cc6F)c6nc(c(-c7c(F)cc(S(=O)(=O)[O-])cc7F)c7ccc4[nH]7)C=C6)C=C5)cc3)c2)o1
REMARK SMILES IDX 33 1 32 2 31 3 30 4 29 5 28 6 26 7 27 8 25 9 20 10 21 11
REMARK SMILES IDX 109 12 22 13 23 14 19 15 17 16 18 17 16 19 15 20 14 21 11 22
REMARK SMILES IDX 12 23 110 24 13 25 10 26 1 27 2 28 3 29 4 30 9 31 8 32 5 33
REMARK SMILES IDX 6 34 7 35 24 36 34 38 35 39 36 40 37 41 38 42 39 43 40 44
REMARK SMILES IDX 41 45 42 46 43 47 44 48 108 49 45 50 107 51 46 52 47 53
REMARK SMILES IDX 48 54 101 55 49 56 106 57 100 58 102 59 50 60 105 61 99 62
REMARK SMILES IDX 98 63 51 65 85 66 64 67 84 68 65 69 68 70 83 71 103 72 66 73
REMARK SMILES IDX 67 74 82 76 104 77 69 78 52 79 53 80 62 81 54 82 55 83 61 84
REMARK SMILES IDX 63 85 56 86 57 87 58 88 59 89 60 90 86 91 87 92 96 93 88 94
REMARK SMILES IDX 89 95 95 96 97 97 90 98 91 99 92 100 93 101 94 102 70 103
REMARK SMILES IDX 71 104 80 105 72 106 73 107 79 108 81 109 74 110 75 111
REMARK SMILES IDX 76 112 77 113 78 114
REMARK H PARENT 19 18 24 37 102 64 68 75
REMARK Flexibility Score: inf
ROOT
ATOM      1  C   UNL A   1      39.551  27.593  29.080  1.00  0.00     0.188 C 
ENDROOT
BRANCH   1   2
ATOM      2  C   UNL A   1      38.754  28.894  28.829  1.00  0.00     0.188 C 
BRANCH   2   3
ATOM      3  O   UNL A   1      37.587  28.851  28.015  1.00  0.00    -0.376 OA
BRANCH   3   4
ATOM      4  C   UNL A   1      36.759  30.011  27.988  1.00  0.00     0.202 C 
BRANCH   4   5
ATOM      5  C   UNL A   1      35.248  29.862  28.136  1.00  0.00     0.261 C 
BRANCH   5   6
ATOM      6  O   UNL A   1      34.599  29.624  26.883  1.00  0.00    -0.460 OA
BRANCH   6   7
ATOM      7  C   UNL A   1      33.266  29.765  26.895  1.00  0.00     0.342 C 
ATOM      8  O   UNL A   1      32.608  30.785  26.944  1.00  0.00    -0.246 OA
BRANCH   7   9
ATOM      9  C   UNL A   1      32.690  28.514  26.394  1.00  0.00     0.103 A 
ATOM     10  C   UNL A   1      32.534  27.144  24.424  1.00  0.00     0.042 A 
ATOM     11  C   UNL A   1      31.600  26.328  25.062  1.00  0.00     0.030 A 
ATOM     12  C   UNL A   1      33.114  28.200  25.101  1.00  0.00     0.045 A 
ATOM     13  C   UNL A   1      31.250  26.588  26.396  1.00  0.00     0.049 A 
ATOM     14  C   UNL A   1      31.797  27.686  27.066  1.00  0.00     0.130 A 
BRANCH  10  15
ATOM     15  N   UNL A   1      32.765  27.100  23.043  1.00  0.00    -0.322 N 
ATOM     16  C   UNL A   1      33.342  26.020  22.407  1.00  0.00     0.248 C 
ATOM     17  O   UNL A   1      33.288  25.903  21.186  1.00  0.00    -0.270 OA
ATOM     18  H   UNL A   1      32.502  27.877  22.500  1.00  0.00     0.170 HD
BRANCH  16  19
ATOM     19  C   UNL A   1      34.107  25.049  23.222  1.00  0.00     0.075 C 
ATOM     20  C   UNL A   1      34.039  23.726  23.008  1.00  0.00     0.053 C 
BRANCH  20  21
ATOM     21  C   UNL A   1      34.562  22.842  23.980  1.00  0.00     0.127 A 
ATOM     22  C   UNL A   1      36.067  21.722  25.142  1.00  0.00     0.135 A 
ATOM     23  C   UNL A   1      34.852  21.371  25.678  1.00  0.00     0.051 A 
ATOM     24  O   UNL A   1      35.905  22.653  24.171  1.00  0.00    -0.457 OA
ATOM     25  C   UNL A   1      33.884  22.057  24.907  1.00  0.00     0.051 A 
BRANCH  22  26
ATOM     26  C   UNL A   1      37.435  21.284  25.320  1.00  0.00     0.021 A 
ATOM     27  C   UNL A   1      38.132  23.557  26.282  1.00  0.00     0.045 C 
ATOM     28  C   UNL A   1      38.416  22.134  25.870  1.00  0.00    -0.033 A 
ATOM     29  C   UNL A   1      39.718  21.639  26.057  1.00  0.00     0.089 A 
ATOM     30  C   UNL A   1      40.022  20.310  25.733  1.00  0.00     0.269 A 
ATOM     31  C   UNL A   1      37.755  19.951  25.007  1.00  0.00     0.019 A 
ATOM     32  C   UNL A   1      39.043  19.459  25.211  1.00  0.00     0.086 A 
BRANCH  30  33
ATOM     33  N   UNL A   1      41.381  19.802  25.949  1.00  0.00     0.062 N 
ATOM     34  O   UNL A   1      41.514  18.600  26.227  1.00  0.00    -0.258 OA
ATOM     35  O   UNL A   1      42.321  20.605  25.851  1.00  0.00    -0.258 OA
ENDBRANCH  30  33
ENDBRANCH  22  26
ENDBRANCH  20  21
ENDBRANCH  16  19
ENDBRANCH  10  15
BRANCH  14  36
ATOM     36  O   UNL A   1      31.403  27.892  28.354  1.00  0.00    -0.507 OA
ATOM     37  H   UNL A   1      31.873  28.492  28.898  1.00  0.00     0.293 HD
ENDBRANCH  14  36
ENDBRANCH   7   9
ENDBRANCH   6   7
ENDBRANCH   5   6
ENDBRANCH   4   5
ENDBRANCH   3   4
ENDBRANCH   2   3
ENDBRANCH   1   2
BRANCH   1  38
ATOM     38  O   UNL A   1      40.920  27.830  29.358  1.00  0.00    -0.377 OA
BRANCH  38  39
ATOM     39  C   UNL A   1      41.275  28.193  30.694  1.00  0.00     0.188 C 
BRANCH  39  40
ATOM     40  C   UNL A   1      41.856  29.603  30.883  1.00  0.00     0.188 C 
BRANCH  40  41
ATOM     41  O   UNL A   1      40.848  30.540  31.252  1.00  0.00    -0.376 OA
BRANCH  41  42
ATOM     42  C   UNL A   1      41.301  31.861  31.535  1.00  0.00     0.202 C 
BRANCH  42  43
ATOM     43  C   UNL A   1      42.805  32.023  31.326  1.00  0.00     0.261 C 
BRANCH  43  44
ATOM     44  O   UNL A   1      43.290  33.065  32.188  1.00  0.00    -0.460 OA
BRANCH  44  45
ATOM     45  C   UNL A   1      43.571  34.225  31.530  1.00  0.00     0.338 C 
ATOM     46  O   UNL A   1      42.957  35.263  31.697  1.00  0.00    -0.246 OA
BRANCH  45  47
ATOM     47  C   UNL A   1      44.638  33.985  30.515  1.00  0.00     0.060 A 
ATOM     48  C   UNL A   1      44.310  33.869  29.159  1.00  0.00     0.016 A 
ATOM     49  C   UNL A   1      45.928  33.666  30.929  1.00  0.00     0.016 A 
ATOM     50  C   UNL A   1      45.232  33.321  28.243  1.00  0.00     0.010 A 
ATOM     51  C   UNL A   1      46.806  33.070  30.032  1.00  0.00     0.010 A 
ATOM     52  C   UNL A   1      46.475  32.848  28.682  1.00  0.00    -0.014 A 
BRANCH  52  53
ATOM     53  C   UNL A   1      47.385  31.945  27.918  1.00  0.00     0.031 A 
ATOM     54  C   UNL A   1      48.427  32.517  26.965  1.00  0.00     0.074 A 
ATOM     55  C   UNL A   1      47.565  30.654  28.326  1.00  0.00     0.049 A 
ATOM     56  N   UNL A   1      49.411  31.831  26.479  1.00  0.00    -0.248 NA
ATOM     57  C   UNL A   1      48.483  33.903  26.480  1.00  0.00     0.031 C 
ATOM     58  C   UNL A   1      48.850  29.939  28.270  1.00  0.00     0.029 A 
ATOM     59  N   UNL A   1      46.774  29.724  28.992  1.00  0.00    -0.354 N 
ATOM     60  C   UNL A   1      50.380  32.688  26.020  1.00  0.00     0.074 A 
ATOM     61  C   UNL A   1      49.703  33.957  25.920  1.00  0.00     0.031 C 
ATOM     62  C   UNL A   1      48.769  28.754  28.877  1.00  0.00     0.029 A 
ATOM     63  C   UNL A   1      47.374  28.449  28.948  1.00  0.00     0.049 A 
ATOM     64  H   UNL A   1      45.917  29.927  29.432  1.00  0.00     0.167 HD
ATOM     65  C   UNL A   1      51.664  32.237  25.885  1.00  0.00     0.037 A 
ATOM     66  C   UNL A   1      46.864  27.390  28.236  1.00  0.00     0.037 A 
ATOM     67  C   UNL A   1      51.788  30.777  26.044  1.00  0.00     0.049 A 
ATOM     68  C   UNL A   1      47.693  26.953  27.025  1.00  0.00     0.074 A 
ATOM     69  C   UNL A   1      52.604  29.916  26.754  1.00  0.00     0.029 A 
ATOM     70  N   UNL A   1      50.889  29.955  25.381  1.00  0.00    -0.354 N 
ATOM     71  N   UNL A   1      48.883  27.425  26.754  1.00  0.00    -0.248 NA
ATOM     72  C   UNL A   1      47.258  26.019  25.984  1.00  0.00     0.031 C 
ATOM     73  C   UNL A   1      52.175  28.574  26.509  1.00  0.00     0.029 A 
ATOM     74  C   UNL A   1      51.124  28.618  25.611  1.00  0.00     0.049 A 
ATOM     75  H   UNL A   1      50.160  30.290  24.809  1.00  0.00     0.167 HD
ATOM     76  C   UNL A   1      49.270  27.068  25.495  1.00  0.00     0.074 A 
ATOM     77  C   UNL A   1      48.251  26.123  25.076  1.00  0.00     0.031 C 
ATOM     78  C   UNL A   1      50.343  27.636  24.873  1.00  0.00     0.037 A 
BRANCH  65  79
ATOM     79  C   UNL A   1      52.894  33.110  25.676  1.00  0.00     0.058 A 
ATOM     80  C   UNL A   1      53.237  33.561  24.379  1.00  0.00     0.135 A 
ATOM     81  C   UNL A   1      53.826  33.448  26.681  1.00  0.00     0.135 A 
ATOM     82  F   UNL A   1      52.442  33.319  23.327  1.00  0.00    -0.206 F 
ATOM     83  C   UNL A   1      54.409  34.273  24.098  1.00  0.00     0.059 A 
ATOM     84  C   UNL A   1      54.976  34.212  26.432  1.00  0.00     0.059 A 
ATOM     85  F   UNL A   1      53.691  33.011  27.940  1.00  0.00    -0.206 F 
ATOM     86  C   UNL A   1      55.272  34.600  25.132  1.00  0.00     0.060 A 
BRANCH  86  87
ATOM     87  S   UNL A   1      56.770  35.542  24.768  1.00  0.00     0.124 S 
ATOM     88  O   UNL A   1      57.033  36.198  26.045  1.00  0.00    -0.237 OA
ATOM     89  O   UNL A   1      57.715  34.501  24.381  1.00  0.00    -0.237 OA
ATOM     90  O   UNL A   1      56.353  36.431  23.685  1.00  0.00    -0.744 OA
ENDBRANCH  86  87
ENDBRANCH  65  79
BRANCH  66  91
ATOM     91  C   UNL A   1      45.411  27.204  28.497  1.00  0.00     0.058 A 
ATOM     92  C   UNL A   1      44.593  27.573  27.408  1.00  0.00     0.135 A 
ATOM     93  C   UNL A   1      45.000  26.121  29.288  1.00  0.00     0.135 A 
ATOM     94  F   UNL A   1      44.924  28.636  26.655  1.00  0.00    -0.206 F 
ATOM     95  C   UNL A   1      43.615  26.715  26.929  1.00  0.00     0.059 A 
ATOM     96  C   UNL A   1      44.012  25.250  28.831  1.00  0.00     0.059 A 
ATOM     97  F   UNL A   1      45.718  25.766  30.365  1.00  0.00    -0.206 F 
ATOM     98  C   UNL A   1      43.411  25.507  27.596  1.00  0.00     0.060 A 
BRANCH  98  99
ATOM     99  S   UNL A   1      42.649  24.164  26.649  1.00  0.00     0.124 S 
ATOM    100  O   UNL A   1      42.473  23.133  27.663  1.00  0.00    -0.237 OA
ATOM    101  O   UNL A   1      41.428  24.816  26.179  1.00  0.00    -0.237 OA
ATOM    102  O   UNL A   1      43.638  23.883  25.614  1.00  0.00    -0.744 OA
ENDBRANCH  98  99
ENDBRANCH  66  91
BRANCH  78 103
ATOM    103  C   UNL A   1      50.734  27.363  23.450  1.00  0.00     0.058 A 
ATOM    104  C   UNL A   1      51.986  26.844  23.100  1.00  0.00     0.135 A 
ATOM    105  C   UNL A   1      49.889  27.744  22.382  1.00  0.00     0.135 A 
ATOM    106  F   UNL A   1      52.869  26.498  24.050  1.00  0.00    -0.206 F 
ATOM    107  C   UNL A   1      52.362  26.671  21.766  1.00  0.00     0.059 A 
ATOM    108  C   UNL A   1      50.261  27.628  21.048  1.00  0.00     0.059 A 
ATOM    109  F   UNL A   1      48.648  28.204  22.603  1.00  0.00    -0.206 F 
ATOM    110  C   UNL A   1      51.489  27.057  20.748  1.00  0.00     0.060 A 
BRANCH 110 111
ATOM    111  S   UNL A   1      51.942  26.781  19.026  1.00  0.00     0.124 S 
ATOM    112  O   UNL A   1      52.324  25.372  19.015  1.00  0.00    -0.237 OA
ATOM    113  O   UNL A   1      50.688  27.097  18.347  1.00  0.00    -0.237 OA
ATOM    114  O   UNL A   1      53.032  27.723  18.803  1.00  0.00    -0.744 OA
ENDBRANCH 110 111
ENDBRANCH  78 103
ENDBRANCH  52  53
ENDBRANCH  45  47
ENDBRANCH  44  45
ENDBRANCH  43  44
ENDBRANCH  42  43
ENDBRANCH  41  42
ENDBRANCH  40  41
ENDBRANCH  39  40
ENDBRANCH  38  39
ENDBRANCH   1  38
TORSDOF 29
ENDMDL
