MODEL 1
REMARK VINA RESULT:      -9.8      0.000      0.000
REMARK SMILES C[C@](Nc1ccc(C(N)=O)nn1)(C(=O)OCCOCCOCCOCCOC(=O)c1ccc(-c2c3nc(c(-c4c(F)cc(S(=O)(=O)[O-])cc4F)c4ccc([nH]4)c(-c4c(F)cc(S(=O)(=O)[O-])cc4F)c4nc(c(-c5c(F)cc(S(=O)(=O)[O-])cc5F)c5ccc2[nH]5)C=C4)C=C3)cc1)c1ccccc1
REMARK SMILES IDX 21 1 20 2 19 3 18 4 17 5 16 6 15 7 13 8 14 9 2 10 1 11 96 12
REMARK SMILES IDX 97 13 101 14 98 15 100 16 99 17 3 18 4 20 5 21 12 22 6 23
REMARK SMILES IDX 11 24 7 25 8 26 9 27 10 28 22 31 23 32 24 33 25 34 26 35
REMARK SMILES IDX 27 36 28 37 29 38 30 39 31 40 95 41 32 42 94 43 33 44 34 45
REMARK SMILES IDX 35 46 88 47 36 48 93 49 87 50 89 51 37 52 92 53 86 54 85 55
REMARK SMILES IDX 38 57 72 58 51 59 71 60 52 61 55 62 70 63 90 64 53 65 54 66
REMARK SMILES IDX 69 68 91 69 56 70 39 71 40 72 49 73 41 74 42 75 48 76 50 77
REMARK SMILES IDX 43 78 44 79 45 80 46 81 47 82 73 83 74 84 83 85 75 86 76 87
REMARK SMILES IDX 82 88 84 89 77 90 78 91 79 92 80 93 81 94 57 95 58 96 67 97
REMARK SMILES IDX 59 98 60 99 66 100 68 101 61 102 62 103 63 104 64 105 65 106
REMARK H PARENT 3 19 9 29 9 30 89 56 55 67
REMARK Flexibility Score: inf
ROOT
ATOM      1  O   UNL A   1      35.057  22.219  24.104  1.00  0.00    -0.377 OA
ENDROOT
BRANCH   1   2
ATOM      2  C   UNL A   1      33.690  22.364  23.787  1.00  0.00     0.188 C 
BRANCH   2   3
ATOM      3  C   UNL A   1      33.426  22.963  22.401  1.00  0.00     0.188 C 
BRANCH   3   4
ATOM      4  O   UNL A   1      33.902  24.263  22.141  1.00  0.00    -0.376 OA
BRANCH   4   5
ATOM      5  C   UNL A   1      33.003  25.272  21.703  1.00  0.00     0.202 C 
BRANCH   5   6
ATOM      6  C   UNL A   1      33.142  26.803  21.930  1.00  0.00     0.261 C 
BRANCH   6   7
ATOM      7  O   UNL A   1      31.981  27.659  21.986  1.00  0.00    -0.461 OA
BRANCH   7   8
ATOM      8  C   UNL A   1      32.022  28.680  22.889  1.00  0.00     0.336 C 
ATOM      9  O   UNL A   1      33.024  29.374  23.059  1.00  0.00    -0.249 OA
BRANCH   8  10
ATOM     10  C   UNL A   1      30.693  28.859  23.743  1.00  0.00     0.160 C 
ATOM     11  C   UNL A   1      31.297  29.271  25.101  1.00  0.00     0.053 C 
BRANCH  10  12
ATOM     12  C   UNL A   1      29.789  29.943  23.104  1.00  0.00    -0.012 A 
ATOM     13  C   UNL A   1      29.222  30.982  23.856  1.00  0.00     0.007 A 
ATOM     14  C   UNL A   1      29.430  29.895  21.742  1.00  0.00     0.007 A 
ATOM     15  C   UNL A   1      28.383  31.936  23.263  1.00  0.00     0.000 A 
ATOM     16  C   UNL A   1      28.603  30.846  21.141  1.00  0.00     0.000 A 
ATOM     17  C   UNL A   1      28.081  31.874  21.905  1.00  0.00     0.000 A 
ENDBRANCH  10  12
BRANCH  10  18
ATOM     18  N   UNL A   1      29.863  27.630  23.829  1.00  0.00    -0.350 N 
ATOM     19  H   UNL A   1      29.032  27.667  23.303  1.00  0.00     0.163 HD
BRANCH  18  20
ATOM     20  C   UNL A   1      30.047  26.459  24.508  1.00  0.00     0.149 A 
ATOM     21  C   UNL A   1      30.348  25.249  23.912  1.00  0.00     0.051 A 
ATOM     22  N   UNL A   1      29.990  26.528  25.858  1.00  0.00    -0.132 NA
ATOM     23  C   UNL A   1      30.524  24.106  24.694  1.00  0.00     0.040 A 
ATOM     24  N   UNL A   1      30.151  25.405  26.652  1.00  0.00    -0.143 NA
ATOM     25  C   UNL A   1      30.401  24.219  26.065  1.00  0.00     0.150 A 
BRANCH  25  26
ATOM     26  C   UNL A   1      30.561  23.023  26.937  1.00  0.00     0.269 C 
ATOM     27  N   UNL A   1      31.774  22.392  26.909  1.00  0.00    -0.364 N 
ATOM     28  O   UNL A   1      29.646  22.618  27.645  1.00  0.00    -0.268 OA
ATOM     29  H   UNL A   1      32.495  22.734  26.333  1.00  0.00     0.160 HD
ATOM     30  H   UNL A   1      31.927  21.594  27.467  1.00  0.00     0.160 HD
ENDBRANCH  25  26
ENDBRANCH  18  20
ENDBRANCH  10  18
ENDBRANCH   8  10
ENDBRANCH   7   8
ENDBRANCH   6   7
ENDBRANCH   5   6
ENDBRANCH   4   5
ENDBRANCH   3   4
ENDBRANCH   2   3
ENDBRANCH   1   2
BRANCH   1  31
ATOM     31  C   UNL A   1      35.623  23.216  24.950  1.00  0.00     0.188 C 
BRANCH  31  32
ATOM     32  C   UNL A   1      34.685  24.141  25.759  1.00  0.00     0.188 C 
BRANCH  32  33
ATOM     33  O   UNL A   1      34.486  25.430  25.189  1.00  0.00    -0.376 OA
BRANCH  33  34
ATOM     34  C   UNL A   1      33.592  26.340  25.812  1.00  0.00     0.202 C 
BRANCH  34  35
ATOM     35  C   UNL A   1      34.049  27.795  26.013  1.00  0.00     0.261 C 
BRANCH  35  36
ATOM     36  O   UNL A   1      34.113  28.266  27.366  1.00  0.00    -0.460 OA
BRANCH  36  37
ATOM     37  C   UNL A   1      34.414  29.564  27.568  1.00  0.00     0.338 C 
ATOM     38  O   UNL A   1      33.641  30.508  27.555  1.00  0.00    -0.246 OA
BRANCH  37  39
ATOM     39  C   UNL A   1      35.813  29.629  28.038  1.00  0.00     0.060 A 
ATOM     40  C   UNL A   1      36.819  29.958  27.118  1.00  0.00     0.016 A 
ATOM     41  C   UNL A   1      36.130  29.377  29.375  1.00  0.00     0.016 A 
ATOM     42  C   UNL A   1      38.152  29.972  27.518  1.00  0.00     0.010 A 
ATOM     43  C   UNL A   1      37.470  29.362  29.769  1.00  0.00     0.010 A 
ATOM     44  C   UNL A   1      38.485  29.604  28.826  1.00  0.00    -0.014 A 
BRANCH  44  45
ATOM     45  C   UNL A   1      39.875  29.179  29.110  1.00  0.00     0.031 A 
ATOM     46  C   UNL A   1      40.767  30.161  29.824  1.00  0.00     0.074 A 
ATOM     47  C   UNL A   1      40.320  27.949  28.802  1.00  0.00     0.049 A 
ATOM     48  N   UNL A   1      42.015  30.041  30.192  1.00  0.00    -0.248 NA
ATOM     49  C   UNL A   1      40.162  31.460  30.167  1.00  0.00     0.031 C 
ATOM     50  C   UNL A   1      39.532  26.899  28.162  1.00  0.00     0.029 A 
ATOM     51  N   UNL A   1      41.553  27.381  28.993  1.00  0.00    -0.354 N 
ATOM     52  C   UNL A   1      42.347  31.250  30.794  1.00  0.00     0.074 A 
ATOM     53  C   UNL A   1      41.183  32.102  30.711  1.00  0.00     0.031 C 
ATOM     54  C   UNL A   1      40.305  25.807  28.013  1.00  0.00     0.029 A 
ATOM     55  C   UNL A   1      41.647  26.095  28.519  1.00  0.00     0.049 A 
ATOM     56  H   UNL A   1      42.301  27.850  29.429  1.00  0.00     0.167 HD
ATOM     57  C   UNL A   1      43.515  31.615  31.371  1.00  0.00     0.037 A 
ATOM     58  C   UNL A   1      42.702  25.256  28.491  1.00  0.00     0.037 A 
ATOM     59  C   UNL A   1      44.669  30.760  31.445  1.00  0.00     0.049 A 
ATOM     60  C   UNL A   1      44.016  25.707  29.079  1.00  0.00     0.074 A 
ATOM     61  C   UNL A   1      45.899  31.023  32.019  1.00  0.00     0.029 A 
ATOM     62  N   UNL A   1      44.738  29.478  30.917  1.00  0.00    -0.354 N 
ATOM     63  N   UNL A   1      44.316  26.846  29.660  1.00  0.00    -0.248 NA
ATOM     64  C   UNL A   1      45.132  24.753  29.014  1.00  0.00     0.031 C 
ATOM     65  C   UNL A   1      46.732  29.924  31.783  1.00  0.00     0.029 A 
ATOM     66  C   UNL A   1      45.999  28.947  31.127  1.00  0.00     0.049 A 
ATOM     67  H   UNL A   1      43.999  29.016  30.460  1.00  0.00     0.167 HD
ATOM     68  C   UNL A   1      45.642  26.728  30.070  1.00  0.00     0.074 A 
ATOM     69  C   UNL A   1      46.082  25.407  29.669  1.00  0.00     0.031 C 
ATOM     70  C   UNL A   1      46.419  27.625  30.730  1.00  0.00     0.037 A 
BRANCH  57  71
ATOM     71  C   UNL A   1      43.608  33.016  31.914  1.00  0.00     0.058 A 
ATOM     72  C   UNL A   1      43.080  33.370  33.167  1.00  0.00     0.135 A 
ATOM     73  C   UNL A   1      44.228  34.025  31.158  1.00  0.00     0.135 A 
ATOM     74  F   UNL A   1      42.457  32.453  33.923  1.00  0.00    -0.206 F 
ATOM     75  C   UNL A   1      43.123  34.683  33.629  1.00  0.00     0.059 A 
ATOM     76  C   UNL A   1      44.312  35.336  31.616  1.00  0.00     0.059 A 
ATOM     77  F   UNL A   1      44.746  33.745  29.952  1.00  0.00    -0.206 F 
ATOM     78  C   UNL A   1      43.738  35.659  32.844  1.00  0.00     0.060 A 
BRANCH  78  79
ATOM     79  S   UNL A   1      43.768  37.360  33.446  1.00  0.00     0.124 S 
ATOM     80  O   UNL A   1      42.677  37.343  34.416  1.00  0.00    -0.237 OA
ATOM     81  O   UNL A   1      45.111  37.469  34.006  1.00  0.00    -0.237 OA
ATOM     82  O   UNL A   1      43.526  38.152  32.245  1.00  0.00    -0.744 OA
ENDBRANCH  78  79
ENDBRANCH  57  71
BRANCH  58  83
ATOM     83  C   UNL A   1      42.554  23.897  27.902  1.00  0.00     0.058 A 
ATOM     84  C   UNL A   1      42.565  23.706  26.512  1.00  0.00     0.135 A 
ATOM     85  C   UNL A   1      42.409  22.762  28.715  1.00  0.00     0.135 A 
ATOM     86  F   UNL A   1      42.687  24.760  25.691  1.00  0.00    -0.206 F 
ATOM     87  C   UNL A   1      42.432  22.441  25.949  1.00  0.00     0.059 A 
ATOM     88  C   UNL A   1      42.301  21.484  28.176  1.00  0.00     0.059 A 
ATOM     89  F   UNL A   1      42.397  22.889  30.051  1.00  0.00    -0.206 F 
ATOM     90  C   UNL A   1      42.308  21.334  26.790  1.00  0.00     0.060 A 
BRANCH  90  91
ATOM     91  S   UNL A   1      42.204  19.692  26.046  1.00  0.00     0.124 S 
ATOM     92  O   UNL A   1      43.110  19.823  24.912  1.00  0.00    -0.237 OA
ATOM     93  O   UNL A   1      42.664  18.836  27.136  1.00  0.00    -0.237 OA
ATOM     94  O   UNL A   1      40.789  19.562  25.712  1.00  0.00    -0.744 OA
ENDBRANCH  90  91
ENDBRANCH  58  83
BRANCH  70  95
ATOM     95  C   UNL A   1      47.807  27.190  31.121  1.00  0.00     0.058 A 
ATOM     96  C   UNL A   1      48.912  27.361  30.273  1.00  0.00     0.135 A 
ATOM     97  C   UNL A   1      48.037  26.633  32.390  1.00  0.00     0.135 A 
ATOM     98  F   UNL A   1      48.751  27.888  29.049  1.00  0.00    -0.206 F 
ATOM     99  C   UNL A   1      50.190  26.960  30.655  1.00  0.00     0.059 A 
ATOM    100  C   UNL A   1      49.311  26.257  32.806  1.00  0.00     0.059 A 
ATOM    101  F   UNL A   1      47.019  26.461  33.248  1.00  0.00    -0.206 F 
ATOM    102  C   UNL A   1      50.379  26.409  31.924  1.00  0.00     0.060 A 
BRANCH 102 103
ATOM    103  S   UNL A   1      52.041  25.906  32.413  1.00  0.00     0.124 S 
ATOM    104  O   UNL A   1      52.633  27.183  32.798  1.00  0.00    -0.237 OA
ATOM    105  O   UNL A   1      51.778  24.974  33.505  1.00  0.00    -0.237 OA
ATOM    106  O   UNL A   1      52.586  25.304  31.199  1.00  0.00    -0.744 OA
ENDBRANCH 102 103
ENDBRANCH  70  95
ENDBRANCH  44  45
ENDBRANCH  37  39
ENDBRANCH  36  37
ENDBRANCH  35  36
ENDBRANCH  34  35
ENDBRANCH  33  34
ENDBRANCH  32  33
ENDBRANCH  31  32
ENDBRANCH   1  31
TORSDOF 27
ENDMDL
MODEL 2
REMARK VINA RESULT:      -9.5      4.338      9.283
REMARK SMILES C[C@](Nc1ccc(C(N)=O)nn1)(C(=O)OCCOCCOCCOCCOC(=O)c1ccc(-c2c3nc(c(-c4c(F)cc(S(=O)(=O)[O-])cc4F)c4ccc([nH]4)c(-c4c(F)cc(S(=O)(=O)[O-])cc4F)c4nc(c(-c5c(F)cc(S(=O)(=O)[O-])cc5F)c5ccc2[nH]5)C=C4)C=C3)cc1)c1ccccc1
REMARK SMILES IDX 21 1 20 2 19 3 18 4 17 5 16 6 15 7 13 8 14 9 2 10 1 11 96 12
REMARK SMILES IDX 97 13 101 14 98 15 100 16 99 17 3 18 4 20 5 21 12 22 6 23
REMARK SMILES IDX 11 24 7 25 8 26 9 27 10 28 22 31 23 32 24 33 25 34 26 35
REMARK SMILES IDX 27 36 28 37 29 38 30 39 31 40 95 41 32 42 94 43 33 44 34 45
REMARK SMILES IDX 35 46 88 47 36 48 93 49 87 50 89 51 37 52 92 53 86 54 85 55
REMARK SMILES IDX 38 57 72 58 51 59 71 60 52 61 55 62 70 63 90 64 53 65 54 66
REMARK SMILES IDX 69 68 91 69 56 70 39 71 40 72 49 73 41 74 42 75 48 76 50 77
REMARK SMILES IDX 43 78 44 79 45 80 46 81 47 82 73 83 74 84 83 85 75 86 76 87
REMARK SMILES IDX 82 88 84 89 77 90 78 91 79 92 80 93 81 94 57 95 58 96 67 97
REMARK SMILES IDX 59 98 60 99 66 100 68 101 61 102 62 103 63 104 64 105 65 106
REMARK H PARENT 3 19 9 29 9 30 89 56 55 67
REMARK Flexibility Score: inf
ROOT
ATOM      1  O   UNL A   1      36.012  21.369  24.631  1.00  0.00    -0.377 OA
ENDROOT
BRANCH   1   2
ATOM      2  C   UNL A   1      34.906  21.137  25.475  1.00  0.00     0.188 C 
BRANCH   2   3
ATOM      3  C   UNL A   1      34.807  22.102  26.662  1.00  0.00     0.188 C 
BRANCH   3   4
ATOM      4  O   UNL A   1      33.789  23.074  26.641  1.00  0.00    -0.376 OA
BRANCH   4   5
ATOM      5  C   UNL A   1      32.478  22.738  27.072  1.00  0.00     0.202 C 
BRANCH   5   6
ATOM      6  C   UNL A   1      31.191  23.586  26.884  1.00  0.00     0.261 C 
BRANCH   6   7
ATOM      7  O   UNL A   1      31.255  25.021  26.742  1.00  0.00    -0.461 OA
BRANCH   7   8
ATOM      8  C   UNL A   1      30.397  25.582  25.841  1.00  0.00     0.336 C 
ATOM      9  O   UNL A   1      29.176  25.552  25.985  1.00  0.00    -0.249 OA
BRANCH   8  10
ATOM     10  C   UNL A   1      31.102  26.219  24.567  1.00  0.00     0.160 C 
ATOM     11  C   UNL A   1      31.880  27.371  25.236  1.00  0.00     0.053 C 
BRANCH  10  12
ATOM     12  C   UNL A   1      32.007  25.169  23.875  1.00  0.00    -0.012 A 
ATOM     13  C   UNL A   1      31.499  23.970  23.356  1.00  0.00     0.007 A 
ATOM     14  C   UNL A   1      33.405  25.336  23.799  1.00  0.00     0.007 A 
ATOM     15  C   UNL A   1      32.340  23.020  22.759  1.00  0.00     0.000 A 
ATOM     16  C   UNL A   1      34.250  24.400  23.199  1.00  0.00     0.000 A 
ATOM     17  C   UNL A   1      33.714  23.238  22.672  1.00  0.00     0.000 A 
ENDBRANCH  10  12
BRANCH  10  18
ATOM     18  N   UNL A   1      30.152  26.691  23.527  1.00  0.00    -0.350 N 
ATOM     19  H   UNL A   1      29.643  25.971  23.089  1.00  0.00     0.163 HD
BRANCH  18  20
ATOM     20  C   UNL A   1      29.860  27.944  23.068  1.00  0.00     0.149 A 
ATOM     21  C   UNL A   1      30.654  28.663  22.196  1.00  0.00     0.051 A 
ATOM     22  N   UNL A   1      28.674  28.468  23.457  1.00  0.00    -0.132 NA
ATOM     23  C   UNL A   1      30.265  29.936  21.778  1.00  0.00     0.040 A 
ATOM     24  N   UNL A   1      28.273  29.733  23.064  1.00  0.00    -0.143 NA
ATOM     25  C   UNL A   1      29.072  30.448  22.248  1.00  0.00     0.150 A 
BRANCH  25  26
ATOM     26  C   UNL A   1      28.626  31.810  21.845  1.00  0.00     0.269 C 
ATOM     27  N   UNL A   1      28.936  32.841  22.690  1.00  0.00    -0.364 N 
ATOM     28  O   UNL A   1      28.004  32.001  20.806  1.00  0.00    -0.268 OA
ATOM     29  H   UNL A   1      29.435  32.665  23.519  1.00  0.00     0.160 HD
ATOM     30  H   UNL A   1      28.659  33.760  22.468  1.00  0.00     0.160 HD
ENDBRANCH  25  26
ENDBRANCH  18  20
ENDBRANCH  10  18
ENDBRANCH   8  10
ENDBRANCH   7   8
ENDBRANCH   6   7
ENDBRANCH   5   6
ENDBRANCH   4   5
ENDBRANCH   3   4
ENDBRANCH   2   3
ENDBRANCH   1   2
BRANCH   1  31
ATOM     31  C   UNL A   1      37.135  22.020  25.217  1.00  0.00     0.188 C 
BRANCH  31  32
ATOM     32  C   UNL A   1      38.459  21.238  25.380  1.00  0.00     0.188 C 
BRANCH  32  33
ATOM     33  O   UNL A   1      39.224  21.598  26.526  1.00  0.00    -0.376 OA
BRANCH  33  34
ATOM     34  C   UNL A   1      40.634  21.431  26.507  1.00  0.00     0.202 C 
BRANCH  34  35
ATOM     35  C   UNL A   1      41.521  22.663  26.749  1.00  0.00     0.261 C 
BRANCH  35  36
ATOM     36  O   UNL A   1      40.951  23.938  26.427  1.00  0.00    -0.460 OA
BRANCH  36  37
ATOM     37  C   UNL A   1      41.783  24.994  26.324  1.00  0.00     0.338 C 
ATOM     38  O   UNL A   1      42.633  25.178  25.468  1.00  0.00    -0.246 OA
BRANCH  37  39
ATOM     39  C   UNL A   1      41.337  26.010  27.298  1.00  0.00     0.060 A 
ATOM     40  C   UNL A   1      41.941  27.275  27.278  1.00  0.00     0.016 A 
ATOM     41  C   UNL A   1      40.326  25.722  28.218  1.00  0.00     0.016 A 
ATOM     42  C   UNL A   1      41.582  28.235  28.219  1.00  0.00     0.010 A 
ATOM     43  C   UNL A   1      39.986  26.674  29.182  1.00  0.00     0.010 A 
ATOM     44  C   UNL A   1      40.655  27.911  29.217  1.00  0.00    -0.014 A 
BRANCH  44  45
ATOM     45  C   UNL A   1      40.624  28.734  30.448  1.00  0.00     0.031 A 
ATOM     46  C   UNL A   1      39.581  29.819  30.529  1.00  0.00     0.074 A 
ATOM     47  C   UNL A   1      41.446  28.498  31.484  1.00  0.00     0.049 A 
ATOM     48  N   UNL A   1      39.338  30.673  31.486  1.00  0.00    -0.248 NA
ATOM     49  C   UNL A   1      38.693  29.956  29.361  1.00  0.00     0.031 C 
ATOM     50  C   UNL A   1      42.454  27.442  31.541  1.00  0.00     0.029 A 
ATOM     51  N   UNL A   1      41.555  29.138  32.691  1.00  0.00    -0.354 N 
ATOM     52  C   UNL A   1      38.282  31.456  31.031  1.00  0.00     0.074 A 
ATOM     53  C   UNL A   1      37.954  31.000  29.701  1.00  0.00     0.031 C 
ATOM     54  C   UNL A   1      43.083  27.508  32.729  1.00  0.00     0.029 A 
ATOM     55  C   UNL A   1      42.542  28.627  33.499  1.00  0.00     0.049 A 
ATOM     56  H   UNL A   1      40.982  29.894  32.954  1.00  0.00     0.167 HD
ATOM     57  C   UNL A   1      37.637  32.461  31.670  1.00  0.00     0.037 A 
ATOM     58  C   UNL A   1      42.961  29.029  34.716  1.00  0.00     0.037 A 
ATOM     59  C   UNL A   1      37.974  32.909  32.994  1.00  0.00     0.049 A 
ATOM     60  C   UNL A   1      42.273  30.194  35.383  1.00  0.00     0.074 A 
ATOM     61  C   UNL A   1      37.379  33.909  33.741  1.00  0.00     0.029 A 
ATOM     62  N   UNL A   1      39.007  32.393  33.765  1.00  0.00    -0.354 N 
ATOM     63  N   UNL A   1      41.266  30.919  34.952  1.00  0.00    -0.248 NA
ATOM     64  C   UNL A   1      42.777  30.592  36.705  1.00  0.00     0.031 C 
ATOM     65  C   UNL A   1      38.091  34.039  34.938  1.00  0.00     0.029 A 
ATOM     66  C   UNL A   1      39.083  33.072  34.969  1.00  0.00     0.049 A 
ATOM     67  H   UNL A   1      39.597  31.653  33.494  1.00  0.00     0.167 HD
ATOM     68  C   UNL A   1      40.986  31.827  35.970  1.00  0.00     0.074 A 
ATOM     69  C   UNL A   1      41.931  31.560  37.034  1.00  0.00     0.031 C 
ATOM     70  C   UNL A   1      40.026  32.785  36.024  1.00  0.00     0.037 A 
BRANCH  57  71
ATOM     71  C   UNL A   1      36.545  33.169  30.914  1.00  0.00     0.058 A 
ATOM     72  C   UNL A   1      36.817  34.174  29.971  1.00  0.00     0.135 A 
ATOM     73  C   UNL A   1      35.199  32.843  31.150  1.00  0.00     0.135 A 
ATOM     74  F   UNL A   1      38.083  34.543  29.721  1.00  0.00    -0.206 F 
ATOM     75  C   UNL A   1      35.793  34.860  29.323  1.00  0.00     0.059 A 
ATOM     76  C   UNL A   1      34.161  33.491  30.488  1.00  0.00     0.059 A 
ATOM     77  F   UNL A   1      34.880  31.894  32.044  1.00  0.00    -0.206 F 
ATOM     78  C   UNL A   1      34.468  34.513  29.592  1.00  0.00     0.060 A 
BRANCH  78  79
ATOM     79  S   UNL A   1      33.151  35.425  28.761  1.00  0.00     0.124 S 
ATOM     80  O   UNL A   1      32.429  34.346  28.092  1.00  0.00    -0.237 OA
ATOM     81  O   UNL A   1      32.455  36.055  29.879  1.00  0.00    -0.237 OA
ATOM     82  O   UNL A   1      33.871  36.337  27.879  1.00  0.00    -0.744 OA
ENDBRANCH  78  79
ENDBRANCH  57  71
BRANCH  58  83
ATOM     83  C   UNL A   1      44.075  28.310  35.392  1.00  0.00     0.058 A 
ATOM     84  C   UNL A   1      45.392  28.788  35.322  1.00  0.00     0.135 A 
ATOM     85  C   UNL A   1      43.845  27.137  36.129  1.00  0.00     0.135 A 
ATOM     86  F   UNL A   1      45.667  29.898  34.619  1.00  0.00    -0.206 F 
ATOM     87  C   UNL A   1      46.442  28.128  35.952  1.00  0.00     0.059 A 
ATOM     88  C   UNL A   1      44.875  26.474  36.790  1.00  0.00     0.059 A 
ATOM     89  F   UNL A   1      42.603  26.640  36.232  1.00  0.00    -0.206 F 
ATOM     90  C   UNL A   1      46.172  26.976  36.691  1.00  0.00     0.060 A 
BRANCH  90  91
ATOM     91  S   UNL A   1      47.534  26.168  37.560  1.00  0.00     0.124 S 
ATOM     92  O   UNL A   1      47.916  27.191  38.526  1.00  0.00    -0.237 OA
ATOM     93  O   UNL A   1      46.883  24.982  38.109  1.00  0.00    -0.237 OA
ATOM     94  O   UNL A   1      48.503  25.908  36.500  1.00  0.00    -0.744 OA
ENDBRANCH  90  91
ENDBRANCH  58  83
BRANCH  70  95
ATOM     95  C   UNL A   1      39.901  33.577  37.299  1.00  0.00     0.058 A 
ATOM     96  C   UNL A   1      39.046  33.188  38.342  1.00  0.00     0.135 A 
ATOM     97  C   UNL A   1      40.690  34.723  37.494  1.00  0.00     0.135 A 
ATOM     98  F   UNL A   1      38.268  32.101  38.210  1.00  0.00    -0.206 F 
ATOM     99  C   UNL A   1      38.950  33.929  39.517  1.00  0.00     0.059 A 
ATOM    100  C   UNL A   1      40.636  35.458  38.674  1.00  0.00     0.059 A 
ATOM    101  F   UNL A   1      41.538  35.132  36.537  1.00  0.00    -0.206 F 
ATOM    102  C   UNL A   1      39.750  35.063  39.674  1.00  0.00     0.060 A 
BRANCH 102 103
ATOM    103  S   UNL A   1      39.626  36.006  41.207  1.00  0.00     0.124 S 
ATOM    104  O   UNL A   1      41.032  36.217  41.536  1.00  0.00    -0.237 OA
ATOM    105  O   UNL A   1      38.888  37.192  40.786  1.00  0.00    -0.237 OA
ATOM    106  O   UNL A   1      38.902  35.108  42.103  1.00  0.00    -0.744 OA
ENDBRANCH 102 103
ENDBRANCH  70  95
ENDBRANCH  44  45
ENDBRANCH  37  39
ENDBRANCH  36  37
ENDBRANCH  35  36
ENDBRANCH  34  35
ENDBRANCH  33  34
ENDBRANCH  32  33
ENDBRANCH  31  32
ENDBRANCH   1  31
TORSDOF 27
ENDMDL
MODEL 3
REMARK VINA RESULT:      -9.0      3.702      7.615
REMARK SMILES C[C@](Nc1ccc(C(N)=O)nn1)(C(=O)OCCOCCOCCOCCOC(=O)c1ccc(-c2c3nc(c(-c4c(F)cc(S(=O)(=O)[O-])cc4F)c4ccc([nH]4)c(-c4c(F)cc(S(=O)(=O)[O-])cc4F)c4nc(c(-c5c(F)cc(S(=O)(=O)[O-])cc5F)c5ccc2[nH]5)C=C4)C=C3)cc1)c1ccccc1
REMARK SMILES IDX 21 1 20 2 19 3 18 4 17 5 16 6 15 7 13 8 14 9 2 10 1 11 96 12
REMARK SMILES IDX 97 13 101 14 98 15 100 16 99 17 3 18 4 20 5 21 12 22 6 23
REMARK SMILES IDX 11 24 7 25 8 26 9 27 10 28 22 31 23 32 24 33 25 34 26 35
REMARK SMILES IDX 27 36 28 37 29 38 30 39 31 40 95 41 32 42 94 43 33 44 34 45
REMARK SMILES IDX 35 46 88 47 36 48 93 49 87 50 89 51 37 52 92 53 86 54 85 55
REMARK SMILES IDX 38 57 72 58 51 59 71 60 52 61 55 62 70 63 90 64 53 65 54 66
REMARK SMILES IDX 69 68 91 69 56 70 39 71 40 72 49 73 41 74 42 75 48 76 50 77
REMARK SMILES IDX 43 78 44 79 45 80 46 81 47 82 73 83 74 84 83 85 75 86 76 87
REMARK SMILES IDX 82 88 84 89 77 90 78 91 79 92 80 93 81 94 57 95 58 96 67 97
REMARK SMILES IDX 59 98 60 99 66 100 68 101 61 102 62 103 63 104 64 105 65 106
REMARK H PARENT 3 19 9 29 9 30 89 56 55 67
REMARK Flexibility Score: inf
ROOT
ATOM      1  O   UNL A   1      33.284  20.534  25.925  1.00  0.00    -0.377 OA
ENDROOT
BRANCH   1   2
ATOM      2  C   UNL A   1      32.758  21.839  26.021  1.00  0.00     0.188 C 
BRANCH   2   3
ATOM      3  C   UNL A   1      31.377  22.009  25.376  1.00  0.00     0.188 C 
BRANCH   3   4
ATOM      4  O   UNL A   1      30.364  22.626  26.136  1.00  0.00    -0.376 OA
BRANCH   4   5
ATOM      5  C   UNL A   1      30.502  23.982  26.535  1.00  0.00     0.202 C 
BRANCH   5   6
ATOM      6  C   UNL A   1      29.850  25.220  25.861  1.00  0.00     0.261 C 
BRANCH   6   7
ATOM      7  O   UNL A   1      30.184  26.561  26.277  1.00  0.00    -0.461 OA
BRANCH   7   8
ATOM      8  C   UNL A   1      31.422  27.014  25.926  1.00  0.00     0.336 C 
ATOM      9  O   UNL A   1      32.367  27.034  26.713  1.00  0.00    -0.249 OA
BRANCH   8  10
ATOM     10  C   UNL A   1      31.525  27.568  24.440  1.00  0.00     0.160 C 
ATOM     11  C   UNL A   1      32.381  28.829  24.678  1.00  0.00     0.053 C 
BRANCH  10  12
ATOM     12  C   UNL A   1      32.199  26.517  23.522  1.00  0.00    -0.012 A 
ATOM     13  C   UNL A   1      31.659  26.150  22.282  1.00  0.00     0.007 A 
ATOM     14  C   UNL A   1      33.357  25.820  23.926  1.00  0.00     0.007 A 
ATOM     15  C   UNL A   1      32.270  25.176  21.480  1.00  0.00     0.000 A 
ATOM     16  C   UNL A   1      33.977  24.854  23.131  1.00  0.00     0.000 A 
ATOM     17  C   UNL A   1      33.433  24.534  21.900  1.00  0.00     0.000 A 
ENDBRANCH  10  12
BRANCH  10  18
ATOM     18  N   UNL A   1      30.211  27.871  23.818  1.00  0.00    -0.350 N 
ATOM     19  H   UNL A   1      29.538  27.161  23.930  1.00  0.00     0.163 HD
BRANCH  18  20
ATOM     20  C   UNL A   1      29.768  28.959  23.119  1.00  0.00     0.149 A 
ATOM     21  C   UNL A   1      30.400  29.484  22.008  1.00  0.00     0.051 A 
ATOM     22  N   UNL A   1      28.594  29.499  23.521  1.00  0.00    -0.132 NA
ATOM     23  C   UNL A   1      29.865  30.595  21.355  1.00  0.00     0.040 A 
ATOM     24  N   UNL A   1      28.050  30.607  22.895  1.00  0.00    -0.143 NA
ATOM     25  C   UNL A   1      28.693  31.143  21.839  1.00  0.00     0.150 A 
BRANCH  25  26
ATOM     26  C   UNL A   1      28.096  32.341  21.187  1.00  0.00     0.269 C 
ATOM     27  N   UNL A   1      27.649  32.191  19.903  1.00  0.00    -0.364 N 
ATOM     28  O   UNL A   1      28.013  33.415  21.772  1.00  0.00    -0.268 OA
ATOM     29  H   UNL A   1      27.726  31.320  19.452  1.00  0.00     0.160 HD
ATOM     30  H   UNL A   1      27.249  32.956  19.429  1.00  0.00     0.160 HD
ENDBRANCH  25  26
ENDBRANCH  18  20
ENDBRANCH  10  18
ENDBRANCH   8  10
ENDBRANCH   7   8
ENDBRANCH   6   7
ENDBRANCH   5   6
ENDBRANCH   4   5
ENDBRANCH   3   4
ENDBRANCH   2   3
ENDBRANCH   1   2
BRANCH   1  31
ATOM     31  C   UNL A   1      34.525  20.397  25.238  1.00  0.00     0.188 C 
BRANCH  31  32
ATOM     32  C   UNL A   1      35.145  21.633  24.546  1.00  0.00     0.188 C 
BRANCH  32  33
ATOM     33  O   UNL A   1      36.157  22.290  25.300  1.00  0.00    -0.376 OA
BRANCH  33  34
ATOM     34  C   UNL A   1      37.510  22.208  24.876  1.00  0.00     0.202 C 
BRANCH  34  35
ATOM     35  C   UNL A   1      38.457  21.257  25.628  1.00  0.00     0.261 C 
BRANCH  35  36
ATOM     36  O   UNL A   1      39.801  21.715  25.826  1.00  0.00    -0.460 OA
BRANCH  36  37
ATOM     37  C   UNL A   1      40.318  21.632  27.068  1.00  0.00     0.338 C 
ATOM     38  O   UNL A   1      40.627  20.615  27.669  1.00  0.00    -0.246 OA
BRANCH  37  39
ATOM     39  C   UNL A   1      40.666  23.001  27.499  1.00  0.00     0.060 A 
ATOM     40  C   UNL A   1      40.045  24.086  26.864  1.00  0.00     0.016 A 
ATOM     41  C   UNL A   1      41.591  23.214  28.525  1.00  0.00     0.016 A 
ATOM     42  C   UNL A   1      40.394  25.388  27.209  1.00  0.00     0.010 A 
ATOM     43  C   UNL A   1      41.963  24.520  28.850  1.00  0.00     0.010 A 
ATOM     44  C   UNL A   1      41.405  25.607  28.152  1.00  0.00    -0.014 A 
BRANCH  44  45
ATOM     45  C   UNL A   1      42.079  26.926  28.175  1.00  0.00     0.031 A 
ATOM     46  C   UNL A   1      41.339  28.070  28.818  1.00  0.00     0.074 A 
ATOM     47  C   UNL A   1      43.324  27.097  27.698  1.00  0.00     0.049 A 
ATOM     48  N   UNL A   1      41.700  29.316  28.971  1.00  0.00    -0.248 NA
ATOM     49  C   UNL A   1      40.005  27.760  29.359  1.00  0.00     0.031 C 
ATOM     50  C   UNL A   1      44.156  26.052  27.107  1.00  0.00     0.029 A 
ATOM     51  N   UNL A   1      44.103  28.224  27.644  1.00  0.00    -0.354 N 
ATOM     52  C   UNL A   1      40.634  29.939  29.612  1.00  0.00     0.074 A 
ATOM     53  C   UNL A   1      39.601  28.945  29.786  1.00  0.00     0.031 C 
ATOM     54  C   UNL A   1      45.335  26.590  26.746  1.00  0.00     0.029 A 
ATOM     55  C   UNL A   1      45.327  28.020  27.054  1.00  0.00     0.049 A 
ATOM     56  H   UNL A   1      43.812  29.098  27.992  1.00  0.00     0.167 HD
ATOM     57  C   UNL A   1      40.530  31.224  30.025  1.00  0.00     0.037 A 
ATOM     58  C   UNL A   1      46.318  28.894  26.789  1.00  0.00     0.037 A 
ATOM     59  C   UNL A   1      41.564  32.206  29.842  1.00  0.00     0.049 A 
ATOM     60  C   UNL A   1      46.154  30.337  27.197  1.00  0.00     0.074 A 
ATOM     61  C   UNL A   1      41.570  33.532  30.233  1.00  0.00     0.029 A 
ATOM     62  N   UNL A   1      42.775  31.971  29.205  1.00  0.00    -0.354 N 
ATOM     63  N   UNL A   1      45.150  30.914  27.815  1.00  0.00    -0.248 NA
ATOM     64  C   UNL A   1      47.263  31.246  26.876  1.00  0.00     0.031 C 
ATOM     65  C   UNL A   1      42.757  34.115  29.778  1.00  0.00     0.029 A 
ATOM     66  C   UNL A   1      43.524  33.135  29.167  1.00  0.00     0.049 A 
ATOM     67  H   UNL A   1      43.057  31.104  28.834  1.00  0.00     0.167 HD
ATOM     68  C   UNL A   1      45.526  32.243  27.999  1.00  0.00     0.074 A 
ATOM     69  C   UNL A   1      46.848  32.381  27.424  1.00  0.00     0.031 C 
ATOM     70  C   UNL A   1      44.845  33.252  28.599  1.00  0.00     0.037 A 
BRANCH  57  71
ATOM     71  C   UNL A   1      39.231  31.640  30.661  1.00  0.00     0.058 A 
ATOM     72  C   UNL A   1      38.121  32.045  29.901  1.00  0.00     0.135 A 
ATOM     73  C   UNL A   1      39.101  31.646  32.059  1.00  0.00     0.135 A 
ATOM     74  F   UNL A   1      38.194  32.081  28.560  1.00  0.00    -0.206 F 
ATOM     75  C   UNL A   1      36.945  32.482  30.505  1.00  0.00     0.059 A 
ATOM     76  C   UNL A   1      37.923  32.046  32.684  1.00  0.00     0.059 A 
ATOM     77  F   UNL A   1      40.130  31.274  32.836  1.00  0.00    -0.206 F 
ATOM     78  C   UNL A   1      36.859  32.482  31.898  1.00  0.00     0.060 A 
BRANCH  78  79
ATOM     79  S   UNL A   1      35.337  33.072  32.669  1.00  0.00     0.124 S 
ATOM     80  O   UNL A   1      35.402  34.502  32.383  1.00  0.00    -0.237 OA
ATOM     81  O   UNL A   1      34.312  32.327  31.944  1.00  0.00    -0.237 OA
ATOM     82  O   UNL A   1      35.501  32.705  34.072  1.00  0.00    -0.744 OA
ENDBRANCH  78  79
ENDBRANCH  57  71
BRANCH  58  83
ATOM     83  C   UNL A   1      47.562  28.426  26.120  1.00  0.00     0.058 A 
ATOM     84  C   UNL A   1      47.576  28.120  24.751  1.00  0.00     0.135 A 
ATOM     85  C   UNL A   1      48.763  28.282  26.832  1.00  0.00     0.135 A 
ATOM     86  F   UNL A   1      46.450  28.227  24.028  1.00  0.00    -0.206 F 
ATOM     87  C   UNL A   1      48.732  27.685  24.112  1.00  0.00     0.059 A 
ATOM     88  C   UNL A   1      49.940  27.875  26.209  1.00  0.00     0.059 A 
ATOM     89  F   UNL A   1      48.806  28.566  28.143  1.00  0.00    -0.206 F 
ATOM     90  C   UNL A   1      49.912  27.573  24.849  1.00  0.00     0.060 A 
BRANCH  90  91
ATOM     91  S   UNL A   1      51.421  27.072  23.992  1.00  0.00     0.124 S 
ATOM     92  O   UNL A   1      51.772  25.849  24.703  1.00  0.00    -0.237 OA
ATOM     93  O   UNL A   1      50.950  26.902  22.621  1.00  0.00    -0.237 OA
ATOM     94  O   UNL A   1      52.319  28.204  24.202  1.00  0.00    -0.744 OA
ENDBRANCH  90  91
ENDBRANCH  58  83
BRANCH  70  95
ATOM     95  C   UNL A   1      45.540  34.583  28.727  1.00  0.00     0.058 A 
ATOM     96  C   UNL A   1      45.419  35.587  27.754  1.00  0.00     0.135 A 
ATOM     97  C   UNL A   1      46.304  34.869  29.871  1.00  0.00     0.135 A 
ATOM     98  F   UNL A   1      44.702  35.369  26.641  1.00  0.00    -0.206 F 
ATOM     99  C   UNL A   1      46.063  36.814  27.894  1.00  0.00     0.059 A 
ATOM    100  C   UNL A   1      46.926  36.101  30.048  1.00  0.00     0.059 A 
ATOM    101  F   UNL A   1      46.440  33.951  30.841  1.00  0.00    -0.206 F 
ATOM    102  C   UNL A   1      46.814  37.061  29.045  1.00  0.00     0.060 A 
BRANCH 102 103
ATOM    103  S   UNL A   1      47.632  38.660  29.220  1.00  0.00     0.124 S 
ATOM    104  O   UNL A   1      48.394  38.738  27.978  1.00  0.00    -0.237 OA
ATOM    105  O   UNL A   1      46.503  39.579  29.331  1.00  0.00    -0.237 OA
ATOM    106  O   UNL A   1      48.428  38.505  30.434  1.00  0.00    -0.744 OA
ENDBRANCH 102 103
ENDBRANCH  70  95
ENDBRANCH  44  45
ENDBRANCH  37  39
ENDBRANCH  36  37
ENDBRANCH  35  36
ENDBRANCH  34  35
ENDBRANCH  33  34
ENDBRANCH  32  33
ENDBRANCH  31  32
ENDBRANCH   1  31
TORSDOF 27
ENDMDL
