MODEL 1
REMARK VINA RESULT:      -9.3      0.000      0.000
REMARK SMILES C[C@H](CC(=O)OCCOCCOCCOCCOC(=O)c1ccc(-c2c3nc(c(-c4c(F)cc(S(=O)(=O)[O-])cc4F)c4ccc([nH]4)c(-c4c(F)cc(S(=O)(=O)[O-])cc4F)c4nc(c(-c5c(F)cc(S(=O)(=O)[O-])cc5F)c5ccc2[nH]5)C=C4)C=C3)cc1)NC(=O)CS[C@H]1CCS(=O)(=O)C1
REMARK SMILES IDX 11 1 10 2 9 3 8 4 7 5 6 6 4 7 5 8 3 9 2 10 1 11 87 12 88 13
REMARK SMILES IDX 89 15 90 16 91 17 92 18 93 19 98 20 94 21 95 22 96 23 97 24
REMARK SMILES IDX 12 25 13 26 14 27 15 28 16 29 17 30 18 31 19 32 20 33 21 34
REMARK SMILES IDX 22 35 86 36 23 37 85 38 24 39 25 40 26 41 79 42 27 43 84 44
REMARK SMILES IDX 78 45 80 46 28 47 83 48 77 49 76 50 29 52 63 53 42 54 62 55
REMARK SMILES IDX 43 56 46 57 61 58 81 59 44 60 45 61 60 63 82 64 47 65 30 66
REMARK SMILES IDX 31 67 40 68 32 69 33 70 39 71 41 72 34 73 35 74 36 75 37 76
REMARK SMILES IDX 38 77 64 78 65 79 74 80 66 81 67 82 73 83 75 84 68 85 69 86
REMARK SMILES IDX 70 87 71 88 72 89 48 90 49 91 58 92 50 93 51 94 57 95 59 96
REMARK SMILES IDX 52 97 53 98 54 99 55 100 56 101
REMARK H PARENT 87 14 80 51 46 62
REMARK Flexibility Score: inf
ROOT
ATOM      1  C   UNL A   1      41.124  21.230  27.658  1.00  0.00     0.188 C 
ENDROOT
BRANCH   1   2
ATOM      2  C   UNL A   1      40.070  21.913  26.781  1.00  0.00     0.188 C 
BRANCH   2   3
ATOM      3  O   UNL A   1      40.410  23.213  26.306  1.00  0.00    -0.376 OA
BRANCH   3   4
ATOM      4  C   UNL A   1      39.553  24.276  26.729  1.00  0.00     0.202 C 
BRANCH   4   5
ATOM      5  C   UNL A   1      38.035  23.995  26.720  1.00  0.00     0.261 C 
BRANCH   5   6
ATOM      6  O   UNL A   1      37.421  24.188  25.423  1.00  0.00    -0.463 OA
BRANCH   6   7
ATOM      7  C   UNL A   1      36.525  23.242  25.024  1.00  0.00     0.307 C 
ATOM      8  O   UNL A   1      36.819  22.314  24.275  1.00  0.00    -0.252 OA
BRANCH   7   9
ATOM      9  C   UNL A   1      34.888  23.386  25.678  1.00  0.00     0.147 C 
BRANCH   9  10
ATOM     10  C   UNL A   1      33.175  22.094  25.958  1.00  0.00     0.090 C 
ATOM     11  C   UNL A   1      32.994  20.398  26.264  1.00  0.00     0.031 C 
BRANCH  10  12
ATOM     12  N   UNL A   1      31.942  22.358  26.946  1.00  0.00    -0.352 N 
ATOM     13  C   UNL A   1      30.798  23.080  26.754  1.00  0.00     0.230 C 
ATOM     14  H   UNL A   1      32.020  21.932  27.830  1.00  0.00     0.163 HD
ATOM     15  O   UNL A   1      29.883  22.993  27.566  1.00  0.00    -0.274 OA
BRANCH  13  16
ATOM     16  C   UNL A   1      30.737  23.937  25.527  1.00  0.00     0.169 C 
BRANCH  16  17
ATOM     17  S   UNL A   1      29.843  25.475  25.897  1.00  0.00    -0.148 SA
BRANCH  17  18
ATOM     18  C   UNL A   1      30.999  26.799  25.284  1.00  0.00     0.063 C 
ATOM     19  C   UNL A   1      32.691  27.252  26.259  1.00  0.00     0.031 C 
ATOM     20  C   UNL A   1      31.179  26.855  23.315  1.00  0.00     0.151 C 
ATOM     21  C   UNL A   1      34.245  27.325  24.970  1.00  0.00     0.138 C 
ATOM     22  S   UNL A   1      33.356  27.339  22.769  1.00  0.00     0.151 S 
ATOM     23  O   UNL A   1      33.304  28.665  22.170  1.00  0.00    -0.229 OA
ATOM     24  O   UNL A   1      33.827  26.349  21.821  1.00  0.00    -0.229 OA
ENDBRANCH  17  18
ENDBRANCH  16  17
ENDBRANCH  13  16
ENDBRANCH  10  12
ENDBRANCH   9  10
ENDBRANCH   7   9
ENDBRANCH   6   7
ENDBRANCH   5   6
ENDBRANCH   4   5
ENDBRANCH   3   4
ENDBRANCH   2   3
ENDBRANCH   1   2
BRANCH   1  25
ATOM     25  O   UNL A   1      41.488  19.911  27.251  1.00  0.00    -0.377 OA
BRANCH  25  26
ATOM     26  C   UNL A   1      42.196  19.789  26.006  1.00  0.00     0.188 C 
BRANCH  26  27
ATOM     27  C   UNL A   1      43.427  20.683  25.782  1.00  0.00     0.188 C 
BRANCH  27  28
ATOM     28  O   UNL A   1      43.216  21.912  25.085  1.00  0.00    -0.376 OA
BRANCH  28  29
ATOM     29  C   UNL A   1      44.006  23.037  25.467  1.00  0.00     0.202 C 
BRANCH  29  30
ATOM     30  C   UNL A   1      43.448  24.395  25.045  1.00  0.00     0.261 C 
BRANCH  30  31
ATOM     31  O   UNL A   1      43.034  25.165  26.184  1.00  0.00    -0.460 OA
BRANCH  31  32
ATOM     32  C   UNL A   1      43.971  25.997  26.698  1.00  0.00     0.338 C 
ATOM     33  O   UNL A   1      45.088  26.220  26.269  1.00  0.00    -0.246 OA
BRANCH  32  34
ATOM     34  C   UNL A   1      43.338  26.773  27.776  1.00  0.00     0.060 A 
ATOM     35  C   UNL A   1      43.710  28.112  27.956  1.00  0.00     0.016 A 
ATOM     36  C   UNL A   1      42.396  26.170  28.611  1.00  0.00     0.016 A 
ATOM     37  C   UNL A   1      43.135  28.861  28.974  1.00  0.00     0.010 A 
ATOM     38  C   UNL A   1      41.850  26.909  29.657  1.00  0.00     0.010 A 
ATOM     39  C   UNL A   1      42.234  28.247  29.850  1.00  0.00    -0.014 A 
BRANCH  39  40
ATOM     40  C   UNL A   1      41.827  28.950  31.079  1.00  0.00     0.031 A 
ATOM     41  C   UNL A   1      40.649  29.874  31.006  1.00  0.00     0.074 A 
ATOM     42  C   UNL A   1      42.505  28.762  32.222  1.00  0.00     0.049 A 
ATOM     43  N   UNL A   1      40.172  30.678  31.915  1.00  0.00    -0.248 NA
ATOM     44  C   UNL A   1      39.909  29.894  29.731  1.00  0.00     0.031 C 
ATOM     45  C   UNL A   1      43.626  27.837  32.396  1.00  0.00     0.029 A 
ATOM     46  N   UNL A   1      42.360  29.353  33.447  1.00  0.00    -0.354 N 
ATOM     47  C   UNL A   1      39.085  31.309  31.323  1.00  0.00     0.074 A 
ATOM     48  C   UNL A   1      38.984  30.811  29.969  1.00  0.00     0.031 C 
ATOM     49  C   UNL A   1      44.087  27.947  33.653  1.00  0.00     0.029 A 
ATOM     50  C   UNL A   1      43.321  28.975  34.353  1.00  0.00     0.049 A 
ATOM     51  H   UNL A   1      41.638  29.987  33.659  1.00  0.00     0.167 HD
ATOM     52  C   UNL A   1      38.250  32.222  31.869  1.00  0.00     0.037 A 
ATOM     53  C   UNL A   1      43.570  29.443  35.591  1.00  0.00     0.037 A 
ATOM     54  C   UNL A   1      38.383  32.712  33.215  1.00  0.00     0.049 A 
ATOM     55  C   UNL A   1      42.683  30.527  36.145  1.00  0.00     0.074 A 
ATOM     56  C   UNL A   1      37.591  33.629  33.881  1.00  0.00     0.029 A 
ATOM     57  N   UNL A   1      39.387  32.332  34.097  1.00  0.00    -0.354 N 
ATOM     58  N   UNL A   1      41.643  31.106  35.588  1.00  0.00    -0.248 NA
ATOM     59  C   UNL A   1      43.000  31.023  37.490  1.00  0.00     0.031 C 
ATOM     60  C   UNL A   1      38.150  33.848  35.144  1.00  0.00     0.029 A 
ATOM     61  C   UNL A   1      39.256  33.022  35.289  1.00  0.00     0.049 A 
ATOM     62  H   UNL A   1      40.088  31.669  33.902  1.00  0.00     0.167 HD
ATOM     63  C   UNL A   1      41.172  32.022  36.522  1.00  0.00     0.074 A 
ATOM     64  C   UNL A   1      42.028  31.904  37.686  1.00  0.00     0.031 C 
ATOM     65  C   UNL A   1      40.128  32.885  36.430  1.00  0.00     0.037 A 
BRANCH  52  66
ATOM     66  C   UNL A   1      37.154  32.773  30.999  1.00  0.00     0.058 A 
ATOM     67  C   UNL A   1      35.819  32.362  31.136  1.00  0.00     0.135 A 
ATOM     68  C   UNL A   1      37.443  33.746  30.028  1.00  0.00     0.135 A 
ATOM     69  F   UNL A   1      35.490  31.416  32.031  1.00  0.00    -0.206 F 
ATOM     70  C   UNL A   1      34.811  32.880  30.327  1.00  0.00     0.059 A 
ATOM     71  C   UNL A   1      36.447  34.298  29.228  1.00  0.00     0.059 A 
ATOM     72  F   UNL A   1      38.704  34.167  29.846  1.00  0.00    -0.206 F 
ATOM     73  C   UNL A   1      35.135  33.851  29.378  1.00  0.00     0.060 A 
BRANCH  73  74
ATOM     74  S   UNL A   1      33.814  34.523  28.349  1.00  0.00     0.124 S 
ATOM     75  O   UNL A   1      33.743  33.529  27.281  1.00  0.00    -0.237 OA
ATOM     76  O   UNL A   1      32.684  34.545  29.271  1.00  0.00    -0.237 OA
ATOM     77  O   UNL A   1      34.323  35.832  27.952  1.00  0.00    -0.744 OA
ENDBRANCH  73  74
ENDBRANCH  52  66
BRANCH  53  78
ATOM     78  C   UNL A   1      44.719  28.911  36.371  1.00  0.00     0.058 A 
ATOM     79  C   UNL A   1      44.578  27.782  37.190  1.00  0.00     0.135 A 
ATOM     80  C   UNL A   1      45.985  29.513  36.302  1.00  0.00     0.135 A 
ATOM     81  F   UNL A   1      43.386  27.175  37.295  1.00  0.00    -0.206 F 
ATOM     82  C   UNL A   1      45.645  27.274  37.922  1.00  0.00     0.059 A 
ATOM     83  C   UNL A   1      47.075  29.009  37.004  1.00  0.00     0.059 A 
ATOM     84  F   UNL A   1      46.179  30.589  35.524  1.00  0.00    -0.206 F 
ATOM     85  C   UNL A   1      46.893  27.893  37.818  1.00  0.00     0.060 A 
BRANCH  85  86
ATOM     86  S   UNL A   1      48.285  27.189  38.727  1.00  0.00     0.124 S 
ATOM     87  O   UNL A   1      49.017  28.389  39.119  1.00  0.00    -0.237 OA
ATOM     88  O   UNL A   1      47.611  26.470  39.804  1.00  0.00    -0.237 OA
ATOM     89  O   UNL A   1      48.941  26.343  37.735  1.00  0.00    -0.744 OA
ENDBRANCH  85  86
ENDBRANCH  53  78
BRANCH  65  90
ATOM     90  C   UNL A   1      39.846  33.755  37.624  1.00  0.00     0.058 A 
ATOM     91  C   UNL A   1      38.948  33.359  38.627  1.00  0.00     0.135 A 
ATOM     92  C   UNL A   1      40.527  34.971  37.795  1.00  0.00     0.135 A 
ATOM     93  F   UNL A   1      38.266  32.209  38.509  1.00  0.00    -0.206 F 
ATOM     94  C   UNL A   1      38.717  34.151  39.747  1.00  0.00     0.059 A 
ATOM     95  C   UNL A   1      40.336  35.763  38.921  1.00  0.00     0.059 A 
ATOM     96  F   UNL A   1      41.406  35.390  36.870  1.00  0.00    -0.206 F 
ATOM     97  C   UNL A   1      39.419  35.349  39.887  1.00  0.00     0.060 A 
BRANCH  97  98
ATOM     98  S   UNL A   1      39.137  36.347  41.364  1.00  0.00     0.124 S 
ATOM     99  O   UNL A   1      38.858  37.657  40.784  1.00  0.00    -0.237 OA
ATOM    100  O   UNL A   1      37.999  35.673  41.981  1.00  0.00    -0.237 OA
ATOM    101  O   UNL A   1      40.396  36.239  42.094  1.00  0.00    -0.744 OA
ENDBRANCH  97  98
ENDBRANCH  65  90
ENDBRANCH  39  40
ENDBRANCH  32  34
ENDBRANCH  31  32
ENDBRANCH  30  31
ENDBRANCH  29  30
ENDBRANCH  28  29
ENDBRANCH  27  28
ENDBRANCH  26  27
ENDBRANCH  25  26
ENDBRANCH   1  25
TORSDOF 28
ENDMDL
MODEL 2
REMARK VINA RESULT:      -8.4      5.962     13.873
REMARK SMILES C[C@H](CC(=O)OCCOCCOCCOCCOC(=O)c1ccc(-c2c3nc(c(-c4c(F)cc(S(=O)(=O)[O-])cc4F)c4ccc([nH]4)c(-c4c(F)cc(S(=O)(=O)[O-])cc4F)c4nc(c(-c5c(F)cc(S(=O)(=O)[O-])cc5F)c5ccc2[nH]5)C=C4)C=C3)cc1)NC(=O)CS[C@H]1CCS(=O)(=O)C1
REMARK SMILES IDX 11 1 10 2 9 3 8 4 7 5 6 6 4 7 5 8 3 9 2 10 1 11 87 12 88 13
REMARK SMILES IDX 89 15 90 16 91 17 92 18 93 19 98 20 94 21 95 22 96 23 97 24
REMARK SMILES IDX 12 25 13 26 14 27 15 28 16 29 17 30 18 31 19 32 20 33 21 34
REMARK SMILES IDX 22 35 86 36 23 37 85 38 24 39 25 40 26 41 79 42 27 43 84 44
REMARK SMILES IDX 78 45 80 46 28 47 83 48 77 49 76 50 29 52 63 53 42 54 62 55
REMARK SMILES IDX 43 56 46 57 61 58 81 59 44 60 45 61 60 63 82 64 47 65 30 66
REMARK SMILES IDX 31 67 40 68 32 69 33 70 39 71 41 72 34 73 35 74 36 75 37 76
REMARK SMILES IDX 38 77 64 78 65 79 74 80 66 81 67 82 73 83 75 84 68 85 69 86
REMARK SMILES IDX 70 87 71 88 72 89 48 90 49 91 58 92 50 93 51 94 57 95 59 96
REMARK SMILES IDX 52 97 53 98 54 99 55 100 56 101
REMARK H PARENT 87 14 80 51 46 62
REMARK Flexibility Score: inf
ROOT
ATOM      1  C   UNL A   1      34.442  33.965  31.303  1.00  0.00     0.188 C 
ENDROOT
BRANCH   1   2
ATOM      2  C   UNL A   1      35.530  34.296  32.329  1.00  0.00     0.188 C 
BRANCH   2   3
ATOM      3  O   UNL A   1      36.408  33.225  32.666  1.00  0.00    -0.376 OA
BRANCH   3   4
ATOM      4  C   UNL A   1      37.781  33.578  32.855  1.00  0.00     0.202 C 
BRANCH   4   5
ATOM      5  C   UNL A   1      38.492  34.272  31.674  1.00  0.00     0.261 C 
BRANCH   5   6
ATOM      6  O   UNL A   1      39.567  33.486  31.106  1.00  0.00    -0.463 OA
BRANCH   6   7
ATOM      7  C   UNL A   1      40.790  33.611  31.692  1.00  0.00     0.307 C 
ATOM      8  O   UNL A   1      41.321  34.696  31.909  1.00  0.00    -0.252 OA
BRANCH   7   9
ATOM      9  C   UNL A   1      41.586  32.107  32.174  1.00  0.00     0.147 C 
BRANCH   9  10
ATOM     10  C   UNL A   1      41.036  30.281  33.194  1.00  0.00     0.090 C 
ATOM     11  C   UNL A   1      39.522  29.499  33.515  1.00  0.00     0.031 C 
BRANCH  10  12
ATOM     12  N   UNL A   1      41.681  28.833  32.957  1.00  0.00    -0.352 N 
ATOM     13  C   UNL A   1      42.975  28.415  33.079  1.00  0.00     0.230 C 
ATOM     14  H   UNL A   1      41.043  28.135  32.682  1.00  0.00     0.163 HD
ATOM     15  O   UNL A   1      43.230  27.215  33.047  1.00  0.00    -0.274 OA
BRANCH  13  16
ATOM     16  C   UNL A   1      44.016  29.477  33.262  1.00  0.00     0.169 C 
BRANCH  16  17
ATOM     17  S   UNL A   1      45.112  29.518  31.813  1.00  0.00    -0.148 SA
BRANCH  17  18
ATOM     18  C   UNL A   1      46.628  28.610  32.400  1.00  0.00     0.063 C 
ATOM     19  C   UNL A   1      46.737  26.610  32.359  1.00  0.00     0.031 C 
ATOM     20  C   UNL A   1      48.327  29.508  31.934  1.00  0.00     0.151 C 
ATOM     21  C   UNL A   1      48.479  26.019  31.521  1.00  0.00     0.138 C 
ATOM     22  S   UNL A   1      49.894  27.920  31.386  1.00  0.00     0.151 S 
ATOM     23  O   UNL A   1      50.883  27.989  32.453  1.00  0.00    -0.229 OA
ATOM     24  O   UNL A   1      50.476  28.267  30.104  1.00  0.00    -0.229 OA
ENDBRANCH  17  18
ENDBRANCH  16  17
ENDBRANCH  13  16
ENDBRANCH  10  12
ENDBRANCH   9  10
ENDBRANCH   7   9
ENDBRANCH   6   7
ENDBRANCH   5   6
ENDBRANCH   4   5
ENDBRANCH   3   4
ENDBRANCH   2   3
ENDBRANCH   1   2
BRANCH   1  25
ATOM     25  O   UNL A   1      33.393  34.928  31.202  1.00  0.00    -0.377 OA
BRANCH  25  26
ATOM     26  C   UNL A   1      33.021  35.345  29.878  1.00  0.00     0.188 C 
BRANCH  26  27
ATOM     27  C   UNL A   1      33.350  34.409  28.704  1.00  0.00     0.188 C 
BRANCH  27  28
ATOM     28  O   UNL A   1      34.223  33.312  28.976  1.00  0.00    -0.376 OA
BRANCH  28  29
ATOM     29  C   UNL A   1      35.399  33.183  28.179  1.00  0.00     0.202 C 
BRANCH  29  30
ATOM     30  C   UNL A   1      36.592  32.537  28.881  1.00  0.00     0.261 C 
BRANCH  30  31
ATOM     31  O   UNL A   1      36.184  31.407  29.668  1.00  0.00    -0.460 OA
BRANCH  31  32
ATOM     32  C   UNL A   1      36.334  30.199  29.074  1.00  0.00     0.338 C 
ATOM     33  O   UNL A   1      35.466  29.479  28.616  1.00  0.00    -0.246 OA
BRANCH  32  34
ATOM     34  C   UNL A   1      37.775  29.972  28.878  1.00  0.00     0.060 A 
ATOM     35  C   UNL A   1      38.246  29.677  27.591  1.00  0.00     0.016 A 
ATOM     36  C   UNL A   1      38.648  30.037  29.965  1.00  0.00     0.016 A 
ATOM     37  C   UNL A   1      39.599  29.448  27.383  1.00  0.00     0.010 A 
ATOM     38  C   UNL A   1      39.998  29.768  29.764  1.00  0.00     0.010 A 
ATOM     39  C   UNL A   1      40.470  29.454  28.477  1.00  0.00    -0.014 A 
BRANCH  39  40
ATOM     40  C   UNL A   1      41.846  28.956  28.309  1.00  0.00     0.031 A 
ATOM     41  C   UNL A   1      42.967  29.951  28.350  1.00  0.00     0.074 A 
ATOM     42  C   UNL A   1      42.073  27.646  28.121  1.00  0.00     0.049 A 
ATOM     43  N   UNL A   1      44.238  29.773  28.121  1.00  0.00    -0.248 NA
ATOM     44  C   UNL A   1      42.600  31.337  28.694  1.00  0.00     0.031 C 
ATOM     45  C   UNL A   1      41.047  26.603  28.127  1.00  0.00     0.029 A 
ATOM     46  N   UNL A   1      43.239  26.975  27.871  1.00  0.00    -0.354 N 
ATOM     47  C   UNL A   1      44.824  31.022  28.281  1.00  0.00     0.074 A 
ATOM     48  C   UNL A   1      43.768  31.955  28.606  1.00  0.00     0.031 C 
ATOM     49  C   UNL A   1      41.630  25.422  27.860  1.00  0.00     0.029 A 
ATOM     50  C   UNL A   1      43.055  25.636  27.626  1.00  0.00     0.049 A 
ATOM     51  H   UNL A   1      44.122  27.409  27.867  1.00  0.00     0.167 HD
ATOM     52  C   UNL A   1      46.131  31.353  28.165  1.00  0.00     0.037 A 
ATOM     53  C   UNL A   1      43.940  24.705  27.219  1.00  0.00     0.037 A 
ATOM     54  C   UNL A   1      47.160  30.406  27.825  1.00  0.00     0.049 A 
ATOM     55  C   UNL A   1      45.374  25.116  27.007  1.00  0.00     0.074 A 
ATOM     56  C   UNL A   1      48.519  30.622  27.689  1.00  0.00     0.029 A 
ATOM     57  N   UNL A   1      46.937  29.062  27.552  1.00  0.00    -0.354 N 
ATOM     58  N   UNL A   1      45.928  26.295  27.179  1.00  0.00    -0.248 NA
ATOM     59  C   UNL A   1      46.302  24.077  26.544  1.00  0.00     0.031 C 
ATOM     60  C   UNL A   1      49.109  29.422  27.277  1.00  0.00     0.029 A 
ATOM     61  C   UNL A   1      48.128  28.444  27.215  1.00  0.00     0.049 A 
ATOM     62  H   UNL A   1      46.060  28.617  27.594  1.00  0.00     0.167 HD
ATOM     63  C   UNL A   1      47.272  26.134  26.863  1.00  0.00     0.074 A 
ATOM     64  C   UNL A   1      47.450  24.740  26.510  1.00  0.00     0.031 C 
ATOM     65  C   UNL A   1      48.272  27.052  26.863  1.00  0.00     0.037 A 
BRANCH  52  66
ATOM     66  C   UNL A   1      46.507  32.794  28.367  1.00  0.00     0.058 A 
ATOM     67  C   UNL A   1      46.536  33.712  27.306  1.00  0.00     0.135 A 
ATOM     68  C   UNL A   1      46.822  33.270  29.652  1.00  0.00     0.135 A 
ATOM     69  F   UNL A   1      46.268  33.306  26.054  1.00  0.00    -0.206 F 
ATOM     70  C   UNL A   1      46.883  35.045  27.504  1.00  0.00     0.059 A 
ATOM     71  C   UNL A   1      47.144  34.605  29.878  1.00  0.00     0.059 A 
ATOM     72  F   UNL A   1      46.822  32.434  30.701  1.00  0.00    -0.206 F 
ATOM     73  C   UNL A   1      47.181  35.483  28.796  1.00  0.00     0.060 A 
BRANCH  73  74
ATOM     74  S   UNL A   1      47.615  37.217  29.038  1.00  0.00     0.124 S 
ATOM     75  O   UNL A   1      48.978  37.254  28.516  1.00  0.00    -0.237 OA
ATOM     76  O   UNL A   1      46.609  37.903  28.234  1.00  0.00    -0.237 OA
ATOM     77  O   UNL A   1      47.492  37.401  30.481  1.00  0.00    -0.744 OA
ENDBRANCH  73  74
ENDBRANCH  52  66
BRANCH  53  78
ATOM     78  C   UNL A   1      43.489  23.312  26.961  1.00  0.00     0.058 A 
ATOM     79  C   UNL A   1      43.372  22.820  25.653  1.00  0.00     0.135 A 
ATOM     80  C   UNL A   1      43.179  22.440  28.017  1.00  0.00     0.135 A 
ATOM     81  F   UNL A   1      43.649  23.617  24.610  1.00  0.00    -0.206 F 
ATOM     82  C   UNL A   1      42.952  21.519  25.399  1.00  0.00     0.059 A 
ATOM     83  C   UNL A   1      42.784  21.127  27.789  1.00  0.00     0.059 A 
ATOM     84  F   UNL A   1      43.287  22.856  29.288  1.00  0.00    -0.206 F 
ATOM     85  C   UNL A   1      42.666  20.677  26.476  1.00  0.00     0.060 A 
BRANCH  85  86
ATOM     86  S   UNL A   1      42.180  18.972  26.135  1.00  0.00     0.124 S 
ATOM     87  O   UNL A   1      40.777  19.133  25.771  1.00  0.00    -0.237 OA
ATOM     88  O   UNL A   1      43.085  18.610  25.048  1.00  0.00    -0.237 OA
ATOM     89  O   UNL A   1      42.432  18.291  27.401  1.00  0.00    -0.744 OA
ENDBRANCH  85  86
ENDBRANCH  53  78
BRANCH  65  90
ATOM     90  C   UNL A   1      49.646  26.573  26.485  1.00  0.00     0.058 A 
ATOM     91  C   UNL A   1      50.446  25.848  27.382  1.00  0.00     0.135 A 
ATOM     92  C   UNL A   1      50.145  26.793  25.190  1.00  0.00     0.135 A 
ATOM     93  F   UNL A   1      50.019  25.617  28.633  1.00  0.00    -0.206 F 
ATOM     94  C   UNL A   1      51.701  25.377  27.015  1.00  0.00     0.059 A 
ATOM     95  C   UNL A   1      51.384  26.305  24.792  1.00  0.00     0.059 A 
ATOM     96  F   UNL A   1      49.415  27.472  24.290  1.00  0.00    -0.206 F 
ATOM     97  C   UNL A   1      52.160  25.606  25.717  1.00  0.00     0.060 A 
BRANCH  97  98
ATOM     98  S   UNL A   1      53.776  24.957  25.245  1.00  0.00     0.124 S 
ATOM     99  O   UNL A   1      53.486  23.535  25.083  1.00  0.00    -0.237 OA
ATOM    100  O   UNL A   1      54.058  25.690  24.015  1.00  0.00    -0.237 OA
ATOM    101  O   UNL A   1      54.626  25.299  26.382  1.00  0.00    -0.744 OA
ENDBRANCH  97  98
ENDBRANCH  65  90
ENDBRANCH  39  40
ENDBRANCH  32  34
ENDBRANCH  31  32
ENDBRANCH  30  31
ENDBRANCH  29  30
ENDBRANCH  28  29
ENDBRANCH  27  28
ENDBRANCH  26  27
ENDBRANCH  25  26
ENDBRANCH   1  25
TORSDOF 28
ENDMDL
MODEL 3
REMARK VINA RESULT:      -8.4      5.907     14.032
REMARK SMILES C[C@H](CC(=O)OCCOCCOCCOCCOC(=O)c1ccc(-c2c3nc(c(-c4c(F)cc(S(=O)(=O)[O-])cc4F)c4ccc([nH]4)c(-c4c(F)cc(S(=O)(=O)[O-])cc4F)c4nc(c(-c5c(F)cc(S(=O)(=O)[O-])cc5F)c5ccc2[nH]5)C=C4)C=C3)cc1)NC(=O)CS[C@H]1CCS(=O)(=O)C1
REMARK SMILES IDX 11 1 10 2 9 3 8 4 7 5 6 6 4 7 5 8 3 9 2 10 1 11 87 12 88 13
REMARK SMILES IDX 89 15 90 16 91 17 92 18 93 19 98 20 94 21 95 22 96 23 97 24
REMARK SMILES IDX 12 25 13 26 14 27 15 28 16 29 17 30 18 31 19 32 20 33 21 34
REMARK SMILES IDX 22 35 86 36 23 37 85 38 24 39 25 40 26 41 79 42 27 43 84 44
REMARK SMILES IDX 78 45 80 46 28 47 83 48 77 49 76 50 29 52 63 53 42 54 62 55
REMARK SMILES IDX 43 56 46 57 61 58 81 59 44 60 45 61 60 63 82 64 47 65 30 66
REMARK SMILES IDX 31 67 40 68 32 69 33 70 39 71 41 72 34 73 35 74 36 75 37 76
REMARK SMILES IDX 38 77 64 78 65 79 74 80 66 81 67 82 73 83 75 84 68 85 69 86
REMARK SMILES IDX 70 87 71 88 72 89 48 90 49 91 58 92 50 93 51 94 57 95 59 96
REMARK SMILES IDX 52 97 53 98 54 99 55 100 56 101
REMARK H PARENT 87 14 80 51 46 62
REMARK Flexibility Score: inf
ROOT
ATOM      1  C   UNL A   1      33.017  35.056  31.841  1.00  0.00     0.188 C 
ENDROOT
BRANCH   1   2
ATOM      2  C   UNL A   1      34.182  34.872  32.819  1.00  0.00     0.188 C 
BRANCH   2   3
ATOM      3  O   UNL A   1      34.665  33.539  32.960  1.00  0.00    -0.376 OA
BRANCH   3   4
ATOM      4  C   UNL A   1      35.658  33.338  33.971  1.00  0.00     0.202 C 
BRANCH   4   5
ATOM      5  C   UNL A   1      37.088  33.013  33.489  1.00  0.00     0.261 C 
BRANCH   5   6
ATOM      6  O   UNL A   1      37.862  34.187  33.146  1.00  0.00    -0.463 OA
BRANCH   6   7
ATOM      7  C   UNL A   1      38.765  34.049  32.135  1.00  0.00     0.307 C 
ATOM      8  O   UNL A   1      38.538  34.401  30.981  1.00  0.00    -0.252 OA
BRANCH   7   9
ATOM      9  C   UNL A   1      40.334  33.360  32.573  1.00  0.00     0.147 C 
BRANCH   9  10
ATOM     10  C   UNL A   1      42.416  33.916  32.385  1.00  0.00     0.090 C 
ATOM     11  C   UNL A   1      43.232  35.419  32.103  1.00  0.00     0.031 C 
BRANCH  10  12
ATOM     12  N   UNL A   1      43.598  33.515  33.390  1.00  0.00    -0.352 N 
ATOM     13  C   UNL A   1      44.129  32.291  33.682  1.00  0.00     0.230 C 
ATOM     14  H   UNL A   1      44.006  34.270  33.872  1.00  0.00     0.163 HD
ATOM     15  O   UNL A   1      45.167  32.220  34.332  1.00  0.00    -0.274 OA
BRANCH  13  16
ATOM     16  C   UNL A   1      43.395  31.093  33.162  1.00  0.00     0.169 C 
BRANCH  16  17
ATOM     17  S   UNL A   1      44.316  30.364  31.775  1.00  0.00    -0.148 SA
BRANCH  17  18
ATOM     18  C   UNL A   1      45.041  28.815  32.513  1.00  0.00     0.063 C 
ATOM     19  C   UNL A   1      43.885  27.280  33.081  1.00  0.00     0.031 C 
ATOM     20  C   UNL A   1      46.749  28.259  31.686  1.00  0.00     0.151 C 
ATOM     21  C   UNL A   1      44.619  25.543  32.354  1.00  0.00     0.138 C 
ATOM     22  S   UNL A   1      46.811  25.968  31.551  1.00  0.00     0.151 S 
ATOM     23  O   UNL A   1      47.860  25.568  32.480  1.00  0.00    -0.229 OA
ATOM     24  O   UNL A   1      47.140  25.592  30.190  1.00  0.00    -0.229 OA
ENDBRANCH  17  18
ENDBRANCH  16  17
ENDBRANCH  13  16
ENDBRANCH  10  12
ENDBRANCH   9  10
ENDBRANCH   7   9
ENDBRANCH   6   7
ENDBRANCH   5   6
ENDBRANCH   4   5
ENDBRANCH   3   4
ENDBRANCH   2   3
ENDBRANCH   1   2
BRANCH   1  25
ATOM     25  O   UNL A   1      33.058  36.257  31.071  1.00  0.00    -0.377 OA
BRANCH  25  26
ATOM     26  C   UNL A   1      33.326  36.118  29.666  1.00  0.00     0.188 C 
BRANCH  26  27
ATOM     27  C   UNL A   1      33.236  34.715  29.047  1.00  0.00     0.188 C 
BRANCH  27  28
ATOM     28  O   UNL A   1      34.282  33.797  29.369  1.00  0.00    -0.376 OA
BRANCH  28  29
ATOM     29  C   UNL A   1      34.808  32.991  28.316  1.00  0.00     0.202 C 
BRANCH  29  30
ATOM     30  C   UNL A   1      36.201  32.417  28.571  1.00  0.00     0.261 C 
BRANCH  30  31
ATOM     31  O   UNL A   1      36.154  31.332  29.510  1.00  0.00    -0.460 OA
BRANCH  31  32
ATOM     32  C   UNL A   1      36.320  30.096  28.982  1.00  0.00     0.338 C 
ATOM     33  O   UNL A   1      35.461  29.337  28.574  1.00  0.00    -0.246 OA
BRANCH  32  34
ATOM     34  C   UNL A   1      37.763  29.885  28.781  1.00  0.00     0.060 A 
ATOM     35  C   UNL A   1      38.243  29.681  27.481  1.00  0.00     0.016 A 
ATOM     36  C   UNL A   1      38.627  29.874  29.877  1.00  0.00     0.016 A 
ATOM     37  C   UNL A   1      39.599  29.467  27.268  1.00  0.00     0.010 A 
ATOM     38  C   UNL A   1      39.979  29.620  29.668  1.00  0.00     0.010 A 
ATOM     39  C   UNL A   1      40.461  29.398  28.367  1.00  0.00    -0.014 A 
BRANCH  39  40
ATOM     40  C   UNL A   1      41.839  28.913  28.175  1.00  0.00     0.031 A 
ATOM     41  C   UNL A   1      42.949  29.921  28.182  1.00  0.00     0.074 A 
ATOM     42  C   UNL A   1      42.077  27.604  27.996  1.00  0.00     0.049 A 
ATOM     43  N   UNL A   1      44.217  29.756  27.927  1.00  0.00    -0.248 NA
ATOM     44  C   UNL A   1      42.574  31.307  28.518  1.00  0.00     0.031 C 
ATOM     45  C   UNL A   1      41.064  26.549  28.035  1.00  0.00     0.029 A 
ATOM     46  N   UNL A   1      43.245  26.944  27.728  1.00  0.00    -0.354 N 
ATOM     47  C   UNL A   1      44.792  31.013  28.061  1.00  0.00     0.074 A 
ATOM     48  C   UNL A   1      43.732  31.937  28.399  1.00  0.00     0.031 C 
ATOM     49  C   UNL A   1      41.655  25.372  27.768  1.00  0.00     0.029 A 
ATOM     50  C   UNL A   1      43.072  25.600  27.502  1.00  0.00     0.049 A 
ATOM     51  H   UNL A   1      44.123  27.388  27.701  1.00  0.00     0.167 HD
ATOM     52  C   UNL A   1      46.092  31.357  27.915  1.00  0.00     0.037 A 
ATOM     53  C   UNL A   1      43.959  24.675  27.087  1.00  0.00     0.037 A 
ATOM     54  C   UNL A   1      47.125  30.418  27.563  1.00  0.00     0.049 A 
ATOM     55  C   UNL A   1      45.383  25.100  26.840  1.00  0.00     0.074 A 
ATOM     56  C   UNL A   1      48.478  30.648  27.396  1.00  0.00     0.029 A 
ATOM     57  N   UNL A   1      46.912  29.069  27.309  1.00  0.00    -0.354 N 
ATOM     58  N   UNL A   1      45.927  26.287  26.988  1.00  0.00    -0.248 NA
ATOM     59  C   UNL A   1      46.313  24.066  26.369  1.00  0.00     0.031 C 
ATOM     60  C   UNL A   1      49.073  29.451  26.985  1.00  0.00     0.029 A 
ATOM     61  C   UNL A   1      48.102  28.461  26.954  1.00  0.00     0.049 A 
ATOM     62  H   UNL A   1      46.041  28.614  27.374  1.00  0.00     0.167 HD
ATOM     63  C   UNL A   1      47.266  26.137  26.645  1.00  0.00     0.074 A 
ATOM     64  C   UNL A   1      47.453  24.742  26.303  1.00  0.00     0.031 C 
ATOM     65  C   UNL A   1      48.255  27.067  26.614  1.00  0.00     0.037 A 
BRANCH  52  66
ATOM     66  C   UNL A   1      46.455  32.805  28.094  1.00  0.00     0.058 A 
ATOM     67  C   UNL A   1      46.995  33.293  29.293  1.00  0.00     0.135 A 
ATOM     68  C   UNL A   1      46.280  33.714  27.037  1.00  0.00     0.135 A 
ATOM     69  F   UNL A   1      47.161  32.473  30.344  1.00  0.00    -0.206 F 
ATOM     70  C   UNL A   1      47.330  34.635  29.448  1.00  0.00     0.059 A 
ATOM     71  C   UNL A   1      46.635  35.055  27.160  1.00  0.00     0.059 A 
ATOM     72  F   UNL A   1      45.756  33.304  25.871  1.00  0.00    -0.206 F 
ATOM     73  C   UNL A   1      47.150  35.508  28.373  1.00  0.00     0.060 A 
BRANCH  73  74
ATOM     74  S   UNL A   1      47.603  37.241  28.586  1.00  0.00     0.124 S 
ATOM     75  O   UNL A   1      47.851  37.650  27.206  1.00  0.00    -0.237 OA
ATOM     76  O   UNL A   1      46.407  37.800  29.208  1.00  0.00    -0.237 OA
ATOM     77  O   UNL A   1      48.783  37.182  29.443  1.00  0.00    -0.744 OA
ENDBRANCH  73  74
ENDBRANCH  52  66
BRANCH  53  78
ATOM     78  C   UNL A   1      43.519  23.274  26.852  1.00  0.00     0.058 A 
ATOM     79  C   UNL A   1      43.440  22.747  25.556  1.00  0.00     0.135 A 
ATOM     80  C   UNL A   1      43.181  22.430  27.922  1.00  0.00     0.135 A 
ATOM     81  F   UNL A   1      43.744  23.517  24.500  1.00  0.00    -0.206 F 
ATOM     82  C   UNL A   1      43.031  21.438  25.324  1.00  0.00     0.059 A 
ATOM     83  C   UNL A   1      42.796  21.109  27.719  1.00  0.00     0.059 A 
ATOM     84  F   UNL A   1      43.252  22.879  29.184  1.00  0.00    -0.206 F 
ATOM     85  C   UNL A   1      42.716  20.624  26.415  1.00  0.00     0.060 A 
BRANCH  85  86
ATOM     86  S   UNL A   1      42.244  18.909  26.105  1.00  0.00     0.124 S 
ATOM     87  O   UNL A   1      43.144  18.548  25.015  1.00  0.00    -0.237 OA
ATOM     88  O   UNL A   1      42.518  18.282  27.395  1.00  0.00    -0.237 OA
ATOM     89  O   UNL A   1      40.831  19.009  25.754  1.00  0.00    -0.744 OA
ENDBRANCH  85  86
ENDBRANCH  53  78
BRANCH  65  90
ATOM     90  C   UNL A   1      49.626  26.599  26.212  1.00  0.00     0.058 A 
ATOM     91  C   UNL A   1      50.091  26.729  24.894  1.00  0.00     0.135 A 
ATOM     92  C   UNL A   1      50.506  26.069  27.169  1.00  0.00     0.135 A 
ATOM     93  F   UNL A   1      49.287  27.222  23.939  1.00  0.00    -0.206 F 
ATOM     94  C   UNL A   1      51.372  26.327  24.535  1.00  0.00     0.059 A 
ATOM     95  C   UNL A   1      51.803  25.690  26.839  1.00  0.00     0.059 A 
ATOM     96  F   UNL A   1      50.115  25.935  28.447  1.00  0.00    -0.206 F 
ATOM     97  C   UNL A   1      52.223  25.813  25.515  1.00  0.00     0.060 A 
BRANCH  97  98
ATOM     98  S   UNL A   1      53.896  25.331  25.040  1.00  0.00     0.124 S 
ATOM     99  O   UNL A   1      54.034  25.987  23.744  1.00  0.00    -0.237 OA
ATOM    100  O   UNL A   1      54.698  25.891  26.123  1.00  0.00    -0.237 OA
ATOM    101  O   UNL A   1      53.832  23.873  25.002  1.00  0.00    -0.744 OA
ENDBRANCH  97  98
ENDBRANCH  65  90
ENDBRANCH  39  40
ENDBRANCH  32  34
ENDBRANCH  31  32
ENDBRANCH  30  31
ENDBRANCH  29  30
ENDBRANCH  28  29
ENDBRANCH  27  28
ENDBRANCH  26  27
ENDBRANCH  25  26
ENDBRANCH   1  25
TORSDOF 28
ENDMDL
