MODEL 1
REMARK VINA RESULT:      -8.1      0.000      0.000
REMARK SMILES CCOC(=O)[C@@]1(C)C/C(=N/c2cccc(C(=O)OCCOCCOCCOCCOC(=O)c3ccc(-c4c5nc(c(-c6c(F)cc(S(=O)(=O)[O-])cc6F)c6ccc([nH]6)c(-c6c(F)cc(S(=O)(=O)[O-])cc6F)c6nc(c(-c7c(F)cc(S(=O)(=O)[O-])cc7F)c7ccc4[nH]7)C=C6)C=C5)cc3)c2)C(=O)N1c1ccccc1
REMARK SMILES IDX 23 1 22 2 21 3 20 4 19 5 18 6 16 7 17 8 15 9 11 10 12 11
REMARK SMILES IDX 99 12 13 13 14 14 10 15 6 16 7 17 8 18 102 19 9 20 100 21
REMARK SMILES IDX 101 22 4 23 5 24 3 25 2 26 1 27 103 28 104 29 108 30 105 31
REMARK SMILES IDX 107 32 106 33 24 34 25 35 26 36 27 37 28 38 29 39 30 40
REMARK SMILES IDX 31 41 32 42 33 43 34 44 98 45 35 46 97 47 36 48 37 49 38 50
REMARK SMILES IDX 91 51 39 52 96 53 90 54 92 55 40 56 95 57 89 58 88 59 41 61
REMARK SMILES IDX 75 62 54 63 74 64 55 65 58 66 73 67 93 68 56 69 57 70 72 72
REMARK SMILES IDX 94 73 59 74 42 75 43 76 52 77 44 78 45 79 51 80 53 81 46 82
REMARK SMILES IDX 47 83 48 84 49 85 50 86 76 87 77 88 86 89 78 90 79 91 85 92
REMARK SMILES IDX 87 93 80 94 81 95 82 96 83 97 84 98 60 99 61 100 70 101
REMARK SMILES IDX 62 102 63 103 69 104 71 105 64 106 65 107 66 108 67 109
REMARK SMILES IDX 68 110
REMARK H PARENT 92 60 58 71
REMARK Flexibility Score: inf
ROOT
ATOM      1  C   UNL A   1      35.822  23.610  25.540  1.00  0.00     0.188 C 
ENDROOT
BRANCH   1   2
ATOM      2  C   UNL A   1      34.817  22.894  24.629  1.00  0.00     0.188 C 
BRANCH   2   3
ATOM      3  O   UNL A   1      33.725  23.714  24.204  1.00  0.00    -0.376 OA
BRANCH   3   4
ATOM      4  C   UNL A   1      33.812  24.218  22.869  1.00  0.00     0.202 C 
BRANCH   4   5
ATOM      5  C   UNL A   1      33.140  25.583  22.680  1.00  0.00     0.261 C 
BRANCH   5   6
ATOM      6  O   UNL A   1      33.024  26.341  23.895  1.00  0.00    -0.460 OA
BRANCH   6   7
ATOM      7  C   UNL A   1      33.493  27.609  23.893  1.00  0.00     0.338 C 
ATOM      8  O   UNL A   1      34.008  28.193  22.955  1.00  0.00    -0.246 OA
BRANCH   7   9
ATOM      9  C   UNL A   1      33.185  28.244  25.201  1.00  0.00     0.062 A 
ATOM     10  C   UNL A   1      33.275  30.142  26.721  1.00  0.00     0.064 A 
ATOM     11  C   UNL A   1      32.565  29.401  27.667  1.00  0.00     0.028 A 
ATOM     12  C   UNL A   1      33.618  29.540  25.505  1.00  0.00     0.044 A 
ATOM     13  C   UNL A   1      32.154  28.095  27.384  1.00  0.00     0.003 A 
ATOM     14  C   UNL A   1      32.450  27.521  26.146  1.00  0.00     0.016 A 
BRANCH  10  15
ATOM     15  N   UNL A   1      33.698  31.446  27.027  1.00  0.00    -0.248 NA
ATOM     16  C   UNL A   1      35.807  32.372  29.597  1.00  0.00     0.148 C 
ATOM     17  C   UNL A   1      34.670  32.277  30.634  1.00  0.00     0.048 C 
ATOM     18  C   UNL A   1      35.214  32.906  28.262  1.00  0.00     0.103 C 
ATOM     19  N   UNL A   1      36.353  31.030  29.263  1.00  0.00    -0.290 N 
ATOM     20  C   UNL A   1      34.828  31.613  27.644  1.00  0.00     0.109 C 
ATOM     21  C   UNL A   1      35.848  30.580  28.046  1.00  0.00     0.273 C 
ATOM     22  O   UNL A   1      36.090  29.610  27.362  1.00  0.00    -0.267 OA
BRANCH  16  23
ATOM     23  C   UNL A   1      36.854  33.426  30.004  1.00  0.00     0.332 C 
ATOM     24  O   UNL A   1      36.786  34.080  31.040  1.00  0.00    -0.249 OA
BRANCH  23  25
ATOM     25  O   UNL A   1      37.769  33.637  29.020  1.00  0.00    -0.464 OA
BRANCH  25  26
ATOM     26  C   UNL A   1      38.938  34.398  29.379  1.00  0.00     0.229 C 
ATOM     27  C   UNL A   1      39.961  33.562  30.139  1.00  0.00     0.049 C 
ENDBRANCH  25  26
ENDBRANCH  23  25
ENDBRANCH  16  23
BRANCH  19  28
ATOM     28  C   UNL A   1      37.180  30.252  30.136  1.00  0.00     0.045 A 
ATOM     29  C   UNL A   1      36.692  29.763  31.359  1.00  0.00     0.026 A 
ATOM     30  C   UNL A   1      38.521  29.970  29.831  1.00  0.00     0.026 A 
ATOM     31  C   UNL A   1      37.507  29.044  32.244  1.00  0.00     0.002 A 
ATOM     32  C   UNL A   1      39.339  29.256  30.716  1.00  0.00     0.002 A 
ATOM     33  C   UNL A   1      38.834  28.795  31.923  1.00  0.00     0.000 A 
ENDBRANCH  19  28
ENDBRANCH  10  15
ENDBRANCH   7   9
ENDBRANCH   6   7
ENDBRANCH   5   6
ENDBRANCH   4   5
ENDBRANCH   3   4
ENDBRANCH   2   3
ENDBRANCH   1   2
BRANCH   1  34
ATOM     34  O   UNL A   1      37.166  23.328  25.178  1.00  0.00    -0.377 OA
BRANCH  34  35
ATOM     35  C   UNL A   1      37.799  22.290  25.918  1.00  0.00     0.188 C 
BRANCH  35  36
ATOM     36  C   UNL A   1      39.323  22.401  26.030  1.00  0.00     0.188 C 
BRANCH  36  37
ATOM     37  O   UNL A   1      39.707  22.894  27.325  1.00  0.00    -0.376 OA
BRANCH  37  38
ATOM     38  C   UNL A   1      40.236  24.225  27.308  1.00  0.00     0.202 C 
BRANCH  38  39
ATOM     39  C   UNL A   1      41.515  24.378  28.145  1.00  0.00     0.261 C 
BRANCH  39  40
ATOM     40  O   UNL A   1      42.090  25.694  28.102  1.00  0.00    -0.460 OA
BRANCH  40  41
ATOM     41  C   UNL A   1      43.261  25.855  28.760  1.00  0.00     0.338 C 
ATOM     42  O   UNL A   1      44.196  25.075  28.775  1.00  0.00    -0.246 OA
BRANCH  41  43
ATOM     43  C   UNL A   1      43.300  27.213  29.347  1.00  0.00     0.060 A 
ATOM     44  C   UNL A   1      42.497  28.204  28.771  1.00  0.00     0.016 A 
ATOM     45  C   UNL A   1      44.131  27.519  30.431  1.00  0.00     0.016 A 
ATOM     46  C   UNL A   1      42.554  29.513  29.255  1.00  0.00     0.010 A 
ATOM     47  C   UNL A   1      44.201  28.833  30.902  1.00  0.00     0.010 A 
ATOM     48  C   UNL A   1      43.435  29.840  30.296  1.00  0.00    -0.014 A 
BRANCH  48  49
ATOM     49  C   UNL A   1      43.679  31.262  30.631  1.00  0.00     0.031 A 
ATOM     50  C   UNL A   1      42.857  31.896  31.718  1.00  0.00     0.074 A 
ATOM     51  C   UNL A   1      44.610  31.982  29.981  1.00  0.00     0.049 A 
ATOM     52  N   UNL A   1      42.928  33.105  32.211  1.00  0.00    -0.248 NA
ATOM     53  C   UNL A   1      41.821  31.051  32.334  1.00  0.00     0.031 C 
ATOM     54  C   UNL A   1      45.473  31.489  28.910  1.00  0.00     0.029 A 
ATOM     55  N   UNL A   1      44.976  33.295  30.133  1.00  0.00    -0.354 N 
ATOM     56  C   UNL A   1      41.969  33.158  33.214  1.00  0.00     0.074 A 
ATOM     57  C   UNL A   1      41.312  31.868  33.245  1.00  0.00     0.031 C 
ATOM     58  C   UNL A   1      46.261  32.495  28.488  1.00  0.00     0.029 A 
ATOM     59  C   UNL A   1      45.956  33.699  29.261  1.00  0.00     0.049 A 
ATOM     60  H   UNL A   1      44.573  33.893  30.805  1.00  0.00     0.167 HD
ATOM     61  C   UNL A   1      41.663  34.183  34.044  1.00  0.00     0.037 A 
ATOM     62  C   UNL A   1      46.533  34.905  29.102  1.00  0.00     0.037 A 
ATOM     63  C   UNL A   1      42.278  35.479  33.999  1.00  0.00     0.049 A 
ATOM     64  C   UNL A   1      46.127  36.053  29.984  1.00  0.00     0.074 A 
ATOM     65  C   UNL A   1      42.045  36.577  34.809  1.00  0.00     0.029 A 
ATOM     66  N   UNL A   1      43.239  35.859  33.075  1.00  0.00    -0.354 N 
ATOM     67  N   UNL A   1      45.258  36.071  30.965  1.00  0.00    -0.248 NA
ATOM     68  C   UNL A   1      46.782  37.346  29.734  1.00  0.00     0.031 C 
ATOM     69  C   UNL A   1      42.853  37.630  34.358  1.00  0.00     0.029 A 
ATOM     70  C   UNL A   1      43.594  37.181  33.276  1.00  0.00     0.049 A 
ATOM     71  H   UNL A   1      43.614  35.274  32.377  1.00  0.00     0.167 HD
ATOM     72  C   UNL A   1      45.267  37.372  31.456  1.00  0.00     0.074 A 
ATOM     73  C   UNL A   1      46.228  38.113  30.665  1.00  0.00     0.031 C 
ATOM     74  C   UNL A   1      44.548  37.902  32.476  1.00  0.00     0.037 A 
BRANCH  61  75
ATOM     75  C   UNL A   1      40.604  33.917  35.067  1.00  0.00     0.058 A 
ATOM     76  C   UNL A   1      40.946  33.480  36.356  1.00  0.00     0.135 A 
ATOM     77  C   UNL A   1      39.245  34.040  34.745  1.00  0.00     0.135 A 
ATOM     78  F   UNL A   1      42.234  33.327  36.698  1.00  0.00    -0.206 F 
ATOM     79  C   UNL A   1      39.970  33.146  37.289  1.00  0.00     0.059 A 
ATOM     80  C   UNL A   1      38.252  33.716  35.664  1.00  0.00     0.059 A 
ATOM     81  F   UNL A   1      38.874  34.437  33.518  1.00  0.00    -0.206 F 
ATOM     82  C   UNL A   1      38.626  33.250  36.926  1.00  0.00     0.060 A 
BRANCH  82  83
ATOM     83  S   UNL A   1      37.355  32.761  38.113  1.00  0.00     0.124 S 
ATOM     84  O   UNL A   1      37.417  31.306  38.017  1.00  0.00    -0.237 OA
ATOM     85  O   UNL A   1      37.842  33.334  39.364  1.00  0.00    -0.237 OA
ATOM     86  O   UNL A   1      36.146  33.378  37.576  1.00  0.00    -0.744 OA
ENDBRANCH  82  83
ENDBRANCH  61  75
BRANCH  62  87
ATOM     87  C   UNL A   1      47.556  35.095  28.048  1.00  0.00     0.058 A 
ATOM     88  C   UNL A   1      47.189  35.388  26.728  1.00  0.00     0.135 A 
ATOM     89  C   UNL A   1      48.922  34.987  28.347  1.00  0.00     0.135 A 
ATOM     90  F   UNL A   1      45.893  35.494  26.400  1.00  0.00    -0.206 F 
ATOM     91  C   UNL A   1      48.145  35.567  25.733  1.00  0.00     0.059 A 
ATOM     92  C   UNL A   1      49.896  35.166  27.371  1.00  0.00     0.059 A 
ATOM     93  F   UNL A   1      49.315  34.709  29.599  1.00  0.00    -0.206 F 
ATOM     94  C   UNL A   1      49.496  35.450  26.065  1.00  0.00     0.060 A 
BRANCH  94  95
ATOM     95  S   UNL A   1      50.736  35.725  24.780  1.00  0.00     0.124 S 
ATOM     96  O   UNL A   1      50.953  34.372  24.285  1.00  0.00    -0.237 OA
ATOM     97  O   UNL A   1      50.048  36.639  23.876  1.00  0.00    -0.237 OA
ATOM     98  O   UNL A   1      51.850  36.315  25.517  1.00  0.00    -0.744 OA
ENDBRANCH  94  95
ENDBRANCH  62  87
BRANCH  74  99
ATOM     99  C   UNL A   1      44.772  39.348  32.792  1.00  0.00     0.058 A 
ATOM    100  C   UNL A   1      43.986  40.349  32.201  1.00  0.00     0.135 A 
ATOM    101  C   UNL A   1      45.744  39.734  33.729  1.00  0.00     0.135 A 
ATOM    102  F   UNL A   1      43.049  40.025  31.298  1.00  0.00    -0.206 F 
ATOM    103  C   UNL A   1      44.159  41.690  32.526  1.00  0.00     0.059 A 
ATOM    104  C   UNL A   1      45.929  41.068  34.073  1.00  0.00     0.059 A 
ATOM    105  F   UNL A   1      46.517  38.809  34.320  1.00  0.00    -0.206 F 
ATOM    106  C   UNL A   1      45.135  42.041  33.460  1.00  0.00     0.060 A 
BRANCH 106 107
ATOM    107  S   UNL A   1      45.339  43.775  33.922  1.00  0.00     0.124 S 
ATOM    108  O   UNL A   1      44.681  43.811  35.223  1.00  0.00    -0.237 OA
ATOM    109  O   UNL A   1      46.790  43.939  33.944  1.00  0.00    -0.237 OA
ATOM    110  O   UNL A   1      44.654  44.485  32.846  1.00  0.00    -0.744 OA
ENDBRANCH 106 107
ENDBRANCH  74  99
ENDBRANCH  48  49
ENDBRANCH  41  43
ENDBRANCH  40  41
ENDBRANCH  39  40
ENDBRANCH  38  39
ENDBRANCH  37  38
ENDBRANCH  36  37
ENDBRANCH  35  36
ENDBRANCH  34  35
ENDBRANCH   1  34
TORSDOF 28
ENDMDL
MODEL 2
REMARK VINA RESULT:      -8.0      4.905      7.273
REMARK SMILES CCOC(=O)[C@@]1(C)C/C(=N/c2cccc(C(=O)OCCOCCOCCOCCOC(=O)c3ccc(-c4c5nc(c(-c6c(F)cc(S(=O)(=O)[O-])cc6F)c6ccc([nH]6)c(-c6c(F)cc(S(=O)(=O)[O-])cc6F)c6nc(c(-c7c(F)cc(S(=O)(=O)[O-])cc7F)c7ccc4[nH]7)C=C6)C=C5)cc3)c2)C(=O)N1c1ccccc1
REMARK SMILES IDX 23 1 22 2 21 3 20 4 19 5 18 6 16 7 17 8 15 9 11 10 12 11
REMARK SMILES IDX 99 12 13 13 14 14 10 15 6 16 7 17 8 18 102 19 9 20 100 21
REMARK SMILES IDX 101 22 4 23 5 24 3 25 2 26 1 27 103 28 104 29 108 30 105 31
REMARK SMILES IDX 107 32 106 33 24 34 25 35 26 36 27 37 28 38 29 39 30 40
REMARK SMILES IDX 31 41 32 42 33 43 34 44 98 45 35 46 97 47 36 48 37 49 38 50
REMARK SMILES IDX 91 51 39 52 96 53 90 54 92 55 40 56 95 57 89 58 88 59 41 61
REMARK SMILES IDX 75 62 54 63 74 64 55 65 58 66 73 67 93 68 56 69 57 70 72 72
REMARK SMILES IDX 94 73 59 74 42 75 43 76 52 77 44 78 45 79 51 80 53 81 46 82
REMARK SMILES IDX 47 83 48 84 49 85 50 86 76 87 77 88 86 89 78 90 79 91 85 92
REMARK SMILES IDX 87 93 80 94 81 95 82 96 83 97 84 98 60 99 61 100 70 101
REMARK SMILES IDX 62 102 63 103 69 104 71 105 64 106 65 107 66 108 67 109
REMARK SMILES IDX 68 110
REMARK H PARENT 92 60 58 71
REMARK Flexibility Score: inf
ROOT
ATOM      1  C   UNL A   1      34.335  23.178  23.700  1.00  0.00     0.188 C 
ENDROOT
BRANCH   1   2
ATOM      2  C   UNL A   1      33.231  23.639  24.659  1.00  0.00     0.188 C 
BRANCH   2   3
ATOM      3  O   UNL A   1      32.572  24.843  24.257  1.00  0.00    -0.376 OA
BRANCH   3   4
ATOM      4  C   UNL A   1      32.451  25.042  22.847  1.00  0.00     0.202 C 
BRANCH   4   5
ATOM      5  C   UNL A   1      33.072  26.354  22.355  1.00  0.00     0.261 C 
BRANCH   5   6
ATOM      6  O   UNL A   1      33.414  27.263  23.414  1.00  0.00    -0.460 OA
BRANCH   6   7
ATOM      7  C   UNL A   1      32.551  28.267  23.685  1.00  0.00     0.338 C 
ATOM      8  O   UNL A   1      31.733  28.750  22.920  1.00  0.00    -0.246 OA
BRANCH   7   9
ATOM      9  C   UNL A   1      32.670  28.638  25.119  1.00  0.00     0.062 A 
ATOM     10  C   UNL A   1      33.197  30.246  26.867  1.00  0.00     0.064 A 
ATOM     11  C   UNL A   1      32.857  29.293  27.828  1.00  0.00     0.028 A 
ATOM     12  C   UNL A   1      33.141  29.895  25.513  1.00  0.00     0.044 A 
ATOM     13  C   UNL A   1      32.414  28.024  27.445  1.00  0.00     0.003 A 
ATOM     14  C   UNL A   1      32.304  27.700  26.091  1.00  0.00     0.016 A 
BRANCH  10  15
ATOM     15  N   UNL A   1      33.660  31.510  27.268  1.00  0.00    -0.248 NA
ATOM     16  C   UNL A   1      36.214  32.152  29.499  1.00  0.00     0.148 C 
ATOM     17  C   UNL A   1      35.296  31.877  30.708  1.00  0.00     0.048 C 
ATOM     18  C   UNL A   1      35.372  32.841  28.388  1.00  0.00     0.103 C 
ATOM     19  N   UNL A   1      36.697  30.888  28.883  1.00  0.00    -0.290 N 
ATOM     20  C   UNL A   1      34.886  31.632  27.679  1.00  0.00     0.109 C 
ATOM     21  C   UNL A   1      35.973  30.590  27.733  1.00  0.00     0.273 C 
ATOM     22  O   UNL A   1      36.087  29.731  26.886  1.00  0.00    -0.267 OA
BRANCH  16  23
ATOM     23  C   UNL A   1      37.310  33.176  29.846  1.00  0.00     0.332 C 
ATOM     24  O   UNL A   1      38.027  33.709  29.004  1.00  0.00    -0.249 OA
BRANCH  23  25
ATOM     25  O   UNL A   1      37.475  33.305  31.190  1.00  0.00    -0.464 OA
BRANCH  25  26
ATOM     26  C   UNL A   1      38.735  32.862  31.730  1.00  0.00     0.229 C 
ATOM     27  C   UNL A   1      38.581  31.637  32.625  1.00  0.00     0.049 C 
ENDBRANCH  25  26
ENDBRANCH  23  25
ENDBRANCH  16  23
BRANCH  19  28
ATOM     28  C   UNL A   1      37.682  30.027  29.467  1.00  0.00     0.045 A 
ATOM     29  C   UNL A   1      37.326  29.034  30.395  1.00  0.00     0.026 A 
ATOM     30  C   UNL A   1      39.048  30.155  29.170  1.00  0.00     0.026 A 
ATOM     31  C   UNL A   1      38.287  28.221  31.011  1.00  0.00     0.002 A 
ATOM     32  C   UNL A   1      40.011  29.347  29.788  1.00  0.00     0.002 A 
ATOM     33  C   UNL A   1      39.632  28.382  30.710  1.00  0.00     0.000 A 
ENDBRANCH  19  28
ENDBRANCH  10  15
ENDBRANCH   7   9
ENDBRANCH   6   7
ENDBRANCH   5   6
ENDBRANCH   4   5
ENDBRANCH   3   4
ENDBRANCH   2   3
ENDBRANCH   1   2
BRANCH   1  34
ATOM     34  O   UNL A   1      34.650  21.804  23.869  1.00  0.00    -0.377 OA
BRANCH  34  35
ATOM     35  C   UNL A   1      35.035  21.416  25.184  1.00  0.00     0.188 C 
BRANCH  35  36
ATOM     36  C   UNL A   1      36.545  21.349  25.432  1.00  0.00     0.188 C 
BRANCH  36  37
ATOM     37  O   UNL A   1      37.022  22.565  26.031  1.00  0.00    -0.376 OA
BRANCH  37  38
ATOM     38  C   UNL A   1      38.421  22.800  25.837  1.00  0.00     0.202 C 
BRANCH  38  39
ATOM     39  C   UNL A   1      39.286  21.561  26.116  1.00  0.00     0.261 C 
BRANCH  39  40
ATOM     40  O   UNL A   1      40.398  21.807  26.993  1.00  0.00    -0.460 OA
BRANCH  40  41
ATOM     41  C   UNL A   1      41.527  22.271  26.409  1.00  0.00     0.338 C 
ATOM     42  O   UNL A   1      41.992  21.907  25.344  1.00  0.00    -0.246 OA
BRANCH  41  43
ATOM     43  C   UNL A   1      42.041  23.413  27.197  1.00  0.00     0.060 A 
ATOM     44  C   UNL A   1      43.423  23.631  27.219  1.00  0.00     0.016 A 
ATOM     45  C   UNL A   1      41.183  24.243  27.928  1.00  0.00     0.016 A 
ATOM     46  C   UNL A   1      43.953  24.658  28.002  1.00  0.00     0.010 A 
ATOM     47  C   UNL A   1      41.716  25.259  28.726  1.00  0.00     0.010 A 
ATOM     48  C   UNL A   1      43.105  25.450  28.789  1.00  0.00    -0.014 A 
BRANCH  48  49
ATOM     49  C   UNL A   1      43.684  26.360  29.805  1.00  0.00     0.031 A 
ATOM     50  C   UNL A   1      44.210  25.768  31.083  1.00  0.00     0.074 A 
ATOM     51  C   UNL A   1      43.740  27.688  29.602  1.00  0.00     0.049 A 
ATOM     52  N   UNL A   1      44.800  26.361  32.089  1.00  0.00    -0.248 NA
ATOM     53  C   UNL A   1      44.054  24.314  31.246  1.00  0.00     0.031 C 
ATOM     54  C   UNL A   1      43.266  28.387  28.409  1.00  0.00     0.029 A 
ATOM     55  N   UNL A   1      44.221  28.685  30.411  1.00  0.00    -0.354 N 
ATOM     56  C   UNL A   1      45.113  25.351  32.989  1.00  0.00     0.074 A 
ATOM     57  C   UNL A   1      44.627  24.111  32.424  1.00  0.00     0.031 C 
ATOM     58  C   UNL A   1      43.467  29.708  28.572  1.00  0.00     0.029 A 
ATOM     59  C   UNL A   1      44.083  29.942  29.878  1.00  0.00     0.049 A 
ATOM     60  H   UNL A   1      44.628  28.516  31.292  1.00  0.00     0.167 HD
ATOM     61  C   UNL A   1      45.754  25.442  34.178  1.00  0.00     0.037 A 
ATOM     62  C   UNL A   1      44.409  31.143  30.391  1.00  0.00     0.037 A 
ATOM     63  C   UNL A   1      46.206  26.669  34.769  1.00  0.00     0.049 A 
ATOM     64  C   UNL A   1      45.053  31.230  31.747  1.00  0.00     0.074 A 
ATOM     65  C   UNL A   1      46.880  26.859  35.963  1.00  0.00     0.029 A 
ATOM     66  N   UNL A   1      46.011  27.924  34.213  1.00  0.00    -0.354 N 
ATOM     67  N   UNL A   1      45.392  30.260  32.561  1.00  0.00    -0.248 NA
ATOM     68  C   UNL A   1      45.358  32.578  32.252  1.00  0.00     0.031 C 
ATOM     69  C   UNL A   1      47.072  28.236  36.140  1.00  0.00     0.029 A 
ATOM     70  C   UNL A   1      46.529  28.898  35.050  1.00  0.00     0.049 A 
ATOM     71  H   UNL A   1      45.569  28.097  33.351  1.00  0.00     0.167 HD
ATOM     72  C   UNL A   1      45.959  30.878  33.671  1.00  0.00     0.074 A 
ATOM     73  C   UNL A   1      45.916  32.305  33.426  1.00  0.00     0.031 C 
ATOM     74  C   UNL A   1      46.472  30.312  34.790  1.00  0.00     0.037 A 
BRANCH  61  75
ATOM     75  C   UNL A   1      45.991  24.155  34.904  1.00  0.00     0.058 A 
ATOM     76  C   UNL A   1      45.076  23.694  35.864  1.00  0.00     0.135 A 
ATOM     77  C   UNL A   1      47.158  23.409  34.686  1.00  0.00     0.135 A 
ATOM     78  F   UNL A   1      43.958  24.390  36.119  1.00  0.00    -0.206 F 
ATOM     79  C   UNL A   1      45.325  22.546  36.608  1.00  0.00     0.059 A 
ATOM     80  C   UNL A   1      47.425  22.255  35.415  1.00  0.00     0.059 A 
ATOM     81  F   UNL A   1      48.067  23.823  33.791  1.00  0.00    -0.206 F 
ATOM     82  C   UNL A   1      46.512  21.844  36.389  1.00  0.00     0.060 A 
BRANCH  82  83
ATOM     83  S   UNL A   1      46.868  20.385  37.392  1.00  0.00     0.124 S 
ATOM     84  O   UNL A   1      48.275  20.596  37.716  1.00  0.00    -0.237 OA
ATOM     85  O   UNL A   1      45.935  20.522  38.506  1.00  0.00    -0.237 OA
ATOM     86  O   UNL A   1      46.589  19.280  36.480  1.00  0.00    -0.744 OA
ENDBRANCH  82  83
ENDBRANCH  61  75
BRANCH  62  87
ATOM     87  C   UNL A   1      44.118  32.374  29.619  1.00  0.00     0.058 A 
ATOM     88  C   UNL A   1      45.081  32.944  28.776  1.00  0.00     0.135 A 
ATOM     89  C   UNL A   1      42.867  33.000  29.715  1.00  0.00     0.135 A 
ATOM     90  F   UNL A   1      46.292  32.379  28.662  1.00  0.00    -0.206 F 
ATOM     91  C   UNL A   1      44.814  34.100  28.049  1.00  0.00     0.059 A 
ATOM     92  C   UNL A   1      42.575  34.153  28.995  1.00  0.00     0.059 A 
ATOM     93  F   UNL A   1      41.918  32.484  30.510  1.00  0.00    -0.206 F 
ATOM     94  C   UNL A   1      43.558  34.699  28.169  1.00  0.00     0.060 A 
BRANCH  94  95
ATOM     95  S   UNL A   1      43.200  36.176  27.192  1.00  0.00     0.124 S 
ATOM     96  O   UNL A   1      42.407  35.623  26.102  1.00  0.00    -0.237 OA
ATOM     97  O   UNL A   1      42.484  37.012  28.148  1.00  0.00    -0.237 OA
ATOM     98  O   UNL A   1      44.527  36.660  26.827  1.00  0.00    -0.744 OA
ENDBRANCH  94  95
ENDBRANCH  62  87
BRANCH  74  99
ATOM     99  C   UNL A   1      47.028  31.234  35.831  1.00  0.00     0.058 A 
ATOM    100  C   UNL A   1      46.213  31.755  36.846  1.00  0.00     0.135 A 
ATOM    101  C   UNL A   1      48.393  31.560  35.843  1.00  0.00     0.135 A 
ATOM    102  F   UNL A   1      44.901  31.473  36.870  1.00  0.00    -0.206 F 
ATOM    103  C   UNL A   1      46.732  32.576  37.842  1.00  0.00     0.059 A 
ATOM    104  C   UNL A   1      48.935  32.373  36.832  1.00  0.00     0.059 A 
ATOM    105  F   UNL A   1      49.210  31.082  34.891  1.00  0.00    -0.206 F 
ATOM    106  C   UNL A   1      48.094  32.882  37.825  1.00  0.00     0.060 A 
BRANCH 106 107
ATOM    107  S   UNL A   1      48.789  33.911  39.138  1.00  0.00     0.124 S 
ATOM    108  O   UNL A   1      49.886  34.572  38.441  1.00  0.00    -0.237 OA
ATOM    109  O   UNL A   1      47.667  34.769  39.509  1.00  0.00    -0.237 OA
ATOM    110  O   UNL A   1      49.180  32.934  40.149  1.00  0.00    -0.744 OA
ENDBRANCH 106 107
ENDBRANCH  74  99
ENDBRANCH  48  49
ENDBRANCH  41  43
ENDBRANCH  40  41
ENDBRANCH  39  40
ENDBRANCH  38  39
ENDBRANCH  37  38
ENDBRANCH  36  37
ENDBRANCH  35  36
ENDBRANCH  34  35
ENDBRANCH   1  34
TORSDOF 28
ENDMDL
MODEL 3
REMARK VINA RESULT:      -7.7      5.095      9.062
REMARK SMILES CCOC(=O)[C@@]1(C)C/C(=N/c2cccc(C(=O)OCCOCCOCCOCCOC(=O)c3ccc(-c4c5nc(c(-c6c(F)cc(S(=O)(=O)[O-])cc6F)c6ccc([nH]6)c(-c6c(F)cc(S(=O)(=O)[O-])cc6F)c6nc(c(-c7c(F)cc(S(=O)(=O)[O-])cc7F)c7ccc4[nH]7)C=C6)C=C5)cc3)c2)C(=O)N1c1ccccc1
REMARK SMILES IDX 23 1 22 2 21 3 20 4 19 5 18 6 16 7 17 8 15 9 11 10 12 11
REMARK SMILES IDX 99 12 13 13 14 14 10 15 6 16 7 17 8 18 102 19 9 20 100 21
REMARK SMILES IDX 101 22 4 23 5 24 3 25 2 26 1 27 103 28 104 29 108 30 105 31
REMARK SMILES IDX 107 32 106 33 24 34 25 35 26 36 27 37 28 38 29 39 30 40
REMARK SMILES IDX 31 41 32 42 33 43 34 44 98 45 35 46 97 47 36 48 37 49 38 50
REMARK SMILES IDX 91 51 39 52 96 53 90 54 92 55 40 56 95 57 89 58 88 59 41 61
REMARK SMILES IDX 75 62 54 63 74 64 55 65 58 66 73 67 93 68 56 69 57 70 72 72
REMARK SMILES IDX 94 73 59 74 42 75 43 76 52 77 44 78 45 79 51 80 53 81 46 82
REMARK SMILES IDX 47 83 48 84 49 85 50 86 76 87 77 88 86 89 78 90 79 91 85 92
REMARK SMILES IDX 87 93 80 94 81 95 82 96 83 97 84 98 60 99 61 100 70 101
REMARK SMILES IDX 62 102 63 103 69 104 71 105 64 106 65 107 66 108 67 109
REMARK SMILES IDX 68 110
REMARK H PARENT 92 60 58 71
REMARK Flexibility Score: inf
ROOT
ATOM      1  C   UNL A   1      35.785  23.611  23.483  1.00  0.00     0.188 C 
ENDROOT
BRANCH   1   2
ATOM      2  C   UNL A   1      35.069  24.086  24.753  1.00  0.00     0.188 C 
BRANCH   2   3
ATOM      3  O   UNL A   1      33.918  24.900  24.507  1.00  0.00    -0.376 OA
BRANCH   3   4
ATOM      4  C   UNL A   1      33.438  24.903  23.161  1.00  0.00     0.202 C 
BRANCH   4   5
ATOM      5  C   UNL A   1      33.494  26.280  22.490  1.00  0.00     0.261 C 
BRANCH   5   6
ATOM      6  O   UNL A   1      33.583  27.371  23.420  1.00  0.00    -0.460 OA
BRANCH   6   7
ATOM      7  C   UNL A   1      32.452  28.060  23.694  1.00  0.00     0.338 C 
ATOM      8  O   UNL A   1      31.503  28.224  22.947  1.00  0.00    -0.246 OA
BRANCH   7   9
ATOM      9  C   UNL A   1      32.486  28.510  25.109  1.00  0.00     0.062 A 
ATOM     10  C   UNL A   1      32.986  30.187  26.800  1.00  0.00     0.064 A 
ATOM     11  C   UNL A   1      32.511  29.319  27.783  1.00  0.00     0.028 A 
ATOM     12  C   UNL A   1      33.010  29.758  25.468  1.00  0.00     0.044 A 
ATOM     13  C   UNL A   1      32.014  28.058  27.438  1.00  0.00     0.003 A 
ATOM     14  C   UNL A   1      31.986  27.658  26.101  1.00  0.00     0.016 A 
BRANCH  10  15
ATOM     15  N   UNL A   1      33.500  31.442  27.164  1.00  0.00    -0.248 NA
ATOM     16  C   UNL A   1      36.037  32.047  29.424  1.00  0.00     0.148 C 
ATOM     17  C   UNL A   1      35.085  31.861  30.622  1.00  0.00     0.048 C 
ATOM     18  C   UNL A   1      35.251  32.733  28.271  1.00  0.00     0.103 C 
ATOM     19  N   UNL A   1      36.472  30.740  28.864  1.00  0.00    -0.290 N 
ATOM     20  C   UNL A   1      34.722  31.522  27.596  1.00  0.00     0.109 C 
ATOM     21  C   UNL A   1      35.757  30.433  27.710  1.00  0.00     0.273 C 
ATOM     22  O   UNL A   1      35.847  29.539  26.898  1.00  0.00    -0.267 OA
BRANCH  16  23
ATOM     23  C   UNL A   1      37.174  33.032  29.756  1.00  0.00     0.332 C 
ATOM     24  O   UNL A   1      37.533  33.929  29.000  1.00  0.00    -0.249 OA
BRANCH  23  25
ATOM     25  O   UNL A   1      37.813  32.697  30.909  1.00  0.00    -0.464 OA
BRANCH  25  26
ATOM     26  C   UNL A   1      39.249  32.813  30.908  1.00  0.00     0.229 C 
ATOM     27  C   UNL A   1      39.749  33.798  31.959  1.00  0.00     0.049 C 
ENDBRANCH  25  26
ENDBRANCH  23  25
ENDBRANCH  16  23
BRANCH  19  28
ATOM     28  C   UNL A   1      37.404  29.857  29.500  1.00  0.00     0.045 A 
ATOM     29  C   UNL A   1      37.075  29.180  30.687  1.00  0.00     0.026 A 
ATOM     30  C   UNL A   1      38.696  29.651  28.992  1.00  0.00     0.026 A 
ATOM     31  C   UNL A   1      37.997  28.353  31.344  1.00  0.00     0.002 A 
ATOM     32  C   UNL A   1      39.620  28.830  29.650  1.00  0.00     0.002 A 
ATOM     33  C   UNL A   1      39.273  28.184  30.827  1.00  0.00     0.000 A 
ENDBRANCH  19  28
ENDBRANCH  10  15
ENDBRANCH   7   9
ENDBRANCH   6   7
ENDBRANCH   5   6
ENDBRANCH   4   5
ENDBRANCH   3   4
ENDBRANCH   2   3
ENDBRANCH   1   2
BRANCH   1  34
ATOM     34  O   UNL A   1      36.012  22.210  23.489  1.00  0.00    -0.377 OA
BRANCH  34  35
ATOM     35  C   UNL A   1      35.862  21.567  24.751  1.00  0.00     0.188 C 
BRANCH  35  36
ATOM     36  C   UNL A   1      37.149  20.989  25.348  1.00  0.00     0.188 C 
BRANCH  36  37
ATOM     37  O   UNL A   1      37.885  22.001  26.056  1.00  0.00    -0.376 OA
BRANCH  37  38
ATOM     38  C   UNL A   1      39.306  21.905  25.899  1.00  0.00     0.202 C 
BRANCH  38  39
ATOM     39  C   UNL A   1      39.858  20.512  26.237  1.00  0.00     0.261 C 
BRANCH  39  40
ATOM     40  O   UNL A   1      40.983  20.528  27.131  1.00  0.00    -0.460 OA
BRANCH  40  41
ATOM     41  C   UNL A   1      42.153  20.965  26.611  1.00  0.00     0.338 C 
ATOM     42  O   UNL A   1      42.694  20.553  25.601  1.00  0.00    -0.246 OA
BRANCH  41  43
ATOM     43  C   UNL A   1      42.611  22.143  27.381  1.00  0.00     0.060 A 
ATOM     44  C   UNL A   1      43.940  22.554  27.229  1.00  0.00     0.016 A 
ATOM     45  C   UNL A   1      41.758  22.819  28.261  1.00  0.00     0.016 A 
ATOM     46  C   UNL A   1      44.429  23.620  27.987  1.00  0.00     0.010 A 
ATOM     47  C   UNL A   1      42.254  23.873  29.033  1.00  0.00     0.010 A 
ATOM     48  C   UNL A   1      43.598  24.258  28.920  1.00  0.00    -0.014 A 
BRANCH  48  49
ATOM     49  C   UNL A   1      44.184  25.207  29.895  1.00  0.00     0.031 A 
ATOM     50  C   UNL A   1      44.409  26.630  29.467  1.00  0.00     0.074 A 
ATOM     51  C   UNL A   1      44.514  24.816  31.138  1.00  0.00     0.049 A 
ATOM     52  N   UNL A   1      44.862  27.642  30.160  1.00  0.00    -0.248 NA
ATOM     53  C   UNL A   1      44.074  26.956  28.071  1.00  0.00     0.031 C 
ATOM     54  C   UNL A   1      44.347  23.468  31.679  1.00  0.00     0.029 A 
ATOM     55  N   UNL A   1      45.069  25.529  32.170  1.00  0.00    -0.354 N 
ATOM     56  C   UNL A   1      44.839  28.730  29.298  1.00  0.00     0.074 A 
ATOM     57  C   UNL A   1      44.349  28.251  28.022  1.00  0.00     0.031 C 
ATOM     58  C   UNL A   1      44.807  23.448  32.943  1.00  0.00     0.029 A 
ATOM     59  C   UNL A   1      45.297  24.779  33.297  1.00  0.00     0.049 A 
ATOM     60  H   UNL A   1      45.283  26.488  32.109  1.00  0.00     0.167 HD
ATOM     61  C   UNL A   1      45.184  30.016  29.542  1.00  0.00     0.037 A 
ATOM     62  C   UNL A   1      45.847  25.129  34.475  1.00  0.00     0.037 A 
ATOM     63  C   UNL A   1      45.707  30.496  30.789  1.00  0.00     0.049 A 
ATOM     64  C   UNL A   1      46.295  26.546  34.703  1.00  0.00     0.074 A 
ATOM     65  C   UNL A   1      46.072  31.785  31.136  1.00  0.00     0.029 A 
ATOM     66  N   UNL A   1      45.960  29.696  31.893  1.00  0.00    -0.354 N 
ATOM     67  N   UNL A   1      46.215  27.575  33.895  1.00  0.00    -0.248 NA
ATOM     68  C   UNL A   1      46.910  26.848  36.005  1.00  0.00     0.031 C 
ATOM     69  C   UNL A   1      46.567  31.760  32.447  1.00  0.00     0.029 A 
ATOM     70  C   UNL A   1      46.498  30.457  32.916  1.00  0.00     0.049 A 
ATOM     71  H   UNL A   1      45.783  28.729  31.941  1.00  0.00     0.167 HD
ATOM     72  C   UNL A   1      46.759  28.648  34.592  1.00  0.00     0.074 A 
ATOM     73  C   UNL A   1      47.167  28.145  35.887  1.00  0.00     0.031 C 
ATOM     74  C   UNL A   1      46.902  29.936  34.195  1.00  0.00     0.037 A 
BRANCH  61  75
ATOM     75  C   UNL A   1      44.999  30.979  28.412  1.00  0.00     0.058 A 
ATOM     76  C   UNL A   1      45.998  31.144  27.439  1.00  0.00     0.135 A 
ATOM     77  C   UNL A   1      43.852  31.781  28.330  1.00  0.00     0.135 A 
ATOM     78  F   UNL A   1      47.121  30.412  27.493  1.00  0.00    -0.206 F 
ATOM     79  C   UNL A   1      45.876  32.097  26.433  1.00  0.00     0.059 A 
ATOM     80  C   UNL A   1      43.708  32.737  27.329  1.00  0.00     0.059 A 
ATOM     81  F   UNL A   1      42.882  31.669  29.250  1.00  0.00    -0.206 F 
ATOM     82  C   UNL A   1      44.736  32.901  26.398  1.00  0.00     0.060 A 
BRANCH  82  83
ATOM     83  S   UNL A   1      44.601  34.179  25.130  1.00  0.00     0.124 S 
ATOM     84  O   UNL A   1      44.520  33.372  23.917  1.00  0.00    -0.237 OA
ATOM     85  O   UNL A   1      43.378  34.881  25.505  1.00  0.00    -0.237 OA
ATOM     86  O   UNL A   1      45.834  34.944  25.298  1.00  0.00    -0.744 OA
ENDBRANCH  82  83
ENDBRANCH  61  75
BRANCH  62  87
ATOM     87  C   UNL A   1      46.020  24.109  35.536  1.00  0.00     0.058 A 
ATOM     88  C   UNL A   1      45.147  24.047  36.629  1.00  0.00     0.135 A 
ATOM     89  C   UNL A   1      47.066  23.177  35.470  1.00  0.00     0.135 A 
ATOM     90  F   UNL A   1      44.137  24.925  36.733  1.00  0.00    -0.206 F 
ATOM     91  C   UNL A   1      45.304  23.093  37.629  1.00  0.00     0.059 A 
ATOM     92  C   UNL A   1      47.241  22.211  36.454  1.00  0.00     0.059 A 
ATOM     93  F   UNL A   1      47.923  23.202  34.438  1.00  0.00    -0.206 F 
ATOM     94  C   UNL A   1      46.357  22.181  37.533  1.00  0.00     0.060 A 
BRANCH  94  95
ATOM     95  S   UNL A   1      46.534  20.916  38.811  1.00  0.00     0.124 S 
ATOM     96  O   UNL A   1      47.969  20.944  39.057  1.00  0.00    -0.237 OA
ATOM     97  O   UNL A   1      45.687  21.433  39.878  1.00  0.00    -0.237 OA
ATOM     98  O   UNL A   1      46.029  19.713  38.156  1.00  0.00    -0.744 OA
ENDBRANCH  94  95
ENDBRANCH  62  87
BRANCH  74  99
ATOM     99  C   UNL A   1      47.524  30.888  35.170  1.00  0.00     0.058 A 
ATOM    100  C   UNL A   1      48.895  31.179  35.123  1.00  0.00     0.135 A 
ATOM    101  C   UNL A   1      46.737  31.552  36.124  1.00  0.00     0.135 A 
ATOM    102  F   UNL A   1      49.686  30.564  34.230  1.00  0.00    -0.206 F 
ATOM    103  C   UNL A   1      49.470  32.096  35.996  1.00  0.00     0.059 A 
ATOM    104  C   UNL A   1      47.290  32.477  37.002  1.00  0.00     0.059 A 
ATOM    105  F   UNL A   1      45.420  31.305  36.202  1.00  0.00    -0.206 F 
ATOM    106  C   UNL A   1      48.660  32.738  36.935  1.00  0.00     0.060 A 
BRANCH 106 107
ATOM    107  S   UNL A   1      49.388  33.964  38.044  1.00  0.00     0.124 S 
ATOM    108  O   UNL A   1      48.207  34.701  38.481  1.00  0.00    -0.237 OA
ATOM    109  O   UNL A   1      50.031  33.140  39.064  1.00  0.00    -0.237 OA
ATOM    110  O   UNL A   1      50.303  34.695  37.173  1.00  0.00    -0.744 OA
ENDBRANCH 106 107
ENDBRANCH  74  99
ENDBRANCH  48  49
ENDBRANCH  41  43
ENDBRANCH  40  41
ENDBRANCH  39  40
ENDBRANCH  38  39
ENDBRANCH  37  38
ENDBRANCH  36  37
ENDBRANCH  35  36
ENDBRANCH  34  35
ENDBRANCH   1  34
TORSDOF 28
ENDMDL
