MODEL 1
REMARK VINA RESULT:     -10.4      0.000      0.000
REMARK SMILES Cc1cccc(C(=O)Nc2cc(C(=O)OCCOCCOCCOCCOC(=O)c3ccc(-c4c5nc(c(-c6c(F)cc(S(=O)(=O)[O-])cc6F)c6ccc([nH]6)c(-c6c(F)cc(S(=O)(=O)[O-])cc6F)c6nc(c(-c7c(F)cc(S(=O)(=O)[O-])cc7F)c7ccc4[nH]7)C=C6)C=C5)cc3)ccc2N2CC[NH+](CC(=O)NC(C)(C)C)CC2)c1
REMARK SMILES IDX 20 1 19 2 18 3 17 4 16 5 15 6 13 7 14 8 12 9 10 10 11 11
REMARK SMILES IDX 98 12 97 13 96 14 9 15 7 16 8 17 6 19 1 20 2 21 3 22 113 23
REMARK SMILES IDX 4 24 5 25 99 26 100 27 112 28 101 29 111 30 102 31 103 33
REMARK SMILES IDX 104 34 105 35 106 36 107 38 108 39 109 40 110 41 21 42 22 43
REMARK SMILES IDX 23 44 24 45 25 46 26 47 27 48 28 49 29 50 30 51 31 52 95 53
REMARK SMILES IDX 32 54 94 55 33 56 34 57 35 58 88 59 36 60 93 61 87 62 89 63
REMARK SMILES IDX 37 64 92 65 86 66 85 67 38 69 72 70 51 71 71 72 52 73 55 74
REMARK SMILES IDX 70 75 90 76 53 77 54 78 69 80 91 81 56 82 39 83 40 84 49 85
REMARK SMILES IDX 41 86 42 87 48 88 50 89 43 90 44 91 45 92 46 93 47 94 73 95
REMARK SMILES IDX 74 96 83 97 75 98 76 99 82 100 84 101 77 102 78 103 79 104
REMARK SMILES IDX 80 105 81 106 57 107 58 108 67 109 59 110 60 111 66 112
REMARK SMILES IDX 68 113 61 114 62 115 63 116 64 117 65 118
REMARK H PARENT 9 18 102 32 106 37 89 68 55 79
REMARK Flexibility Score: inf
ROOT
ATOM      1  C   UNL A   1      41.114  20.683  27.187  1.00  0.00     0.188 C 
ENDROOT
BRANCH   1   2
ATOM      2  C   UNL A   1      40.287  19.651  26.162  1.00  0.00     0.188 C 
BRANCH   2   3
ATOM      3  O   UNL A   1      39.014  19.751  24.906  1.00  0.00    -0.376 OA
BRANCH   3   4
ATOM      4  C   UNL A   1      37.277  20.050  24.859  1.00  0.00     0.202 C 
BRANCH   4   5
ATOM      5  C   UNL A   1      35.859  18.815  24.722  1.00  0.00     0.261 C 
BRANCH   5   6
ATOM      6  O   UNL A   1      34.091  19.204  24.898  1.00  0.00    -0.460 OA
BRANCH   6   7
ATOM      7  C   UNL A   1      33.049  20.246  25.024  1.00  0.00     0.338 C 
ATOM      8  O   UNL A   1      31.850  20.026  25.234  1.00  0.00    -0.246 OA
BRANCH   7   9
ATOM      9  C   UNL A   1      33.231  21.830  24.979  1.00  0.00     0.062 A 
ATOM     10  C   UNL A   1      33.550  24.059  23.943  1.00  0.00     0.065 A 
ATOM     11  C   UNL A   1      33.685  22.681  23.965  1.00  0.00     0.044 A 
ATOM     12  C   UNL A   1      33.329  24.742  25.137  1.00  0.00     0.061 A 
ATOM     13  C   UNL A   1      33.067  23.961  26.264  1.00  0.00     0.029 A 
ATOM     14  C   UNL A   1      32.954  22.548  26.166  1.00  0.00     0.018 A 
BRANCH  10  15
ATOM     15  N   UNL A   1      33.713  24.785  22.736  1.00  0.00    -0.320 N 
ATOM     16  C   UNL A   1      32.882  25.709  22.101  1.00  0.00     0.255 C 
ATOM     17  O   UNL A   1      33.369  26.355  21.164  1.00  0.00    -0.269 OA
ATOM     18  H   UNL A   1      34.558  24.607  22.265  1.00  0.00     0.170 HD
BRANCH  16  19
ATOM     19  C   UNL A   1      31.497  26.098  22.531  1.00  0.00     0.040 A 
ATOM     20  C   UNL A   1      29.308  29.134  22.922  1.00  0.00     0.044 C 
ATOM     21  C   UNL A   1      29.701  27.697  22.895  1.00  0.00    -0.050 A 
ATOM     22  C   UNL A   1      28.942  26.738  23.565  1.00  0.00     0.003 A 
ATOM     23  C   UNL A   1      30.947  27.362  22.342  1.00  0.00     0.017 A 
ATOM     24  C   UNL A   1      29.417  25.436  23.652  1.00  0.00     0.001 A 
ATOM     25  C   UNL A   1      30.684  25.120  23.141  1.00  0.00     0.014 A 
ENDBRANCH  16  19
ENDBRANCH  10  15
BRANCH  12  26
ATOM     26  N   UNL A   1      33.240  26.129  25.094  1.00  0.00    -0.359 N 
ATOM     27  C   UNL A   1      34.400  27.005  24.913  1.00  0.00     0.178 C 
ATOM     28  C   UNL A   1      32.282  26.611  26.084  1.00  0.00     0.178 C 
ATOM     29  C   UNL A   1      33.951  28.500  24.807  1.00  0.00     0.284 C 
ATOM     30  C   UNL A   1      31.777  27.999  25.707  1.00  0.00     0.284 C 
ATOM     31  N   UNL A   1      32.851  28.992  25.677  1.00  0.00    -0.324 N 
ATOM     32  H   UNL A   1      32.523  29.853  25.240  1.00  0.00     0.348 HD
BRANCH  31  33
ATOM     33  C   UNL A   1      33.225  29.484  27.020  1.00  0.00     0.363 C 
BRANCH  33  34
ATOM     34  C   UNL A   1      32.953  30.955  27.329  1.00  0.00     0.275 C 
ATOM     35  O   UNL A   1      31.898  31.471  26.933  1.00  0.00    -0.268 OA
ATOM     36  N   UNL A   1      33.782  31.772  28.040  1.00  0.00    -0.347 N 
ATOM     37  H   UNL A   1      33.334  32.630  28.217  1.00  0.00     0.164 HD
BRANCH  36  38
ATOM     38  C   UNL A   1      35.152  31.785  28.637  1.00  0.00     0.032 C 
ATOM     39  C   UNL A   1      36.081  32.817  27.966  1.00  0.00     0.034 C 
ATOM     40  C   UNL A   1      34.980  32.268  30.094  1.00  0.00     0.034 C 
ATOM     41  C   UNL A   1      35.849  30.423  28.673  1.00  0.00     0.034 C 
ENDBRANCH  36  38
ENDBRANCH  33  34
ENDBRANCH  31  33
ENDBRANCH  12  26
ENDBRANCH   7   9
ENDBRANCH   6   7
ENDBRANCH   5   6
ENDBRANCH   4   5
ENDBRANCH   3   4
ENDBRANCH   2   3
ENDBRANCH   1   2
BRANCH   1  42
ATOM     42  O   UNL A   1      42.399  21.302  27.069  1.00  0.00    -0.377 OA
BRANCH  42  43
ATOM     43  C   UNL A   1      42.738  22.624  27.463  1.00  0.00     0.188 C 
BRANCH  43  44
ATOM     44  C   UNL A   1      44.140  23.141  27.230  1.00  0.00     0.188 C 
BRANCH  44  45
ATOM     45  O   UNL A   1      44.295  24.384  27.899  1.00  0.00    -0.376 OA
BRANCH  45  46
ATOM     46  C   UNL A   1      45.280  24.387  28.915  1.00  0.00     0.202 C 
BRANCH  46  47
ATOM     47  C   UNL A   1      44.766  24.966  30.237  1.00  0.00     0.261 C 
BRANCH  47  48
ATOM     48  O   UNL A   1      45.670  25.968  30.753  1.00  0.00    -0.460 OA
BRANCH  48  49
ATOM     49  C   UNL A   1      45.988  26.986  29.898  1.00  0.00     0.338 C 
ATOM     50  O   UNL A   1      46.967  26.952  29.146  1.00  0.00    -0.246 OA
BRANCH  49  51
ATOM     51  C   UNL A   1      44.974  28.063  29.991  1.00  0.00     0.060 A 
ATOM     52  C   UNL A   1      43.979  28.366  29.077  1.00  0.00     0.016 A 
ATOM     53  C   UNL A   1      45.029  28.902  31.054  1.00  0.00     0.016 A 
ATOM     54  C   UNL A   1      43.385  29.689  29.004  1.00  0.00     0.010 A 
ATOM     55  C   UNL A   1      44.389  30.145  30.959  1.00  0.00     0.010 A 
ATOM     56  C   UNL A   1      43.813  30.786  29.776  1.00  0.00    -0.014 A 
BRANCH  56  57
ATOM     57  C   UNL A   1      43.688  32.599  29.312  1.00  0.00     0.031 A 
ATOM     58  C   UNL A   1      45.156  33.663  28.453  1.00  0.00     0.074 A 
ATOM     59  C   UNL A   1      42.474  33.098  29.914  1.00  0.00     0.049 A 
ATOM     60  N   UNL A   1      45.835  34.667  29.099  1.00  0.00    -0.248 NA
ATOM     61  C   UNL A   1      46.397  33.415  27.402  1.00  0.00     0.031 C 
ATOM     62  C   UNL A   1      41.794  34.421  29.996  1.00  0.00     0.029 A 
ATOM     63  N   UNL A   1      41.587  32.456  30.816  1.00  0.00    -0.354 N 
ATOM     64  C   UNL A   1      46.967  35.228  28.601  1.00  0.00     0.074 A 
ATOM     65  C   UNL A   1      47.398  34.273  27.662  1.00  0.00     0.031 C 
ATOM     66  C   UNL A   1      40.683  34.492  30.710  1.00  0.00     0.029 A 
ATOM     67  C   UNL A   1      40.780  33.371  31.528  1.00  0.00     0.049 A 
ATOM     68  H   UNL A   1      41.538  31.480  30.932  1.00  0.00     0.167 HD
ATOM     69  C   UNL A   1      47.426  36.466  28.965  1.00  0.00     0.037 A 
ATOM     70  C   UNL A   1      40.936  33.663  32.844  1.00  0.00     0.037 A 
ATOM     71  C   UNL A   1      46.436  37.291  29.686  1.00  0.00     0.049 A 
ATOM     72  C   UNL A   1      41.778  34.935  33.198  1.00  0.00     0.074 A 
ATOM     73  C   UNL A   1      45.630  38.331  29.259  1.00  0.00     0.029 A 
ATOM     74  N   UNL A   1      45.962  36.986  30.965  1.00  0.00    -0.354 N 
ATOM     75  N   UNL A   1      42.645  35.573  32.417  1.00  0.00    -0.248 NA
ATOM     76  C   UNL A   1      41.650  35.609  34.484  1.00  0.00     0.031 C 
ATOM     77  C   UNL A   1      44.675  38.608  30.265  1.00  0.00     0.029 A 
ATOM     78  C   UNL A   1      44.759  37.649  31.270  1.00  0.00     0.049 A 
ATOM     79  H   UNL A   1      46.420  36.374  31.585  1.00  0.00     0.167 HD
ATOM     80  C   UNL A   1      43.187  36.680  33.058  1.00  0.00     0.074 A 
ATOM     81  C   UNL A   1      42.513  36.634  34.360  1.00  0.00     0.031 C 
ATOM     82  C   UNL A   1      44.121  37.603  32.607  1.00  0.00     0.037 A 
BRANCH  69  83
ATOM     83  C   UNL A   1      48.658  36.993  28.240  1.00  0.00     0.058 A 
ATOM     84  C   UNL A   1      48.715  37.164  26.845  1.00  0.00     0.135 A 
ATOM     85  C   UNL A   1      49.875  37.235  28.920  1.00  0.00     0.135 A 
ATOM     86  F   UNL A   1      47.623  37.081  26.078  1.00  0.00    -0.206 F 
ATOM     87  C   UNL A   1      49.911  37.403  26.160  1.00  0.00     0.059 A 
ATOM     88  C   UNL A   1      51.092  37.442  28.254  1.00  0.00     0.059 A 
ATOM     89  F   UNL A   1      49.913  37.226  30.263  1.00  0.00    -0.206 F 
ATOM     90  C   UNL A   1      51.104  37.494  26.866  1.00  0.00     0.060 A 
BRANCH  90  91
ATOM     91  S   UNL A   1      52.645  37.653  25.937  1.00  0.00     0.124 S 
ATOM     92  O   UNL A   1      52.202  37.446  24.561  1.00  0.00    -0.237 OA
ATOM     93  O   UNL A   1      53.065  39.011  26.269  1.00  0.00    -0.237 OA
ATOM     94  O   UNL A   1      53.484  36.588  26.482  1.00  0.00    -0.744 OA
ENDBRANCH  90  91
ENDBRANCH  69  83
BRANCH  70  95
ATOM     95  C   UNL A   1      40.327  32.513  33.571  1.00  0.00     0.058 A 
ATOM     96  C   UNL A   1      38.908  32.387  33.434  1.00  0.00     0.135 A 
ATOM     97  C   UNL A   1      41.063  31.328  33.625  1.00  0.00     0.135 A 
ATOM     98  F   UNL A   1      38.142  33.492  33.362  1.00  0.00    -0.206 F 
ATOM     99  C   UNL A   1      38.311  31.183  33.068  1.00  0.00     0.059 A 
ATOM    100  C   UNL A   1      40.471  30.099  33.307  1.00  0.00     0.059 A 
ATOM    101  F   UNL A   1      42.395  31.383  33.758  1.00  0.00    -0.206 F 
ATOM    102  C   UNL A   1      39.119  30.059  32.940  1.00  0.00     0.060 A 
BRANCH 102 103
ATOM    103  S   UNL A   1      38.424  28.614  32.093  1.00  0.00     0.124 S 
ATOM    104  O   UNL A   1      37.571  29.217  31.077  1.00  0.00    -0.237 OA
ATOM    105  O   UNL A   1      39.639  27.971  31.595  1.00  0.00    -0.237 OA
ATOM    106  O   UNL A   1      37.730  27.916  33.168  1.00  0.00    -0.744 OA
ENDBRANCH 102 103
ENDBRANCH  70  95
BRANCH  82 107
ATOM    107  C   UNL A   1      44.537  38.775  33.470  1.00  0.00     0.058 A 
ATOM    108  C   UNL A   1      43.906  40.028  33.443  1.00  0.00     0.135 A 
ATOM    109  C   UNL A   1      45.730  38.685  34.222  1.00  0.00     0.135 A 
ATOM    110  F   UNL A   1      42.829  40.238  32.669  1.00  0.00    -0.206 F 
ATOM    111  C   UNL A   1      44.371  41.097  34.210  1.00  0.00     0.059 A 
ATOM    112  C   UNL A   1      46.253  39.758  34.927  1.00  0.00     0.059 A 
ATOM    113  F   UNL A   1      46.415  37.533  34.300  1.00  0.00    -0.206 F 
ATOM    114  C   UNL A   1      45.538  40.945  34.960  1.00  0.00     0.060 A 
BRANCH 114 115
ATOM    115  S   UNL A   1      46.108  42.289  36.012  1.00  0.00     0.124 S 
ATOM    116  O   UNL A   1      44.992  43.230  35.965  1.00  0.00    -0.237 OA
ATOM    117  O   UNL A   1      46.294  41.593  37.282  1.00  0.00    -0.237 OA
ATOM    118  O   UNL A   1      47.331  42.741  35.356  1.00  0.00    -0.744 OA
ENDBRANCH 114 115
ENDBRANCH  82 107
ENDBRANCH  56  57
ENDBRANCH  49  51
ENDBRANCH  48  49
ENDBRANCH  47  48
ENDBRANCH  46  47
ENDBRANCH  45  46
ENDBRANCH  44  45
ENDBRANCH  43  44
ENDBRANCH  42  43
ENDBRANCH   1  42
TORSDOF 29
ENDMDL
MODEL 2
REMARK VINA RESULT:     -10.2      5.880     13.206
REMARK SMILES Cc1cccc(C(=O)Nc2cc(C(=O)OCCOCCOCCOCCOC(=O)c3ccc(-c4c5nc(c(-c6c(F)cc(S(=O)(=O)[O-])cc6F)c6ccc([nH]6)c(-c6c(F)cc(S(=O)(=O)[O-])cc6F)c6nc(c(-c7c(F)cc(S(=O)(=O)[O-])cc7F)c7ccc4[nH]7)C=C6)C=C5)cc3)ccc2N2CC[NH+](CC(=O)NC(C)(C)C)CC2)c1
REMARK SMILES IDX 20 1 19 2 18 3 17 4 16 5 15 6 13 7 14 8 12 9 10 10 11 11
REMARK SMILES IDX 98 12 97 13 96 14 9 15 7 16 8 17 6 19 1 20 2 21 3 22 113 23
REMARK SMILES IDX 4 24 5 25 99 26 100 27 112 28 101 29 111 30 102 31 103 33
REMARK SMILES IDX 104 34 105 35 106 36 107 38 108 39 109 40 110 41 21 42 22 43
REMARK SMILES IDX 23 44 24 45 25 46 26 47 27 48 28 49 29 50 30 51 31 52 95 53
REMARK SMILES IDX 32 54 94 55 33 56 34 57 35 58 88 59 36 60 93 61 87 62 89 63
REMARK SMILES IDX 37 64 92 65 86 66 85 67 38 69 72 70 51 71 71 72 52 73 55 74
REMARK SMILES IDX 70 75 90 76 53 77 54 78 69 80 91 81 56 82 39 83 40 84 49 85
REMARK SMILES IDX 41 86 42 87 48 88 50 89 43 90 44 91 45 92 46 93 47 94 73 95
REMARK SMILES IDX 74 96 83 97 75 98 76 99 82 100 84 101 77 102 78 103 79 104
REMARK SMILES IDX 80 105 81 106 57 107 58 108 67 109 59 110 60 111 66 112
REMARK SMILES IDX 68 113 61 114 62 115 63 116 64 117 65 118
REMARK H PARENT 9 18 102 32 106 37 89 68 55 79
REMARK Flexibility Score: inf
ROOT
ATOM      1  C   UNL A   1      45.288  29.635  27.070  1.00  0.00     0.188 C 
ENDROOT
BRANCH   1   2
ATOM      2  C   UNL A   1      44.898  31.220  26.700  1.00  0.00     0.188 C 
BRANCH   2   3
ATOM      3  O   UNL A   1      44.805  32.271  25.253  1.00  0.00    -0.376 OA
BRANCH   3   4
ATOM      4  C   UNL A   1      43.777  33.584  24.683  1.00  0.00     0.202 C 
BRANCH   4   5
ATOM      5  C   UNL A   1      43.135  35.088  25.622  1.00  0.00     0.261 C 
BRANCH   5   6
ATOM      6  O   UNL A   1      43.365  35.409  27.398  1.00  0.00    -0.460 OA
BRANCH   6   7
ATOM      7  C   UNL A   1      43.358  36.395  28.499  1.00  0.00     0.338 C 
ATOM      8  O   UNL A   1      43.264  37.619  28.352  1.00  0.00    -0.246 OA
BRANCH   7   9
ATOM      9  C   UNL A   1      43.406  36.117  30.069  1.00  0.00     0.062 A 
ATOM     10  C   UNL A   1      44.099  36.459  32.424  1.00  0.00     0.065 A 
ATOM     11  C   UNL A   1      44.303  36.540  31.056  1.00  0.00     0.044 A 
ATOM     12  C   UNL A   1      43.163  35.557  32.922  1.00  0.00     0.061 A 
ATOM     13  C   UNL A   1      42.347  34.922  31.985  1.00  0.00     0.029 A 
ATOM     14  C   UNL A   1      42.425  35.250  30.604  1.00  0.00     0.018 A 
BRANCH  10  15
ATOM     15  N   UNL A   1      44.887  37.224  33.322  1.00  0.00    -0.320 N 
ATOM     16  C   UNL A   1      44.889  38.590  33.608  1.00  0.00     0.255 C 
ATOM     17  O   UNL A   1      45.538  38.958  34.595  1.00  0.00    -0.269 OA
ATOM     18  H   UNL A   1      45.547  36.701  33.831  1.00  0.00     0.170 HD
BRANCH  16  19
ATOM     19  C   UNL A   1      44.068  39.640  32.918  1.00  0.00     0.040 A 
ATOM     20  C   UNL A   1      43.822  41.463  29.635  1.00  0.00     0.044 C 
ATOM     21  C   UNL A   1      43.458  41.020  31.011  1.00  0.00    -0.050 A 
ATOM     22  C   UNL A   1      42.592  41.778  31.798  1.00  0.00     0.003 A 
ATOM     23  C   UNL A   1      44.152  39.931  31.561  1.00  0.00     0.017 A 
ATOM     24  C   UNL A   1      42.394  41.424  33.126  1.00  0.00     0.001 A 
ATOM     25  C   UNL A   1      43.129  40.365  33.681  1.00  0.00     0.014 A 
ENDBRANCH  16  19
ENDBRANCH  10  15
BRANCH  12  26
ATOM     26  N   UNL A   1      43.007  35.465  34.301  1.00  0.00    -0.359 N 
ATOM     27  C   UNL A   1      42.908  34.190  35.016  1.00  0.00     0.178 C 
ATOM     28  C   UNL A   1      42.084  36.487  34.781  1.00  0.00     0.178 C 
ATOM     29  C   UNL A   1      42.843  34.429  36.562  1.00  0.00     0.284 C 
ATOM     30  C   UNL A   1      42.308  36.755  36.266  1.00  0.00     0.284 C 
ATOM     31  N   UNL A   1      42.053  35.572  37.088  1.00  0.00    -0.324 N 
ATOM     32  H   UNL A   1      42.394  35.724  38.037  1.00  0.00     0.348 HD
BRANCH  31  33
ATOM     33  C   UNL A   1      40.615  35.338  37.339  1.00  0.00     0.363 C 
BRANCH  33  34
ATOM     34  C   UNL A   1      39.998  36.013  38.563  1.00  0.00     0.275 C 
ATOM     35  O   UNL A   1      39.901  37.248  38.587  1.00  0.00    -0.268 OA
ATOM     36  N   UNL A   1      39.512  35.357  39.655  1.00  0.00    -0.347 N 
ATOM     37  H   UNL A   1      39.050  35.994  40.248  1.00  0.00     0.164 HD
BRANCH  36  38
ATOM     38  C   UNL A   1      39.452  33.985  40.244  1.00  0.00     0.032 C 
ATOM     39  C   UNL A   1      40.841  33.323  40.343  1.00  0.00     0.034 C 
ATOM     40  C   UNL A   1      38.974  34.164  41.701  1.00  0.00     0.034 C 
ATOM     41  C   UNL A   1      38.483  33.030  39.545  1.00  0.00     0.034 C 
ENDBRANCH  36  38
ENDBRANCH  33  34
ENDBRANCH  31  33
ENDBRANCH  12  26
ENDBRANCH   7   9
ENDBRANCH   6   7
ENDBRANCH   5   6
ENDBRANCH   4   5
ENDBRANCH   3   4
ENDBRANCH   2   3
ENDBRANCH   1   2
BRANCH   1  42
ATOM     42  O   UNL A   1      44.463  28.509  27.386  1.00  0.00    -0.377 OA
BRANCH  42  43
ATOM     43  C   UNL A   1      43.047  28.448  27.294  1.00  0.00     0.188 C 
BRANCH  43  44
ATOM     44  C   UNL A   1      42.399  27.693  26.155  1.00  0.00     0.188 C 
BRANCH  44  45
ATOM     45  O   UNL A   1      41.201  27.089  26.617  1.00  0.00    -0.376 OA
BRANCH  45  46
ATOM     46  C   UNL A   1      41.384  25.861  27.297  1.00  0.00     0.202 C 
BRANCH  46  47
ATOM     47  C   UNL A   1      41.098  24.644  26.411  1.00  0.00     0.261 C 
BRANCH  47  48
ATOM     48  O   UNL A   1      42.138  24.464  25.424  1.00  0.00    -0.460 OA
BRANCH  48  49
ATOM     49  C   UNL A   1      42.974  23.400  25.621  1.00  0.00     0.338 C 
ATOM     50  O   UNL A   1      42.826  22.314  25.053  1.00  0.00    -0.246 OA
BRANCH  49  51
ATOM     51  C   UNL A   1      44.062  23.778  26.554  1.00  0.00     0.060 A 
ATOM     52  C   UNL A   1      44.316  23.254  27.810  1.00  0.00     0.016 A 
ATOM     53  C   UNL A   1      44.892  24.786  26.192  1.00  0.00     0.016 A 
ATOM     54  C   UNL A   1      45.052  24.000  28.815  1.00  0.00     0.010 A 
ATOM     55  C   UNL A   1      45.629  25.437  27.191  1.00  0.00     0.010 A 
ATOM     56  C   UNL A   1      45.492  25.326  28.643  1.00  0.00    -0.014 A 
BRANCH  56  57
ATOM     57  C   UNL A   1      45.764  26.600  29.993  1.00  0.00     0.031 A 
ATOM     58  C   UNL A   1      44.301  27.600  30.933  1.00  0.00     0.074 A 
ATOM     59  C   UNL A   1      47.181  26.879  30.021  1.00  0.00     0.049 A 
ATOM     60  N   UNL A   1      44.085  28.947  30.769  1.00  0.00    -0.248 NA
ATOM     61  C   UNL A   1      42.745  27.345  31.401  1.00  0.00     0.031 C 
ATOM     62  C   UNL A   1      48.069  27.796  30.787  1.00  0.00     0.029 A 
ATOM     63  N   UNL A   1      48.201  26.442  29.137  1.00  0.00    -0.354 N 
ATOM     64  C   UNL A   1      42.969  29.574  31.224  1.00  0.00     0.074 A 
ATOM     65  C   UNL A   1      42.071  28.507  31.411  1.00  0.00     0.031 C 
ATOM     66  C   UNL A   1      49.355  27.800  30.477  1.00  0.00     0.029 A 
ATOM     67  C   UNL A   1      49.357  27.251  29.199  1.00  0.00     0.049 A 
ATOM     68  H   UNL A   1      48.113  25.659  28.546  1.00  0.00     0.167 HD
ATOM     69  C   UNL A   1      42.897  30.920  31.463  1.00  0.00     0.037 A 
ATOM     70  C   UNL A   1      49.733  28.122  28.228  1.00  0.00     0.037 A 
ATOM     71  C   UNL A   1      44.208  31.598  31.511  1.00  0.00     0.049 A 
ATOM     72  C   UNL A   1      49.311  29.619  28.409  1.00  0.00     0.074 A 
ATOM     73  C   UNL A   1      44.981  32.015  32.579  1.00  0.00     0.029 A 
ATOM     74  N   UNL A   1      45.043  31.744  30.400  1.00  0.00    -0.354 N 
ATOM     75  N   UNL A   1      48.351  30.098  29.195  1.00  0.00    -0.248 NA
ATOM     76  C   UNL A   1      50.005  30.702  27.723  1.00  0.00     0.031 C 
ATOM     77  C   UNL A   1      46.264  32.370  32.101  1.00  0.00     0.029 A 
ATOM     78  C   UNL A   1      46.373  32.034  30.755  1.00  0.00     0.049 A 
ATOM     79  H   UNL A   1      44.734  31.654  29.470  1.00  0.00     0.167 HD
ATOM     80  C   UNL A   1      48.279  31.484  29.119  1.00  0.00     0.074 A 
ATOM     81  C   UNL A   1      49.351  31.791  28.167  1.00  0.00     0.031 C 
ATOM     82  C   UNL A   1      47.425  32.368  29.765  1.00  0.00     0.037 A 
BRANCH  69  83
ATOM     83  C   UNL A   1      41.603  31.452  32.065  1.00  0.00     0.058 A 
ATOM     84  C   UNL A   1      41.275  31.316  33.426  1.00  0.00     0.135 A 
ATOM     85  C   UNL A   1      40.585  32.017  31.261  1.00  0.00     0.135 A 
ATOM     86  F   UNL A   1      42.169  30.903  34.330  1.00  0.00    -0.206 F 
ATOM     87  C   UNL A   1      39.994  31.575  33.925  1.00  0.00     0.059 A 
ATOM     88  C   UNL A   1      39.285  32.252  31.730  1.00  0.00     0.059 A 
ATOM     89  F   UNL A   1      40.826  32.312  29.972  1.00  0.00    -0.206 F 
ATOM     90  C   UNL A   1      38.990  31.997  33.064  1.00  0.00     0.060 A 
BRANCH  90  91
ATOM     91  S   UNL A   1      37.314  32.175  33.714  1.00  0.00     0.124 S 
ATOM     92  O   UNL A   1      37.465  31.719  35.093  1.00  0.00    -0.237 OA
ATOM     93  O   UNL A   1      37.069  33.604  33.544  1.00  0.00    -0.237 OA
ATOM     94  O   UNL A   1      36.520  31.298  32.858  1.00  0.00    -0.744 OA
ENDBRANCH  90  91
ENDBRANCH  69  83
BRANCH  70  95
ATOM     95  C   UNL A   1      50.346  27.275  27.165  1.00  0.00     0.058 A 
ATOM     96  C   UNL A   1      49.569  27.139  25.970  1.00  0.00     0.135 A 
ATOM     97  C   UNL A   1      51.732  27.343  27.011  1.00  0.00     0.135 A 
ATOM     98  F   UNL A   1      48.226  27.083  26.048  1.00  0.00    -0.206 F 
ATOM     99  C   UNL A   1      50.117  27.367  24.710  1.00  0.00     0.059 A 
ATOM    100  C   UNL A   1      52.307  27.524  25.747  1.00  0.00     0.059 A 
ATOM    101  F   UNL A   1      52.510  27.464  28.095  1.00  0.00    -0.206 F 
ATOM    102  C   UNL A   1      51.479  27.628  24.621  1.00  0.00     0.060 A 
BRANCH 102 103
ATOM    103  S   UNL A   1      52.107  28.306  23.062  1.00  0.00     0.124 S 
ATOM    104  O   UNL A   1      53.198  29.167  23.502  1.00  0.00    -0.237 OA
ATOM    105  O   UNL A   1      52.510  27.084  22.367  1.00  0.00    -0.237 OA
ATOM    106  O   UNL A   1      50.942  28.992  22.518  1.00  0.00    -0.744 OA
ENDBRANCH 102 103
ENDBRANCH  70  95
BRANCH  82 107
ATOM    107  C   UNL A   1      47.558  33.863  29.568  1.00  0.00     0.058 A 
ATOM    108  C   UNL A   1      48.282  34.704  30.426  1.00  0.00     0.135 A 
ATOM    109  C   UNL A   1      46.776  34.497  28.576  1.00  0.00     0.135 A 
ATOM    110  F   UNL A   1      48.967  34.199  31.465  1.00  0.00    -0.206 F 
ATOM    111  C   UNL A   1      48.318  36.085  30.237  1.00  0.00     0.059 A 
ATOM    112  C   UNL A   1      46.734  35.874  28.421  1.00  0.00     0.059 A 
ATOM    113  F   UNL A   1      46.037  33.780  27.714  1.00  0.00    -0.206 F 
ATOM    114  C   UNL A   1      47.551  36.658  29.222  1.00  0.00     0.060 A 
BRANCH 114 115
ATOM    115  S   UNL A   1      47.645  38.429  28.918  1.00  0.00     0.124 S 
ATOM    116  O   UNL A   1      48.492  38.508  27.732  1.00  0.00    -0.237 OA
ATOM    117  O   UNL A   1      46.236  38.755  28.710  1.00  0.00    -0.237 OA
ATOM    118  O   UNL A   1      48.239  38.954  30.143  1.00  0.00    -0.744 OA
ENDBRANCH 114 115
ENDBRANCH  82 107
ENDBRANCH  56  57
ENDBRANCH  49  51
ENDBRANCH  48  49
ENDBRANCH  47  48
ENDBRANCH  46  47
ENDBRANCH  45  46
ENDBRANCH  44  45
ENDBRANCH  43  44
ENDBRANCH  42  43
ENDBRANCH   1  42
TORSDOF 29
ENDMDL
MODEL 3
REMARK VINA RESULT:     -10.0      3.332      9.562
REMARK SMILES Cc1cccc(C(=O)Nc2cc(C(=O)OCCOCCOCCOCCOC(=O)c3ccc(-c4c5nc(c(-c6c(F)cc(S(=O)(=O)[O-])cc6F)c6ccc([nH]6)c(-c6c(F)cc(S(=O)(=O)[O-])cc6F)c6nc(c(-c7c(F)cc(S(=O)(=O)[O-])cc7F)c7ccc4[nH]7)C=C6)C=C5)cc3)ccc2N2CC[NH+](CC(=O)NC(C)(C)C)CC2)c1
REMARK SMILES IDX 20 1 19 2 18 3 17 4 16 5 15 6 13 7 14 8 12 9 10 10 11 11
REMARK SMILES IDX 98 12 97 13 96 14 9 15 7 16 8 17 6 19 1 20 2 21 3 22 113 23
REMARK SMILES IDX 4 24 5 25 99 26 100 27 112 28 101 29 111 30 102 31 103 33
REMARK SMILES IDX 104 34 105 35 106 36 107 38 108 39 109 40 110 41 21 42 22 43
REMARK SMILES IDX 23 44 24 45 25 46 26 47 27 48 28 49 29 50 30 51 31 52 95 53
REMARK SMILES IDX 32 54 94 55 33 56 34 57 35 58 88 59 36 60 93 61 87 62 89 63
REMARK SMILES IDX 37 64 92 65 86 66 85 67 38 69 72 70 51 71 71 72 52 73 55 74
REMARK SMILES IDX 70 75 90 76 53 77 54 78 69 80 91 81 56 82 39 83 40 84 49 85
REMARK SMILES IDX 41 86 42 87 48 88 50 89 43 90 44 91 45 92 46 93 47 94 73 95
REMARK SMILES IDX 74 96 83 97 75 98 76 99 82 100 84 101 77 102 78 103 79 104
REMARK SMILES IDX 80 105 81 106 57 107 58 108 67 109 59 110 60 111 66 112
REMARK SMILES IDX 68 113 61 114 62 115 63 116 64 117 65 118
REMARK H PARENT 9 18 102 32 106 37 89 68 55 79
REMARK Flexibility Score: inf
ROOT
ATOM      1  C   UNL A   1      39.763  27.243  27.900  1.00  0.00     0.188 C 
ENDROOT
BRANCH   1   2
ATOM      2  C   UNL A   1      38.531  28.205  28.496  1.00  0.00     0.188 C 
BRANCH   2   3
ATOM      3  O   UNL A   1      37.562  29.617  27.969  1.00  0.00    -0.376 OA
BRANCH   3   4
ATOM      4  C   UNL A   1      36.567  30.851  28.739  1.00  0.00     0.202 C 
BRANCH   4   5
ATOM      5  C   UNL A   1      35.351  32.061  27.955  1.00  0.00     0.261 C 
BRANCH   5   6
ATOM      6  O   UNL A   1      33.685  31.651  27.353  1.00  0.00    -0.460 OA
BRANCH   6   7
ATOM      7  C   UNL A   1      32.708  30.598  27.003  1.00  0.00     0.338 C 
ATOM      8  O   UNL A   1      31.486  30.767  26.915  1.00  0.00    -0.246 OA
BRANCH   7   9
ATOM      9  C   UNL A   1      32.998  29.077  26.615  1.00  0.00     0.062 A 
ATOM     10  C   UNL A   1      32.490  26.809  25.754  1.00  0.00     0.065 A 
ATOM     11  C   UNL A   1      32.132  28.013  26.338  1.00  0.00     0.044 A 
ATOM     12  C   UNL A   1      33.822  26.404  25.788  1.00  0.00     0.061 A 
ATOM     13  C   UNL A   1      34.749  27.340  26.250  1.00  0.00     0.029 A 
ATOM     14  C   UNL A   1      34.349  28.662  26.586  1.00  0.00     0.018 A 
BRANCH  10  15
ATOM     15  N   UNL A   1      31.508  25.953  25.195  1.00  0.00    -0.320 N 
ATOM     16  C   UNL A   1      30.560  26.173  24.195  1.00  0.00     0.255 C 
ATOM     17  O   UNL A   1      29.968  25.181  23.750  1.00  0.00    -0.269 OA
ATOM     18  H   UNL A   1      31.492  25.047  25.578  1.00  0.00     0.170 HD
BRANCH  16  19
ATOM     19  C   UNL A   1      30.286  27.478  23.504  1.00  0.00     0.040 A 
ATOM     20  C   UNL A   1      27.428  29.735  22.558  1.00  0.00     0.044 C 
ATOM     21  C   UNL A   1      28.832  29.270  22.737  1.00  0.00    -0.050 A 
ATOM     22  C   UNL A   1      29.870  29.837  21.999  1.00  0.00     0.003 A 
ATOM     23  C   UNL A   1      29.056  28.126  23.520  1.00  0.00     0.017 A 
ATOM     24  C   UNL A   1      31.140  29.280  22.073  1.00  0.00     0.001 A 
ATOM     25  C   UNL A   1      31.344  28.108  22.817  1.00  0.00     0.014 A 
ENDBRANCH  16  19
ENDBRANCH  10  15
BRANCH  12  26
ATOM     26  N   UNL A   1      34.149  25.172  25.232  1.00  0.00    -0.359 N 
ATOM     27  C   UNL A   1      33.720  24.754  23.895  1.00  0.00     0.178 C 
ATOM     28  C   UNL A   1      34.067  24.118  26.237  1.00  0.00     0.178 C 
ATOM     29  C   UNL A   1      34.337  23.363  23.528  1.00  0.00     0.284 C 
ATOM     30  C   UNL A   1      34.907  22.915  25.822  1.00  0.00     0.284 C 
ATOM     31  N   UNL A   1      34.435  22.313  24.575  1.00  0.00    -0.324 N 
ATOM     32  H   UNL A   1      35.121  21.644  24.225  1.00  0.00     0.348 HD
BRANCH  31  33
ATOM     33  C   UNL A   1      33.259  21.436  24.762  1.00  0.00     0.363 C 
BRANCH  33  34
ATOM     34  C   UNL A   1      33.282  20.476  25.949  1.00  0.00     0.275 C 
ATOM     35  O   UNL A   1      33.385  20.934  27.096  1.00  0.00    -0.268 OA
ATOM     36  N   UNL A   1      33.178  19.119  25.860  1.00  0.00    -0.347 N 
ATOM     37  H   UNL A   1      33.087  18.732  26.761  1.00  0.00     0.164 HD
BRANCH  36  38
ATOM     38  C   UNL A   1      33.155  18.029  24.837  1.00  0.00     0.032 C 
ATOM     39  C   UNL A   1      32.374  18.426  23.568  1.00  0.00     0.034 C 
ATOM     40  C   UNL A   1      34.618  17.839  24.381  1.00  0.00     0.034 C 
ATOM     41  C   UNL A   1      32.643  16.682  25.348  1.00  0.00     0.034 C 
ENDBRANCH  36  38
ENDBRANCH  33  34
ENDBRANCH  31  33
ENDBRANCH  12  26
ENDBRANCH   7   9
ENDBRANCH   6   7
ENDBRANCH   5   6
ENDBRANCH   4   5
ENDBRANCH   3   4
ENDBRANCH   2   3
ENDBRANCH   1   2
BRANCH   1  42
ATOM     42  O   UNL A   1      40.958  27.574  27.185  1.00  0.00    -0.377 OA
BRANCH  42  43
ATOM     43  C   UNL A   1      42.279  27.585  27.709  1.00  0.00     0.188 C 
BRANCH  43  44
ATOM     44  C   UNL A   1      42.721  26.490  28.653  1.00  0.00     0.188 C 
BRANCH  44  45
ATOM     45  O   UNL A   1      43.368  25.467  27.911  1.00  0.00    -0.376 OA
BRANCH  45  46
ATOM     46  C   UNL A   1      44.188  25.933  26.856  1.00  0.00     0.202 C 
BRANCH  46  47
ATOM     47  C   UNL A   1      45.647  25.487  26.999  1.00  0.00     0.261 C 
BRANCH  47  48
ATOM     48  O   UNL A   1      46.325  26.244  28.026  1.00  0.00    -0.460 OA
BRANCH  48  49
ATOM     49  C   UNL A   1      47.691  26.196  28.003  1.00  0.00     0.338 C 
ATOM     50  O   UNL A   1      48.324  25.151  27.824  1.00  0.00    -0.246 OA
BRANCH  49  51
ATOM     51  C   UNL A   1      48.249  27.558  28.174  1.00  0.00     0.060 A 
ATOM     52  C   UNL A   1      49.234  27.961  29.060  1.00  0.00     0.016 A 
ATOM     53  C   UNL A   1      47.721  28.562  27.432  1.00  0.00     0.016 A 
ATOM     54  C   UNL A   1      49.351  29.341  29.496  1.00  0.00     0.010 A 
ATOM     55  C   UNL A   1      47.913  29.883  27.862  1.00  0.00     0.010 A 
ATOM     56  C   UNL A   1      48.446  30.357  29.138  1.00  0.00    -0.014 A 
BRANCH  56  57
ATOM     57  C   UNL A   1      48.037  31.895  30.133  1.00  0.00     0.031 A 
ATOM     58  C   UNL A   1      46.232  32.311  30.903  1.00  0.00     0.074 A 
ATOM     59  C   UNL A   1      49.168  32.784  30.006  1.00  0.00     0.049 A 
ATOM     60  N   UNL A   1      45.436  33.332  30.443  1.00  0.00    -0.248 NA
ATOM     61  C   UNL A   1      44.942  31.496  31.515  1.00  0.00     0.031 C 
ATOM     62  C   UNL A   1      49.499  34.157  30.478  1.00  0.00     0.029 A 
ATOM     63  N   UNL A   1      50.319  32.663  29.186  1.00  0.00    -0.354 N 
ATOM     64  C   UNL A   1      44.134  33.470  30.808  1.00  0.00     0.074 A 
ATOM     65  C   UNL A   1      43.813  32.191  31.296  1.00  0.00     0.031 C 
ATOM     66  C   UNL A   1      50.656  34.671  30.095  1.00  0.00     0.029 A 
ATOM     67  C   UNL A   1      50.974  33.898  28.984  1.00  0.00     0.049 A 
ATOM     68  H   UNL A   1      50.629  31.811  28.801  1.00  0.00     0.167 HD
ATOM     69  C   UNL A   1      43.444  34.650  30.730  1.00  0.00     0.037 A 
ATOM     70  C   UNL A   1      50.963  34.587  27.814  1.00  0.00     0.037 A 
ATOM     71  C   UNL A   1      44.298  35.839  30.535  1.00  0.00     0.049 A 
ATOM     72  C   UNL A   1      49.896  35.724  27.666  1.00  0.00     0.074 A 
ATOM     73  C   UNL A   1      44.740  36.802  31.425  1.00  0.00     0.029 A 
ATOM     74  N   UNL A   1      45.032  36.081  29.370  1.00  0.00    -0.354 N 
ATOM     75  N   UNL A   1      48.784  35.885  28.377  1.00  0.00    -0.248 NA
ATOM     76  C   UNL A   1      50.055  36.807  26.703  1.00  0.00     0.031 C 
ATOM     77  C   UNL A   1      45.743  37.576  30.797  1.00  0.00     0.029 A 
ATOM     78  C   UNL A   1      46.063  37.019  29.563  1.00  0.00     0.049 A 
ATOM     79  H   UNL A   1      44.846  35.644  28.508  1.00  0.00     0.167 HD
ATOM     80  C   UNL A   1      48.092  37.024  27.984  1.00  0.00     0.074 A 
ATOM     81  C   UNL A   1      48.954  37.550  26.921  1.00  0.00     0.031 C 
ATOM     82  C   UNL A   1      46.897  37.549  28.458  1.00  0.00     0.037 A 
BRANCH  69  83
ATOM     83  C   UNL A   1      42.021  34.662  31.271  1.00  0.00     0.058 A 
ATOM     84  C   UNL A   1      41.720  34.685  32.645  1.00  0.00     0.135 A 
ATOM     85  C   UNL A   1      40.899  34.529  30.419  1.00  0.00     0.135 A 
ATOM     86  F   UNL A   1      42.658  34.916  33.569  1.00  0.00    -0.206 F 
ATOM     87  C   UNL A   1      40.436  34.443  33.143  1.00  0.00     0.059 A 
ATOM     88  C   UNL A   1      39.610  34.251  30.893  1.00  0.00     0.059 A 
ATOM     89  F   UNL A   1      41.047  34.620  29.086  1.00  0.00    -0.206 F 
ATOM     90  C   UNL A   1      39.393  34.180  32.264  1.00  0.00     0.060 A 
BRANCH  90  91
ATOM     91  S   UNL A   1      37.784  33.723  32.946  1.00  0.00     0.124 S 
ATOM     92  O   UNL A   1      36.909  34.754  32.396  1.00  0.00    -0.237 OA
ATOM     93  O   UNL A   1      37.593  32.380  32.409  1.00  0.00    -0.237 OA
ATOM     94  O   UNL A   1      37.991  33.796  34.390  1.00  0.00    -0.744 OA
ENDBRANCH  90  91
ENDBRANCH  69  83
BRANCH  70  95
ATOM     95  C   UNL A   1      51.948  33.886  26.942  1.00  0.00     0.058 A 
ATOM     96  C   UNL A   1      51.453  33.491  25.658  1.00  0.00     0.135 A 
ATOM     97  C   UNL A   1      53.275  34.316  27.001  1.00  0.00     0.135 A 
ATOM     98  F   UNL A   1      50.178  33.080  25.530  1.00  0.00    -0.206 F 
ATOM     99  C   UNL A   1      52.136  33.797  24.483  1.00  0.00     0.059 A 
ATOM    100  C   UNL A   1      53.996  34.585  25.831  1.00  0.00     0.059 A 
ATOM    101  F   UNL A   1      53.794  34.693  28.178  1.00  0.00    -0.206 F 
ATOM    102  C   UNL A   1      53.380  34.410  24.585  1.00  0.00     0.060 A 
BRANCH 102 103
ATOM    103  S   UNL A   1      54.076  35.156  23.087  1.00  0.00     0.124 S 
ATOM    104  O   UNL A   1      53.465  34.371  22.023  1.00  0.00    -0.237 OA
ATOM    105  O   UNL A   1      53.597  36.532  23.211  1.00  0.00    -0.237 OA
ATOM    106  O   UNL A   1      55.510  34.964  23.269  1.00  0.00    -0.744 OA
ENDBRANCH 102 103
ENDBRANCH  70  95
BRANCH  82 107
ATOM    107  C   UNL A   1      46.344  38.847  27.908  1.00  0.00     0.058 A 
ATOM    108  C   UNL A   1      45.300  38.919  26.974  1.00  0.00     0.135 A 
ATOM    109  C   UNL A   1      47.014  40.056  28.200  1.00  0.00     0.135 A 
ATOM    110  F   UNL A   1      44.677  37.806  26.553  1.00  0.00    -0.206 F 
ATOM    111  C   UNL A   1      44.872  40.138  26.449  1.00  0.00     0.059 A 
ATOM    112  C   UNL A   1      46.658  41.267  27.628  1.00  0.00     0.059 A 
ATOM    113  F   UNL A   1      48.036  40.090  29.071  1.00  0.00    -0.206 F 
ATOM    114  C   UNL A   1      45.550  41.308  26.794  1.00  0.00     0.060 A 
BRANCH 114 115
ATOM    115  S   UNL A   1      44.964  42.897  26.184  1.00  0.00     0.124 S 
ATOM    116  O   UNL A   1      43.743  42.536  25.469  1.00  0.00    -0.237 OA
ATOM    117  O   UNL A   1      44.773  43.626  27.434  1.00  0.00    -0.237 OA
ATOM    118  O   UNL A   1      46.062  43.364  25.343  1.00  0.00    -0.744 OA
ENDBRANCH 114 115
ENDBRANCH  82 107
ENDBRANCH  56  57
ENDBRANCH  49  51
ENDBRANCH  48  49
ENDBRANCH  47  48
ENDBRANCH  46  47
ENDBRANCH  45  46
ENDBRANCH  44  45
ENDBRANCH  43  44
ENDBRANCH  42  43
ENDBRANCH   1  42
TORSDOF 29
ENDMDL
