MODEL 1
REMARK VINA RESULT:      -7.7      0.000      0.000
REMARK SMILES Cn1c(=O)c(=O)n(C)c2cc(S(=O)(=O)N3CCC[C@H]3C(=O)OCCOCCOCCOCCOC(=O)c3ccc(-c4c5nc(c(-c6c(F)cc(S(=O)(=O)[O-])cc6F)c6ccc([nH]6)c(-c6c(F)cc(S(=O)(=O)[O-])cc6F)c6nc(c(-c7c(F)cc(S(=O)(=O)[O-])cc7F)c7ccc4[nH]7)C=C6)C=C5)cc3)ccc21
REMARK SMILES IDX 29 1 28 2 27 3 26 4 25 5 24 6 23 7 22 8 20 9 21 10 19 11
REMARK SMILES IDX 15 12 16 13 17 14 18 15 12 16 13 17 14 18 11 19 1 20 2 21
REMARK SMILES IDX 3 22 105 23 4 24 5 25 9 26 104 27 6 28 7 29 10 30 103 31
REMARK SMILES IDX 8 32 30 33 31 34 32 35 33 36 34 37 35 38 36 39 37 40 38 41
REMARK SMILES IDX 102 42 39 43 101 44 40 45 41 46 42 47 95 48 43 49 100 50
REMARK SMILES IDX 94 51 96 52 44 53 99 54 93 55 92 56 45 58 79 59 58 60 78 61
REMARK SMILES IDX 59 62 62 63 77 64 97 65 60 66 61 67 76 69 98 70 63 71 46 72
REMARK SMILES IDX 47 73 56 74 48 75 49 76 55 77 57 78 50 79 51 80 52 81 53 82
REMARK SMILES IDX 54 83 80 84 81 85 90 86 82 87 83 88 89 89 91 90 84 91 85 92
REMARK SMILES IDX 86 93 87 94 88 95 64 96 65 97 74 98 66 99 67 100 73 101
REMARK SMILES IDX 75 102 68 103 69 104 70 105 71 106 72 107
REMARK H PARENT 96 57 62 68
REMARK Flexibility Score: inf
ROOT
ATOM      1  C   UNL A   1      45.837  22.042  24.829  1.00  0.00     0.188 C 
ENDROOT
BRANCH   1   2
ATOM      2  O   UNL A   1      45.440  23.198  25.542  1.00  0.00    -0.377 OA
BRANCH   2   3
ATOM      3  C   UNL A   1      46.419  23.756  26.404  1.00  0.00     0.188 C 
BRANCH   3   4
ATOM      4  C   UNL A   1      47.293  24.837  25.741  1.00  0.00     0.188 C 
BRANCH   4   5
ATOM      5  O   UNL A   1      48.098  25.724  26.526  1.00  0.00    -0.376 OA
BRANCH   5   6
ATOM      6  C   UNL A   1      48.560  26.935  25.943  1.00  0.00     0.202 C 
BRANCH   6   7
ATOM      7  C   UNL A   1      47.884  28.189  26.530  1.00  0.00     0.261 C 
BRANCH   7   8
ATOM      8  O   UNL A   1      47.341  28.021  27.854  1.00  0.00    -0.462 OA
BRANCH   8   9
ATOM      9  C   UNL A   1      45.989  28.024  27.914  1.00  0.00     0.324 C 
ATOM     10  O   UNL A   1      45.277  27.050  27.666  1.00  0.00    -0.250 OA
BRANCH   9  11
ATOM     11  C   UNL A   1      45.364  29.348  28.298  1.00  0.00     0.183 C 
ATOM     12  N   UNL A   1      45.894  30.683  27.894  1.00  0.00    -0.184 NA
ATOM     13  C   UNL A   1      45.144  31.119  26.701  1.00  0.00     0.103 C 
ATOM     14  C   UNL A   1      43.739  30.616  26.960  1.00  0.00     0.019 C 
ATOM     15  C   UNL A   1      43.931  29.320  27.731  1.00  0.00     0.034 C 
BRANCH  12  16
ATOM     16  S   UNL A   1      46.312  31.846  29.065  1.00  0.00     0.243 S 
ATOM     17  O   UNL A   1      47.676  31.583  29.475  1.00  0.00    -0.207 OA
ATOM     18  O   UNL A   1      45.244  31.925  30.039  1.00  0.00    -0.207 OA
BRANCH  16  19
ATOM     19  C   UNL A   1      46.328  33.464  28.296  1.00  0.00     0.084 A 
ATOM     20  C   UNL A   1      45.320  38.255  26.895  1.00  0.00     0.154 C 
ATOM     21  N   UNL A   1      46.409  37.336  26.592  1.00  0.00    -0.305 N 
ATOM     22  C   UNL A   1      47.369  37.732  25.670  1.00  0.00     0.316 A 
ATOM     23  C   UNL A   1      46.438  36.051  27.189  1.00  0.00     0.068 A 
ATOM     24  O   UNL A   1      47.354  38.819  25.100  1.00  0.00    -0.263 OA
ATOM     25  C   UNL A   1      48.516  36.755  25.379  1.00  0.00     0.316 A 
ATOM     26  C   UNL A   1      47.368  35.080  26.776  1.00  0.00     0.069 A 
ATOM     27  C   UNL A   1      45.543  35.742  28.219  1.00  0.00     0.030 A 
ATOM     28  O   UNL A   1      49.466  37.159  24.712  1.00  0.00    -0.263 OA
ATOM     29  N   UNL A   1      48.419  35.459  25.891  1.00  0.00    -0.305 N 
ATOM     30  C   UNL A   1      47.268  33.768  27.296  1.00  0.00     0.050 A 
ATOM     31  C   UNL A   1      45.531  34.481  28.798  1.00  0.00     0.024 A 
ATOM     32  C   UNL A   1      49.504  34.535  25.596  1.00  0.00     0.154 C 
ENDBRANCH  16  19
ENDBRANCH  12  16
ENDBRANCH   9  11
ENDBRANCH   8   9
ENDBRANCH   7   8
ENDBRANCH   6   7
ENDBRANCH   5   6
ENDBRANCH   4   5
ENDBRANCH   3   4
ENDBRANCH   2   3
ENDBRANCH   1   2
BRANCH   1  33
ATOM     33  C   UNL A   1      44.717  21.026  24.580  1.00  0.00     0.188 C 
BRANCH  33  34
ATOM     34  O   UNL A   1      43.447  21.504  25.034  1.00  0.00    -0.376 OA
BRANCH  34  35
ATOM     35  C   UNL A   1      42.813  20.725  26.045  1.00  0.00     0.202 C 
BRANCH  35  36
ATOM     36  C   UNL A   1      41.462  21.279  26.518  1.00  0.00     0.261 C 
BRANCH  36  37
ATOM     37  O   UNL A   1      41.171  22.642  26.164  1.00  0.00    -0.460 OA
BRANCH  37  38
ATOM     38  C   UNL A   1      39.948  23.147  26.437  1.00  0.00     0.338 C 
ATOM     39  O   UNL A   1      38.874  22.600  26.264  1.00  0.00    -0.246 OA
BRANCH  38  40
ATOM     40  C   UNL A   1      40.147  24.402  27.199  1.00  0.00     0.060 A 
ATOM     41  C   UNL A   1      39.208  24.822  28.146  1.00  0.00     0.016 A 
ATOM     42  C   UNL A   1      41.265  25.198  26.915  1.00  0.00     0.016 A 
ATOM     43  C   UNL A   1      39.404  26.024  28.829  1.00  0.00     0.010 A 
ATOM     44  C   UNL A   1      41.450  26.410  27.586  1.00  0.00     0.010 A 
ATOM     45  C   UNL A   1      40.534  26.818  28.567  1.00  0.00    -0.014 A 
BRANCH  45  46
ATOM     46  C   UNL A   1      40.848  27.959  29.460  1.00  0.00     0.031 A 
ATOM     47  C   UNL A   1      39.948  29.149  29.593  1.00  0.00     0.074 A 
ATOM     48  C   UNL A   1      41.984  27.884  30.179  1.00  0.00     0.049 A 
ATOM     49  N   UNL A   1      40.054  30.164  30.411  1.00  0.00    -0.248 NA
ATOM     50  C   UNL A   1      38.790  29.214  28.693  1.00  0.00     0.031 C 
ATOM     51  C   UNL A   1      42.939  26.776  30.117  1.00  0.00     0.029 A 
ATOM     52  N   UNL A   1      42.519  28.737  31.108  1.00  0.00    -0.354 N 
ATOM     53  C   UNL A   1      38.957  30.977  30.157  1.00  0.00     0.074 A 
ATOM     54  C   UNL A   1      38.228  30.359  29.064  1.00  0.00     0.031 C 
ATOM     55  C   UNL A   1      43.929  27.002  30.993  1.00  0.00     0.029 A 
ATOM     56  C   UNL A   1      43.688  28.275  31.664  1.00  0.00     0.049 A 
ATOM     57  H   UNL A   1      42.107  29.597  31.353  1.00  0.00     0.167 HD
ATOM     58  C   UNL A   1      38.586  32.119  30.789  1.00  0.00     0.037 A 
ATOM     59  C   UNL A   1      44.473  28.807  32.619  1.00  0.00     0.037 A 
ATOM     60  C   UNL A   1      39.338  32.741  31.853  1.00  0.00     0.049 A 
ATOM     61  C   UNL A   1      44.073  30.104  33.260  1.00  0.00     0.074 A 
ATOM     62  C   UNL A   1      39.035  33.889  32.566  1.00  0.00     0.029 A 
ATOM     63  N   UNL A   1      40.550  32.278  32.349  1.00  0.00    -0.354 N 
ATOM     64  N   UNL A   1      43.004  30.833  33.044  1.00  0.00    -0.248 NA
ATOM     65  C   UNL A   1      44.981  30.647  34.278  1.00  0.00     0.031 C 
ATOM     66  C   UNL A   1      40.082  34.144  33.460  1.00  0.00     0.029 A 
ATOM     67  C   UNL A   1      41.019  33.131  33.338  1.00  0.00     0.049 A 
ATOM     68  H   UNL A   1      41.010  31.464  32.043  1.00  0.00     0.167 HD
ATOM     69  C   UNL A   1      43.103  31.914  33.911  1.00  0.00     0.074 A 
ATOM     70  C   UNL A   1      44.329  31.736  34.663  1.00  0.00     0.031 C 
ATOM     71  C   UNL A   1      42.250  32.957  34.069  1.00  0.00     0.037 A 
BRANCH  58  72
ATOM     72  C   UNL A   1      37.300  32.769  30.356  1.00  0.00     0.058 A 
ATOM     73  C   UNL A   1      37.252  33.604  29.228  1.00  0.00     0.135 A 
ATOM     74  C   UNL A   1      36.097  32.519  31.035  1.00  0.00     0.135 A 
ATOM     75  F   UNL A   1      38.372  33.881  28.543  1.00  0.00    -0.206 F 
ATOM     76  C   UNL A   1      36.063  34.191  28.807  1.00  0.00     0.059 A 
ATOM     77  C   UNL A   1      34.890  33.079  30.619  1.00  0.00     0.059 A 
ATOM     78  F   UNL A   1      36.083  31.722  32.115  1.00  0.00    -0.206 F 
ATOM     79  C   UNL A   1      34.887  33.927  29.512  1.00  0.00     0.060 A 
BRANCH  79  80
ATOM     80  S   UNL A   1      33.360  34.715  28.959  1.00  0.00     0.124 S 
ATOM     81  O   UNL A   1      32.626  34.838  30.216  1.00  0.00    -0.237 OA
ATOM     82  O   UNL A   1      33.845  35.968  28.387  1.00  0.00    -0.237 OA
ATOM     83  O   UNL A   1      32.810  33.762  28.002  1.00  0.00    -0.744 OA
ENDBRANCH  79  80
ENDBRANCH  58  72
BRANCH  59  84
ATOM     84  C   UNL A   1      45.684  28.070  33.053  1.00  0.00     0.058 A 
ATOM     85  C   UNL A   1      46.926  28.325  32.455  1.00  0.00     0.135 A 
ATOM     86  C   UNL A   1      45.639  27.156  34.115  1.00  0.00     0.135 A 
ATOM     87  F   UNL A   1      47.015  29.191  31.434  1.00  0.00    -0.206 F 
ATOM     88  C   UNL A   1      48.086  27.700  32.899  1.00  0.00     0.059 A 
ATOM     89  C   UNL A   1      46.789  26.534  34.591  1.00  0.00     0.059 A 
ATOM     90  F   UNL A   1      44.476  26.895  34.730  1.00  0.00    -0.206 F 
ATOM     91  C   UNL A   1      48.008  26.812  33.974  1.00  0.00     0.060 A 
BRANCH  91  92
ATOM     92  S   UNL A   1      49.534  26.072  34.592  1.00  0.00     0.124 S 
ATOM     93  O   UNL A   1      50.068  27.147  35.421  1.00  0.00    -0.237 OA
ATOM     94  O   UNL A   1      49.037  24.901  35.307  1.00  0.00    -0.237 OA
ATOM     95  O   UNL A   1      50.285  25.782  33.374  1.00  0.00    -0.744 OA
ENDBRANCH  91  92
ENDBRANCH  59  84
BRANCH  71  96
ATOM     96  C   UNL A   1      42.616  33.993  35.095  1.00  0.00     0.058 A 
ATOM     97  C   UNL A   1      42.402  33.775  36.466  1.00  0.00     0.135 A 
ATOM     98  C   UNL A   1      43.227  35.197  34.711  1.00  0.00     0.135 A 
ATOM     99  F   UNL A   1      41.811  32.645  36.885  1.00  0.00    -0.206 F 
ATOM    100  C   UNL A   1      42.767  34.721  37.418  1.00  0.00     0.059 A 
ATOM    101  C   UNL A   1      43.622  36.148  35.649  1.00  0.00     0.059 A 
ATOM    102  F   UNL A   1      43.459  35.455  33.414  1.00  0.00    -0.206 F 
ATOM    103  C   UNL A   1      43.379  35.904  37.000  1.00  0.00     0.060 A 
BRANCH 103 104
ATOM    104  S   UNL A   1      43.882  37.105  38.252  1.00  0.00     0.124 S 
ATOM    105  O   UNL A   1      44.375  36.234  39.314  1.00  0.00    -0.237 OA
ATOM    106  O   UNL A   1      44.897  37.883  37.547  1.00  0.00    -0.237 OA
ATOM    107  O   UNL A   1      42.646  37.823  38.551  1.00  0.00    -0.744 OA
ENDBRANCH 103 104
ENDBRANCH  71  96
ENDBRANCH  45  46
ENDBRANCH  38  40
ENDBRANCH  37  38
ENDBRANCH  36  37
ENDBRANCH  35  36
ENDBRANCH  34  35
ENDBRANCH  33  34
ENDBRANCH   1  33
TORSDOF 25
ENDMDL
MODEL 2
REMARK VINA RESULT:      -7.5      6.426     14.218
REMARK SMILES Cn1c(=O)c(=O)n(C)c2cc(S(=O)(=O)N3CCC[C@H]3C(=O)OCCOCCOCCOCCOC(=O)c3ccc(-c4c5nc(c(-c6c(F)cc(S(=O)(=O)[O-])cc6F)c6ccc([nH]6)c(-c6c(F)cc(S(=O)(=O)[O-])cc6F)c6nc(c(-c7c(F)cc(S(=O)(=O)[O-])cc7F)c7ccc4[nH]7)C=C6)C=C5)cc3)ccc21
REMARK SMILES IDX 29 1 28 2 27 3 26 4 25 5 24 6 23 7 22 8 20 9 21 10 19 11
REMARK SMILES IDX 15 12 16 13 17 14 18 15 12 16 13 17 14 18 11 19 1 20 2 21
REMARK SMILES IDX 3 22 105 23 4 24 5 25 9 26 104 27 6 28 7 29 10 30 103 31
REMARK SMILES IDX 8 32 30 33 31 34 32 35 33 36 34 37 35 38 36 39 37 40 38 41
REMARK SMILES IDX 102 42 39 43 101 44 40 45 41 46 42 47 95 48 43 49 100 50
REMARK SMILES IDX 94 51 96 52 44 53 99 54 93 55 92 56 45 58 79 59 58 60 78 61
REMARK SMILES IDX 59 62 62 63 77 64 97 65 60 66 61 67 76 69 98 70 63 71 46 72
REMARK SMILES IDX 47 73 56 74 48 75 49 76 55 77 57 78 50 79 51 80 52 81 53 82
REMARK SMILES IDX 54 83 80 84 81 85 90 86 82 87 83 88 89 89 91 90 84 91 85 92
REMARK SMILES IDX 86 93 87 94 88 95 64 96 65 97 74 98 66 99 67 100 73 101
REMARK SMILES IDX 75 102 68 103 69 104 70 105 71 106 72 107
REMARK H PARENT 96 57 62 68
REMARK Flexibility Score: inf
ROOT
ATOM      1  C   UNL A   1      37.872  30.454  28.284  1.00  0.00     0.188 C 
ENDROOT
BRANCH   1   2
ATOM      2  O   UNL A   1      36.557  30.541  27.770  1.00  0.00    -0.377 OA
BRANCH   2   3
ATOM      3  C   UNL A   1      35.888  31.771  27.996  1.00  0.00     0.188 C 
BRANCH   3   4
ATOM      4  C   UNL A   1      34.452  31.613  28.532  1.00  0.00     0.188 C 
BRANCH   4   5
ATOM      5  O   UNL A   1      33.320  31.732  27.663  1.00  0.00    -0.376 OA
BRANCH   5   6
ATOM      6  C   UNL A   1      33.088  30.722  26.690  1.00  0.00     0.202 C 
BRANCH   6   7
ATOM      7  C   UNL A   1      31.989  29.724  27.100  1.00  0.00     0.261 C 
BRANCH   7   8
ATOM      8  O   UNL A   1      32.469  28.430  27.514  1.00  0.00    -0.462 OA
BRANCH   8   9
ATOM      9  C   UNL A   1      33.414  27.894  26.706  1.00  0.00     0.324 C 
ATOM     10  O   UNL A   1      34.610  28.180  26.747  1.00  0.00    -0.250 OA
BRANCH   9  11
ATOM     11  C   UNL A   1      32.902  26.895  25.690  1.00  0.00     0.183 C 
ATOM     12  N   UNL A   1      31.495  26.402  25.623  1.00  0.00    -0.184 NA
ATOM     13  C   UNL A   1      30.787  27.207  24.610  1.00  0.00     0.103 C 
ATOM     14  C   UNL A   1      31.836  27.442  23.544  1.00  0.00     0.019 C 
ATOM     15  C   UNL A   1      33.148  27.533  24.308  1.00  0.00     0.034 C 
BRANCH  12  16
ATOM     16  S   UNL A   1      31.148  24.739  25.731  1.00  0.00     0.243 S 
ATOM     17  O   UNL A   1      30.371  24.377  24.564  1.00  0.00    -0.207 OA
ATOM     18  O   UNL A   1      30.664  24.454  27.065  1.00  0.00    -0.207 OA
BRANCH  16  19
ATOM     19  C   UNL A   1      32.680  23.817  25.612  1.00  0.00     0.084 A 
ATOM     20  C   UNL A   1      37.546  22.325  25.754  1.00  0.00     0.154 C 
ATOM     21  N   UNL A   1      36.299  21.632  25.459  1.00  0.00    -0.305 N 
ATOM     22  C   UNL A   1      36.363  20.312  25.033  1.00  0.00     0.316 A 
ATOM     23  C   UNL A   1      35.066  22.323  25.553  1.00  0.00     0.068 A 
ATOM     24  O   UNL A   1      37.416  19.693  24.898  1.00  0.00    -0.263 OA
ATOM     25  C   UNL A   1      35.037  19.596  24.744  1.00  0.00     0.316 A 
ATOM     26  C   UNL A   1      33.870  21.739  25.097  1.00  0.00     0.069 A 
ATOM     27  C   UNL A   1      35.025  23.599  26.124  1.00  0.00     0.030 A 
ATOM     28  O   UNL A   1      35.064  18.383  24.547  1.00  0.00    -0.263 OA
ATOM     29  N   UNL A   1      33.870  20.363  24.724  1.00  0.00    -0.305 N 
ATOM     30  C   UNL A   1      32.689  22.517  25.078  1.00  0.00     0.050 A 
ATOM     31  C   UNL A   1      33.836  24.309  26.199  1.00  0.00     0.024 A 
ATOM     32  C   UNL A   1      32.618  19.679  24.433  1.00  0.00     0.154 C 
ENDBRANCH  16  19
ENDBRANCH  12  16
ENDBRANCH   9  11
ENDBRANCH   8   9
ENDBRANCH   7   8
ENDBRANCH   6   7
ENDBRANCH   5   6
ENDBRANCH   4   5
ENDBRANCH   3   4
ENDBRANCH   2   3
ENDBRANCH   1   2
BRANCH   1  33
ATOM     33  C   UNL A   1      38.699  29.287  27.734  1.00  0.00     0.188 C 
BRANCH  33  34
ATOM     34  O   UNL A   1      39.772  28.928  28.609  1.00  0.00    -0.376 OA
BRANCH  34  35
ATOM     35  C   UNL A   1      40.593  27.846  28.177  1.00  0.00     0.202 C 
BRANCH  35  36
ATOM     36  C   UNL A   1      40.228  27.287  26.794  1.00  0.00     0.261 C 
BRANCH  36  37
ATOM     37  O   UNL A   1      41.300  26.689  26.044  1.00  0.00    -0.460 OA
BRANCH  37  38
ATOM     38  C   UNL A   1      42.296  27.473  25.578  1.00  0.00     0.338 C 
ATOM     39  O   UNL A   1      42.200  28.373  24.763  1.00  0.00    -0.246 OA
BRANCH  38  40
ATOM     40  C   UNL A   1      43.497  27.200  26.401  1.00  0.00     0.060 A 
ATOM     41  C   UNL A   1      43.903  25.888  26.662  1.00  0.00     0.016 A 
ATOM     42  C   UNL A   1      44.191  28.279  26.965  1.00  0.00     0.016 A 
ATOM     43  C   UNL A   1      45.022  25.657  27.466  1.00  0.00     0.010 A 
ATOM     44  C   UNL A   1      45.300  28.045  27.784  1.00  0.00     0.010 A 
ATOM     45  C   UNL A   1      45.738  26.733  28.018  1.00  0.00    -0.014 A 
BRANCH  45  46
ATOM     46  C   UNL A   1      47.048  26.483  28.665  1.00  0.00     0.031 A 
ATOM     47  C   UNL A   1      48.342  26.553  27.915  1.00  0.00     0.074 A 
ATOM     48  C   UNL A   1      47.042  26.202  29.982  1.00  0.00     0.049 A 
ATOM     49  N   UNL A   1      49.562  26.457  28.380  1.00  0.00    -0.248 NA
ATOM     50  C   UNL A   1      48.262  26.749  26.462  1.00  0.00     0.031 C 
ATOM     51  C   UNL A   1      45.837  26.096  30.807  1.00  0.00     0.029 A 
ATOM     52  N   UNL A   1      48.070  25.971  30.858  1.00  0.00    -0.354 N 
ATOM     53  C   UNL A   1      50.403  26.616  27.286  1.00  0.00     0.074 A 
ATOM     54  C   UNL A   1      49.547  26.761  26.123  1.00  0.00     0.031 C 
ATOM     55  C   UNL A   1      46.195  25.852  32.076  1.00  0.00     0.029 A 
ATOM     56  C   UNL A   1      47.650  25.766  32.150  1.00  0.00     0.049 A 
ATOM     57  H   UNL A   1      49.017  25.954  30.588  1.00  0.00     0.167 HD
ATOM     58  C   UNL A   1      51.758  26.657  27.262  1.00  0.00     0.037 A 
ATOM     59  C   UNL A   1      48.356  25.548  33.275  1.00  0.00     0.037 A 
ATOM     60  C   UNL A   1      52.600  26.479  28.422  1.00  0.00     0.049 A 
ATOM     61  C   UNL A   1      49.855  25.537  33.211  1.00  0.00     0.074 A 
ATOM     62  C   UNL A   1      53.982  26.520  28.500  1.00  0.00     0.029 A 
ATOM     63  N   UNL A   1      52.141  26.212  29.706  1.00  0.00    -0.354 N 
ATOM     64  N   UNL A   1      50.636  25.742  32.178  1.00  0.00    -0.248 NA
ATOM     65  C   UNL A   1      50.569  25.270  34.466  1.00  0.00     0.031 C 
ATOM     66  C   UNL A   1      54.359  26.235  29.817  1.00  0.00     0.029 A 
ATOM     67  C   UNL A   1      53.212  26.060  30.574  1.00  0.00     0.049 A 
ATOM     68  H   UNL A   1      51.193  26.140  29.962  1.00  0.00     0.167 HD
ATOM     69  C   UNL A   1      51.935  25.646  32.660  1.00  0.00     0.074 A 
ATOM     70  C   UNL A   1      51.834  25.377  34.081  1.00  0.00     0.031 C 
ATOM     71  C   UNL A   1      53.104  25.773  31.984  1.00  0.00     0.037 A 
BRANCH  58  72
ATOM     72  C   UNL A   1      52.424  26.917  25.938  1.00  0.00     0.058 A 
ATOM     73  C   UNL A   1      52.780  28.218  25.547  1.00  0.00     0.135 A 
ATOM     74  C   UNL A   1      52.759  25.862  25.074  1.00  0.00     0.135 A 
ATOM     75  F   UNL A   1      52.481  29.266  26.331  1.00  0.00    -0.206 F 
ATOM     76  C   UNL A   1      53.416  28.466  24.335  1.00  0.00     0.059 A 
ATOM     77  C   UNL A   1      53.415  26.084  23.865  1.00  0.00     0.059 A 
ATOM     78  F   UNL A   1      52.449  24.597  25.401  1.00  0.00    -0.206 F 
ATOM     79  C   UNL A   1      53.726  27.393  23.498  1.00  0.00     0.060 A 
BRANCH  79  80
ATOM     80  S   UNL A   1      54.534  27.740  21.921  1.00  0.00     0.124 S 
ATOM     81  O   UNL A   1      53.732  28.854  21.423  1.00  0.00    -0.237 OA
ATOM     82  O   UNL A   1      55.893  28.076  22.334  1.00  0.00    -0.237 OA
ATOM     83  O   UNL A   1      54.396  26.489  21.184  1.00  0.00    -0.744 OA
ENDBRANCH  79  80
ENDBRANCH  58  72
BRANCH  59  84
ATOM     84  C   UNL A   1      47.635  25.381  34.560  1.00  0.00     0.058 A 
ATOM     85  C   UNL A   1      47.275  26.497  35.328  1.00  0.00     0.135 A 
ATOM     86  C   UNL A   1      47.229  24.114  35.008  1.00  0.00     0.135 A 
ATOM     87  F   UNL A   1      47.644  27.727  34.938  1.00  0.00    -0.206 F 
ATOM     88  C   UNL A   1      46.533  26.365  36.495  1.00  0.00     0.059 A 
ATOM     89  C   UNL A   1      46.468  23.959  36.162  1.00  0.00     0.059 A 
ATOM     90  F   UNL A   1      47.534  23.019  34.296  1.00  0.00    -0.206 F 
ATOM     91  C   UNL A   1      46.126  25.092  36.900  1.00  0.00     0.060 A 
BRANCH  91  92
ATOM     92  S   UNL A   1      45.094  24.945  38.373  1.00  0.00     0.124 S 
ATOM     93  O   UNL A   1      45.308  23.551  38.745  1.00  0.00    -0.237 OA
ATOM     94  O   UNL A   1      45.687  25.941  39.261  1.00  0.00    -0.237 OA
ATOM     95  O   UNL A   1      43.759  25.270  37.882  1.00  0.00    -0.744 OA
ENDBRANCH  91  92
ENDBRANCH  59  84
BRANCH  71  96
ATOM     96  C   UNL A   1      54.374  25.618  32.774  1.00  0.00     0.058 A 
ATOM     97  C   UNL A   1      54.927  26.692  33.489  1.00  0.00     0.135 A 
ATOM     98  C   UNL A   1      55.021  24.375  32.854  1.00  0.00     0.135 A 
ATOM     99  F   UNL A   1      54.355  27.905  33.436  1.00  0.00    -0.206 F 
ATOM    100  C   UNL A   1      56.087  26.542  34.244  1.00  0.00     0.059 A 
ATOM    101  C   UNL A   1      56.169  24.196  33.622  1.00  0.00     0.059 A 
ATOM    102  F   UNL A   1      54.530  23.313  32.193  1.00  0.00    -0.206 F 
ATOM    103  C   UNL A   1      56.699  25.289  34.306  1.00  0.00     0.060 A 
BRANCH 103 104
ATOM    104  S   UNL A   1      58.181  25.101  35.321  1.00  0.00     0.124 S 
ATOM    105  O   UNL A   1      59.167  25.844  34.543  1.00  0.00    -0.237 OA
ATOM    106  O   UNL A   1      57.775  25.716  36.582  1.00  0.00    -0.237 OA
ATOM    107  O   UNL A   1      58.379  23.656  35.372  1.00  0.00    -0.744 OA
ENDBRANCH 103 104
ENDBRANCH  71  96
ENDBRANCH  45  46
ENDBRANCH  38  40
ENDBRANCH  37  38
ENDBRANCH  36  37
ENDBRANCH  35  36
ENDBRANCH  34  35
ENDBRANCH  33  34
ENDBRANCH   1  33
TORSDOF 25
ENDMDL
MODEL 3
REMARK VINA RESULT:      -7.5      5.205     13.055
REMARK SMILES Cn1c(=O)c(=O)n(C)c2cc(S(=O)(=O)N3CCC[C@H]3C(=O)OCCOCCOCCOCCOC(=O)c3ccc(-c4c5nc(c(-c6c(F)cc(S(=O)(=O)[O-])cc6F)c6ccc([nH]6)c(-c6c(F)cc(S(=O)(=O)[O-])cc6F)c6nc(c(-c7c(F)cc(S(=O)(=O)[O-])cc7F)c7ccc4[nH]7)C=C6)C=C5)cc3)ccc21
REMARK SMILES IDX 29 1 28 2 27 3 26 4 25 5 24 6 23 7 22 8 20 9 21 10 19 11
REMARK SMILES IDX 15 12 16 13 17 14 18 15 12 16 13 17 14 18 11 19 1 20 2 21
REMARK SMILES IDX 3 22 105 23 4 24 5 25 9 26 104 27 6 28 7 29 10 30 103 31
REMARK SMILES IDX 8 32 30 33 31 34 32 35 33 36 34 37 35 38 36 39 37 40 38 41
REMARK SMILES IDX 102 42 39 43 101 44 40 45 41 46 42 47 95 48 43 49 100 50
REMARK SMILES IDX 94 51 96 52 44 53 99 54 93 55 92 56 45 58 79 59 58 60 78 61
REMARK SMILES IDX 59 62 62 63 77 64 97 65 60 66 61 67 76 69 98 70 63 71 46 72
REMARK SMILES IDX 47 73 56 74 48 75 49 76 55 77 57 78 50 79 51 80 52 81 53 82
REMARK SMILES IDX 54 83 80 84 81 85 90 86 82 87 83 88 89 89 91 90 84 91 85 92
REMARK SMILES IDX 86 93 87 94 88 95 64 96 65 97 74 98 66 99 67 100 73 101
REMARK SMILES IDX 75 102 68 103 69 104 70 105 71 106 72 107
REMARK H PARENT 96 57 62 68
REMARK Flexibility Score: inf
ROOT
ATOM      1  C   UNL A   1      52.593  24.809  41.500  1.00  0.00     0.188 C 
ENDROOT
BRANCH   1   2
ATOM      2  O   UNL A   1      53.553  25.830  41.303  1.00  0.00    -0.377 OA
BRANCH   2   3
ATOM      3  C   UNL A   1      54.772  25.421  40.704  1.00  0.00     0.188 C 
BRANCH   3   4
ATOM      4  C   UNL A   1      54.839  25.676  39.186  1.00  0.00     0.188 C 
BRANCH   4   5
ATOM      5  O   UNL A   1      54.727  24.600  38.248  1.00  0.00    -0.376 OA
BRANCH   5   6
ATOM      6  C   UNL A   1      53.633  24.586  37.341  1.00  0.00     0.202 C 
BRANCH   6   7
ATOM      7  C   UNL A   1      54.062  24.395  35.874  1.00  0.00     0.261 C 
BRANCH   7   8
ATOM      8  O   UNL A   1      54.773  23.171  35.605  1.00  0.00    -0.462 OA
BRANCH   8   9
ATOM      9  C   UNL A   1      54.158  22.343  34.728  1.00  0.00     0.324 C 
ATOM     10  O   UNL A   1      54.562  22.109  33.589  1.00  0.00    -0.250 OA
BRANCH   9  11
ATOM     11  C   UNL A   1      52.881  21.705  35.231  1.00  0.00     0.183 C 
ATOM     12  N   UNL A   1      51.574  21.748  34.513  1.00  0.00    -0.184 NA
ATOM     13  C   UNL A   1      51.441  20.492  33.751  1.00  0.00     0.103 C 
ATOM     14  C   UNL A   1      52.071  19.456  34.658  1.00  0.00     0.019 C 
ATOM     15  C   UNL A   1      53.187  20.201  35.374  1.00  0.00     0.034 C 
BRANCH  12  16
ATOM     16  S   UNL A   1      50.189  22.399  35.261  1.00  0.00     0.243 S 
ATOM     17  O   UNL A   1      49.132  22.432  34.271  1.00  0.00    -0.207 OA
ATOM     18  O   UNL A   1      50.573  23.595  35.981  1.00  0.00    -0.207 OA
BRANCH  16  19
ATOM     19  C   UNL A   1      49.636  21.272  36.540  1.00  0.00     0.084 A 
ATOM     20  C   UNL A   1      49.230  18.394  40.720  1.00  0.00     0.154 C 
ATOM     21  N   UNL A   1      48.311  18.714  39.637  1.00  0.00    -0.305 N 
ATOM     22  C   UNL A   1      47.076  18.079  39.611  1.00  0.00     0.316 A 
ATOM     23  C   UNL A   1      48.707  19.610  38.614  1.00  0.00     0.068 A 
ATOM     24  O   UNL A   1      46.714  17.264  40.456  1.00  0.00    -0.263 OA
ATOM     25  C   UNL A   1      46.116  18.443  38.471  1.00  0.00     0.316 A 
ATOM     26  C   UNL A   1      47.917  19.792  37.463  1.00  0.00     0.069 A 
ATOM     27  C   UNL A   1      49.891  20.341  38.748  1.00  0.00     0.030 A 
ATOM     28  O   UNL A   1      44.959  18.034  38.534  1.00  0.00    -0.263 OA
ATOM     29  N   UNL A   1      46.610  19.224  37.423  1.00  0.00    -0.305 N 
ATOM     30  C   UNL A   1      48.419  20.584  36.404  1.00  0.00     0.050 A 
ATOM     31  C   UNL A   1      50.317  21.201  37.746  1.00  0.00     0.024 A 
ATOM     32  C   UNL A   1      45.697  19.552  36.338  1.00  0.00     0.154 C 
ENDBRANCH  16  19
ENDBRANCH  12  16
ENDBRANCH   9  11
ENDBRANCH   8   9
ENDBRANCH   7   8
ENDBRANCH   6   7
ENDBRANCH   5   6
ENDBRANCH   4   5
ENDBRANCH   3   4
ENDBRANCH   2   3
ENDBRANCH   1   2
BRANCH   1  33
ATOM     33  C   UNL A   1      51.150  25.306  41.647  1.00  0.00     0.188 C 
BRANCH  33  34
ATOM     34  O   UNL A   1      50.379  25.076  40.464  1.00  0.00    -0.376 OA
BRANCH  34  35
ATOM     35  C   UNL A   1      49.448  26.099  40.120  1.00  0.00     0.202 C 
BRANCH  35  36
ATOM     36  C   UNL A   1      48.036  25.588  39.800  1.00  0.00     0.261 C 
BRANCH  36  37
ATOM     37  O   UNL A   1      47.230  26.425  38.952  1.00  0.00    -0.460 OA
BRANCH  37  38
ATOM     38  C   UNL A   1      47.491  26.466  37.627  1.00  0.00     0.338 C 
ATOM     39  O   UNL A   1      48.347  25.838  37.029  1.00  0.00    -0.246 OA
BRANCH  38  40
ATOM     40  C   UNL A   1      46.403  27.239  36.985  1.00  0.00     0.060 A 
ATOM     41  C   UNL A   1      46.650  28.498  36.430  1.00  0.00     0.016 A 
ATOM     42  C   UNL A   1      45.103  26.715  36.993  1.00  0.00     0.016 A 
ATOM     43  C   UNL A   1      45.601  29.220  35.857  1.00  0.00     0.010 A 
ATOM     44  C   UNL A   1      44.051  27.447  36.435  1.00  0.00     0.010 A 
ATOM     45  C   UNL A   1      44.298  28.693  35.840  1.00  0.00    -0.014 A 
BRANCH  45  46
ATOM     46  C   UNL A   1      43.252  29.357  35.026  1.00  0.00     0.031 A 
ATOM     47  C   UNL A   1      42.950  28.950  33.617  1.00  0.00     0.074 A 
ATOM     48  C   UNL A   1      42.554  30.350  35.609  1.00  0.00     0.049 A 
ATOM     49  N   UNL A   1      41.995  29.378  32.830  1.00  0.00    -0.248 NA
ATOM     50  C   UNL A   1      43.828  27.942  33.010  1.00  0.00     0.031 C 
ATOM     51  C   UNL A   1      42.775  30.835  36.973  1.00  0.00     0.029 A 
ATOM     52  N   UNL A   1      41.514  31.113  35.146  1.00  0.00    -0.354 N 
ATOM     53  C   UNL A   1      42.130  28.669  31.644  1.00  0.00     0.074 A 
ATOM     54  C   UNL A   1      43.297  27.820  31.799  1.00  0.00     0.031 C 
ATOM     55  C   UNL A   1      41.878  31.793  37.247  1.00  0.00     0.029 A 
ATOM     56  C   UNL A   1      41.032  32.002  36.076  1.00  0.00     0.049 A 
ATOM     57  H   UNL A   1      41.149  31.032  34.235  1.00  0.00     0.167 HD
ATOM     58  C   UNL A   1      41.341  28.710  30.541  1.00  0.00     0.037 A 
ATOM     59  C   UNL A   1      40.013  32.877  36.003  1.00  0.00     0.037 A 
ATOM     60  C   UNL A   1      40.201  29.583  30.387  1.00  0.00     0.049 A 
ATOM     61  C   UNL A   1      39.193  32.947  34.748  1.00  0.00     0.074 A 
ATOM     62  C   UNL A   1      39.331  29.685  29.314  1.00  0.00     0.029 A 
ATOM     63  N   UNL A   1      39.778  30.515  31.326  1.00  0.00    -0.354 N 
ATOM     64  N   UNL A   1      39.301  32.232  33.654  1.00  0.00    -0.248 NA
ATOM     65  C   UNL A   1      38.111  33.939  34.719  1.00  0.00     0.031 C 
ATOM     66  C   UNL A   1      38.413  30.706  29.585  1.00  0.00     0.029 A 
ATOM     67  C   UNL A   1      38.679  31.212  30.846  1.00  0.00     0.049 A 
ATOM     68  H   UNL A   1      40.198  30.660  32.205  1.00  0.00     0.167 HD
ATOM     69  C   UNL A   1      38.289  32.675  32.812  1.00  0.00     0.074 A 
ATOM     70  C   UNL A   1      37.573  33.712  33.528  1.00  0.00     0.031 C 
ATOM     71  C   UNL A   1      37.983  32.256  31.558  1.00  0.00     0.037 A 
BRANCH  58  72
ATOM     72  C   UNL A   1      41.674  27.774  29.411  1.00  0.00     0.058 A 
ATOM     73  C   UNL A   1      40.895  26.633  29.160  1.00  0.00     0.135 A 
ATOM     74  C   UNL A   1      42.742  28.039  28.539  1.00  0.00     0.135 A 
ATOM     75  F   UNL A   1      39.864  26.327  29.962  1.00  0.00    -0.206 F 
ATOM     76  C   UNL A   1      41.180  25.774  28.104  1.00  0.00     0.059 A 
ATOM     77  C   UNL A   1      43.034  27.205  27.462  1.00  0.00     0.059 A 
ATOM     78  F   UNL A   1      43.515  29.120  28.728  1.00  0.00    -0.206 F 
ATOM     79  C   UNL A   1      42.255  26.065  27.262  1.00  0.00     0.060 A 
BRANCH  79  80
ATOM     80  S   UNL A   1      42.620  24.926  25.910  1.00  0.00     0.124 S 
ATOM     81  O   UNL A   1      42.600  25.826  24.759  1.00  0.00    -0.237 OA
ATOM     82  O   UNL A   1      43.933  24.409  26.282  1.00  0.00    -0.237 OA
ATOM     83  O   UNL A   1      41.528  23.961  25.971  1.00  0.00    -0.744 OA
ENDBRANCH  79  80
ENDBRANCH  58  72
BRANCH  59  84
ATOM     84  C   UNL A   1      39.691  33.712  37.186  1.00  0.00     0.058 A 
ATOM     85  C   UNL A   1      38.800  33.250  38.164  1.00  0.00     0.135 A 
ATOM     86  C   UNL A   1      40.319  34.949  37.397  1.00  0.00     0.135 A 
ATOM     87  F   UNL A   1      38.176  32.074  38.001  1.00  0.00    -0.206 F 
ATOM     88  C   UNL A   1      38.544  33.984  39.316  1.00  0.00     0.059 A 
ATOM     89  C   UNL A   1      40.095  35.691  38.552  1.00  0.00     0.059 A 
ATOM     90  F   UNL A   1      41.194  35.422  36.497  1.00  0.00    -0.206 F 
ATOM     91  C   UNL A   1      39.204  35.201  39.505  1.00  0.00     0.060 A 
BRANCH  91  92
ATOM     92  S   UNL A   1      38.924  36.102  41.043  1.00  0.00     0.124 S 
ATOM     93  O   UNL A   1      40.209  35.947  41.714  1.00  0.00    -0.237 OA
ATOM     94  O   UNL A   1      38.615  37.444  40.558  1.00  0.00    -0.237 OA
ATOM     95  O   UNL A   1      37.803  35.391  41.651  1.00  0.00    -0.744 OA
ENDBRANCH  91  92
ENDBRANCH  59  84
BRANCH  71  96
ATOM     96  C   UNL A   1      36.821  32.923  30.876  1.00  0.00     0.058 A 
ATOM     97  C   UNL A   1      35.495  32.626  31.230  1.00  0.00     0.135 A 
ATOM     98  C   UNL A   1      37.033  33.901  29.892  1.00  0.00     0.135 A 
ATOM     99  F   UNL A   1      35.237  31.690  32.157  1.00  0.00    -0.206 F 
ATOM    100  C   UNL A   1      34.420  33.265  30.620  1.00  0.00     0.059 A 
ATOM    101  C   UNL A   1      35.972  34.570  29.285  1.00  0.00     0.059 A 
ATOM    102  F   UNL A   1      38.282  34.228  29.520  1.00  0.00    -0.206 F 
ATOM    103  C   UNL A   1      34.669  34.237  29.650  1.00  0.00     0.060 A 
BRANCH 103 104
ATOM    104  S   UNL A   1      33.263  35.084  28.895  1.00  0.00     0.124 S 
ATOM    105  O   UNL A   1      33.908  36.246  28.293  1.00  0.00    -0.237 OA
ATOM    106  O   UNL A   1      32.761  34.082  27.960  1.00  0.00    -0.237 OA
ATOM    107  O   UNL A   1      32.388  35.368  30.029  1.00  0.00    -0.744 OA
ENDBRANCH 103 104
ENDBRANCH  71  96
ENDBRANCH  45  46
ENDBRANCH  38  40
ENDBRANCH  37  38
ENDBRANCH  36  37
ENDBRANCH  35  36
ENDBRANCH  34  35
ENDBRANCH  33  34
ENDBRANCH   1  33
TORSDOF 25
ENDMDL
