MODEL 1
REMARK VINA RESULT:      -7.4      0.000      0.000
REMARK SMILES O=C(OCCOCCOCCOCCOC(=O)[C@H](c1c[nH]c2cc(F)ccc12)[NH+]1CCN(c2ccccc2)CC1)c1ccc(-c2c3nc(c(-c4c(F)cc(S(=O)(=O)[O-])cc4F)c4ccc([nH]4)c(-c4c(F)cc(S(=O)(=O)[O-])cc4F)c4nc(c(-c5c(F)cc(S(=O)(=O)[O-])cc5F)c5ccc2[nH]5)C=C4)C=C3)cc1
REMARK SMILES IDX 8 1 7 2 6 3 5 4 4 5 3 6 2 7 1 8 41 9 42 10 106 11 43 12
REMARK SMILES IDX 105 13 44 14 45 15 46 16 99 17 47 18 104 19 98 20 100 21
REMARK SMILES IDX 48 22 103 23 97 24 96 25 49 27 83 28 62 29 82 30 63 31 66 32
REMARK SMILES IDX 81 33 101 34 64 35 65 36 80 38 102 39 67 40 50 41 51 42
REMARK SMILES IDX 60 43 52 44 53 45 59 46 61 47 54 48 55 49 56 50 57 51 58 52
REMARK SMILES IDX 84 53 85 54 94 55 86 56 87 57 93 58 95 59 88 60 89 61 90 62
REMARK SMILES IDX 91 63 92 64 68 65 69 66 78 67 70 68 71 69 77 70 79 71 72 72
REMARK SMILES IDX 73 73 74 74 75 75 76 76 9 77 10 78 11 79 12 80 13 81 14 82
REMARK SMILES IDX 15 83 16 84 17 85 18 86 29 87 30 88 40 89 31 91 39 92 32 93
REMARK SMILES IDX 33 94 34 95 38 96 35 97 37 98 36 99 19 100 20 101 28 102
REMARK SMILES IDX 21 103 22 104 27 105 23 107 26 108 24 109 25 110
REMARK H PARENT 100 26 66 37 29 90 21 106
REMARK Flexibility Score: inf
ROOT
ATOM      1  C   UNL A   1      39.832  24.100  27.412  1.00  0.00     0.188 C 
ENDROOT
BRANCH   1   2
ATOM      2  C   UNL A   1      41.065  23.212  27.559  1.00  0.00     0.188 C 
BRANCH   2   3
ATOM      3  O   UNL A   1      41.511  22.790  26.272  1.00  0.00    -0.376 OA
BRANCH   3   4
ATOM      4  C   UNL A   1      42.509  23.584  25.637  1.00  0.00     0.202 C 
BRANCH   4   5
ATOM      5  C   UNL A   1      43.640  22.763  25.020  1.00  0.00     0.261 C 
BRANCH   5   6
ATOM      6  O   UNL A   1      44.666  22.419  25.966  1.00  0.00    -0.460 OA
BRANCH   6   7
ATOM      7  C   UNL A   1      45.662  23.202  26.459  1.00  0.00     0.338 C 
ATOM      8  O   UNL A   1      46.684  23.329  25.783  1.00  0.00    -0.246 OA
BRANCH   7   9
ATOM      9  C   UNL A   1      45.599  23.934  27.763  1.00  0.00     0.060 A 
ATOM     10  C   UNL A   1      44.590  23.807  28.715  1.00  0.00     0.016 A 
ATOM     11  C   UNL A   1      46.673  24.787  28.068  1.00  0.00     0.016 A 
ATOM     12  C   UNL A   1      44.573  24.561  29.871  1.00  0.00     0.010 A 
ATOM     13  C   UNL A   1      46.684  25.538  29.249  1.00  0.00     0.010 A 
ATOM     14  C   UNL A   1      45.600  25.458  30.128  1.00  0.00    -0.014 A 
BRANCH  14  15
ATOM     15  C   UNL A   1      45.344  26.453  31.181  1.00  0.00     0.031 A 
ATOM     16  C   UNL A   1      45.628  26.039  32.595  1.00  0.00     0.074 A 
ATOM     17  C   UNL A   1      45.098  27.734  30.847  1.00  0.00     0.049 A 
ATOM     18  N   UNL A   1      45.450  26.701  33.703  1.00  0.00    -0.248 NA
ATOM     19  C   UNL A   1      46.211  24.697  32.786  1.00  0.00     0.031 C 
ATOM     20  C   UNL A   1      44.987  28.241  29.474  1.00  0.00     0.029 A 
ATOM     21  N   UNL A   1      44.949  28.848  31.624  1.00  0.00    -0.354 N 
ATOM     22  C   UNL A   1      45.858  25.843  34.718  1.00  0.00     0.074 A 
ATOM     23  C   UNL A   1      46.284  24.610  34.103  1.00  0.00     0.031 C 
ATOM     24  C   UNL A   1      44.809  29.571  29.510  1.00  0.00     0.029 A 
ATOM     25  C   UNL A   1      44.702  29.992  30.901  1.00  0.00     0.049 A 
ATOM     26  H   UNL A   1      45.011  28.833  32.606  1.00  0.00     0.167 HD
ATOM     27  C   UNL A   1      45.873  26.080  36.048  1.00  0.00     0.037 A 
ATOM     28  C   UNL A   1      44.371  31.223  31.331  1.00  0.00     0.037 A 
ATOM     29  C   UNL A   1      45.454  27.332  36.612  1.00  0.00     0.049 A 
ATOM     30  C   UNL A   1      44.282  31.430  32.820  1.00  0.00     0.074 A 
ATOM     31  C   UNL A   1      45.311  27.685  37.939  1.00  0.00     0.029 A 
ATOM     32  N   UNL A   1      45.121  28.451  35.856  1.00  0.00    -0.354 N 
ATOM     33  N   UNL A   1      44.543  30.576  33.787  1.00  0.00    -0.248 NA
ATOM     34  C   UNL A   1      43.842  32.748  33.283  1.00  0.00     0.031 C 
ATOM     35  C   UNL A   1      44.855  29.006  37.984  1.00  0.00     0.029 A 
ATOM     36  C   UNL A   1      44.767  29.496  36.687  1.00  0.00     0.049 A 
ATOM     37  H   UNL A   1      45.135  28.493  34.873  1.00  0.00     0.167 HD
ATOM     38  C   UNL A   1      44.307  31.257  34.973  1.00  0.00     0.074 A 
ATOM     39  C   UNL A   1      43.914  32.604  34.599  1.00  0.00     0.031 C 
ATOM     40  C   UNL A   1      44.392  30.820  36.254  1.00  0.00     0.037 A 
BRANCH  27  41
ATOM     41  C   UNL A   1      46.284  24.947  36.945  1.00  0.00     0.058 A 
ATOM     42  C   UNL A   1      47.631  24.618  37.163  1.00  0.00     0.135 A 
ATOM     43  C   UNL A   1      45.309  24.151  37.567  1.00  0.00     0.135 A 
ATOM     44  F   UNL A   1      48.606  25.317  36.557  1.00  0.00    -0.206 F 
ATOM     45  C   UNL A   1      47.997  23.528  37.948  1.00  0.00     0.059 A 
ATOM     46  C   UNL A   1      45.652  23.072  38.376  1.00  0.00     0.059 A 
ATOM     47  F   UNL A   1      44.005  24.405  37.374  1.00  0.00    -0.206 F 
ATOM     48  C   UNL A   1      46.998  22.761  38.552  1.00  0.00     0.060 A 
BRANCH  48  49
ATOM     49  S   UNL A   1      47.491  21.356  39.572  1.00  0.00     0.124 S 
ATOM     50  O   UNL A   1      46.264  21.083  40.309  1.00  0.00    -0.237 OA
ATOM     51  O   UNL A   1      47.865  20.363  38.572  1.00  0.00    -0.237 OA
ATOM     52  O   UNL A   1      48.597  21.887  40.369  1.00  0.00    -0.744 OA
ENDBRANCH  48  49
ENDBRANCH  27  41
BRANCH  28  53
ATOM     53  C   UNL A   1      44.013  32.297  30.362  1.00  0.00     0.058 A 
ATOM     54  C   UNL A   1      42.680  32.579  30.025  1.00  0.00     0.135 A 
ATOM     55  C   UNL A   1      45.012  33.056  29.727  1.00  0.00     0.135 A 
ATOM     56  F   UNL A   1      41.683  31.885  30.596  1.00  0.00    -0.206 F 
ATOM     57  C   UNL A   1      42.354  33.545  29.075  1.00  0.00     0.059 A 
ATOM     58  C   UNL A   1      44.711  34.050  28.803  1.00  0.00     0.059 A 
ATOM     59  F   UNL A   1      46.306  32.841  30.015  1.00  0.00    -0.206 F 
ATOM     60  C   UNL A   1      43.378  34.273  28.466  1.00  0.00     0.060 A 
BRANCH  60  61
ATOM     61  S   UNL A   1      42.951  35.522  27.234  1.00  0.00     0.124 S 
ATOM     62  O   UNL A   1      41.594  35.875  27.634  1.00  0.00    -0.237 OA
ATOM     63  O   UNL A   1      43.970  36.541  27.462  1.00  0.00    -0.237 OA
ATOM     64  O   UNL A   1      43.068  34.801  25.970  1.00  0.00    -0.744 OA
ENDBRANCH  60  61
ENDBRANCH  28  53
BRANCH  40  65
ATOM     65  C   UNL A   1      44.092  31.824  37.327  1.00  0.00     0.058 A 
ATOM     66  C   UNL A   1      42.784  32.045  37.781  1.00  0.00     0.135 A 
ATOM     67  C   UNL A   1      45.137  32.539  37.933  1.00  0.00     0.135 A 
ATOM     68  F   UNL A   1      41.753  31.386  37.225  1.00  0.00    -0.206 F 
ATOM     69  C   UNL A   1      42.516  32.970  38.781  1.00  0.00     0.059 A 
ATOM     70  C   UNL A   1      44.895  33.444  38.958  1.00  0.00     0.059 A 
ATOM     71  F   UNL A   1      46.406  32.348  37.539  1.00  0.00    -0.206 F 
ATOM     72  C   UNL A   1      43.579  33.663  39.364  1.00  0.00     0.060 A 
BRANCH  72  73
ATOM     73  S   UNL A   1      43.221  34.846  40.676  1.00  0.00     0.124 S 
ATOM     74  O   UNL A   1      44.505  35.526  40.813  1.00  0.00    -0.237 OA
ATOM     75  O   UNL A   1      42.142  35.638  40.097  1.00  0.00    -0.237 OA
ATOM     76  O   UNL A   1      42.835  33.998  41.800  1.00  0.00    -0.744 OA
ENDBRANCH  72  73
ENDBRANCH  40  65
ENDBRANCH  14  15
ENDBRANCH   7   9
ENDBRANCH   6   7
ENDBRANCH   5   6
ENDBRANCH   4   5
ENDBRANCH   3   4
ENDBRANCH   2   3
ENDBRANCH   1   2
BRANCH   1  77
ATOM     77  O   UNL A   1      40.089  25.470  27.687  1.00  0.00    -0.377 OA
BRANCH  77  78
ATOM     78  C   UNL A   1      41.327  25.726  28.339  1.00  0.00     0.188 C 
BRANCH  78  79
ATOM     79  C   UNL A   1      41.638  27.184  28.757  1.00  0.00     0.188 C 
BRANCH  79  80
ATOM     80  O   UNL A   1      41.361  27.461  30.120  1.00  0.00    -0.376 OA
BRANCH  80  81
ATOM     81  C   UNL A   1      40.720  28.713  30.341  1.00  0.00     0.202 C 
BRANCH  81  82
ATOM     82  C   UNL A   1      39.526  28.635  31.307  1.00  0.00     0.261 C 
BRANCH  82  83
ATOM     83  O   UNL A   1      39.055  29.893  31.849  1.00  0.00    -0.459 OA
BRANCH  83  84
ATOM     84  C   UNL A   1      38.129  29.895  32.854  1.00  0.00     0.370 C 
ATOM     85  O   UNL A   1      37.640  28.875  33.325  1.00  0.00    -0.245 OA
BRANCH  84  86
ATOM     86  C   UNL A   1      37.861  31.362  33.356  1.00  0.00     0.328 C 
BRANCH  86  87
ATOM     87  N   UNL A   1      36.405  31.618  33.130  1.00  0.00    -0.316 N 
ATOM     88  C   UNL A   1      35.900  32.889  33.628  1.00  0.00     0.284 C 
ATOM     89  C   UNL A   1      35.862  31.352  31.785  1.00  0.00     0.284 C 
ATOM     90  H   UNL A   1      36.037  30.876  33.726  1.00  0.00     0.349 HD
ATOM     91  C   UNL A   1      36.297  33.994  32.646  1.00  0.00     0.178 C 
ATOM     92  C   UNL A   1      35.228  32.529  30.930  1.00  0.00     0.178 C 
ATOM     93  N   UNL A   1      35.504  33.880  31.428  1.00  0.00    -0.360 N 
BRANCH  93  94
ATOM     94  C   UNL A   1      34.689  35.008  31.369  1.00  0.00     0.037 A 
ATOM     95  C   UNL A   1      34.535  35.725  32.571  1.00  0.00     0.026 A 
ATOM     96  C   UNL A   1      33.687  35.098  30.397  1.00  0.00     0.026 A 
ATOM     97  C   UNL A   1      33.343  36.385  32.860  1.00  0.00     0.002 A 
ATOM     98  C   UNL A   1      32.489  35.754  30.690  1.00  0.00     0.002 A 
ATOM     99  C   UNL A   1      32.308  36.370  31.930  1.00  0.00     0.000 A 
ENDBRANCH  93  94
ENDBRANCH  86  87
BRANCH  86 100
ATOM    100  C   UNL A   1      38.318  31.574  34.842  1.00  0.00     0.046 A 
ATOM    101  C   UNL A   1      38.132  30.689  35.900  1.00  0.00     0.094 A 
ATOM    102  C   UNL A   1      38.904  32.764  35.458  1.00  0.00     0.009 A 
ATOM    103  N   UNL A   1      38.360  31.333  37.085  1.00  0.00    -0.361 N 
ATOM    104  C   UNL A   1      38.797  32.610  36.849  1.00  0.00     0.049 A 
ATOM    105  C   UNL A   1      39.404  34.000  34.979  1.00  0.00     0.014 A 
ATOM    106  H   UNL A   1      38.229  30.936  37.976  1.00  0.00     0.166 HD
ATOM    107  C   UNL A   1      39.061  33.641  37.763  1.00  0.00     0.065 A 
ATOM    108  C   UNL A   1      39.725  35.024  35.887  1.00  0.00     0.040 A 
ATOM    109  C   UNL A   1      39.522  34.847  37.249  1.00  0.00     0.125 A 
ATOM    110  F   UNL A   1      39.773  35.862  38.090  1.00  0.00    -0.207 F 
ENDBRANCH  86 100
ENDBRANCH  84  86
ENDBRANCH  83  84
ENDBRANCH  82  83
ENDBRANCH  81  82
ENDBRANCH  80  81
ENDBRANCH  79  80
ENDBRANCH  78  79
ENDBRANCH  77  78
ENDBRANCH   1  77
TORSDOF 26
ENDMDL
MODEL 2
REMARK VINA RESULT:      -7.2      3.964      5.863
REMARK SMILES O=C(OCCOCCOCCOCCOC(=O)[C@H](c1c[nH]c2cc(F)ccc12)[NH+]1CCN(c2ccccc2)CC1)c1ccc(-c2c3nc(c(-c4c(F)cc(S(=O)(=O)[O-])cc4F)c4ccc([nH]4)c(-c4c(F)cc(S(=O)(=O)[O-])cc4F)c4nc(c(-c5c(F)cc(S(=O)(=O)[O-])cc5F)c5ccc2[nH]5)C=C4)C=C3)cc1
REMARK SMILES IDX 8 1 7 2 6 3 5 4 4 5 3 6 2 7 1 8 41 9 42 10 106 11 43 12
REMARK SMILES IDX 105 13 44 14 45 15 46 16 99 17 47 18 104 19 98 20 100 21
REMARK SMILES IDX 48 22 103 23 97 24 96 25 49 27 83 28 62 29 82 30 63 31 66 32
REMARK SMILES IDX 81 33 101 34 64 35 65 36 80 38 102 39 67 40 50 41 51 42
REMARK SMILES IDX 60 43 52 44 53 45 59 46 61 47 54 48 55 49 56 50 57 51 58 52
REMARK SMILES IDX 84 53 85 54 94 55 86 56 87 57 93 58 95 59 88 60 89 61 90 62
REMARK SMILES IDX 91 63 92 64 68 65 69 66 78 67 70 68 71 69 77 70 79 71 72 72
REMARK SMILES IDX 73 73 74 74 75 75 76 76 9 77 10 78 11 79 12 80 13 81 14 82
REMARK SMILES IDX 15 83 16 84 17 85 18 86 29 87 30 88 40 89 31 91 39 92 32 93
REMARK SMILES IDX 33 94 34 95 38 96 35 97 37 98 36 99 19 100 20 101 28 102
REMARK SMILES IDX 21 103 22 104 27 105 23 107 26 108 24 109 25 110
REMARK H PARENT 100 26 66 37 29 90 21 106
REMARK Flexibility Score: inf
ROOT
ATOM      1  C   UNL A   1      42.935  26.985  29.084  1.00  0.00     0.188 C 
ENDROOT
BRANCH   1   2
ATOM      2  C   UNL A   1      43.100  27.866  27.849  1.00  0.00     0.188 C 
BRANCH   2   3
ATOM      3  O   UNL A   1      44.473  28.215  27.683  1.00  0.00    -0.376 OA
BRANCH   3   4
ATOM      4  C   UNL A   1      44.916  28.498  26.360  1.00  0.00     0.202 C 
BRANCH   4   5
ATOM      5  C   UNL A   1      46.381  28.137  26.118  1.00  0.00     0.261 C 
BRANCH   5   6
ATOM      6  O   UNL A   1      47.205  29.281  25.839  1.00  0.00    -0.460 OA
BRANCH   6   7
ATOM      7  C   UNL A   1      47.995  29.986  26.691  1.00  0.00     0.338 C 
ATOM      8  O   UNL A   1      49.215  29.907  26.543  1.00  0.00    -0.246 OA
BRANCH   7   9
ATOM      9  C   UNL A   1      47.486  30.864  27.790  1.00  0.00     0.060 A 
ATOM     10  C   UNL A   1      48.129  31.098  29.003  1.00  0.00     0.016 A 
ATOM     11  C   UNL A   1      46.278  31.544  27.556  1.00  0.00     0.016 A 
ATOM     12  C   UNL A   1      47.567  31.878  29.994  1.00  0.00     0.010 A 
ATOM     13  C   UNL A   1      45.709  32.361  28.540  1.00  0.00     0.010 A 
ATOM     14  C   UNL A   1      46.337  32.484  29.783  1.00  0.00    -0.014 A 
BRANCH  14  15
ATOM     15  C   UNL A   1      45.655  33.002  30.980  1.00  0.00     0.031 A 
ATOM     16  C   UNL A   1      45.087  31.992  31.933  1.00  0.00     0.074 A 
ATOM     17  C   UNL A   1      45.760  34.306  31.298  1.00  0.00     0.049 A 
ATOM     18  N   UNL A   1      44.406  32.179  33.028  1.00  0.00    -0.248 NA
ATOM     19  C   UNL A   1      45.334  30.572  31.617  1.00  0.00     0.031 C 
ATOM     20  C   UNL A   1      46.460  35.316  30.497  1.00  0.00     0.029 A 
ATOM     21  N   UNL A   1      45.328  34.996  32.396  1.00  0.00    -0.354 N 
ATOM     22  C   UNL A   1      44.111  30.907  33.504  1.00  0.00     0.074 A 
ATOM     23  C   UNL A   1      44.674  29.953  32.580  1.00  0.00     0.031 C 
ATOM     24  C   UNL A   1      46.427  36.492  31.144  1.00  0.00     0.029 A 
ATOM     25  C   UNL A   1      45.629  36.337  32.354  1.00  0.00     0.049 A 
ATOM     26  H   UNL A   1      44.848  34.574  33.144  1.00  0.00     0.167 HD
ATOM     27  C   UNL A   1      43.429  30.578  34.624  1.00  0.00     0.037 A 
ATOM     28  C   UNL A   1      45.245  37.328  33.179  1.00  0.00     0.037 A 
ATOM     29  C   UNL A   1      42.902  31.565  35.522  1.00  0.00     0.049 A 
ATOM     30  C   UNL A   1      44.387  36.948  34.357  1.00  0.00     0.074 A 
ATOM     31  C   UNL A   1      42.101  31.391  36.633  1.00  0.00     0.029 A 
ATOM     32  N   UNL A   1      43.146  32.929  35.406  1.00  0.00    -0.354 N 
ATOM     33  N   UNL A   1      43.996  35.751  34.738  1.00  0.00    -0.248 NA
ATOM     34  C   UNL A   1      43.903  38.039  35.207  1.00  0.00     0.031 C 
ATOM     35  C   UNL A   1      41.830  32.655  37.167  1.00  0.00     0.029 A 
ATOM     36  C   UNL A   1      42.506  33.613  36.423  1.00  0.00     0.049 A 
ATOM     37  H   UNL A   1      43.692  33.347  34.703  1.00  0.00     0.167 HD
ATOM     38  C   UNL A   1      43.227  35.944  35.877  1.00  0.00     0.074 A 
ATOM     39  C   UNL A   1      43.237  37.372  36.139  1.00  0.00     0.031 C 
ATOM     40  C   UNL A   1      42.562  35.038  36.637  1.00  0.00     0.037 A 
BRANCH  27  41
ATOM     41  C   UNL A   1      43.173  29.118  34.870  1.00  0.00     0.058 A 
ATOM     42  C   UNL A   1      42.012  28.476  34.412  1.00  0.00     0.135 A 
ATOM     43  C   UNL A   1      44.089  28.358  35.614  1.00  0.00     0.135 A 
ATOM     44  F   UNL A   1      41.079  29.165  33.733  1.00  0.00    -0.206 F 
ATOM     45  C   UNL A   1      41.759  27.137  34.699  1.00  0.00     0.059 A 
ATOM     46  C   UNL A   1      43.869  27.012  35.892  1.00  0.00     0.059 A 
ATOM     47  F   UNL A   1      45.204  28.927  36.098  1.00  0.00    -0.206 F 
ATOM     48  C   UNL A   1      42.696  26.413  35.440  1.00  0.00     0.060 A 
BRANCH  48  49
ATOM     49  S   UNL A   1      42.353  24.677  35.798  1.00  0.00     0.124 S 
ATOM     50  O   UNL A   1      42.824  24.028  34.582  1.00  0.00    -0.237 OA
ATOM     51  O   UNL A   1      43.153  24.442  36.994  1.00  0.00    -0.237 OA
ATOM     52  O   UNL A   1      40.904  24.653  36.001  1.00  0.00    -0.744 OA
ENDBRANCH  48  49
ENDBRANCH  27  41
BRANCH  28  53
ATOM     53  C   UNL A   1      45.578  38.748  32.871  1.00  0.00     0.058 A 
ATOM     54  C   UNL A   1      44.748  39.549  32.072  1.00  0.00     0.135 A 
ATOM     55  C   UNL A   1      46.763  39.330  33.355  1.00  0.00     0.135 A 
ATOM     56  F   UNL A   1      43.605  39.047  31.579  1.00  0.00    -0.206 F 
ATOM     57  C   UNL A   1      45.093  40.857  31.740  1.00  0.00     0.059 A 
ATOM     58  C   UNL A   1      47.112  40.645  33.067  1.00  0.00     0.059 A 
ATOM     59  F   UNL A   1      47.594  38.619  34.133  1.00  0.00    -0.206 F 
ATOM     60  C   UNL A   1      46.281  41.395  32.239  1.00  0.00     0.060 A 
BRANCH  60  61
ATOM     61  S   UNL A   1      46.726  43.090  31.804  1.00  0.00     0.124 S 
ATOM     62  O   UNL A   1      48.183  43.027  31.836  1.00  0.00    -0.237 OA
ATOM     63  O   UNL A   1      46.122  43.238  30.484  1.00  0.00    -0.237 OA
ATOM     64  O   UNL A   1      46.106  43.883  32.861  1.00  0.00    -0.744 OA
ENDBRANCH  60  61
ENDBRANCH  28  53
BRANCH  40  65
ATOM     65  C   UNL A   1      41.833  35.573  37.834  1.00  0.00     0.058 A 
ATOM     66  C   UNL A   1      40.515  36.042  37.742  1.00  0.00     0.135 A 
ATOM     67  C   UNL A   1      42.454  35.571  39.092  1.00  0.00     0.135 A 
ATOM     68  F   UNL A   1      39.885  36.066  36.556  1.00  0.00    -0.206 F 
ATOM     69  C   UNL A   1      39.845  36.526  38.857  1.00  0.00     0.059 A 
ATOM     70  C   UNL A   1      41.790  36.019  40.227  1.00  0.00     0.059 A 
ATOM     71  F   UNL A   1      43.710  35.117  39.229  1.00  0.00    -0.206 F 
ATOM     72  C   UNL A   1      40.491  36.510  40.095  1.00  0.00     0.060 A 
BRANCH  72  73
ATOM     73  S   UNL A   1      39.603  37.121  41.540  1.00  0.00     0.124 S 
ATOM     74  O   UNL A   1      40.670  37.177  42.535  1.00  0.00    -0.237 OA
ATOM     75  O   UNL A   1      39.101  38.409  41.075  1.00  0.00    -0.237 OA
ATOM     76  O   UNL A   1      38.583  36.101  41.767  1.00  0.00    -0.744 OA
ENDBRANCH  72  73
ENDBRANCH  40  65
ENDBRANCH  14  15
ENDBRANCH   7   9
ENDBRANCH   6   7
ENDBRANCH   5   6
ENDBRANCH   4   5
ENDBRANCH   3   4
ENDBRANCH   2   3
ENDBRANCH   1   2
BRANCH   1  77
ATOM     77  O   UNL A   1      41.591  26.895  29.536  1.00  0.00    -0.377 OA
BRANCH  77  78
ATOM     78  C   UNL A   1      40.803  28.056  29.301  1.00  0.00     0.188 C 
BRANCH  78  79
ATOM     79  C   UNL A   1      40.387  28.909  30.524  1.00  0.00     0.188 C 
BRANCH  79  80
ATOM     80  O   UNL A   1      39.200  28.461  31.159  1.00  0.00    -0.376 OA
BRANCH  80  81
ATOM     81  C   UNL A   1      38.166  29.438  31.215  1.00  0.00     0.202 C 
BRANCH  81  82
ATOM     82  C   UNL A   1      37.511  29.566  32.600  1.00  0.00     0.261 C 
BRANCH  82  83
ATOM     83  O   UNL A   1      38.328  30.145  33.647  1.00  0.00    -0.459 OA
BRANCH  83  84
ATOM     84  C   UNL A   1      38.046  31.397  34.115  1.00  0.00     0.370 C 
ATOM     85  O   UNL A   1      37.843  31.647  35.296  1.00  0.00    -0.245 OA
BRANCH  84  86
ATOM     86  C   UNL A   1      38.104  32.449  32.946  1.00  0.00     0.328 C 
BRANCH  86  87
ATOM     87  N   UNL A   1      36.895  33.316  33.108  1.00  0.00    -0.316 N 
ATOM     88  C   UNL A   1      36.750  34.390  32.136  1.00  0.00     0.284 C 
ATOM     89  C   UNL A   1      35.597  32.649  33.320  1.00  0.00     0.284 C 
ATOM     90  H   UNL A   1      37.140  33.733  34.007  1.00  0.00     0.349 HD
ATOM     91  C   UNL A   1      36.214  33.801  30.830  1.00  0.00     0.178 C 
ATOM     92  C   UNL A   1      34.419  32.839  32.273  1.00  0.00     0.178 C 
ATOM     93  N   UNL A   1      34.813  33.433  30.992  1.00  0.00    -0.360 N 
BRANCH  93  94
ATOM     94  C   UNL A   1      34.075  34.276  30.166  1.00  0.00     0.037 A 
ATOM     95  C   UNL A   1      34.548  34.424  28.847  1.00  0.00     0.026 A 
ATOM     96  C   UNL A   1      33.300  35.300  30.722  1.00  0.00     0.026 A 
ATOM     97  C   UNL A   1      34.387  35.626  28.162  1.00  0.00     0.002 A 
ATOM     98  C   UNL A   1      33.145  36.507  30.037  1.00  0.00     0.002 A 
ATOM     99  C   UNL A   1      33.714  36.678  28.773  1.00  0.00     0.000 A 
ENDBRANCH  93  94
ENDBRANCH  86  87
BRANCH  86 100
ATOM    100  C   UNL A   1      39.455  33.245  32.930  1.00  0.00     0.046 A 
ATOM    101  C   UNL A   1      39.885  34.167  33.882  1.00  0.00     0.094 A 
ATOM    102  C   UNL A   1      40.474  33.298  31.883  1.00  0.00     0.009 A 
ATOM    103  N   UNL A   1      40.935  34.887  33.384  1.00  0.00    -0.361 N 
ATOM    104  C   UNL A   1      41.294  34.405  32.152  1.00  0.00     0.049 A 
ATOM    105  C   UNL A   1      40.712  32.594  30.677  1.00  0.00     0.014 A 
ATOM    106  H   UNL A   1      41.370  35.641  33.844  1.00  0.00     0.166 HD
ATOM    107  C   UNL A   1      42.250  34.895  31.251  1.00  0.00     0.065 A 
ATOM    108  C   UNL A   1      41.705  33.042  29.789  1.00  0.00     0.040 A 
ATOM    109  C   UNL A   1      42.432  34.192  30.066  1.00  0.00     0.125 A 
ATOM    110  F   UNL A   1      43.327  34.637  29.173  1.00  0.00    -0.207 F 
ENDBRANCH  86 100
ENDBRANCH  84  86
ENDBRANCH  83  84
ENDBRANCH  82  83
ENDBRANCH  81  82
ENDBRANCH  80  81
ENDBRANCH  79  80
ENDBRANCH  78  79
ENDBRANCH  77  78
ENDBRANCH   1  77
TORSDOF 26
ENDMDL
MODEL 3
REMARK VINA RESULT:      -7.1      6.899     12.611
REMARK SMILES O=C(OCCOCCOCCOCCOC(=O)[C@H](c1c[nH]c2cc(F)ccc12)[NH+]1CCN(c2ccccc2)CC1)c1ccc(-c2c3nc(c(-c4c(F)cc(S(=O)(=O)[O-])cc4F)c4ccc([nH]4)c(-c4c(F)cc(S(=O)(=O)[O-])cc4F)c4nc(c(-c5c(F)cc(S(=O)(=O)[O-])cc5F)c5ccc2[nH]5)C=C4)C=C3)cc1
REMARK SMILES IDX 8 1 7 2 6 3 5 4 4 5 3 6 2 7 1 8 41 9 42 10 106 11 43 12
REMARK SMILES IDX 105 13 44 14 45 15 46 16 99 17 47 18 104 19 98 20 100 21
REMARK SMILES IDX 48 22 103 23 97 24 96 25 49 27 83 28 62 29 82 30 63 31 66 32
REMARK SMILES IDX 81 33 101 34 64 35 65 36 80 38 102 39 67 40 50 41 51 42
REMARK SMILES IDX 60 43 52 44 53 45 59 46 61 47 54 48 55 49 56 50 57 51 58 52
REMARK SMILES IDX 84 53 85 54 94 55 86 56 87 57 93 58 95 59 88 60 89 61 90 62
REMARK SMILES IDX 91 63 92 64 68 65 69 66 78 67 70 68 71 69 77 70 79 71 72 72
REMARK SMILES IDX 73 73 74 74 75 75 76 76 9 77 10 78 11 79 12 80 13 81 14 82
REMARK SMILES IDX 15 83 16 84 17 85 18 86 29 87 30 88 40 89 31 91 39 92 32 93
REMARK SMILES IDX 33 94 34 95 38 96 35 97 37 98 36 99 19 100 20 101 28 102
REMARK SMILES IDX 21 103 22 104 27 105 23 107 26 108 24 109 25 110
REMARK H PARENT 100 26 66 37 29 90 21 106
REMARK Flexibility Score: inf
ROOT
ATOM      1  C   UNL A   1      33.090  32.530  27.622  1.00  0.00     0.188 C 
ENDROOT
BRANCH   1   2
ATOM      2  C   UNL A   1      34.580  32.241  27.787  1.00  0.00     0.188 C 
BRANCH   2   3
ATOM      3  O   UNL A   1      34.823  31.679  29.075  1.00  0.00    -0.376 OA
BRANCH   3   4
ATOM      4  C   UNL A   1      35.200  32.576  30.115  1.00  0.00     0.202 C 
BRANCH   4   5
ATOM      5  C   UNL A   1      35.983  31.905  31.243  1.00  0.00     0.261 C 
BRANCH   5   6
ATOM      6  O   UNL A   1      36.248  32.787  32.346  1.00  0.00    -0.460 OA
BRANCH   6   7
ATOM      7  C   UNL A   1      36.905  33.977  32.342  1.00  0.00     0.338 C 
ATOM      8  O   UNL A   1      36.315  34.962  32.788  1.00  0.00    -0.246 OA
BRANCH   7   9
ATOM      9  C   UNL A   1      38.303  34.174  31.845  1.00  0.00     0.060 A 
ATOM     10  C   UNL A   1      38.663  34.450  30.528  1.00  0.00     0.016 A 
ATOM     11  C   UNL A   1      39.333  34.119  32.800  1.00  0.00     0.016 A 
ATOM     12  C   UNL A   1      39.982  34.562  30.136  1.00  0.00     0.010 A 
ATOM     13  C   UNL A   1      40.674  34.257  32.422  1.00  0.00     0.010 A 
ATOM     14  C   UNL A   1      40.997  34.429  31.073  1.00  0.00    -0.014 A 
BRANCH  14  15
ATOM     15  C   UNL A   1      42.351  34.218  30.538  1.00  0.00     0.031 A 
ATOM     16  C   UNL A   1      42.660  32.862  29.976  1.00  0.00     0.074 A 
ATOM     17  C   UNL A   1      43.170  35.271  30.356  1.00  0.00     0.049 A 
ATOM     18  N   UNL A   1      43.777  32.403  29.487  1.00  0.00    -0.248 NA
ATOM     19  C   UNL A   1      41.549  31.891  29.943  1.00  0.00     0.031 C 
ATOM     20  C   UNL A   1      42.856  36.657  30.720  1.00  0.00     0.029 A 
ATOM     21  N   UNL A   1      44.406  35.353  29.778  1.00  0.00    -0.354 N 
ATOM     22  C   UNL A   1      43.514  31.086  29.131  1.00  0.00     0.074 A 
ATOM     23  C   UNL A   1      42.138  30.809  29.465  1.00  0.00     0.031 C 
ATOM     24  C   UNL A   1      43.866  37.453  30.335  1.00  0.00     0.029 A 
ATOM     25  C   UNL A   1      44.930  36.625  29.784  1.00  0.00     0.049 A 
ATOM     26  H   UNL A   1      44.875  34.578  29.395  1.00  0.00     0.167 HD
ATOM     27  C   UNL A   1      44.360  30.193  28.570  1.00  0.00     0.037 A 
ATOM     28  C   UNL A   1      46.159  37.047  29.433  1.00  0.00     0.037 A 
ATOM     29  C   UNL A   1      45.718  30.522  28.240  1.00  0.00     0.049 A 
ATOM     30  C   UNL A   1      47.121  36.009  28.918  1.00  0.00     0.074 A 
ATOM     31  C   UNL A   1      46.722  29.700  27.769  1.00  0.00     0.029 A 
ATOM     32  N   UNL A   1      46.253  31.801  28.341  1.00  0.00    -0.354 N 
ATOM     33  N   UNL A   1      46.912  34.728  28.703  1.00  0.00    -0.248 NA
ATOM     34  C   UNL A   1      48.483  36.457  28.615  1.00  0.00     0.031 C 
ATOM     35  C   UNL A   1      47.876  30.476  27.621  1.00  0.00     0.029 A 
ATOM     36  C   UNL A   1      47.577  31.793  27.946  1.00  0.00     0.049 A 
ATOM     37  H   UNL A   1      45.762  32.596  28.649  1.00  0.00     0.167 HD
ATOM     38  C   UNL A   1      48.113  34.219  28.229  1.00  0.00     0.074 A 
ATOM     39  C   UNL A   1      49.033  35.340  28.161  1.00  0.00     0.031 C 
ATOM     40  C   UNL A   1      48.441  32.947  27.891  1.00  0.00     0.037 A 
BRANCH  27  41
ATOM     41  C   UNL A   1      43.847  28.796  28.359  1.00  0.00     0.058 A 
ATOM     42  C   UNL A   1      44.055  27.775  29.300  1.00  0.00     0.135 A 
ATOM     43  C   UNL A   1      43.172  28.465  27.175  1.00  0.00     0.135 A 
ATOM     44  F   UNL A   1      44.736  28.024  30.431  1.00  0.00    -0.206 F 
ATOM     45  C   UNL A   1      43.628  26.471  29.065  1.00  0.00     0.059 A 
ATOM     46  C   UNL A   1      42.713  27.174  26.929  1.00  0.00     0.059 A 
ATOM     47  F   UNL A   1      42.967  29.396  26.230  1.00  0.00    -0.206 F 
ATOM     48  C   UNL A   1      42.956  26.181  27.875  1.00  0.00     0.060 A 
BRANCH  48  49
ATOM     49  S   UNL A   1      42.404  24.486  27.590  1.00  0.00     0.124 S 
ATOM     50  O   UNL A   1      42.318  24.446  26.136  1.00  0.00    -0.237 OA
ATOM     51  O   UNL A   1      43.482  23.704  28.184  1.00  0.00    -0.237 OA
ATOM     52  O   UNL A   1      41.125  24.423  28.297  1.00  0.00    -0.744 OA
ENDBRANCH  48  49
ENDBRANCH  27  41
BRANCH  28  53
ATOM     53  C   UNL A   1      46.566  38.464  29.646  1.00  0.00     0.058 A 
ATOM     54  C   UNL A   1      46.422  39.437  28.645  1.00  0.00     0.135 A 
ATOM     55  C   UNL A   1      47.139  38.873  30.863  1.00  0.00     0.135 A 
ATOM     56  F   UNL A   1      45.886  39.105  27.460  1.00  0.00    -0.206 F 
ATOM     57  C   UNL A   1      46.859  40.747  28.829  1.00  0.00     0.059 A 
ATOM     58  C   UNL A   1      47.549  40.183  31.085  1.00  0.00     0.059 A 
ATOM     59  F   UNL A   1      47.294  37.992  31.865  1.00  0.00    -0.206 F 
ATOM     60  C   UNL A   1      47.425  41.110  30.053  1.00  0.00     0.060 A 
BRANCH  60  61
ATOM     61  S   UNL A   1      47.992  42.809  30.287  1.00  0.00     0.124 S 
ATOM     62  O   UNL A   1      47.704  43.020  31.701  1.00  0.00    -0.237 OA
ATOM     63  O   UNL A   1      49.403  42.715  29.929  1.00  0.00    -0.237 OA
ATOM     64  O   UNL A   1      47.166  43.570  29.355  1.00  0.00    -0.744 OA
ENDBRANCH  60  61
ENDBRANCH  28  53
BRANCH  40  65
ATOM     65  C   UNL A   1      49.835  32.726  27.384  1.00  0.00     0.058 A 
ATOM     66  C   UNL A   1      50.228  33.153  26.107  1.00  0.00     0.135 A 
ATOM     67  C   UNL A   1      50.794  32.117  28.207  1.00  0.00     0.135 A 
ATOM     68  F   UNL A   1      49.341  33.735  25.284  1.00  0.00    -0.206 F 
ATOM     69  C   UNL A   1      51.524  32.952  25.649  1.00  0.00     0.059 A 
ATOM     70  C   UNL A   1      52.104  31.938  27.782  1.00  0.00     0.059 A 
ATOM     71  F   UNL A   1      50.465  31.706  29.443  1.00  0.00    -0.206 F 
ATOM     72  C   UNL A   1      52.454  32.345  26.495  1.00  0.00     0.060 A 
BRANCH  72  73
ATOM     73  S   UNL A   1      54.139  32.110  25.898  1.00  0.00     0.124 S 
ATOM     74  O   UNL A   1      54.901  32.184  27.140  1.00  0.00    -0.237 OA
ATOM     75  O   UNL A   1      54.067  30.793  25.275  1.00  0.00    -0.237 OA
ATOM     76  O   UNL A   1      54.329  33.225  24.975  1.00  0.00    -0.744 OA
ENDBRANCH  72  73
ENDBRANCH  40  65
ENDBRANCH  14  15
ENDBRANCH   7   9
ENDBRANCH   6   7
ENDBRANCH   5   6
ENDBRANCH   4   5
ENDBRANCH   3   4
ENDBRANCH   2   3
ENDBRANCH   1   2
BRANCH   1  77
ATOM     77  O   UNL A   1      32.297  31.355  27.518  1.00  0.00    -0.377 OA
BRANCH  77  78
ATOM     78  C   UNL A   1      31.721  31.136  26.236  1.00  0.00     0.188 C 
BRANCH  78  79
ATOM     79  C   UNL A   1      32.256  29.952  25.394  1.00  0.00     0.188 C 
BRANCH  79  80
ATOM     80  O   UNL A   1      32.372  28.738  26.119  1.00  0.00    -0.376 OA
BRANCH  80  81
ATOM     81  C   UNL A   1      33.178  27.753  25.481  1.00  0.00     0.202 C 
BRANCH  81  82
ATOM     82  C   UNL A   1      33.662  26.643  26.427  1.00  0.00     0.261 C 
BRANCH  82  83
ATOM     83  O   UNL A   1      33.402  25.281  26.006  1.00  0.00    -0.459 OA
BRANCH  83  84
ATOM     84  C   UNL A   1      34.269  24.657  25.154  1.00  0.00     0.370 C 
ATOM     85  O   UNL A   1      35.480  24.622  25.328  1.00  0.00    -0.245 OA
BRANCH  84  86
ATOM     86  C   UNL A   1      33.482  23.937  23.996  1.00  0.00     0.328 C 
BRANCH  86  87
ATOM     87  N   UNL A   1      32.583  22.943  24.661  1.00  0.00    -0.316 N 
ATOM     88  C   UNL A   1      32.073  21.880  23.807  1.00  0.00     0.284 C 
ATOM     89  C   UNL A   1      33.016  22.385  25.955  1.00  0.00     0.284 C 
ATOM     90  H   UNL A   1      31.811  23.573  24.877  1.00  0.00     0.349 HD
ATOM     91  C   UNL A   1      33.173  20.833  23.616  1.00  0.00     0.178 C 
ATOM     92  C   UNL A   1      33.276  20.827  26.110  1.00  0.00     0.178 C 
ATOM     93  N   UNL A   1      33.359  20.081  24.851  1.00  0.00    -0.360 N 
BRANCH  93  94
ATOM     94  C   UNL A   1      32.959  18.773  24.592  1.00  0.00     0.037 A 
ATOM     95  C   UNL A   1      32.564  18.011  25.708  1.00  0.00     0.026 A 
ATOM     96  C   UNL A   1      33.433  18.108  23.455  1.00  0.00     0.026 A 
ATOM     97  C   UNL A   1      32.785  16.637  25.749  1.00  0.00     0.002 A 
ATOM     98  C   UNL A   1      33.661  16.730  23.500  1.00  0.00     0.002 A 
ATOM     99  C   UNL A   1      33.365  16.003  24.655  1.00  0.00     0.000 A 
ENDBRANCH  93  94
ENDBRANCH  86  87
BRANCH  86 100
ATOM    100  C   UNL A   1      32.726  24.954  23.071  1.00  0.00     0.046 A 
ATOM    101  C   UNL A   1      33.231  25.565  21.925  1.00  0.00     0.094 A 
ATOM    102  C   UNL A   1      31.416  25.571  23.269  1.00  0.00     0.009 A 
ATOM    103  N   UNL A   1      32.428  26.614  21.572  1.00  0.00    -0.361 N 
ATOM    104  C   UNL A   1      31.332  26.665  22.393  1.00  0.00     0.049 A 
ATOM    105  C   UNL A   1      30.345  25.386  24.177  1.00  0.00     0.014 A 
ATOM    106  H   UNL A   1      32.611  27.239  20.834  1.00  0.00     0.166 HD
ATOM    107  C   UNL A   1      30.307  27.621  22.447  1.00  0.00     0.065 A 
ATOM    108  C   UNL A   1      29.283  26.305  24.205  1.00  0.00     0.040 A 
ATOM    109  C   UNL A   1      29.291  27.417  23.373  1.00  0.00     0.125 A 
ATOM    110  F   UNL A   1      28.300  28.316  23.464  1.00  0.00    -0.207 F 
ENDBRANCH  86 100
ENDBRANCH  84  86
ENDBRANCH  83  84
ENDBRANCH  82  83
ENDBRANCH  81  82
ENDBRANCH  80  81
ENDBRANCH  79  80
ENDBRANCH  78  79
ENDBRANCH  77  78
ENDBRANCH   1  77
TORSDOF 26
ENDMDL
