MODEL 1
REMARK VINA RESULT:      -9.0      0.000      0.000
REMARK SMILES C[C@@H]1Cc2cc(C(=O)NC3(C(=O)OCCOCCOCCOCCOC(=O)c4ccc(-c5c6nc(c(-c7c(F)cc(S(=O)(=O)[O-])cc7F)c7ccc([nH]7)c(-c7c(F)cc(S(=O)(=O)[O-])cc7F)c7nc(c(-c8c(F)cc(S(=O)(=O)[O-])cc8F)c8ccc5[nH]8)C=C7)C=C6)cc4)CCCCC3)ccc2N1S(C)(=O)=O
REMARK SMILES IDX 19 1 18 2 17 3 16 4 15 5 14 6 13 7 11 8 12 9 10 10 94 11
REMARK SMILES IDX 98 12 95 13 97 14 96 15 9 16 7 17 8 18 6 20 1 21 2 22 3 23
REMARK SMILES IDX 102 24 4 25 101 26 5 27 100 28 99 29 103 30 104 31 105 32
REMARK SMILES IDX 106 33 20 34 21 35 22 36 23 37 24 38 25 39 26 40 27 41 28 42
REMARK SMILES IDX 29 43 93 44 30 45 92 46 31 47 32 48 33 49 86 50 34 51 91 52
REMARK SMILES IDX 85 53 87 54 35 55 90 56 84 57 83 58 36 60 70 61 49 62 69 63
REMARK SMILES IDX 50 64 53 65 68 66 88 67 51 68 52 69 67 71 89 72 54 73 37 74
REMARK SMILES IDX 38 75 47 76 39 77 40 78 46 79 48 80 41 81 42 82 43 83 44 84
REMARK SMILES IDX 45 85 71 86 72 87 81 88 73 89 74 90 80 91 82 92 75 93 76 94
REMARK SMILES IDX 77 95 78 96 79 97 55 98 56 99 65 100 57 101 58 102 64 103
REMARK SMILES IDX 66 104 59 105 60 106 61 107 62 108 63 109
REMARK H PARENT 9 19 87 59 53 70
REMARK Flexibility Score: inf
ROOT
ATOM      1  O   UNL A   1      35.552  29.716  28.311  1.00  0.00    -0.377 OA
ENDROOT
BRANCH   1   2
ATOM      2  C   UNL A   1      34.589  29.594  27.285  1.00  0.00     0.188 C 
BRANCH   2   3
ATOM      3  C   UNL A   1      33.515  30.691  27.267  1.00  0.00     0.188 C 
BRANCH   3   4
ATOM      4  O   UNL A   1      32.152  30.363  27.050  1.00  0.00    -0.376 OA
BRANCH   4   5
ATOM      5  C   UNL A   1      31.750  29.586  25.927  1.00  0.00     0.202 C 
BRANCH   5   6
ATOM      6  C   UNL A   1      31.463  28.079  26.032  1.00  0.00     0.261 C 
BRANCH   6   7
ATOM      7  O   UNL A   1      31.917  27.266  24.937  1.00  0.00    -0.461 OA
BRANCH   7   8
ATOM      8  C   UNL A   1      32.053  27.869  23.731  1.00  0.00     0.331 C 
ATOM      9  O   UNL A   1      32.862  28.766  23.496  1.00  0.00    -0.249 OA
BRANCH   8  10
ATOM     10  C   UNL A   1      31.047  27.360  22.658  1.00  0.00     0.138 C 
ATOM     11  C   UNL A   1      30.467  28.670  22.044  1.00  0.00     0.040 C 
ATOM     12  C   UNL A   1      29.886  26.514  23.134  1.00  0.00     0.040 C 
ATOM     13  C   UNL A   1      29.385  29.322  22.923  1.00  0.00     0.003 C 
ATOM     14  C   UNL A   1      28.776  27.139  23.951  1.00  0.00     0.003 C 
ATOM     15  C   UNL A   1      28.244  28.360  23.227  1.00  0.00     0.000 C 
BRANCH  10  16
ATOM     16  N   UNL A   1      31.852  26.633  21.574  1.00  0.00    -0.336 N 
ATOM     17  C   UNL A   1      32.619  25.503  21.339  1.00  0.00     0.252 C 
ATOM     18  O   UNL A   1      33.272  25.544  20.286  1.00  0.00    -0.269 OA
ATOM     19  H   UNL A   1      31.807  27.159  20.743  1.00  0.00     0.165 HD
BRANCH  17  20
ATOM     20  C   UNL A   1      32.815  24.251  22.175  1.00  0.00     0.040 A 
ATOM     21  C   UNL A   1      33.825  21.466  27.357  1.00  0.00     0.032 C 
ATOM     22  C   UNL A   1      34.284  21.637  25.915  1.00  0.00     0.101 C 
ATOM     23  C   UNL A   1      34.435  23.139  25.523  1.00  0.00     0.063 C 
ATOM     24  N   UNL A   1      33.271  21.090  24.965  1.00  0.00    -0.267 N 
ATOM     25  C   UNL A   1      33.667  23.250  24.240  1.00  0.00    -0.021 A 
ATOM     26  C   UNL A   1      33.123  22.020  23.901  1.00  0.00     0.055 A 
ATOM     27  C   UNL A   1      33.487  24.372  23.416  1.00  0.00     0.019 A 
ATOM     28  C   UNL A   1      32.501  21.859  22.695  1.00  0.00     0.028 A 
ATOM     29  C   UNL A   1      32.461  22.948  21.818  1.00  0.00     0.016 A 
BRANCH  24  30
ATOM     30  S   UNL A   1      33.109  19.431  24.742  1.00  0.00     0.232 S 
ATOM     31  C   UNL A   1      34.820  18.943  24.701  1.00  0.00     0.183 C 
ATOM     32  O   UNL A   1      32.490  18.833  25.905  1.00  0.00    -0.207 OA
ATOM     33  O   UNL A   1      32.580  19.192  23.416  1.00  0.00    -0.207 OA
ENDBRANCH  24  30
ENDBRANCH  17  20
ENDBRANCH  10  16
ENDBRANCH   8  10
ENDBRANCH   7   8
ENDBRANCH   6   7
ENDBRANCH   5   6
ENDBRANCH   4   5
ENDBRANCH   3   4
ENDBRANCH   2   3
ENDBRANCH   1   2
BRANCH   1  34
ATOM     34  C   UNL A   1      36.766  30.392  28.014  1.00  0.00     0.188 C 
BRANCH  34  35
ATOM     35  C   UNL A   1      36.826  31.921  28.191  1.00  0.00     0.188 C 
BRANCH  35  36
ATOM     36  O   UNL A   1      37.886  32.365  29.028  1.00  0.00    -0.376 OA
BRANCH  36  37
ATOM     37  C   UNL A   1      37.609  33.366  29.996  1.00  0.00     0.202 C 
BRANCH  37  38
ATOM     38  C   UNL A   1      36.158  33.501  30.478  1.00  0.00     0.261 C 
BRANCH  38  39
ATOM     39  O   UNL A   1      35.639  32.431  31.285  1.00  0.00    -0.460 OA
BRANCH  39  40
ATOM     40  C   UNL A   1      34.901  32.724  32.376  1.00  0.00     0.338 C 
ATOM     41  O   UNL A   1      33.686  32.719  32.464  1.00  0.00    -0.246 OA
BRANCH  40  42
ATOM     42  C   UNL A   1      35.848  32.872  33.505  1.00  0.00     0.060 A 
ATOM     43  C   UNL A   1      36.866  31.934  33.687  1.00  0.00     0.016 A 
ATOM     44  C   UNL A   1      35.695  33.926  34.413  1.00  0.00     0.016 A 
ATOM     45  C   UNL A   1      37.733  32.050  34.773  1.00  0.00     0.010 A 
ATOM     46  C   UNL A   1      36.578  34.053  35.493  1.00  0.00     0.010 A 
ATOM     47  C   UNL A   1      37.618  33.129  35.667  1.00  0.00    -0.014 A 
BRANCH  47  48
ATOM     48  C   UNL A   1      38.708  33.377  36.647  1.00  0.00     0.031 A 
ATOM     49  C   UNL A   1      40.018  33.991  36.253  1.00  0.00     0.074 A 
ATOM     50  C   UNL A   1      38.477  33.037  37.931  1.00  0.00     0.049 A 
ATOM     51  N   UNL A   1      41.027  34.325  37.018  1.00  0.00    -0.248 NA
ATOM     52  C   UNL A   1      40.233  34.261  34.824  1.00  0.00     0.031 C 
ATOM     53  C   UNL A   1      37.248  32.407  38.419  1.00  0.00     0.029 A 
ATOM     54  N   UNL A   1      39.244  33.185  39.059  1.00  0.00    -0.354 N 
ATOM     55  C   UNL A   1      41.992  34.858  36.173  1.00  0.00     0.074 A 
ATOM     56  C   UNL A   1      41.463  34.761  34.827  1.00  0.00     0.031 C 
ATOM     57  C   UNL A   1      37.323  32.266  39.750  1.00  0.00     0.029 A 
ATOM     58  C   UNL A   1      38.623  32.749  40.205  1.00  0.00     0.049 A 
ATOM     59  H   UNL A   1      40.151  33.565  39.048  1.00  0.00     0.167 HD
ATOM     60  C   UNL A   1      43.195  35.393  36.497  1.00  0.00     0.037 A 
ATOM     61  C   UNL A   1      39.047  32.734  41.484  1.00  0.00     0.037 A 
ATOM     62  C   UNL A   1      43.713  35.470  37.843  1.00  0.00     0.049 A 
ATOM     63  C   UNL A   1      40.405  33.288  41.806  1.00  0.00     0.074 A 
ATOM     64  C   UNL A   1      44.909  36.019  38.273  1.00  0.00     0.029 A 
ATOM     65  N   UNL A   1      43.077  34.975  38.973  1.00  0.00    -0.354 N 
ATOM     66  N   UNL A   1      41.279  33.844  41.001  1.00  0.00    -0.248 NA
ATOM     67  C   UNL A   1      40.839  33.213  43.207  1.00  0.00     0.031 C 
ATOM     68  C   UNL A   1      45.022  35.806  39.650  1.00  0.00     0.029 A 
ATOM     69  C   UNL A   1      43.870  35.178  40.093  1.00  0.00     0.049 A 
ATOM     70  H   UNL A   1      42.191  34.543  38.980  1.00  0.00     0.167 HD
ATOM     71  C   UNL A   1      42.358  34.199  41.799  1.00  0.00     0.074 A 
ATOM     72  C   UNL A   1      42.019  33.814  43.155  1.00  0.00     0.031 C 
ATOM     73  C   UNL A   1      43.526  34.787  41.439  1.00  0.00     0.037 A 
BRANCH  60  74
ATOM     74  C   UNL A   1      44.046  35.949  35.386  1.00  0.00     0.058 A 
ATOM     75  C   UNL A   1      43.835  37.240  34.877  1.00  0.00     0.135 A 
ATOM     76  C   UNL A   1      45.137  35.220  34.881  1.00  0.00     0.135 A 
ATOM     77  F   UNL A   1      42.803  37.979  35.316  1.00  0.00    -0.206 F 
ATOM     78  C   UNL A   1      44.657  37.781  33.894  1.00  0.00     0.059 A 
ATOM     79  C   UNL A   1      45.991  35.752  33.916  1.00  0.00     0.059 A 
ATOM     80  F   UNL A   1      45.391  33.983  35.334  1.00  0.00    -0.206 F 
ATOM     81  C   UNL A   1      45.735  37.030  33.422  1.00  0.00     0.060 A 
BRANCH  81  82
ATOM     82  S   UNL A   1      46.791  37.753  32.148  1.00  0.00     0.124 S 
ATOM     83  O   UNL A   1      45.849  38.623  31.450  1.00  0.00    -0.237 OA
ATOM     84  O   UNL A   1      47.811  38.432  32.940  1.00  0.00    -0.237 OA
ATOM     85  O   UNL A   1      47.254  36.596  31.388  1.00  0.00    -0.744 OA
ENDBRANCH  81  82
ENDBRANCH  60  74
BRANCH  61  86
ATOM     86  C   UNL A   1      38.159  32.192  42.546  1.00  0.00     0.058 A 
ATOM     87  C   UNL A   1      37.266  33.026  43.235  1.00  0.00     0.135 A 
ATOM     88  C   UNL A   1      38.155  30.824  42.865  1.00  0.00     0.135 A 
ATOM     89  F   UNL A   1      37.236  34.341  42.969  1.00  0.00    -0.206 F 
ATOM     90  C   UNL A   1      36.406  32.526  44.207  1.00  0.00     0.059 A 
ATOM     91  C   UNL A   1      37.283  30.296  43.811  1.00  0.00     0.059 A 
ATOM     92  F   UNL A   1      38.978  29.981  42.222  1.00  0.00    -0.206 F 
ATOM     93  C   UNL A   1      36.417  31.158  44.482  1.00  0.00     0.060 A 
BRANCH  93  94
ATOM     94  S   UNL A   1      35.256  30.515  45.706  1.00  0.00     0.124 S 
ATOM     95  O   UNL A   1      35.844  29.217  46.016  1.00  0.00    -0.237 OA
ATOM     96  O   UNL A   1      35.338  31.522  46.760  1.00  0.00    -0.237 OA
ATOM     97  O   UNL A   1      33.990  30.477  44.981  1.00  0.00    -0.744 OA
ENDBRANCH  93  94
ENDBRANCH  61  86
BRANCH  73  98
ATOM     98  C   UNL A   1      44.532  35.060  42.525  1.00  0.00     0.058 A 
ATOM     99  C   UNL A   1      45.372  34.050  43.018  1.00  0.00     0.135 A 
ATOM    100  C   UNL A   1      44.711  36.361  43.023  1.00  0.00     0.135 A 
ATOM    101  F   UNL A   1      45.237  32.786  42.584  1.00  0.00    -0.206 F 
ATOM    102  C   UNL A   1      46.347  34.317  43.974  1.00  0.00     0.059 A 
ATOM    103  C   UNL A   1      45.699  36.658  43.956  1.00  0.00     0.059 A 
ATOM    104  F   UNL A   1      43.939  37.367  42.581  1.00  0.00    -0.206 F 
ATOM    105  C   UNL A   1      46.510  35.626  44.429  1.00  0.00     0.060 A 
BRANCH 105 106
ATOM    106  S   UNL A   1      47.817  35.964  45.628  1.00  0.00     0.124 S 
ATOM    107  O   UNL A   1      48.379  37.207  45.110  1.00  0.00    -0.237 OA
ATOM    108  O   UNL A   1      47.068  36.079  46.876  1.00  0.00    -0.237 OA
ATOM    109  O   UNL A   1      48.684  34.794  45.528  1.00  0.00    -0.744 OA
ENDBRANCH 105 106
ENDBRANCH  73  98
ENDBRANCH  47  48
ENDBRANCH  40  42
ENDBRANCH  39  40
ENDBRANCH  38  39
ENDBRANCH  37  38
ENDBRANCH  36  37
ENDBRANCH  35  36
ENDBRANCH  34  35
ENDBRANCH   1  34
TORSDOF 26
ENDMDL
MODEL 2
REMARK VINA RESULT:      -8.8      3.389      7.867
REMARK SMILES C[C@@H]1Cc2cc(C(=O)NC3(C(=O)OCCOCCOCCOCCOC(=O)c4ccc(-c5c6nc(c(-c7c(F)cc(S(=O)(=O)[O-])cc7F)c7ccc([nH]7)c(-c7c(F)cc(S(=O)(=O)[O-])cc7F)c7nc(c(-c8c(F)cc(S(=O)(=O)[O-])cc8F)c8ccc5[nH]8)C=C7)C=C6)cc4)CCCCC3)ccc2N1S(C)(=O)=O
REMARK SMILES IDX 19 1 18 2 17 3 16 4 15 5 14 6 13 7 11 8 12 9 10 10 94 11
REMARK SMILES IDX 98 12 95 13 97 14 96 15 9 16 7 17 8 18 6 20 1 21 2 22 3 23
REMARK SMILES IDX 102 24 4 25 101 26 5 27 100 28 99 29 103 30 104 31 105 32
REMARK SMILES IDX 106 33 20 34 21 35 22 36 23 37 24 38 25 39 26 40 27 41 28 42
REMARK SMILES IDX 29 43 93 44 30 45 92 46 31 47 32 48 33 49 86 50 34 51 91 52
REMARK SMILES IDX 85 53 87 54 35 55 90 56 84 57 83 58 36 60 70 61 49 62 69 63
REMARK SMILES IDX 50 64 53 65 68 66 88 67 51 68 52 69 67 71 89 72 54 73 37 74
REMARK SMILES IDX 38 75 47 76 39 77 40 78 46 79 48 80 41 81 42 82 43 83 44 84
REMARK SMILES IDX 45 85 71 86 72 87 81 88 73 89 74 90 80 91 82 92 75 93 76 94
REMARK SMILES IDX 77 95 78 96 79 97 55 98 56 99 65 100 57 101 58 102 64 103
REMARK SMILES IDX 66 104 59 105 60 106 61 107 62 108 63 109
REMARK H PARENT 9 19 87 59 53 70
REMARK Flexibility Score: inf
ROOT
ATOM      1  O   UNL A   1      35.332  30.241  28.397  1.00  0.00    -0.377 OA
ENDROOT
BRANCH   1   2
ATOM      2  C   UNL A   1      34.480  31.004  27.567  1.00  0.00     0.188 C 
BRANCH   2   3
ATOM      3  C   UNL A   1      33.046  30.470  27.442  1.00  0.00     0.188 C 
BRANCH   3   4
ATOM      4  O   UNL A   1      32.216  30.878  26.366  1.00  0.00    -0.376 OA
BRANCH   4   5
ATOM      5  C   UNL A   1      31.581  29.924  25.521  1.00  0.00     0.202 C 
BRANCH   5   6
ATOM      6  C   UNL A   1      31.564  28.422  25.847  1.00  0.00     0.261 C 
BRANCH   6   7
ATOM      7  O   UNL A   1      32.110  27.547  24.846  1.00  0.00    -0.461 OA
BRANCH   7   8
ATOM      8  C   UNL A   1      32.166  28.015  23.575  1.00  0.00     0.331 C 
ATOM      9  O   UNL A   1      32.929  28.905  23.202  1.00  0.00    -0.249 OA
BRANCH   8  10
ATOM     10  C   UNL A   1      31.130  27.358  22.618  1.00  0.00     0.138 C 
ATOM     11  C   UNL A   1      30.426  28.573  21.942  1.00  0.00     0.040 C 
ATOM     12  C   UNL A   1      30.059  26.485  23.239  1.00  0.00     0.040 C 
ATOM     13  C   UNL A   1      29.362  29.230  22.839  1.00  0.00     0.003 C 
ATOM     14  C   UNL A   1      28.965  27.108  24.078  1.00  0.00     0.003 C 
ATOM     15  C   UNL A   1      28.308  28.230  23.297  1.00  0.00     0.000 C 
BRANCH  10  16
ATOM     16  N   UNL A   1      31.911  26.592  21.543  1.00  0.00    -0.336 N 
ATOM     17  C   UNL A   1      32.652  25.441  21.326  1.00  0.00     0.252 C 
ATOM     18  O   UNL A   1      33.297  25.447  20.267  1.00  0.00    -0.269 OA
ATOM     19  H   UNL A   1      31.870  27.102  20.702  1.00  0.00     0.165 HD
BRANCH  17  20
ATOM     20  C   UNL A   1      32.828  24.202  22.185  1.00  0.00     0.040 A 
ATOM     21  C   UNL A   1      33.607  21.493  27.446  1.00  0.00     0.032 C 
ATOM     22  C   UNL A   1      34.141  21.659  26.030  1.00  0.00     0.101 C 
ATOM     23  C   UNL A   1      34.282  23.160  25.630  1.00  0.00     0.063 C 
ATOM     24  N   UNL A   1      33.196  21.080  25.032  1.00  0.00    -0.267 N 
ATOM     25  C   UNL A   1      33.584  23.241  24.306  1.00  0.00    -0.021 A 
ATOM     26  C   UNL A   1      33.087  21.996  23.951  1.00  0.00     0.055 A 
ATOM     27  C   UNL A   1      33.427  24.350  23.459  1.00  0.00     0.019 A 
ATOM     28  C   UNL A   1      32.537  21.809  22.714  1.00  0.00     0.028 A 
ATOM     29  C   UNL A   1      32.522  22.888  21.823  1.00  0.00     0.016 A 
BRANCH  24  30
ATOM     30  S   UNL A   1      33.082  19.416  24.819  1.00  0.00     0.232 S 
ATOM     31  C   UNL A   1      34.799  19.002  24.603  1.00  0.00     0.183 C 
ATOM     32  O   UNL A   1      32.609  18.792  26.036  1.00  0.00    -0.207 OA
ATOM     33  O   UNL A   1      32.432  19.155  23.552  1.00  0.00    -0.207 OA
ENDBRANCH  24  30
ENDBRANCH  17  20
ENDBRANCH  10  16
ENDBRANCH   8  10
ENDBRANCH   7   8
ENDBRANCH   6   7
ENDBRANCH   5   6
ENDBRANCH   4   5
ENDBRANCH   3   4
ENDBRANCH   2   3
ENDBRANCH   1   2
BRANCH   1  34
ATOM     34  C   UNL A   1      36.732  30.309  28.162  1.00  0.00     0.188 C 
BRANCH  34  35
ATOM     35  C   UNL A   1      37.645  30.841  29.283  1.00  0.00     0.188 C 
BRANCH  35  36
ATOM     36  O   UNL A   1      38.243  32.098  28.993  1.00  0.00    -0.376 OA
BRANCH  36  37
ATOM     37  C   UNL A   1      38.668  32.911  30.078  1.00  0.00     0.202 C 
BRANCH  37  38
ATOM     38  C   UNL A   1      37.657  33.916  30.647  1.00  0.00     0.261 C 
BRANCH  38  39
ATOM     39  O   UNL A   1      37.011  33.560  31.880  1.00  0.00    -0.460 OA
BRANCH  39  40
ATOM     40  C   UNL A   1      36.910  34.480  32.863  1.00  0.00     0.338 C 
ATOM     41  O   UNL A   1      36.129  35.412  32.919  1.00  0.00    -0.246 OA
BRANCH  40  42
ATOM     42  C   UNL A   1      37.806  34.036  33.956  1.00  0.00     0.060 A 
ATOM     43  C   UNL A   1      38.612  34.964  34.616  1.00  0.00     0.016 A 
ATOM     44  C   UNL A   1      37.876  32.680  34.294  1.00  0.00     0.016 A 
ATOM     45  C   UNL A   1      39.486  34.539  35.617  1.00  0.00     0.010 A 
ATOM     46  C   UNL A   1      38.740  32.256  35.312  1.00  0.00     0.010 A 
ATOM     47  C   UNL A   1      39.534  33.187  35.997  1.00  0.00    -0.014 A 
BRANCH  47  48
ATOM     48  C   UNL A   1      40.265  32.807  37.234  1.00  0.00     0.031 A 
ATOM     49  C   UNL A   1      39.634  32.878  38.594  1.00  0.00     0.074 A 
ATOM     50  C   UNL A   1      41.535  32.380  37.098  1.00  0.00     0.049 A 
ATOM     51  N   UNL A   1      40.135  32.513  39.747  1.00  0.00    -0.248 NA
ATOM     52  C   UNL A   1      38.275  33.431  38.678  1.00  0.00     0.031 C 
ATOM     53  C   UNL A   1      42.257  32.299  35.825  1.00  0.00     0.029 A 
ATOM     54  N   UNL A   1      42.439  31.916  38.020  1.00  0.00    -0.354 N 
ATOM     55  C   UNL A   1      39.154  32.774  40.694  1.00  0.00     0.074 A 
ATOM     56  C   UNL A   1      38.042  33.373  39.984  1.00  0.00     0.031 C 
ATOM     57  C   UNL A   1      43.471  31.773  36.039  1.00  0.00     0.029 A 
ATOM     58  C   UNL A   1      43.635  31.523  37.467  1.00  0.00     0.049 A 
ATOM     59  H   UNL A   1      42.250  31.870  38.984  1.00  0.00     0.167 HD
ATOM     60  C   UNL A   1      39.177  32.520  42.026  1.00  0.00     0.037 A 
ATOM     61  C   UNL A   1      44.745  31.020  38.040  1.00  0.00     0.037 A 
ATOM     62  C   UNL A   1      40.300  31.934  42.720  1.00  0.00     0.049 A 
ATOM     63  C   UNL A   1      44.760  30.795  39.524  1.00  0.00     0.074 A 
ATOM     64  C   UNL A   1      40.406  31.614  44.064  1.00  0.00     0.029 A 
ATOM     65  N   UNL A   1      41.511  31.593  42.136  1.00  0.00    -0.354 N 
ATOM     66  N   UNL A   1      43.799  30.992  40.395  1.00  0.00    -0.248 NA
ATOM     67  C   UNL A   1      46.007  30.282  40.107  1.00  0.00     0.031 C 
ATOM     68  C   UNL A   1      41.698  31.133  44.300  1.00  0.00     0.029 A 
ATOM     69  C   UNL A   1      42.381  31.097  43.096  1.00  0.00     0.049 A 
ATOM     70  H   UNL A   1      41.724  31.690  41.178  1.00  0.00     0.167 HD
ATOM     71  C   UNL A   1      44.320  30.613  41.626  1.00  0.00     0.074 A 
ATOM     72  C   UNL A   1      45.673  30.155  41.384  1.00  0.00     0.031 C 
ATOM     73  C   UNL A   1      43.729  30.646  42.847  1.00  0.00     0.037 A 
BRANCH  60  74
ATOM     74  C   UNL A   1      37.954  32.863  42.835  1.00  0.00     0.058 A 
ATOM     75  C   UNL A   1      37.826  34.104  43.478  1.00  0.00     0.135 A 
ATOM     76  C   UNL A   1      36.863  31.979  42.901  1.00  0.00     0.135 A 
ATOM     77  F   UNL A   1      38.839  34.985  43.456  1.00  0.00    -0.206 F 
ATOM     78  C   UNL A   1      36.672  34.448  44.175  1.00  0.00     0.059 A 
ATOM     79  C   UNL A   1      35.687  32.314  43.570  1.00  0.00     0.059 A 
ATOM     80  F   UNL A   1      36.927  30.780  42.301  1.00  0.00    -0.206 F 
ATOM     81  C   UNL A   1      35.607  33.547  44.213  1.00  0.00     0.060 A 
BRANCH  81  82
ATOM     82  S   UNL A   1      34.119  34.018  45.121  1.00  0.00     0.124 S 
ATOM     83  O   UNL A   1      33.419  32.740  45.212  1.00  0.00    -0.237 OA
ATOM     84  O   UNL A   1      34.669  34.528  46.373  1.00  0.00    -0.237 OA
ATOM     85  O   UNL A   1      33.491  35.015  44.260  1.00  0.00    -0.744 OA
ENDBRANCH  81  82
ENDBRANCH  60  74
BRANCH  61  86
ATOM     86  C   UNL A   1      45.919  30.678  37.192  1.00  0.00     0.058 A 
ATOM     87  C   UNL A   1      46.918  31.624  36.927  1.00  0.00     0.135 A 
ATOM     88  C   UNL A   1      46.085  29.386  36.666  1.00  0.00     0.135 A 
ATOM     89  F   UNL A   1      46.802  32.874  37.404  1.00  0.00    -0.206 F 
ATOM     90  C   UNL A   1      48.036  31.308  36.164  1.00  0.00     0.059 A 
ATOM     91  C   UNL A   1      47.209  29.037  35.927  1.00  0.00     0.059 A 
ATOM     92  F   UNL A   1      45.166  28.438  36.907  1.00  0.00    -0.206 F 
ATOM     93  C   UNL A   1      48.177  30.008  35.675  1.00  0.00     0.060 A 
BRANCH  93  94
ATOM     94  S   UNL A   1      49.662  29.596  34.734  1.00  0.00     0.124 S 
ATOM     95  O   UNL A   1      49.898  30.834  34.001  1.00  0.00    -0.237 OA
ATOM     96  O   UNL A   1      50.616  29.288  35.795  1.00  0.00    -0.237 OA
ATOM     97  O   UNL A   1      49.242  28.455  33.926  1.00  0.00    -0.744 OA
ENDBRANCH  93  94
ENDBRANCH  61  86
BRANCH  73  98
ATOM     98  C   UNL A   1      44.536  30.170  44.024  1.00  0.00     0.058 A 
ATOM     99  C   UNL A   1      45.263  31.063  44.825  1.00  0.00     0.135 A 
ATOM    100  C   UNL A   1      44.521  28.817  44.401  1.00  0.00     0.135 A 
ATOM    101  F   UNL A   1      45.320  32.366  44.505  1.00  0.00    -0.206 F 
ATOM    102  C   UNL A   1      45.955  30.632  45.953  1.00  0.00     0.059 A 
ATOM    103  C   UNL A   1      45.180  28.367  45.541  1.00  0.00     0.059 A 
ATOM    104  F   UNL A   1      43.835  27.920  43.674  1.00  0.00    -0.206 F 
ATOM    105  C   UNL A   1      45.899  29.284  46.308  1.00  0.00     0.060 A 
BRANCH 105 106
ATOM    106  S   UNL A   1      46.756  28.752  47.806  1.00  0.00     0.124 S 
ATOM    107  O   UNL A   1      45.650  28.265  48.623  1.00  0.00    -0.237 OA
ATOM    108  O   UNL A   1      47.664  27.729  47.294  1.00  0.00    -0.237 OA
ATOM    109  O   UNL A   1      47.400  29.972  48.284  1.00  0.00    -0.744 OA
ENDBRANCH 105 106
ENDBRANCH  73  98
ENDBRANCH  47  48
ENDBRANCH  40  42
ENDBRANCH  39  40
ENDBRANCH  38  39
ENDBRANCH  37  38
ENDBRANCH  36  37
ENDBRANCH  35  36
ENDBRANCH  34  35
ENDBRANCH   1  34
TORSDOF 26
ENDMDL
MODEL 3
REMARK VINA RESULT:      -8.7      9.034     17.722
REMARK SMILES C[C@@H]1Cc2cc(C(=O)NC3(C(=O)OCCOCCOCCOCCOC(=O)c4ccc(-c5c6nc(c(-c7c(F)cc(S(=O)(=O)[O-])cc7F)c7ccc([nH]7)c(-c7c(F)cc(S(=O)(=O)[O-])cc7F)c7nc(c(-c8c(F)cc(S(=O)(=O)[O-])cc8F)c8ccc5[nH]8)C=C7)C=C6)cc4)CCCCC3)ccc2N1S(C)(=O)=O
REMARK SMILES IDX 19 1 18 2 17 3 16 4 15 5 14 6 13 7 11 8 12 9 10 10 94 11
REMARK SMILES IDX 98 12 95 13 97 14 96 15 9 16 7 17 8 18 6 20 1 21 2 22 3 23
REMARK SMILES IDX 102 24 4 25 101 26 5 27 100 28 99 29 103 30 104 31 105 32
REMARK SMILES IDX 106 33 20 34 21 35 22 36 23 37 24 38 25 39 26 40 27 41 28 42
REMARK SMILES IDX 29 43 93 44 30 45 92 46 31 47 32 48 33 49 86 50 34 51 91 52
REMARK SMILES IDX 85 53 87 54 35 55 90 56 84 57 83 58 36 60 70 61 49 62 69 63
REMARK SMILES IDX 50 64 53 65 68 66 88 67 51 68 52 69 67 71 89 72 54 73 37 74
REMARK SMILES IDX 38 75 47 76 39 77 40 78 46 79 48 80 41 81 42 82 43 83 44 84
REMARK SMILES IDX 45 85 71 86 72 87 81 88 73 89 74 90 80 91 82 92 75 93 76 94
REMARK SMILES IDX 77 95 78 96 79 97 55 98 56 99 65 100 57 101 58 102 64 103
REMARK SMILES IDX 66 104 59 105 60 106 61 107 62 108 63 109
REMARK H PARENT 9 19 87 59 53 70
REMARK Flexibility Score: inf
ROOT
ATOM      1  O   UNL A   1      45.113  40.724  36.299  1.00  0.00    -0.377 OA
ENDROOT
BRANCH   1   2
ATOM      2  C   UNL A   1      44.113  41.053  35.358  1.00  0.00     0.188 C 
BRANCH   2   3
ATOM      3  C   UNL A   1      44.171  42.491  34.823  1.00  0.00     0.188 C 
BRANCH   3   4
ATOM      4  O   UNL A   1      43.568  42.824  33.583  1.00  0.00    -0.376 OA
BRANCH   4   5
ATOM      5  C   UNL A   1      42.278  42.332  33.234  1.00  0.00     0.202 C 
BRANCH   5   6
ATOM      6  C   UNL A   1      41.963  41.779  31.834  1.00  0.00     0.261 C 
BRANCH   6   7
ATOM      7  O   UNL A   1      43.072  41.670  30.927  1.00  0.00    -0.461 OA
BRANCH   7   8
ATOM      8  C   UNL A   1      43.579  40.432  30.711  1.00  0.00     0.331 C 
ATOM      9  O   UNL A   1      43.728  39.585  31.591  1.00  0.00    -0.249 OA
BRANCH   8  10
ATOM     10  C   UNL A   1      44.016  40.181  29.238  1.00  0.00     0.138 C 
ATOM     11  C   UNL A   1      42.781  40.634  28.403  1.00  0.00     0.040 C 
ATOM     12  C   UNL A   1      44.352  38.759  28.842  1.00  0.00     0.040 C 
ATOM     13  C   UNL A   1      41.654  39.587  28.374  1.00  0.00     0.003 C 
ATOM     14  C   UNL A   1      43.256  37.719  28.747  1.00  0.00     0.003 C 
ATOM     15  C   UNL A   1      42.143  38.239  27.859  1.00  0.00     0.000 C 
BRANCH  10  16
ATOM     16  N   UNL A   1      45.182  41.129  28.932  1.00  0.00    -0.336 N 
ATOM     17  C   UNL A   1      45.738  41.908  27.929  1.00  0.00     0.252 C 
ATOM     18  O   UNL A   1      46.891  42.294  28.169  1.00  0.00    -0.269 OA
ATOM     19  H   UNL A   1      45.736  41.218  29.741  1.00  0.00     0.165 HD
BRANCH  17  20
ATOM     20  C   UNL A   1      45.181  42.328  26.581  1.00  0.00     0.040 A 
ATOM     21  C   UNL A   1      45.295  45.652  21.624  1.00  0.00     0.032 C 
ATOM     22  C   UNL A   1      44.459  45.207  22.817  1.00  0.00     0.101 C 
ATOM     23  C   UNL A   1      45.230  45.365  24.163  1.00  0.00     0.063 C 
ATOM     24  N   UNL A   1      44.132  43.754  22.727  1.00  0.00    -0.267 N 
ATOM     25  C   UNL A   1      45.069  44.028  24.823  1.00  0.00    -0.021 A 
ATOM     26  C   UNL A   1      44.328  43.182  24.013  1.00  0.00     0.055 A 
ATOM     27  C   UNL A   1      45.533  43.605  26.079  1.00  0.00     0.019 A 
ATOM     28  C   UNL A   1      43.938  41.958  24.480  1.00  0.00     0.028 A 
ATOM     29  C   UNL A   1      44.281  41.608  25.792  1.00  0.00     0.016 A 
BRANCH  24  30
ATOM     30  S   UNL A   1      42.952  43.202  21.664  1.00  0.00     0.232 S 
ATOM     31  C   UNL A   1      41.515  43.277  22.711  1.00  0.00     0.183 C 
ATOM     32  O   UNL A   1      42.779  44.147  20.581  1.00  0.00    -0.207 OA
ATOM     33  O   UNL A   1      43.192  41.800  21.393  1.00  0.00    -0.207 OA
ENDBRANCH  24  30
ENDBRANCH  17  20
ENDBRANCH  10  16
ENDBRANCH   8  10
ENDBRANCH   7   8
ENDBRANCH   6   7
ENDBRANCH   5   6
ENDBRANCH   4   5
ENDBRANCH   3   4
ENDBRANCH   2   3
ENDBRANCH   1   2
BRANCH   1  34
ATOM     34  C   UNL A   1      46.098  39.769  35.926  1.00  0.00     0.188 C 
BRANCH  34  35
ATOM     35  C   UNL A   1      47.274  40.225  35.042  1.00  0.00     0.188 C 
BRANCH  35  36
ATOM     36  O   UNL A   1      47.881  39.174  34.302  1.00  0.00    -0.376 OA
BRANCH  36  37
ATOM     37  C   UNL A   1      47.092  38.474  33.351  1.00  0.00     0.202 C 
BRANCH  37  38
ATOM     38  C   UNL A   1      47.825  37.802  32.181  1.00  0.00     0.261 C 
BRANCH  38  39
ATOM     39  O   UNL A   1      47.008  37.195  31.166  1.00  0.00    -0.460 OA
BRANCH  39  40
ATOM     40  C   UNL A   1      47.502  37.052  29.918  1.00  0.00     0.338 C 
ATOM     41  O   UNL A   1      48.186  37.851  29.303  1.00  0.00    -0.246 OA
BRANCH  40  42
ATOM     42  C   UNL A   1      47.213  35.660  29.502  1.00  0.00     0.060 A 
ATOM     43  C   UNL A   1      47.421  34.610  30.396  1.00  0.00     0.016 A 
ATOM     44  C   UNL A   1      46.774  35.397  28.200  1.00  0.00     0.016 A 
ATOM     45  C   UNL A   1      47.189  33.295  29.991  1.00  0.00     0.010 A 
ATOM     46  C   UNL A   1      46.523  34.079  27.799  1.00  0.00     0.010 A 
ATOM     47  C   UNL A   1      46.706  33.020  28.700  1.00  0.00    -0.014 A 
BRANCH  47  48
ATOM     48  C   UNL A   1      46.213  31.653  28.386  1.00  0.00     0.031 A 
ATOM     49  C   UNL A   1      47.087  30.610  27.755  1.00  0.00     0.074 A 
ATOM     50  C   UNL A   1      44.934  31.366  28.700  1.00  0.00     0.049 A 
ATOM     51  N   UNL A   1      46.805  29.359  27.490  1.00  0.00    -0.248 NA
ATOM     52  C   UNL A   1      48.444  31.015  27.363  1.00  0.00     0.031 C 
ATOM     53  C   UNL A   1      43.987  32.316  29.291  1.00  0.00     0.029 A 
ATOM     54  N   UNL A   1      44.212  30.206  28.589  1.00  0.00    -0.354 N 
ATOM     55  C   UNL A   1      47.949  28.819  26.917  1.00  0.00     0.074 A 
ATOM     56  C   UNL A   1      48.916  29.894  26.830  1.00  0.00     0.031 C 
ATOM     57  C   UNL A   1      42.828  31.689  29.534  1.00  0.00     0.029 A 
ATOM     58  C   UNL A   1      42.930  30.309  29.073  1.00  0.00     0.049 A 
ATOM     59  H   UNL A   1      44.577  29.379  28.199  1.00  0.00     0.167 HD
ATOM     60  C   UNL A   1      48.170  27.542  26.518  1.00  0.00     0.037 A 
ATOM     61  C   UNL A   1      41.939  29.397  29.139  1.00  0.00     0.037 A 
ATOM     62  C   UNL A   1      47.190  26.485  26.599  1.00  0.00     0.049 A 
ATOM     63  C   UNL A   1      42.198  28.004  28.645  1.00  0.00     0.074 A 
ATOM     64  C   UNL A   1      47.332  25.153  26.246  1.00  0.00     0.029 A 
ATOM     65  N   UNL A   1      45.886  26.637  27.051  1.00  0.00    -0.354 N 
ATOM     66  N   UNL A   1      43.307  27.495  28.162  1.00  0.00    -0.248 NA
ATOM     67  C   UNL A   1      41.076  27.058  28.701  1.00  0.00     0.031 C 
ATOM     68  C   UNL A   1      46.101  24.516  26.430  1.00  0.00     0.029 A 
ATOM     69  C   UNL A   1      45.205  25.432  26.954  1.00  0.00     0.049 A 
ATOM     70  H   UNL A   1      45.501  27.478  27.390  1.00  0.00     0.167 HD
ATOM     71  C   UNL A   1      43.020  26.168  27.871  1.00  0.00     0.074 A 
ATOM     72  C   UNL A   1      41.640  25.945  28.253  1.00  0.00     0.031 C 
ATOM     73  C   UNL A   1      43.828  25.221  27.333  1.00  0.00     0.037 A 
BRANCH  60  74
ATOM     74  C   UNL A   1      49.527  27.198  25.961  1.00  0.00     0.058 A 
ATOM     75  C   UNL A   1      50.573  26.768  26.793  1.00  0.00     0.135 A 
ATOM     76  C   UNL A   1      49.763  27.218  24.576  1.00  0.00     0.135 A 
ATOM     77  F   UNL A   1      50.408  26.737  28.125  1.00  0.00    -0.206 F 
ATOM     78  C   UNL A   1      51.808  26.391  26.276  1.00  0.00     0.059 A 
ATOM     79  C   UNL A   1      50.983  26.818  24.033  1.00  0.00     0.059 A 
ATOM     80  F   UNL A   1      48.798  27.615  23.731  1.00  0.00    -0.206 F 
ATOM     81  C   UNL A   1      52.002  26.416  24.894  1.00  0.00     0.060 A 
BRANCH  81  82
ATOM     82  S   UNL A   1      53.613  25.920  24.246  1.00  0.00     0.124 S 
ATOM     83  O   UNL A   1      53.380  25.987  22.807  1.00  0.00    -0.237 OA
ATOM     84  O   UNL A   1      54.496  26.945  24.792  1.00  0.00    -0.237 OA
ATOM     85  O   UNL A   1      53.802  24.577  24.787  1.00  0.00    -0.744 OA
ENDBRANCH  81  82
ENDBRANCH  60  74
BRANCH  61  86
ATOM     86  C   UNL A   1      40.625  29.783  29.718  1.00  0.00     0.058 A 
ATOM     87  C   UNL A   1      40.463  29.941  31.101  1.00  0.00     0.135 A 
ATOM     88  C   UNL A   1      39.515  30.040  28.895  1.00  0.00     0.135 A 
ATOM     89  F   UNL A   1      41.493  29.702  31.928  1.00  0.00    -0.206 F 
ATOM     90  C   UNL A   1      39.248  30.334  31.652  1.00  0.00     0.059 A 
ATOM     91  C   UNL A   1      38.299  30.464  29.420  1.00  0.00     0.059 A 
ATOM     92  F   UNL A   1      39.622  29.921  27.563  1.00  0.00    -0.206 F 
ATOM     93  C   UNL A   1      38.173  30.601  30.802  1.00  0.00     0.060 A 
BRANCH  93  94
ATOM     94  S   UNL A   1      36.619  31.164  31.527  1.00  0.00     0.124 S 
ATOM     95  O   UNL A   1      35.796  31.363  30.340  1.00  0.00    -0.237 OA
ATOM     96  O   UNL A   1      36.254  30.034  32.376  1.00  0.00    -0.237 OA
ATOM     97  O   UNL A   1      37.001  32.379  32.240  1.00  0.00    -0.744 OA
ENDBRANCH  93  94
ENDBRANCH  61  86
BRANCH  73  98
ATOM     98  C   UNL A   1      43.249  23.848  27.124  1.00  0.00     0.058 A 
ATOM     99  C   UNL A   1      42.502  23.533  25.979  1.00  0.00     0.135 A 
ATOM    100  C   UNL A   1      43.508  22.815  28.041  1.00  0.00     0.135 A 
ATOM    101  F   UNL A   1      42.216  24.484  25.075  1.00  0.00    -0.206 F 
ATOM    102  C   UNL A   1      42.023  22.246  25.754  1.00  0.00     0.059 A 
ATOM    103  C   UNL A   1      43.066  21.515  27.822  1.00  0.00     0.059 A 
ATOM    104  F   UNL A   1      44.224  23.060  29.150  1.00  0.00    -0.206 F 
ATOM    105  C   UNL A   1      42.319  21.241  26.676  1.00  0.00     0.060 A 
BRANCH 105 106
ATOM    106  S   UNL A   1      41.737  19.566  26.339  1.00  0.00     0.124 S 
ATOM    107  O   UNL A   1      40.323  19.793  26.060  1.00  0.00    -0.237 OA
ATOM    108  O   UNL A   1      42.556  19.181  25.193  1.00  0.00    -0.237 OA
ATOM    109  O   UNL A   1      42.024  18.848  27.577  1.00  0.00    -0.744 OA
ENDBRANCH 105 106
ENDBRANCH  73  98
ENDBRANCH  47  48
ENDBRANCH  40  42
ENDBRANCH  39  40
ENDBRANCH  38  39
ENDBRANCH  37  38
ENDBRANCH  36  37
ENDBRANCH  35  36
ENDBRANCH  34  35
ENDBRANCH   1  34
TORSDOF 26
ENDMDL
