MODEL 1
REMARK VINA RESULT:     -10.4      0.000      0.000
REMARK SMILES O=C(OCCOCCOCCOCCOC(=O)[C@H]1CCCC[N@H+]1Cc1ccc(F)cc1Cl)c1ccc(-c2c3nc(c(-c4c(F)cc(S(=O)(=O)[O-])cc4F)c4ccc([nH]4)c(-c4c(F)cc(S(=O)(=O)[O-])cc4F)c4nc(c(-c5c(F)cc(S(=O)(=O)[O-])cc5F)c5ccc2[nH]5)C=C4)C=C3)cc1
REMARK SMILES IDX 8 1 7 2 6 3 5 4 4 5 3 6 2 7 1 8 33 9 34 10 98 11 35 12 97 13
REMARK SMILES IDX 36 14 37 15 38 16 91 17 39 18 96 19 90 20 92 21 40 22 95 23
REMARK SMILES IDX 89 24 88 25 41 27 75 28 54 29 74 30 55 31 58 32 73 33 93 34
REMARK SMILES IDX 56 35 57 36 72 38 94 39 59 40 42 41 43 42 52 43 44 44 45 45
REMARK SMILES IDX 51 46 53 47 46 48 47 49 48 50 49 51 50 52 76 53 77 54 86 55
REMARK SMILES IDX 78 56 79 57 85 58 87 59 80 60 81 61 82 62 83 63 84 64 60 65
REMARK SMILES IDX 61 66 70 67 62 68 63 69 69 70 71 71 64 72 65 73 66 74 67 75
REMARK SMILES IDX 68 76 9 77 10 78 11 79 12 80 13 81 14 82 15 83 16 84 17 85
REMARK SMILES IDX 18 86 19 87 23 88 20 89 22 90 21 92 24 93 25 94 26 95 31 96
REMARK SMILES IDX 27 97 30 98 32 99 28 100 29 101
REMARK H PARENT 92 26 58 37 23 91
REMARK Flexibility Score: inf
ROOT
ATOM      1  C   UNL A   1      43.879  19.534  25.579  1.00  0.00     0.188 C 
ENDROOT
BRANCH   1   2
ATOM      2  C   UNL A   1      44.545  20.886  25.336  1.00  0.00     0.188 C 
BRANCH   2   3
ATOM      3  O   UNL A   1      43.719  21.703  24.490  1.00  0.00    -0.376 OA
BRANCH   3   4
ATOM      4  C   UNL A   1      43.806  23.099  24.780  1.00  0.00     0.202 C 
BRANCH   4   5
ATOM      5  C   UNL A   1      42.973  23.572  25.980  1.00  0.00     0.261 C 
BRANCH   5   6
ATOM      6  O   UNL A   1      42.009  24.577  25.641  1.00  0.00    -0.460 OA
BRANCH   6   7
ATOM      7  C   UNL A   1      42.030  25.909  25.899  1.00  0.00     0.338 C 
ATOM      8  O   UNL A   1      42.266  26.659  24.951  1.00  0.00    -0.246 OA
BRANCH   7   9
ATOM      9  C   UNL A   1      41.843  26.536  27.255  1.00  0.00     0.060 A 
ATOM     10  C   UNL A   1      41.014  26.072  28.278  1.00  0.00     0.016 A 
ATOM     11  C   UNL A   1      42.607  27.690  27.521  1.00  0.00     0.016 A 
ATOM     12  C   UNL A   1      40.912  26.738  29.499  1.00  0.00     0.010 A 
ATOM     13  C   UNL A   1      42.520  28.361  28.748  1.00  0.00     0.010 A 
ATOM     14  C   UNL A   1      41.653  27.889  29.735  1.00  0.00    -0.014 A 
BRANCH  14  15
ATOM     15  C   UNL A   1      41.355  28.672  30.948  1.00  0.00     0.031 A 
ATOM     16  C   UNL A   1      40.179  29.600  30.900  1.00  0.00     0.074 A 
ATOM     17  C   UNL A   1      42.054  28.478  32.081  1.00  0.00     0.049 A 
ATOM     18  N   UNL A   1      39.769  30.462  31.788  1.00  0.00    -0.248 NA
ATOM     19  C   UNL A   1      39.340  29.537  29.688  1.00  0.00     0.031 C 
ATOM     20  C   UNL A   1      43.122  27.493  32.258  1.00  0.00     0.029 A 
ATOM     21  N   UNL A   1      41.964  29.097  33.300  1.00  0.00    -0.354 N 
ATOM     22  C   UNL A   1      38.651  31.069  31.229  1.00  0.00     0.074 A 
ATOM     23  C   UNL A   1      38.427  30.463  29.938  1.00  0.00     0.031 C 
ATOM     24  C   UNL A   1      43.602  27.589  33.510  1.00  0.00     0.029 A 
ATOM     25  C   UNL A   1      42.917  28.678  34.201  1.00  0.00     0.049 A 
ATOM     26  H   UNL A   1      41.284  29.776  33.512  1.00  0.00     0.167 HD
ATOM     27  C   UNL A   1      37.899  32.063  31.749  1.00  0.00     0.037 A 
ATOM     28  C   UNL A   1      43.226  29.169  35.418  1.00  0.00     0.037 A 
ATOM     29  C   UNL A   1      38.146  32.645  33.038  1.00  0.00     0.049 A 
ATOM     30  C   UNL A   1      42.434  30.348  35.931  1.00  0.00     0.074 A 
ATOM     31  C   UNL A   1      37.473  33.680  33.659  1.00  0.00     0.029 A 
ATOM     32  N   UNL A   1      39.157  32.243  33.899  1.00  0.00    -0.354 N 
ATOM     33  N   UNL A   1      41.398  30.947  35.385  1.00  0.00    -0.248 NA
ATOM     34  C   UNL A   1      42.866  30.941  37.203  1.00  0.00     0.031 C 
ATOM     35  C   UNL A   1      38.114  33.939  34.876  1.00  0.00     0.029 A 
ATOM     36  C   UNL A   1      39.154  33.034  35.031  1.00  0.00     0.049 A 
ATOM     37  H   UNL A   1      39.784  31.503  33.728  1.00  0.00     0.167 HD
ATOM     38  C   UNL A   1      41.057  31.982  36.248  1.00  0.00     0.074 A 
ATOM     39  C   UNL A   1      41.975  31.910  37.366  1.00  0.00     0.031 C 
ATOM     40  C   UNL A   1      40.084  32.920  36.126  1.00  0.00     0.037 A 
BRANCH  27  41
ATOM     41  C   UNL A   1      36.810  32.633  30.891  1.00  0.00     0.058 A 
ATOM     42  C   UNL A   1      35.479  32.201  30.983  1.00  0.00     0.135 A 
ATOM     43  C   UNL A   1      37.110  33.649  29.969  1.00  0.00     0.135 A 
ATOM     44  F   UNL A   1      35.146  31.207  31.822  1.00  0.00    -0.206 F 
ATOM     45  C   UNL A   1      34.482  32.757  30.188  1.00  0.00     0.059 A 
ATOM     46  C   UNL A   1      36.125  34.232  29.179  1.00  0.00     0.059 A 
ATOM     47  F   UNL A   1      38.373  34.081  29.828  1.00  0.00    -0.206 F 
ATOM     48  C   UNL A   1      34.814  33.775  29.292  1.00  0.00     0.060 A 
BRANCH  48  49
ATOM     49  S   UNL A   1      33.504  34.506  28.287  1.00  0.00     0.124 S 
ATOM     50  O   UNL A   1      34.254  35.468  27.485  1.00  0.00    -0.237 OA
ATOM     51  O   UNL A   1      32.984  33.349  27.566  1.00  0.00    -0.237 OA
ATOM     52  O   UNL A   1      32.599  35.084  29.274  1.00  0.00    -0.744 OA
ENDBRANCH  48  49
ENDBRANCH  27  41
BRANCH  28  53
ATOM     53  C   UNL A   1      44.386  28.636  36.188  1.00  0.00     0.058 A 
ATOM     54  C   UNL A   1      45.675  29.172  36.045  1.00  0.00     0.135 A 
ATOM     55  C   UNL A   1      44.239  27.528  37.042  1.00  0.00     0.135 A 
ATOM     56  F   UNL A   1      45.878  30.220  35.231  1.00  0.00    -0.206 F 
ATOM     57  C   UNL A   1      46.777  28.612  36.689  1.00  0.00     0.059 A 
ATOM     58  C   UNL A   1      45.319  26.971  37.720  1.00  0.00     0.059 A 
ATOM     59  F   UNL A   1      43.031  26.971  37.220  1.00  0.00    -0.206 F 
ATOM     60  C   UNL A   1      46.590  27.505  37.519  1.00  0.00     0.060 A 
BRANCH  60  61
ATOM     61  S   UNL A   1      48.022  26.771  38.338  1.00  0.00     0.124 S 
ATOM     62  O   UNL A   1      47.873  25.363  37.983  1.00  0.00    -0.237 OA
ATOM     63  O   UNL A   1      49.137  27.472  37.709  1.00  0.00    -0.237 OA
ATOM     64  O   UNL A   1      47.805  27.091  39.746  1.00  0.00    -0.744 OA
ENDBRANCH  60  61
ENDBRANCH  28  53
BRANCH  40  65
ATOM     65  C   UNL A   1      39.966  33.937  37.223  1.00  0.00     0.058 A 
ATOM     66  C   UNL A   1      40.581  35.193  37.119  1.00  0.00     0.135 A 
ATOM     67  C   UNL A   1      39.150  33.690  38.338  1.00  0.00     0.135 A 
ATOM     68  F   UNL A   1      41.376  35.472  36.074  1.00  0.00    -0.206 F 
ATOM     69  C   UNL A   1      40.396  36.171  38.089  1.00  0.00     0.059 A 
ATOM     70  C   UNL A   1      38.930  34.662  39.306  1.00  0.00     0.059 A 
ATOM     71  F   UNL A   1      38.530  32.507  38.474  1.00  0.00    -0.206 F 
ATOM     72  C   UNL A   1      39.561  35.899  39.175  1.00  0.00     0.060 A 
BRANCH  72  73
ATOM     73  S   UNL A   1      39.271  37.202  40.388  1.00  0.00     0.124 S 
ATOM     74  O   UNL A   1      38.452  38.138  39.625  1.00  0.00    -0.237 OA
ATOM     75  O   UNL A   1      38.586  36.486  41.459  1.00  0.00    -0.237 OA
ATOM     76  O   UNL A   1      40.616  37.667  40.715  1.00  0.00    -0.744 OA
ENDBRANCH  72  73
ENDBRANCH  40  65
ENDBRANCH  14  15
ENDBRANCH   7   9
ENDBRANCH   6   7
ENDBRANCH   5   6
ENDBRANCH   4   5
ENDBRANCH   3   4
ENDBRANCH   2   3
ENDBRANCH   1   2
BRANCH   1  77
ATOM     77  O   UNL A   1      42.489  19.592  25.269  1.00  0.00    -0.377 OA
BRANCH  77  78
ATOM     78  C   UNL A   1      41.627  19.525  26.399  1.00  0.00     0.188 C 
BRANCH  78  79
ATOM     79  C   UNL A   1      40.304  20.288  26.236  1.00  0.00     0.188 C 
BRANCH  79  80
ATOM     80  O   UNL A   1      40.108  21.433  27.059  1.00  0.00    -0.376 OA
BRANCH  80  81
ATOM     81  C   UNL A   1      39.337  22.508  26.538  1.00  0.00     0.202 C 
BRANCH  81  82
ATOM     82  C   UNL A   1      38.084  22.121  25.743  1.00  0.00     0.261 C 
BRANCH  82  83
ATOM     83  O   UNL A   1      37.101  23.177  25.707  1.00  0.00    -0.459 OA
BRANCH  83  84
ATOM     84  C   UNL A   1      35.785  22.796  25.748  1.00  0.00     0.364 C 
ATOM     85  O   UNL A   1      35.404  21.702  26.128  1.00  0.00    -0.245 OA
BRANCH  84  86
ATOM     86  C   UNL A   1      34.883  23.958  25.244  1.00  0.00     0.295 C 
ATOM     87  C   UNL A   1      35.051  24.106  23.727  1.00  0.00     0.078 C 
ATOM     88  N   UNL A   1      33.458  23.751  25.514  1.00  0.00    -0.319 N 
ATOM     89  C   UNL A   1      34.518  22.876  22.991  1.00  0.00     0.013 C 
ATOM     90  C   UNL A   1      32.819  22.608  24.899  1.00  0.00     0.263 C 
ATOM     91  H   UNL A   1      33.263  24.721  25.268  1.00  0.00     0.349 HD
ATOM     92  C   UNL A   1      33.078  22.564  23.392  1.00  0.00     0.062 C 
BRANCH  88  93
ATOM     93  C   UNL A   1      32.706  24.596  26.424  1.00  0.00     0.301 C 
BRANCH  93  94
ATOM     94  C   UNL A   1      32.396  25.987  25.918  1.00  0.00     0.025 A 
ATOM     95  C   UNL A   1      33.262  27.032  26.278  1.00  0.00     0.014 A 
ATOM     96  C   UNL A   1      31.293  26.307  25.103  1.00  0.00     0.052 A 
ATOM     97  C   UNL A   1      32.979  28.354  25.940  1.00  0.00     0.040 A 
ATOM     98  C   UNL A   1      31.005  27.634  24.769  1.00  0.00     0.060 A 
ATOM     99  Cl  UNL A   1      30.291  25.100  24.381  1.00  0.00    -0.084 Cl
ATOM    100  C   UNL A   1      31.840  28.647  25.209  1.00  0.00     0.124 A 
ATOM    101  F   UNL A   1      31.567  29.918  24.899  1.00  0.00    -0.207 F 
ENDBRANCH  93  94
ENDBRANCH  88  93
ENDBRANCH  84  86
ENDBRANCH  83  84
ENDBRANCH  82  83
ENDBRANCH  81  82
ENDBRANCH  80  81
ENDBRANCH  79  80
ENDBRANCH  78  79
ENDBRANCH  77  78
ENDBRANCH   1  77
TORSDOF 25
ENDMDL
MODEL 2
REMARK VINA RESULT:      -9.9      6.195     12.231
REMARK SMILES O=C(OCCOCCOCCOCCOC(=O)[C@H]1CCCC[N@H+]1Cc1ccc(F)cc1Cl)c1ccc(-c2c3nc(c(-c4c(F)cc(S(=O)(=O)[O-])cc4F)c4ccc([nH]4)c(-c4c(F)cc(S(=O)(=O)[O-])cc4F)c4nc(c(-c5c(F)cc(S(=O)(=O)[O-])cc5F)c5ccc2[nH]5)C=C4)C=C3)cc1
REMARK SMILES IDX 8 1 7 2 6 3 5 4 4 5 3 6 2 7 1 8 33 9 34 10 98 11 35 12 97 13
REMARK SMILES IDX 36 14 37 15 38 16 91 17 39 18 96 19 90 20 92 21 40 22 95 23
REMARK SMILES IDX 89 24 88 25 41 27 75 28 54 29 74 30 55 31 58 32 73 33 93 34
REMARK SMILES IDX 56 35 57 36 72 38 94 39 59 40 42 41 43 42 52 43 44 44 45 45
REMARK SMILES IDX 51 46 53 47 46 48 47 49 48 50 49 51 50 52 76 53 77 54 86 55
REMARK SMILES IDX 78 56 79 57 85 58 87 59 80 60 81 61 82 62 83 63 84 64 60 65
REMARK SMILES IDX 61 66 70 67 62 68 63 69 69 70 71 71 64 72 65 73 66 74 67 75
REMARK SMILES IDX 68 76 9 77 10 78 11 79 12 80 13 81 14 82 15 83 16 84 17 85
REMARK SMILES IDX 18 86 19 87 23 88 20 89 22 90 21 92 24 93 25 94 26 95 31 96
REMARK SMILES IDX 27 97 30 98 32 99 28 100 29 101
REMARK H PARENT 92 26 58 37 23 91
REMARK Flexibility Score: inf
ROOT
ATOM      1  C   UNL A   1      35.247  33.138  28.020  1.00  0.00     0.188 C 
ENDROOT
BRANCH   1   2
ATOM      2  C   UNL A   1      34.649  33.010  29.419  1.00  0.00     0.188 C 
BRANCH   2   3
ATOM      3  O   UNL A   1      35.527  33.602  30.390  1.00  0.00    -0.376 OA
BRANCH   3   4
ATOM      4  C   UNL A   1      35.438  33.000  31.683  1.00  0.00     0.202 C 
BRANCH   4   5
ATOM      5  C   UNL A   1      36.745  32.990  32.491  1.00  0.00     0.261 C 
BRANCH   5   6
ATOM      6  O   UNL A   1      37.170  31.673  32.866  1.00  0.00    -0.460 OA
BRANCH   6   7
ATOM      7  C   UNL A   1      37.276  30.556  32.104  1.00  0.00     0.338 C 
ATOM      8  O   UNL A   1      36.279  29.838  32.020  1.00  0.00    -0.246 OA
BRANCH   7   9
ATOM      9  C   UNL A   1      38.526  30.097  31.402  1.00  0.00     0.060 A 
ATOM     10  C   UNL A   1      39.621  29.457  31.988  1.00  0.00     0.016 A 
ATOM     11  C   UNL A   1      38.578  30.311  30.010  1.00  0.00     0.016 A 
ATOM     12  C   UNL A   1      40.736  29.079  31.240  1.00  0.00     0.010 A 
ATOM     13  C   UNL A   1      39.689  29.926  29.248  1.00  0.00     0.010 A 
ATOM     14  C   UNL A   1      40.781  29.321  29.873  1.00  0.00    -0.014 A 
BRANCH  14  15
ATOM     15  C   UNL A   1      42.056  29.100  29.168  1.00  0.00     0.031 A 
ATOM     16  C   UNL A   1      42.303  27.736  28.596  1.00  0.00     0.074 A 
ATOM     17  C   UNL A   1      42.913  30.117  28.960  1.00  0.00     0.049 A 
ATOM     18  N   UNL A   1      43.373  27.261  28.023  1.00  0.00    -0.248 NA
ATOM     19  C   UNL A   1      41.182  26.781  28.668  1.00  0.00     0.031 C 
ATOM     20  C   UNL A   1      42.687  31.507  29.358  1.00  0.00     0.029 A 
ATOM     21  N   UNL A   1      44.143  30.136  28.358  1.00  0.00    -0.354 N 
ATOM     22  C   UNL A   1      43.069  25.945  27.701  1.00  0.00     0.074 A 
ATOM     23  C   UNL A   1      41.708  25.698  28.116  1.00  0.00     0.031 C 
ATOM     24  C   UNL A   1      43.756  32.242  29.004  1.00  0.00     0.029 A 
ATOM     25  C   UNL A   1      44.762  31.364  28.411  1.00  0.00     0.049 A 
ATOM     26  H   UNL A   1      44.546  29.348  27.928  1.00  0.00     0.167 HD
ATOM     27  C   UNL A   1      43.874  25.022  27.130  1.00  0.00     0.037 A 
ATOM     28  C   UNL A   1      46.019  31.711  28.069  1.00  0.00     0.037 A 
ATOM     29  C   UNL A   1      45.224  25.298  26.726  1.00  0.00     0.049 A 
ATOM     30  C   UNL A   1      46.930  30.634  27.527  1.00  0.00     0.074 A 
ATOM     31  C   UNL A   1      46.149  24.437  26.167  1.00  0.00     0.029 A 
ATOM     32  N   UNL A   1      45.843  26.534  26.852  1.00  0.00    -0.354 N 
ATOM     33  N   UNL A   1      46.653  29.378  27.257  1.00  0.00    -0.248 NA
ATOM     34  C   UNL A   1      48.328  31.007  27.275  1.00  0.00     0.031 C 
ATOM     35  C   UNL A   1      47.346  25.142  26.003  1.00  0.00     0.029 A 
ATOM     36  C   UNL A   1      47.151  26.451  26.417  1.00  0.00     0.049 A 
ATOM     37  H   UNL A   1      45.412  27.348  27.199  1.00  0.00     0.167 HD
ATOM     38  C   UNL A   1      47.840  28.815  26.802  1.00  0.00     0.074 A 
ATOM     39  C   UNL A   1      48.829  29.873  26.804  1.00  0.00     0.031 C 
ATOM     40  C   UNL A   1      48.100  27.536  26.429  1.00  0.00     0.037 A 
BRANCH  27  41
ATOM     41  C   UNL A   1      43.346  23.626  26.996  1.00  0.00     0.058 A 
ATOM     42  C   UNL A   1      43.232  22.758  28.091  1.00  0.00     0.135 A 
ATOM     43  C   UNL A   1      42.927  23.159  25.739  1.00  0.00     0.135 A 
ATOM     44  F   UNL A   1      43.652  23.143  29.307  1.00  0.00    -0.206 F 
ATOM     45  C   UNL A   1      42.721  21.472  27.944  1.00  0.00     0.059 A 
ATOM     46  C   UNL A   1      42.396  21.884  25.573  1.00  0.00     0.059 A 
ATOM     47  F   UNL A   1      43.038  23.944  24.656  1.00  0.00    -0.206 F 
ATOM     48  C   UNL A   1      42.302  21.045  26.682  1.00  0.00     0.060 A 
BRANCH  48  49
ATOM     49  S   UNL A   1      41.616  19.384  26.513  1.00  0.00     0.124 S 
ATOM     50  O   UNL A   1      40.208  19.674  26.265  1.00  0.00    -0.237 OA
ATOM     51  O   UNL A   1      42.363  18.855  25.376  1.00  0.00    -0.237 OA
ATOM     52  O   UNL A   1      41.912  18.760  27.798  1.00  0.00    -0.744 OA
ENDBRANCH  48  49
ENDBRANCH  27  41
BRANCH  28  53
ATOM     53  C   UNL A   1      46.530  33.089  28.319  1.00  0.00     0.058 A 
ATOM     54  C   UNL A   1      46.350  34.122  27.388  1.00  0.00     0.135 A 
ATOM     55  C   UNL A   1      47.271  33.385  29.477  1.00  0.00     0.135 A 
ATOM     56  F   UNL A   1      45.665  33.893  26.257  1.00  0.00    -0.206 F 
ATOM     57  C   UNL A   1      46.913  35.384  27.575  1.00  0.00     0.059 A 
ATOM     58  C   UNL A   1      47.816  34.646  29.702  1.00  0.00     0.059 A 
ATOM     59  F   UNL A   1      47.477  32.438  30.405  1.00  0.00    -0.206 F 
ATOM     60  C   UNL A   1      47.652  35.633  28.733  1.00  0.00     0.060 A 
BRANCH  60  61
ATOM     61  S   UNL A   1      48.394  37.264  28.966  1.00  0.00     0.124 S 
ATOM     62  O   UNL A   1      47.219  38.128  28.934  1.00  0.00    -0.237 OA
ATOM     63  O   UNL A   1      49.050  37.127  30.263  1.00  0.00    -0.237 OA
ATOM     64  O   UNL A   1      49.297  37.388  27.826  1.00  0.00    -0.744 OA
ENDBRANCH  60  61
ENDBRANCH  28  53
BRANCH  40  65
ATOM     65  C   UNL A   1      49.501  27.216  25.997  1.00  0.00     0.058 A 
ATOM     66  C   UNL A   1      50.458  26.761  26.915  1.00  0.00     0.135 A 
ATOM     67  C   UNL A   1      49.857  27.268  24.640  1.00  0.00     0.135 A 
ATOM     68  F   UNL A   1      50.165  26.700  28.224  1.00  0.00    -0.206 F 
ATOM     69  C   UNL A   1      51.727  26.373  26.503  1.00  0.00     0.059 A 
ATOM     70  C   UNL A   1      51.111  26.860  24.204  1.00  0.00     0.059 A 
ATOM     71  F   UNL A   1      48.970  27.685  23.724  1.00  0.00    -0.206 F 
ATOM     72  C   UNL A   1      52.042  26.417  25.144  1.00  0.00     0.060 A 
BRANCH  72  73
ATOM     73  S   UNL A   1      53.667  25.842  24.614  1.00  0.00     0.124 S 
ATOM     74  O   UNL A   1      53.562  25.957  23.164  1.00  0.00    -0.237 OA
ATOM     75  O   UNL A   1      54.563  26.794  25.264  1.00  0.00    -0.237 OA
ATOM     76  O   UNL A   1      53.731  24.479  25.133  1.00  0.00    -0.744 OA
ENDBRANCH  72  73
ENDBRANCH  40  65
ENDBRANCH  14  15
ENDBRANCH   7   9
ENDBRANCH   6   7
ENDBRANCH   5   6
ENDBRANCH   4   5
ENDBRANCH   3   4
ENDBRANCH   2   3
ENDBRANCH   1   2
BRANCH   1  77
ATOM     77  O   UNL A   1      35.634  31.863  27.515  1.00  0.00    -0.377 OA
BRANCH  77  78
ATOM     78  C   UNL A   1      34.926  30.765  28.075  1.00  0.00     0.188 C 
BRANCH  78  79
ATOM     79  C   UNL A   1      34.061  29.985  27.072  1.00  0.00     0.188 C 
BRANCH  79  80
ATOM     80  O   UNL A   1      32.667  30.265  27.060  1.00  0.00    -0.376 OA
BRANCH  80  81
ATOM     81  C   UNL A   1      31.764  29.184  27.255  1.00  0.00     0.202 C 
BRANCH  81  82
ATOM     82  C   UNL A   1      32.318  27.781  26.978  1.00  0.00     0.261 C 
BRANCH  82  83
ATOM     83  O   UNL A   1      31.275  26.798  26.799  1.00  0.00    -0.459 OA
BRANCH  83  84
ATOM     84  C   UNL A   1      31.326  26.046  25.655  1.00  0.00     0.364 C 
ATOM     85  O   UNL A   1      30.653  26.269  24.663  1.00  0.00    -0.245 OA
BRANCH  84  86
ATOM     86  C   UNL A   1      32.356  24.893  25.826  1.00  0.00     0.295 C 
ATOM     87  C   UNL A   1      31.970  24.048  27.045  1.00  0.00     0.078 C 
ATOM     88  N   UNL A   1      32.427  23.997  24.669  1.00  0.00    -0.319 N 
ATOM     89  C   UNL A   1      30.640  23.327  26.817  1.00  0.00     0.013 C 
ATOM     90  C   UNL A   1      31.232  23.261  24.319  1.00  0.00     0.263 C 
ATOM     91  H   UNL A   1      33.276  23.573  25.041  1.00  0.00     0.349 HD
ATOM     92  C   UNL A   1      30.658  22.515  25.524  1.00  0.00     0.062 C 
BRANCH  88  93
ATOM     93  C   UNL A   1      33.612  23.890  23.838  1.00  0.00     0.301 C 
BRANCH  93  94
ATOM     94  C   UNL A   1      34.821  23.267  24.500  1.00  0.00     0.025 A 
ATOM     95  C   UNL A   1      35.828  24.121  24.977  1.00  0.00     0.014 A 
ATOM     96  C   UNL A   1      35.004  21.882  24.674  1.00  0.00     0.052 A 
ATOM     97  C   UNL A   1      37.017  23.614  25.498  1.00  0.00     0.040 A 
ATOM     98  C   UNL A   1      36.199  21.373  25.190  1.00  0.00     0.060 A 
ATOM     99  Cl  UNL A   1      33.752  20.734  24.365  1.00  0.00    -0.084 Cl
ATOM    100  C   UNL A   1      37.203  22.244  25.578  1.00  0.00     0.124 A 
ATOM    101  F   UNL A   1      38.351  21.764  26.067  1.00  0.00    -0.207 F 
ENDBRANCH  93  94
ENDBRANCH  88  93
ENDBRANCH  84  86
ENDBRANCH  83  84
ENDBRANCH  82  83
ENDBRANCH  81  82
ENDBRANCH  80  81
ENDBRANCH  79  80
ENDBRANCH  78  79
ENDBRANCH  77  78
ENDBRANCH   1  77
TORSDOF 25
ENDMDL
MODEL 3
REMARK VINA RESULT:      -9.9      1.293      2.036
REMARK SMILES O=C(OCCOCCOCCOCCOC(=O)[C@H]1CCCC[N@H+]1Cc1ccc(F)cc1Cl)c1ccc(-c2c3nc(c(-c4c(F)cc(S(=O)(=O)[O-])cc4F)c4ccc([nH]4)c(-c4c(F)cc(S(=O)(=O)[O-])cc4F)c4nc(c(-c5c(F)cc(S(=O)(=O)[O-])cc5F)c5ccc2[nH]5)C=C4)C=C3)cc1
REMARK SMILES IDX 8 1 7 2 6 3 5 4 4 5 3 6 2 7 1 8 33 9 34 10 98 11 35 12 97 13
REMARK SMILES IDX 36 14 37 15 38 16 91 17 39 18 96 19 90 20 92 21 40 22 95 23
REMARK SMILES IDX 89 24 88 25 41 27 75 28 54 29 74 30 55 31 58 32 73 33 93 34
REMARK SMILES IDX 56 35 57 36 72 38 94 39 59 40 42 41 43 42 52 43 44 44 45 45
REMARK SMILES IDX 51 46 53 47 46 48 47 49 48 50 49 51 50 52 76 53 77 54 86 55
REMARK SMILES IDX 78 56 79 57 85 58 87 59 80 60 81 61 82 62 83 63 84 64 60 65
REMARK SMILES IDX 61 66 70 67 62 68 63 69 69 70 71 71 64 72 65 73 66 74 67 75
REMARK SMILES IDX 68 76 9 77 10 78 11 79 12 80 13 81 14 82 15 83 16 84 17 85
REMARK SMILES IDX 18 86 19 87 23 88 20 89 22 90 21 92 24 93 25 94 26 95 31 96
REMARK SMILES IDX 27 97 30 98 32 99 28 100 29 101
REMARK H PARENT 92 26 58 37 23 91
REMARK Flexibility Score: inf
ROOT
ATOM      1  C   UNL A   1      41.637  23.323  27.790  1.00  0.00     0.188 C 
ENDROOT
BRANCH   1   2
ATOM      2  C   UNL A   1      42.945  23.054  27.050  1.00  0.00     0.188 C 
BRANCH   2   3
ATOM      3  O   UNL A   1      43.926  24.046  27.397  1.00  0.00    -0.376 OA
BRANCH   3   4
ATOM      4  C   UNL A   1      44.363  24.831  26.286  1.00  0.00     0.202 C 
BRANCH   4   5
ATOM      5  C   UNL A   1      43.501  24.712  25.020  1.00  0.00     0.261 C 
BRANCH   5   6
ATOM      6  O   UNL A   1      42.452  25.687  24.954  1.00  0.00    -0.460 OA
BRANCH   6   7
ATOM      7  C   UNL A   1      42.457  26.983  25.355  1.00  0.00     0.338 C 
ATOM      8  O   UNL A   1      42.702  27.833  24.499  1.00  0.00    -0.246 OA
BRANCH   7   9
ATOM      9  C   UNL A   1      42.243  27.457  26.768  1.00  0.00     0.060 A 
ATOM     10  C   UNL A   1      41.453  26.841  27.741  1.00  0.00     0.016 A 
ATOM     11  C   UNL A   1      42.934  28.625  27.148  1.00  0.00     0.016 A 
ATOM     12  C   UNL A   1      41.320  27.373  29.023  1.00  0.00     0.010 A 
ATOM     13  C   UNL A   1      42.816  29.163  28.436  1.00  0.00     0.010 A 
ATOM     14  C   UNL A   1      41.989  28.540  29.372  1.00  0.00    -0.014 A 
BRANCH  14  15
ATOM     15  C   UNL A   1      41.653  29.177  30.658  1.00  0.00     0.031 A 
ATOM     16  C   UNL A   1      40.426  30.038  30.704  1.00  0.00     0.074 A 
ATOM     17  C   UNL A   1      42.365  28.907  31.767  1.00  0.00     0.049 A 
ATOM     18  N   UNL A   1      39.972  30.780  31.674  1.00  0.00    -0.248 NA
ATOM     19  C   UNL A   1      39.587  30.052  29.491  1.00  0.00     0.031 C 
ATOM     20  C   UNL A   1      43.488  27.971  31.844  1.00  0.00     0.029 A 
ATOM     21  N   UNL A   1      42.246  29.393  33.043  1.00  0.00    -0.354 N 
ATOM     22  C   UNL A   1      38.820  31.377  31.179  1.00  0.00     0.074 A 
ATOM     23  C   UNL A   1      38.625  30.895  29.832  1.00  0.00     0.031 C 
ATOM     24  C   UNL A   1      43.967  27.965  33.100  1.00  0.00     0.029 A 
ATOM     25  C   UNL A   1      43.225  28.938  33.897  1.00  0.00     0.049 A 
ATOM     26  H   UNL A   1      41.530  30.007  33.322  1.00  0.00     0.167 HD
ATOM     27  C   UNL A   1      38.016  32.270  31.797  1.00  0.00     0.037 A 
ATOM     28  C   UNL A   1      43.511  29.318  35.159  1.00  0.00     0.037 A 
ATOM     29  C   UNL A   1      38.234  32.729  33.139  1.00  0.00     0.049 A 
ATOM     30  C   UNL A   1      42.656  30.392  35.788  1.00  0.00     0.074 A 
ATOM     31  C   UNL A   1      37.507  33.656  33.862  1.00  0.00     0.029 A 
ATOM     32  N   UNL A   1      39.271  32.298  33.956  1.00  0.00    -0.354 N 
ATOM     33  N   UNL A   1      41.586  30.985  35.305  1.00  0.00    -0.248 NA
ATOM     34  C   UNL A   1      43.059  30.876  37.116  1.00  0.00     0.031 C 
ATOM     35  C   UNL A   1      38.138  33.824  35.099  1.00  0.00     0.029 A 
ATOM     36  C   UNL A   1      39.228  32.968  35.162  1.00  0.00     0.049 A 
ATOM     37  H   UNL A   1      39.937  31.616  33.711  1.00  0.00     0.167 HD
ATOM     38  C   UNL A   1      41.191  31.906  36.269  1.00  0.00     0.074 A 
ATOM     39  C   UNL A   1      42.116  31.771  37.376  1.00  0.00     0.031 C 
ATOM     40  C   UNL A   1      40.167  32.795  36.242  1.00  0.00     0.037 A 
BRANCH  27  41
ATOM     41  C   UNL A   1      36.893  32.862  30.999  1.00  0.00     0.058 A 
ATOM     42  C   UNL A   1      37.083  33.936  30.119  1.00  0.00     0.135 A 
ATOM     43  C   UNL A   1      35.601  32.321  31.110  1.00  0.00     0.135 A 
ATOM     44  F   UNL A   1      38.290  34.513  30.005  1.00  0.00    -0.206 F 
ATOM     45  C   UNL A   1      36.028  34.458  29.376  1.00  0.00     0.059 A 
ATOM     46  C   UNL A   1      34.537  32.815  30.362  1.00  0.00     0.059 A 
ATOM     47  F   UNL A   1      35.364  31.307  31.956  1.00  0.00    -0.206 F 
ATOM     48  C   UNL A   1      34.760  33.887  29.501  1.00  0.00     0.060 A 
BRANCH  48  49
ATOM     49  S   UNL A   1      33.407  34.556  28.510  1.00  0.00     0.124 S 
ATOM     50  O   UNL A   1      32.457  34.955  29.544  1.00  0.00    -0.237 OA
ATOM     51  O   UNL A   1      34.058  35.649  27.794  1.00  0.00    -0.237 OA
ATOM     52  O   UNL A   1      32.998  33.426  27.684  1.00  0.00    -0.744 OA
ENDBRANCH  48  49
ENDBRANCH  27  41
BRANCH  28  53
ATOM     53  C   UNL A   1      44.702  28.775  35.873  1.00  0.00     0.058 A 
ATOM     54  C   UNL A   1      45.982  29.320  35.690  1.00  0.00     0.135 A 
ATOM     55  C   UNL A   1      44.593  27.650  36.709  1.00  0.00     0.135 A 
ATOM     56  F   UNL A   1      46.150  30.384  34.890  1.00  0.00    -0.206 F 
ATOM     57  C   UNL A   1      47.111  28.752  36.279  1.00  0.00     0.059 A 
ATOM     58  C   UNL A   1      45.700  27.084  37.333  1.00  0.00     0.059 A 
ATOM     59  F   UNL A   1      43.394  27.084  36.923  1.00  0.00    -0.206 F 
ATOM     60  C   UNL A   1      46.960  27.628  37.093  1.00  0.00     0.060 A 
BRANCH  60  61
ATOM     61  S   UNL A   1      48.426  26.883  37.841  1.00  0.00     0.124 S 
ATOM     62  O   UNL A   1      48.587  27.696  39.042  1.00  0.00    -0.237 OA
ATOM     63  O   UNL A   1      48.002  25.504  38.057  1.00  0.00    -0.237 OA
ATOM     64  O   UNL A   1      49.453  27.062  36.819  1.00  0.00    -0.744 OA
ENDBRANCH  60  61
ENDBRANCH  28  53
BRANCH  40  65
ATOM     65  C   UNL A   1      39.997  33.686  37.437  1.00  0.00     0.058 A 
ATOM     66  C   UNL A   1      40.600  34.951  37.492  1.00  0.00     0.135 A 
ATOM     67  C   UNL A   1      39.144  33.313  38.488  1.00  0.00     0.135 A 
ATOM     68  F   UNL A   1      41.428  35.349  36.513  1.00  0.00    -0.206 F 
ATOM     69  C   UNL A   1      40.367  35.817  38.554  1.00  0.00     0.059 A 
ATOM     70  C   UNL A   1      38.878  34.173  39.546  1.00  0.00     0.059 A 
ATOM     71  F   UNL A   1      38.535  32.117  38.473  1.00  0.00    -0.206 F 
ATOM     72  C   UNL A   1      39.497  35.422  39.573  1.00  0.00     0.060 A 
BRANCH  72  73
ATOM     73  S   UNL A   1      39.148  36.584  40.908  1.00  0.00     0.124 S 
ATOM     74  O   UNL A   1      37.986  35.966  41.539  1.00  0.00    -0.237 OA
ATOM     75  O   UNL A   1      40.384  36.550  41.683  1.00  0.00    -0.237 OA
ATOM     76  O   UNL A   1      38.889  37.838  40.207  1.00  0.00    -0.744 OA
ENDBRANCH  72  73
ENDBRANCH  40  65
ENDBRANCH  14  15
ENDBRANCH   7   9
ENDBRANCH   6   7
ENDBRANCH   5   6
ENDBRANCH   4   5
ENDBRANCH   3   4
ENDBRANCH   2   3
ENDBRANCH   1   2
BRANCH   1  77
ATOM     77  O   UNL A   1      40.516  23.032  26.961  1.00  0.00    -0.377 OA
BRANCH  77  78
ATOM     78  C   UNL A   1      39.337  23.760  27.281  1.00  0.00     0.188 C 
BRANCH  78  79
ATOM     79  C   UNL A   1      38.362  23.943  26.108  1.00  0.00     0.188 C 
BRANCH  79  80
ATOM     80  O   UNL A   1      37.109  23.273  26.194  1.00  0.00    -0.376 OA
BRANCH  80  81
ATOM     81  C   UNL A   1      36.979  22.011  25.554  1.00  0.00     0.202 C 
BRANCH  81  82
ATOM     82  C   UNL A   1      35.547  21.533  25.284  1.00  0.00     0.261 C 
BRANCH  82  83
ATOM     83  O   UNL A   1      34.898  22.288  24.238  1.00  0.00    -0.459 OA
BRANCH  83  84
ATOM     84  C   UNL A   1      33.549  22.098  24.086  1.00  0.00     0.364 C 
ATOM     85  O   UNL A   1      33.019  21.001  24.023  1.00  0.00    -0.245 OA
BRANCH  84  86
ATOM     86  C   UNL A   1      32.828  23.473  24.009  1.00  0.00     0.295 C 
ATOM     87  C   UNL A   1      31.349  23.288  24.370  1.00  0.00     0.078 C 
ATOM     88  N   UNL A   1      33.385  24.476  24.920  1.00  0.00    -0.319 N 
ATOM     89  C   UNL A   1      31.188  22.864  25.831  1.00  0.00     0.013 C 
ATOM     90  C   UNL A   1      33.321  24.200  26.338  1.00  0.00     0.263 C 
ATOM     91  H   UNL A   1      32.851  25.208  24.451  1.00  0.00     0.349 HD
ATOM     92  C   UNL A   1      31.904  23.826  26.775  1.00  0.00     0.062 C 
BRANCH  88  93
ATOM     93  C   UNL A   1      34.053  25.674  24.446  1.00  0.00     0.301 C 
BRANCH  93  94
ATOM     94  C   UNL A   1      33.244  26.950  24.527  1.00  0.00     0.025 A 
ATOM     95  C   UNL A   1      33.530  27.851  25.564  1.00  0.00     0.014 A 
ATOM     96  C   UNL A   1      32.221  27.298  23.624  1.00  0.00     0.052 A 
ATOM     97  C   UNL A   1      32.755  28.991  25.764  1.00  0.00     0.040 A 
ATOM     98  C   UNL A   1      31.439  28.439  23.828  1.00  0.00     0.060 A 
ATOM     99  Cl  UNL A   1      31.927  26.418  22.168  1.00  0.00    -0.084 Cl
ATOM    100  C   UNL A   1      31.701  29.263  24.909  1.00  0.00     0.124 A 
ATOM    101  F   UNL A   1      30.952  30.352  25.114  1.00  0.00    -0.207 F 
ENDBRANCH  93  94
ENDBRANCH  88  93
ENDBRANCH  84  86
ENDBRANCH  83  84
ENDBRANCH  82  83
ENDBRANCH  81  82
ENDBRANCH  80  81
ENDBRANCH  79  80
ENDBRANCH  78  79
ENDBRANCH  77  78
ENDBRANCH   1  77
TORSDOF 25
ENDMDL
