MODEL 1
REMARK VINA RESULT:     -10.2      0.000      0.000
REMARK SMILES Cc1ccccc1[C@@H](Cc1c(Cl)cccc1Cl)C(=O)OCCOCCOCCOCCOC(=O)c1ccc(-c2c3nc(c(-c4c(F)cc(S(=O)(=O)[O-])cc4F)c4ccc([nH]4)c(-c4c(F)cc(S(=O)(=O)[O-])cc4F)c4nc(c(-c5c(F)cc(S(=O)(=O)[O-])cc5F)c5ccc2[nH]5)C=C4)C=C3)cc1
REMARK SMILES IDX 27 1 26 2 25 3 24 4 23 5 22 6 21 7 20 8 18 9 19 10 8 11 7 12
REMARK SMILES IDX 1 13 2 14 3 15 4 16 6 17 5 18 9 19 10 20 11 21 16 22 12 23
REMARK SMILES IDX 13 24 15 25 17 26 14 27 28 28 29 29 30 30 31 31 32 32 33 33
REMARK SMILES IDX 34 34 35 35 36 36 100 37 37 38 99 39 38 40 39 41 40 42 93 43
REMARK SMILES IDX 41 44 98 45 92 46 94 47 42 48 97 49 91 50 90 51 43 53 77 54
REMARK SMILES IDX 56 55 76 56 57 57 60 58 75 59 95 60 58 61 59 62 74 64 96 65
REMARK SMILES IDX 61 66 44 67 45 68 54 69 46 70 47 71 53 72 55 73 48 74 49 75
REMARK SMILES IDX 50 76 51 77 52 78 78 79 79 80 88 81 80 82 81 83 87 84 89 85
REMARK SMILES IDX 82 86 83 87 84 88 85 89 86 90 62 91 63 92 72 93 64 94 65 95
REMARK SMILES IDX 71 96 73 97 66 98 67 99 68 100 69 101 70 102
REMARK H PARENT 94 52 60 63
REMARK Flexibility Score: inf
ROOT
ATOM      1  C   UNL A   1      31.459  28.179  24.197  1.00  0.00     0.188 C 
ENDROOT
BRANCH   1   2
ATOM      2  O   UNL A   1      30.090  27.973  23.815  1.00  0.00    -0.377 OA
BRANCH   2   3
ATOM      3  C   UNL A   1      29.699  26.620  23.654  1.00  0.00     0.188 C 
BRANCH   3   4
ATOM      4  C   UNL A   1      29.316  25.798  24.902  1.00  0.00     0.188 C 
BRANCH   4   5
ATOM      5  O   UNL A   1      30.263  25.426  25.883  1.00  0.00    -0.376 OA
BRANCH   5   6
ATOM      6  C   UNL A   1      30.090  24.157  26.489  1.00  0.00     0.202 C 
BRANCH   6   7
ATOM      7  C   UNL A   1      30.970  22.995  26.067  1.00  0.00     0.261 C 
BRANCH   7   8
ATOM      8  O   UNL A   1      31.140  22.941  24.640  1.00  0.00    -0.463 OA
BRANCH   8   9
ATOM      9  C   UNL A   1      32.258  22.271  24.272  1.00  0.00     0.313 C 
ATOM     10  O   UNL A   1      32.991  22.622  23.370  1.00  0.00    -0.252 OA
BRANCH   9  11
ATOM     11  C   UNL A   1      32.540  21.034  25.120  1.00  0.00     0.134 C 
BRANCH  11  12
ATOM     12  C   UNL A   1      32.627  19.744  24.279  1.00  0.00    -0.031 A 
ATOM     13  C   UNL A   1      32.805  18.247  26.383  1.00  0.00     0.044 C 
ATOM     14  C   UNL A   1      32.831  18.476  24.892  1.00  0.00    -0.047 A 
ATOM     15  C   UNL A   1      32.940  17.316  24.093  1.00  0.00     0.004 A 
ATOM     16  C   UNL A   1      32.752  17.371  22.715  1.00  0.00     0.000 A 
ATOM     17  C   UNL A   1      32.407  19.761  22.882  1.00  0.00     0.005 A 
ATOM     18  C   UNL A   1      32.462  18.588  22.113  1.00  0.00     0.000 A 
ENDBRANCH  11  12
BRANCH  11  19
ATOM     19  C   UNL A   1      33.656  21.230  26.181  1.00  0.00     0.058 C 
BRANCH  19  20
ATOM     20  C   UNL A   1      35.028  21.781  25.805  1.00  0.00    -0.010 A 
ATOM     21  C   UNL A   1      35.264  23.168  25.938  1.00  0.00     0.045 A 
ATOM     22  C   UNL A   1      36.123  21.008  25.385  1.00  0.00     0.045 A 
ATOM     23  Cl  UNL A   1      33.970  24.304  26.151  1.00  0.00    -0.084 Cl
ATOM     24  C   UNL A   1      36.557  23.698  25.879  1.00  0.00     0.021 A 
ATOM     25  C   UNL A   1      37.427  21.510  25.449  1.00  0.00     0.021 A 
ATOM     26  Cl  UNL A   1      35.948  19.488  24.581  1.00  0.00    -0.084 Cl
ATOM     27  C   UNL A   1      37.646  22.853  25.720  1.00  0.00     0.003 A 
ENDBRANCH  19  20
ENDBRANCH  11  19
ENDBRANCH   9  11
ENDBRANCH   8   9
ENDBRANCH   7   8
ENDBRANCH   6   7
ENDBRANCH   5   6
ENDBRANCH   4   5
ENDBRANCH   3   4
ENDBRANCH   2   3
ENDBRANCH   1   2
BRANCH   1  28
ATOM     28  C   UNL A   1      31.670  29.110  25.361  1.00  0.00     0.188 C 
BRANCH  28  29
ATOM     29  O   UNL A   1      32.976  29.658  25.207  1.00  0.00    -0.376 OA
BRANCH  29  30
ATOM     30  C   UNL A   1      33.705  29.846  26.395  1.00  0.00     0.202 C 
BRANCH  30  31
ATOM     31  C   UNL A   1      33.097  30.963  27.228  1.00  0.00     0.261 C 
BRANCH  31  32
ATOM     32  O   UNL A   1      33.997  31.373  28.295  1.00  0.00    -0.460 OA
BRANCH  32  33
ATOM     33  C   UNL A   1      35.281  31.758  28.005  1.00  0.00     0.338 C 
ATOM     34  O   UNL A   1      35.548  32.879  27.597  1.00  0.00    -0.246 OA
BRANCH  33  35
ATOM     35  C   UNL A   1      36.334  30.817  28.501  1.00  0.00     0.060 A 
ATOM     36  C   UNL A   1      36.130  29.964  29.599  1.00  0.00     0.016 A 
ATOM     37  C   UNL A   1      37.582  30.827  27.904  1.00  0.00     0.016 A 
ATOM     38  C   UNL A   1      37.210  29.270  30.201  1.00  0.00     0.010 A 
ATOM     39  C   UNL A   1      38.651  30.232  28.559  1.00  0.00     0.010 A 
ATOM     40  C   UNL A   1      38.505  29.454  29.724  1.00  0.00    -0.014 A 
BRANCH  40  41
ATOM     41  C   UNL A   1      39.765  28.946  30.339  1.00  0.00     0.031 A 
ATOM     42  C   UNL A   1      40.309  27.626  29.826  1.00  0.00     0.074 A 
ATOM     43  C   UNL A   1      40.594  29.778  31.041  1.00  0.00     0.049 A 
ATOM     44  N   UNL A   1      41.441  27.106  30.158  1.00  0.00    -0.248 NA
ATOM     45  C   UNL A   1      39.659  26.815  28.794  1.00  0.00     0.031 C 
ATOM     46  C   UNL A   1      42.045  29.636  31.220  1.00  0.00     0.029 A 
ATOM     47  N   UNL A   1      40.377  31.033  31.637  1.00  0.00    -0.354 N 
ATOM     48  C   UNL A   1      41.819  26.157  29.220  1.00  0.00     0.074 A 
ATOM     49  C   UNL A   1      40.648  26.001  28.400  1.00  0.00     0.031 C 
ATOM     50  C   UNL A   1      42.548  30.600  32.005  1.00  0.00     0.029 A 
ATOM     51  C   UNL A   1      41.407  31.255  32.582  1.00  0.00     0.049 A 
ATOM     52  H   UNL A   1      39.638  31.649  31.432  1.00  0.00     0.167 HD
ATOM     53  C   UNL A   1      43.126  25.738  29.212  1.00  0.00     0.037 A 
ATOM     54  C   UNL A   1      41.148  31.275  33.920  1.00  0.00     0.037 A 
ATOM     55  C   UNL A   1      43.815  26.297  30.395  1.00  0.00     0.049 A 
ATOM     56  C   UNL A   1      41.798  30.052  34.547  1.00  0.00     0.074 A 
ATOM     57  C   UNL A   1      44.795  27.265  30.514  1.00  0.00     0.029 A 
ATOM     58  N   UNL A   1      43.287  26.131  31.688  1.00  0.00    -0.354 N 
ATOM     59  N   UNL A   1      41.901  28.886  33.945  1.00  0.00    -0.248 NA
ATOM     60  C   UNL A   1      42.637  30.132  35.744  1.00  0.00     0.031 C 
ATOM     61  C   UNL A   1      44.753  27.782  31.829  1.00  0.00     0.029 A 
ATOM     62  C   UNL A   1      43.797  27.090  32.553  1.00  0.00     0.049 A 
ATOM     63  H   UNL A   1      42.645  25.430  31.945  1.00  0.00     0.167 HD
ATOM     64  C   UNL A   1      42.909  28.161  34.538  1.00  0.00     0.074 A 
ATOM     65  C   UNL A   1      43.282  28.952  35.703  1.00  0.00     0.031 C 
ATOM     66  C   UNL A   1      43.563  27.085  33.990  1.00  0.00     0.037 A 
BRANCH  53  67
ATOM     67  C   UNL A   1      43.891  25.048  28.048  1.00  0.00     0.058 A 
ATOM     68  C   UNL A   1      43.994  25.667  26.771  1.00  0.00     0.135 A 
ATOM     69  C   UNL A   1      44.506  23.775  28.086  1.00  0.00     0.135 A 
ATOM     70  F   UNL A   1      43.523  26.900  26.547  1.00  0.00    -0.206 F 
ATOM     71  C   UNL A   1      44.586  25.070  25.646  1.00  0.00     0.059 A 
ATOM     72  C   UNL A   1      45.112  23.155  26.970  1.00  0.00     0.059 A 
ATOM     73  F   UNL A   1      44.592  23.070  29.215  1.00  0.00    -0.206 F 
ATOM     74  C   UNL A   1      45.144  23.807  25.748  1.00  0.00     0.060 A 
BRANCH  74  75
ATOM     75  S   UNL A   1      45.959  23.090  24.301  1.00  0.00     0.124 S 
ATOM     76  O   UNL A   1      46.578  21.891  24.858  1.00  0.00    -0.237 OA
ATOM     77  O   UNL A   1      44.839  22.858  23.396  1.00  0.00    -0.237 OA
ATOM     78  O   UNL A   1      46.891  24.132  23.879  1.00  0.00    -0.744 OA
ENDBRANCH  74  75
ENDBRANCH  53  67
BRANCH  54  79
ATOM     79  C   UNL A   1      39.883  32.030  34.195  1.00  0.00     0.058 A 
ATOM     80  C   UNL A   1      39.881  33.374  33.742  1.00  0.00     0.135 A 
ATOM     81  C   UNL A   1      38.640  31.378  34.220  1.00  0.00     0.135 A 
ATOM     82  F   UNL A   1      41.030  34.071  33.716  1.00  0.00    -0.206 F 
ATOM     83  C   UNL A   1      38.766  33.956  33.135  1.00  0.00     0.059 A 
ATOM     84  C   UNL A   1      37.508  31.947  33.612  1.00  0.00     0.059 A 
ATOM     85  F   UNL A   1      38.556  30.113  34.658  1.00  0.00    -0.206 F 
ATOM     86  C   UNL A   1      37.601  33.205  33.012  1.00  0.00     0.060 A 
BRANCH  86  87
ATOM     87  S   UNL A   1      36.319  33.792  31.866  1.00  0.00     0.124 S 
ATOM     88  O   UNL A   1      37.095  34.119  30.677  1.00  0.00    -0.237 OA
ATOM     89  O   UNL A   1      35.436  32.633  31.747  1.00  0.00    -0.237 OA
ATOM     90  O   UNL A   1      35.731  34.924  32.570  1.00  0.00    -0.744 OA
ENDBRANCH  86  87
ENDBRANCH  54  79
BRANCH  66  91
ATOM     91  C   UNL A   1      44.319  26.044  34.789  1.00  0.00     0.058 A 
ATOM     92  C   UNL A   1      45.610  26.263  35.292  1.00  0.00     0.135 A 
ATOM     93  C   UNL A   1      43.672  24.866  35.253  1.00  0.00     0.135 A 
ATOM     94  F   UNL A   1      46.307  27.366  34.981  1.00  0.00    -0.206 F 
ATOM     95  C   UNL A   1      46.219  25.378  36.176  1.00  0.00     0.059 A 
ATOM     96  C   UNL A   1      44.236  24.008  36.184  1.00  0.00     0.059 A 
ATOM     97  F   UNL A   1      42.445  24.509  34.850  1.00  0.00    -0.206 F 
ATOM     98  C   UNL A   1      45.514  24.269  36.637  1.00  0.00     0.060 A 
BRANCH  98  99
ATOM     99  S   UNL A   1      46.246  23.228  37.904  1.00  0.00     0.124 S 
ATOM    100  O   UNL A   1      45.453  23.594  39.072  1.00  0.00    -0.237 OA
ATOM    101  O   UNL A   1      46.014  21.887  37.373  1.00  0.00    -0.237 OA
ATOM    102  O   UNL A   1      47.642  23.650  37.928  1.00  0.00    -0.744 OA
ENDBRANCH  98  99
ENDBRANCH  66  91
ENDBRANCH  40  41
ENDBRANCH  33  35
ENDBRANCH  32  33
ENDBRANCH  31  32
ENDBRANCH  30  31
ENDBRANCH  29  30
ENDBRANCH  28  29
ENDBRANCH   1  28
TORSDOF 26
ENDMDL
MODEL 2
REMARK VINA RESULT:      -9.9      1.675      2.537
REMARK SMILES Cc1ccccc1[C@@H](Cc1c(Cl)cccc1Cl)C(=O)OCCOCCOCCOCCOC(=O)c1ccc(-c2c3nc(c(-c4c(F)cc(S(=O)(=O)[O-])cc4F)c4ccc([nH]4)c(-c4c(F)cc(S(=O)(=O)[O-])cc4F)c4nc(c(-c5c(F)cc(S(=O)(=O)[O-])cc5F)c5ccc2[nH]5)C=C4)C=C3)cc1
REMARK SMILES IDX 27 1 26 2 25 3 24 4 23 5 22 6 21 7 20 8 18 9 19 10 8 11 7 12
REMARK SMILES IDX 1 13 2 14 3 15 4 16 6 17 5 18 9 19 10 20 11 21 16 22 12 23
REMARK SMILES IDX 13 24 15 25 17 26 14 27 28 28 29 29 30 30 31 31 32 32 33 33
REMARK SMILES IDX 34 34 35 35 36 36 100 37 37 38 99 39 38 40 39 41 40 42 93 43
REMARK SMILES IDX 41 44 98 45 92 46 94 47 42 48 97 49 91 50 90 51 43 53 77 54
REMARK SMILES IDX 56 55 76 56 57 57 60 58 75 59 95 60 58 61 59 62 74 64 96 65
REMARK SMILES IDX 61 66 44 67 45 68 54 69 46 70 47 71 53 72 55 73 48 74 49 75
REMARK SMILES IDX 50 76 51 77 52 78 78 79 79 80 88 81 80 82 81 83 87 84 89 85
REMARK SMILES IDX 82 86 83 87 84 88 85 89 86 90 62 91 63 92 72 93 64 94 65 95
REMARK SMILES IDX 71 96 73 97 66 98 67 99 68 100 69 101 70 102
REMARK H PARENT 94 52 60 63
REMARK Flexibility Score: inf
ROOT
ATOM      1  C   UNL A   1      31.885  28.490  25.176  1.00  0.00     0.188 C 
ENDROOT
BRANCH   1   2
ATOM      2  O   UNL A   1      30.638  28.135  24.561  1.00  0.00    -0.377 OA
BRANCH   2   3
ATOM      3  C   UNL A   1      30.585  26.837  23.993  1.00  0.00     0.188 C 
BRANCH   3   4
ATOM      4  C   UNL A   1      30.243  25.637  24.899  1.00  0.00     0.188 C 
BRANCH   4   5
ATOM      5  O   UNL A   1      31.103  25.200  25.933  1.00  0.00    -0.376 OA
BRANCH   5   6
ATOM      6  C   UNL A   1      30.749  23.996  26.590  1.00  0.00     0.202 C 
BRANCH   6   7
ATOM      7  C   UNL A   1      30.745  22.689  25.818  1.00  0.00     0.261 C 
BRANCH   7   8
ATOM      8  O   UNL A   1      31.202  22.864  24.465  1.00  0.00    -0.463 OA
BRANCH   8   9
ATOM      9  C   UNL A   1      32.406  22.286  24.242  1.00  0.00     0.313 C 
ATOM     10  O   UNL A   1      33.305  22.814  23.619  1.00  0.00    -0.252 OA
BRANCH   9  11
ATOM     11  C   UNL A   1      32.553  20.906  24.876  1.00  0.00     0.134 C 
BRANCH  11  12
ATOM     12  C   UNL A   1      32.518  19.767  23.837  1.00  0.00    -0.031 A 
ATOM     13  C   UNL A   1      32.815  17.946  25.651  1.00  0.00     0.044 C 
ATOM     14  C   UNL A   1      32.724  18.413  24.220  1.00  0.00    -0.047 A 
ATOM     15  C   UNL A   1      32.719  17.394  23.240  1.00  0.00     0.004 A 
ATOM     16  C   UNL A   1      32.417  17.676  21.911  1.00  0.00     0.000 A 
ATOM     17  C   UNL A   1      32.181  20.016  22.486  1.00  0.00     0.005 A 
ATOM     18  C   UNL A   1      32.125  18.982  21.538  1.00  0.00     0.000 A 
ENDBRANCH  11  12
BRANCH  11  19
ATOM     19  C   UNL A   1      33.672  20.814  25.949  1.00  0.00     0.058 C 
BRANCH  19  20
ATOM     20  C   UNL A   1      34.969  21.606  25.820  1.00  0.00    -0.010 A 
ATOM     21  C   UNL A   1      36.070  21.006  25.170  1.00  0.00     0.045 A 
ATOM     22  C   UNL A   1      35.154  22.931  26.248  1.00  0.00     0.045 A 
ATOM     23  Cl  UNL A   1      36.131  19.302  24.847  1.00  0.00    -0.084 Cl
ATOM     24  C   UNL A   1      37.183  21.756  24.774  1.00  0.00     0.021 A 
ATOM     25  C   UNL A   1      36.201  23.711  25.748  1.00  0.00     0.021 A 
ATOM     26  Cl  UNL A   1      34.255  23.634  27.547  1.00  0.00    -0.084 Cl
ATOM     27  C   UNL A   1      37.206  23.127  24.989  1.00  0.00     0.003 A 
ENDBRANCH  19  20
ENDBRANCH  11  19
ENDBRANCH   9  11
ENDBRANCH   8   9
ENDBRANCH   7   8
ENDBRANCH   6   7
ENDBRANCH   5   6
ENDBRANCH   4   5
ENDBRANCH   3   4
ENDBRANCH   2   3
ENDBRANCH   1   2
BRANCH   1  28
ATOM     28  C   UNL A   1      31.780  29.425  26.352  1.00  0.00     0.188 C 
BRANCH  28  29
ATOM     29  O   UNL A   1      32.673  30.505  26.089  1.00  0.00    -0.376 OA
BRANCH  29  30
ATOM     30  C   UNL A   1      33.664  30.730  27.062  1.00  0.00     0.202 C 
BRANCH  30  31
ATOM     31  C   UNL A   1      33.432  32.057  27.768  1.00  0.00     0.261 C 
BRANCH  31  32
ATOM     32  O   UNL A   1      34.278  32.182  28.944  1.00  0.00    -0.460 OA
BRANCH  32  33
ATOM     33  C   UNL A   1      35.581  32.594  28.817  1.00  0.00     0.338 C 
ATOM     34  O   UNL A   1      35.881  33.773  28.698  1.00  0.00    -0.246 OA
BRANCH  33  35
ATOM     35  C   UNL A   1      36.595  31.538  29.129  1.00  0.00     0.060 A 
ATOM     36  C   UNL A   1      36.323  30.457  29.984  1.00  0.00     0.016 A 
ATOM     37  C   UNL A   1      37.873  31.659  28.614  1.00  0.00     0.016 A 
ATOM     38  C   UNL A   1      37.361  29.616  30.459  1.00  0.00     0.010 A 
ATOM     39  C   UNL A   1      38.899  30.903  29.164  1.00  0.00     0.010 A 
ATOM     40  C   UNL A   1      38.682  29.877  30.104  1.00  0.00    -0.014 A 
BRANCH  40  41
ATOM     41  C   UNL A   1      39.901  29.209  30.644  1.00  0.00     0.031 A 
ATOM     42  C   UNL A   1      40.331  27.909  29.993  1.00  0.00     0.074 A 
ATOM     43  C   UNL A   1      40.801  29.897  31.411  1.00  0.00     0.049 A 
ATOM     44  N   UNL A   1      41.419  27.268  30.254  1.00  0.00    -0.248 NA
ATOM     45  C   UNL A   1      39.608  27.260  28.898  1.00  0.00     0.031 C 
ATOM     46  C   UNL A   1      42.237  29.622  31.551  1.00  0.00     0.029 A 
ATOM     47  N   UNL A   1      40.694  31.099  32.133  1.00  0.00    -0.354 N 
ATOM     48  C   UNL A   1      41.710  26.391  29.220  1.00  0.00     0.074 A 
ATOM     49  C   UNL A   1      40.523  26.412  28.408  1.00  0.00     0.031 C 
ATOM     50  C   UNL A   1      42.825  30.458  32.420  1.00  0.00     0.029 A 
ATOM     51  C   UNL A   1      41.746  31.142  33.078  1.00  0.00     0.049 A 
ATOM     52  H   UNL A   1      40.006  31.791  32.002  1.00  0.00     0.167 HD
ATOM     53  C   UNL A   1      42.978  25.870  29.148  1.00  0.00     0.037 A 
ATOM     54  C   UNL A   1      41.502  31.048  34.415  1.00  0.00     0.037 A 
ATOM     55  C   UNL A   1      43.721  26.250  30.369  1.00  0.00     0.049 A 
ATOM     56  C   UNL A   1      42.055  29.720  34.907  1.00  0.00     0.074 A 
ATOM     57  C   UNL A   1      44.777  27.119  30.566  1.00  0.00     0.029 A 
ATOM     58  N   UNL A   1      43.193  25.999  31.648  1.00  0.00    -0.354 N 
ATOM     59  N   UNL A   1      42.056  28.616  34.190  1.00  0.00    -0.248 NA
ATOM     60  C   UNL A   1      42.908  29.612  36.091  1.00  0.00     0.031 C 
ATOM     61  C   UNL A   1      44.790  27.503  31.927  1.00  0.00     0.029 A 
ATOM     62  C   UNL A   1      43.786  26.821  32.595  1.00  0.00     0.049 A 
ATOM     63  H   UNL A   1      42.498  25.329  31.845  1.00  0.00     0.167 HD
ATOM     64  C   UNL A   1      43.007  27.756  34.691  1.00  0.00     0.074 A 
ATOM     65  C   UNL A   1      43.454  28.394  35.923  1.00  0.00     0.031 C 
ATOM     66  C   UNL A   1      43.566  26.692  34.029  1.00  0.00     0.037 A 
BRANCH  53  67
ATOM     67  C   UNL A   1      43.674  25.241  27.909  1.00  0.00     0.058 A 
ATOM     68  C   UNL A   1      44.330  23.981  27.999  1.00  0.00     0.135 A 
ATOM     69  C   UNL A   1      43.783  25.819  26.623  1.00  0.00     0.135 A 
ATOM     70  F   UNL A   1      44.293  23.248  29.118  1.00  0.00    -0.206 F 
ATOM     71  C   UNL A   1      45.058  23.390  26.953  1.00  0.00     0.059 A 
ATOM     72  C   UNL A   1      44.505  25.244  25.554  1.00  0.00     0.059 A 
ATOM     73  F   UNL A   1      43.164  26.960  26.311  1.00  0.00    -0.206 F 
ATOM     74  C   UNL A   1      45.148  24.028  25.728  1.00  0.00     0.060 A 
BRANCH  74  75
ATOM     75  S   UNL A   1      46.035  23.213  24.378  1.00  0.00     0.124 S 
ATOM     76  O   UNL A   1      46.600  22.043  25.042  1.00  0.00    -0.237 OA
ATOM     77  O   UNL A   1      44.965  22.941  23.423  1.00  0.00    -0.237 OA
ATOM     78  O   UNL A   1      47.006  24.216  23.950  1.00  0.00    -0.744 OA
ENDBRANCH  74  75
ENDBRANCH  53  67
BRANCH  54  79
ATOM     79  C   UNL A   1      40.306  31.871  34.785  1.00  0.00     0.058 A 
ATOM     80  C   UNL A   1      39.160  31.124  35.161  1.00  0.00     0.135 A 
ATOM     81  C   UNL A   1      40.450  33.133  35.383  1.00  0.00     0.135 A 
ATOM     82  F   UNL A   1      38.941  29.917  34.609  1.00  0.00    -0.206 F 
ATOM     83  C   UNL A   1      38.341  31.498  36.227  1.00  0.00     0.059 A 
ATOM     84  C   UNL A   1      39.637  33.526  36.459  1.00  0.00     0.059 A 
ATOM     85  F   UNL A   1      41.494  33.911  35.061  1.00  0.00    -0.206 F 
ATOM     86  C   UNL A   1      38.632  32.670  36.918  1.00  0.00     0.060 A 
BRANCH  86  87
ATOM     87  S   UNL A   1      37.848  32.931  38.536  1.00  0.00     0.124 S 
ATOM     88  O   UNL A   1      38.496  31.918  39.358  1.00  0.00    -0.237 OA
ATOM     89  O   UNL A   1      38.199  34.316  38.847  1.00  0.00    -0.237 OA
ATOM     90  O   UNL A   1      36.434  32.717  38.264  1.00  0.00    -0.744 OA
ENDBRANCH  86  87
ENDBRANCH  54  79
BRANCH  66  91
ATOM     91  C   UNL A   1      44.241  25.518  34.707  1.00  0.00     0.058 A 
ATOM     92  C   UNL A   1      43.549  24.352  35.069  1.00  0.00     0.135 A 
ATOM     93  C   UNL A   1      45.656  25.450  34.818  1.00  0.00     0.135 A 
ATOM     94  F   UNL A   1      42.217  24.262  34.954  1.00  0.00    -0.206 F 
ATOM     95  C   UNL A   1      44.208  23.211  35.519  1.00  0.00     0.059 A 
ATOM     96  C   UNL A   1      46.334  24.304  35.200  1.00  0.00     0.059 A 
ATOM     97  F   UNL A   1      46.454  26.488  34.527  1.00  0.00    -0.206 F 
ATOM     98  C   UNL A   1      45.600  23.188  35.555  1.00  0.00     0.060 A 
BRANCH  98  99
ATOM     99  S   UNL A   1      46.442  21.659  35.976  1.00  0.00     0.124 S 
ATOM    100  O   UNL A   1      47.765  21.893  35.410  1.00  0.00    -0.237 OA
ATOM    101  O   UNL A   1      46.366  21.656  37.434  1.00  0.00    -0.237 OA
ATOM    102  O   UNL A   1      45.641  20.635  35.313  1.00  0.00    -0.744 OA
ENDBRANCH  98  99
ENDBRANCH  66  91
ENDBRANCH  40  41
ENDBRANCH  33  35
ENDBRANCH  32  33
ENDBRANCH  31  32
ENDBRANCH  30  31
ENDBRANCH  29  30
ENDBRANCH  28  29
ENDBRANCH   1  28
TORSDOF 26
ENDMDL
MODEL 3
REMARK VINA RESULT:      -9.8      5.210      9.341
REMARK SMILES Cc1ccccc1[C@@H](Cc1c(Cl)cccc1Cl)C(=O)OCCOCCOCCOCCOC(=O)c1ccc(-c2c3nc(c(-c4c(F)cc(S(=O)(=O)[O-])cc4F)c4ccc([nH]4)c(-c4c(F)cc(S(=O)(=O)[O-])cc4F)c4nc(c(-c5c(F)cc(S(=O)(=O)[O-])cc5F)c5ccc2[nH]5)C=C4)C=C3)cc1
REMARK SMILES IDX 27 1 26 2 25 3 24 4 23 5 22 6 21 7 20 8 18 9 19 10 8 11 7 12
REMARK SMILES IDX 1 13 2 14 3 15 4 16 6 17 5 18 9 19 10 20 11 21 16 22 12 23
REMARK SMILES IDX 13 24 15 25 17 26 14 27 28 28 29 29 30 30 31 31 32 32 33 33
REMARK SMILES IDX 34 34 35 35 36 36 100 37 37 38 99 39 38 40 39 41 40 42 93 43
REMARK SMILES IDX 41 44 98 45 92 46 94 47 42 48 97 49 91 50 90 51 43 53 77 54
REMARK SMILES IDX 56 55 76 56 57 57 60 58 75 59 95 60 58 61 59 62 74 64 96 65
REMARK SMILES IDX 61 66 44 67 45 68 54 69 46 70 47 71 53 72 55 73 48 74 49 75
REMARK SMILES IDX 50 76 51 77 52 78 78 79 79 80 88 81 80 82 81 83 87 84 89 85
REMARK SMILES IDX 82 86 83 87 84 88 85 89 86 90 62 91 63 92 72 93 64 94 65 95
REMARK SMILES IDX 71 96 73 97 66 98 67 99 68 100 69 101 70 102
REMARK H PARENT 94 52 60 63
REMARK Flexibility Score: inf
ROOT
ATOM      1  C   UNL A   1      34.235  28.882  25.912  1.00  0.00     0.188 C 
ENDROOT
BRANCH   1   2
ATOM      2  O   UNL A   1      32.855  29.041  25.550  1.00  0.00    -0.377 OA
BRANCH   2   3
ATOM      3  C   UNL A   1      32.171  27.846  25.213  1.00  0.00     0.188 C 
BRANCH   3   4
ATOM      4  C   UNL A   1      31.015  27.367  26.114  1.00  0.00     0.188 C 
BRANCH   4   5
ATOM      5  O   UNL A   1      31.124  26.228  26.944  1.00  0.00    -0.376 OA
BRANCH   5   6
ATOM      6  C   UNL A   1      31.915  25.158  26.460  1.00  0.00     0.202 C 
BRANCH   6   7
ATOM      7  C   UNL A   1      31.571  23.731  26.850  1.00  0.00     0.261 C 
BRANCH   7   8
ATOM      8  O   UNL A   1      32.610  22.808  26.480  1.00  0.00    -0.463 OA
BRANCH   8   9
ATOM      9  C   UNL A   1      32.182  21.864  25.608  1.00  0.00     0.313 C 
ATOM     10  O   UNL A   1      31.075  21.368  25.638  1.00  0.00    -0.252 OA
BRANCH   9  11
ATOM     11  C   UNL A   1      33.217  21.491  24.550  1.00  0.00     0.134 C 
BRANCH  11  12
ATOM     12  C   UNL A   1      33.513  19.979  24.515  1.00  0.00    -0.031 A 
ATOM     13  C   UNL A   1      36.032  20.344  24.983  1.00  0.00     0.044 C 
ATOM     14  C   UNL A   1      34.842  19.484  24.638  1.00  0.00    -0.047 A 
ATOM     15  C   UNL A   1      35.087  18.094  24.569  1.00  0.00     0.004 A 
ATOM     16  C   UNL A   1      34.038  17.182  24.481  1.00  0.00     0.000 A 
ATOM     17  C   UNL A   1      32.469  19.026  24.460  1.00  0.00     0.005 A 
ATOM     18  C   UNL A   1      32.730  17.647  24.451  1.00  0.00     0.000 A 
ENDBRANCH  11  12
BRANCH  11  19
ATOM     19  C   UNL A   1      32.992  22.172  23.173  1.00  0.00     0.058 C 
BRANCH  19  20
ATOM     20  C   UNL A   1      32.910  23.689  23.036  1.00  0.00    -0.010 A 
ATOM     21  C   UNL A   1      34.102  24.444  23.111  1.00  0.00     0.045 A 
ATOM     22  C   UNL A   1      31.736  24.416  22.778  1.00  0.00     0.045 A 
ATOM     23  Cl  UNL A   1      35.583  23.768  23.712  1.00  0.00    -0.084 Cl
ATOM     24  C   UNL A   1      34.141  25.788  22.724  1.00  0.00     0.021 A 
ATOM     25  C   UNL A   1      31.791  25.719  22.272  1.00  0.00     0.021 A 
ATOM     26  Cl  UNL A   1      30.166  23.862  23.240  1.00  0.00    -0.084 Cl
ATOM     27  C   UNL A   1      33.000  26.399  22.223  1.00  0.00     0.003 A 
ENDBRANCH  19  20
ENDBRANCH  11  19
ENDBRANCH   9  11
ENDBRANCH   8   9
ENDBRANCH   7   8
ENDBRANCH   6   7
ENDBRANCH   5   6
ENDBRANCH   4   5
ENDBRANCH   3   4
ENDBRANCH   2   3
ENDBRANCH   1   2
BRANCH   1  28
ATOM     28  C   UNL A   1      34.553  29.125  27.363  1.00  0.00     0.188 C 
BRANCH  28  29
ATOM     29  O   UNL A   1      34.205  30.482  27.629  1.00  0.00    -0.376 OA
BRANCH  29  30
ATOM     30  C   UNL A   1      35.139  31.217  28.381  1.00  0.00     0.202 C 
BRANCH  30  31
ATOM     31  C   UNL A   1      35.806  30.333  29.424  1.00  0.00     0.261 C 
BRANCH  31  32
ATOM     32  O   UNL A   1      37.205  30.101  29.099  1.00  0.00    -0.460 OA
BRANCH  32  33
ATOM     33  C   UNL A   1      38.193  30.740  29.804  1.00  0.00     0.338 C 
ATOM     34  O   UNL A   1      37.943  31.548  30.687  1.00  0.00    -0.246 OA
BRANCH  33  35
ATOM     35  C   UNL A   1      39.559  30.160  29.615  1.00  0.00     0.060 A 
ATOM     36  C   UNL A   1      40.569  30.271  30.586  1.00  0.00     0.016 A 
ATOM     37  C   UNL A   1      39.871  29.547  28.415  1.00  0.00     0.016 A 
ATOM     38  C   UNL A   1      41.915  29.937  30.289  1.00  0.00     0.010 A 
ATOM     39  C   UNL A   1      41.203  29.323  28.095  1.00  0.00     0.010 A 
ATOM     40  C   UNL A   1      42.259  29.522  29.005  1.00  0.00    -0.014 A 
BRANCH  40  41
ATOM     41  C   UNL A   1      43.635  29.300  28.476  1.00  0.00     0.031 A 
ATOM     42  C   UNL A   1      44.374  30.504  27.924  1.00  0.00     0.074 A 
ATOM     43  C   UNL A   1      44.347  28.180  28.810  1.00  0.00     0.049 A 
ATOM     44  N   UNL A   1      45.605  30.514  27.543  1.00  0.00    -0.248 NA
ATOM     45  C   UNL A   1      43.807  31.853  27.851  1.00  0.00     0.031 C 
ATOM     46  C   UNL A   1      45.809  28.046  28.870  1.00  0.00     0.029 A 
ATOM     47  N   UNL A   1      43.949  26.934  29.324  1.00  0.00    -0.354 N 
ATOM     48  C   UNL A   1      46.079  31.817  27.506  1.00  0.00     0.074 A 
ATOM     49  C   UNL A   1      44.896  32.616  27.686  1.00  0.00     0.031 C 
ATOM     50  C   UNL A   1      46.184  26.798  29.185  1.00  0.00     0.029 A 
ATOM     51  C   UNL A   1      44.990  26.005  29.086  1.00  0.00     0.049 A 
ATOM     52  H   UNL A   1      43.093  26.741  29.772  1.00  0.00     0.167 HD
ATOM     53  C   UNL A   1      47.436  32.013  27.450  1.00  0.00     0.037 A 
ATOM     54  C   UNL A   1      44.837  24.983  28.199  1.00  0.00     0.037 A 
ATOM     55  C   UNL A   1      48.099  30.707  27.246  1.00  0.00     0.049 A 
ATOM     56  C   UNL A   1      45.751  25.245  27.012  1.00  0.00     0.074 A 
ATOM     57  C   UNL A   1      48.888  29.938  28.082  1.00  0.00     0.029 A 
ATOM     58  N   UNL A   1      47.715  29.854  26.197  1.00  0.00    -0.354 N 
ATOM     59  N   UNL A   1      46.021  26.446  26.546  1.00  0.00    -0.248 NA
ATOM     60  C   UNL A   1      46.652  24.225  26.471  1.00  0.00     0.031 C 
ATOM     61  C   UNL A   1      48.855  28.602  27.621  1.00  0.00     0.029 A 
ATOM     62  C   UNL A   1      48.104  28.547  26.459  1.00  0.00     0.049 A 
ATOM     63  H   UNL A   1      47.237  30.143  25.386  1.00  0.00     0.167 HD
ATOM     64  C   UNL A   1      47.190  26.394  25.822  1.00  0.00     0.074 A 
ATOM     65  C   UNL A   1      47.500  24.972  25.741  1.00  0.00     0.031 C 
ATOM     66  C   UNL A   1      47.989  27.462  25.494  1.00  0.00     0.037 A 
BRANCH  53  67
ATOM     67  C   UNL A   1      48.222  33.300  27.825  1.00  0.00     0.058 A 
ATOM     68  C   UNL A   1      48.638  34.221  26.823  1.00  0.00     0.135 A 
ATOM     69  C   UNL A   1      48.645  33.679  29.120  1.00  0.00     0.135 A 
ATOM     70  F   UNL A   1      48.290  34.068  25.539  1.00  0.00    -0.206 F 
ATOM     71  C   UNL A   1      49.429  35.356  27.069  1.00  0.00     0.059 A 
ATOM     72  C   UNL A   1      49.436  34.817  29.394  1.00  0.00     0.059 A 
ATOM     73  F   UNL A   1      48.284  32.992  30.206  1.00  0.00    -0.206 F 
ATOM     74  C   UNL A   1      49.831  35.651  28.360  1.00  0.00     0.060 A 
BRANCH  74  75
ATOM     75  S   UNL A   1      50.792  37.154  28.657  1.00  0.00     0.124 S 
ATOM     76  O   UNL A   1      50.372  37.529  30.003  1.00  0.00    -0.237 OA
ATOM     77  O   UNL A   1      52.165  36.674  28.536  1.00  0.00    -0.237 OA
ATOM     78  O   UNL A   1      50.356  38.057  27.595  1.00  0.00    -0.744 OA
ENDBRANCH  74  75
ENDBRANCH  53  67
BRANCH  54  79
ATOM     79  C   UNL A   1      43.480  24.365  28.342  1.00  0.00     0.058 A 
ATOM     80  C   UNL A   1      42.622  24.545  27.228  1.00  0.00     0.135 A 
ATOM     81  C   UNL A   1      43.292  23.193  29.091  1.00  0.00     0.135 A 
ATOM     82  F   UNL A   1      42.725  25.658  26.479  1.00  0.00    -0.206 F 
ATOM     83  C   UNL A   1      41.795  23.527  26.749  1.00  0.00     0.059 A 
ATOM     84  C   UNL A   1      42.466  22.156  28.624  1.00  0.00     0.059 A 
ATOM     85  F   UNL A   1      44.048  22.961  30.174  1.00  0.00    -0.206 F 
ATOM     86  C   UNL A   1      41.778  22.307  27.417  1.00  0.00     0.060 A 
BRANCH  86  87
ATOM     87  S   UNL A   1      41.050  20.874  26.569  1.00  0.00     0.124 S 
ATOM     88  O   UNL A   1      40.676  20.015  27.685  1.00  0.00    -0.237 OA
ATOM     89  O   UNL A   1      39.938  21.467  25.827  1.00  0.00    -0.237 OA
ATOM     90  O   UNL A   1      42.139  20.389  25.733  1.00  0.00    -0.744 OA
ENDBRANCH  86  87
ENDBRANCH  54  79
BRANCH  66  91
ATOM     91  C   UNL A   1      48.985  27.471  24.354  1.00  0.00     0.058 A 
ATOM     92  C   UNL A   1      50.327  27.094  24.517  1.00  0.00     0.135 A 
ATOM     93  C   UNL A   1      48.560  27.657  23.011  1.00  0.00     0.135 A 
ATOM     94  F   UNL A   1      50.840  26.828  25.727  1.00  0.00    -0.206 F 
ATOM     95  C   UNL A   1      51.185  26.927  23.433  1.00  0.00     0.059 A 
ATOM     96  C   UNL A   1      49.380  27.431  21.917  1.00  0.00     0.059 A 
ATOM     97  F   UNL A   1      47.313  28.035  22.694  1.00  0.00    -0.206 F 
ATOM     98  C   UNL A   1      50.695  27.071  22.138  1.00  0.00     0.060 A 
BRANCH  98  99
ATOM     99  S   UNL A   1      51.765  26.690  20.747  1.00  0.00     0.124 S 
ATOM    100  O   UNL A   1      50.982  25.678  20.049  1.00  0.00    -0.237 OA
ATOM    101  O   UNL A   1      51.874  27.983  20.078  1.00  0.00    -0.237 OA
ATOM    102  O   UNL A   1      52.992  26.217  21.381  1.00  0.00    -0.744 OA
ENDBRANCH  98  99
ENDBRANCH  66  91
ENDBRANCH  40  41
ENDBRANCH  33  35
ENDBRANCH  32  33
ENDBRANCH  31  32
ENDBRANCH  30  31
ENDBRANCH  29  30
ENDBRANCH  28  29
ENDBRANCH   1  28
TORSDOF 26
ENDMDL
