MODEL 1
REMARK VINA RESULT:      -8.7      0.000      0.000
REMARK SMILES Cc1c(C[NH2+]CC(=O)OCCOCCOCCOCCOC(=O)c2ccc(-c3c4nc(c(-c5c(F)cc(S(=O)(=O)[O-])cc5F)c5ccc([nH]5)c(-c5c(F)cc(S(=O)(=O)[O-])cc5F)c5nc(c(-c6c(F)cc(S(=O)(=O)[O-])cc6F)c6ccc3[nH]6)C=C5)C=C4)cc2)cnn1C
REMARK SMILES IDX 15 1 14 2 13 3 12 4 11 5 10 6 9 7 7 8 8 9 6 10 5 11 4 14
REMARK SMILES IDX 3 15 1 16 2 17 92 18 90 19 91 20 93 21 16 22 17 23 18 24
REMARK SMILES IDX 19 25 20 26 21 27 22 28 23 29 24 30 25 31 89 32 26 33 88 34
REMARK SMILES IDX 27 35 28 36 29 37 82 38 30 39 87 40 81 41 83 42 31 43 86 44
REMARK SMILES IDX 80 45 79 46 32 48 66 49 45 50 65 51 46 52 49 53 64 54 84 55
REMARK SMILES IDX 47 56 48 57 63 59 85 60 50 61 33 62 34 63 43 64 35 65 36 66
REMARK SMILES IDX 42 67 44 68 37 69 38 70 39 71 40 72 41 73 67 74 68 75 77 76
REMARK SMILES IDX 69 77 70 78 76 79 78 80 71 81 72 82 73 83 74 84 75 85 51 86
REMARK SMILES IDX 52 87 61 88 53 89 54 90 60 91 62 92 55 93 56 94 57 95 58 96
REMARK SMILES IDX 59 97
REMARK H PARENT 5 12 5 13 83 47 49 58
REMARK Flexibility Score: inf
ROOT
ATOM      1  O   UNL A   1      33.765  20.673  25.723  1.00  0.00    -0.377 OA
ENDROOT
BRANCH   1   2
ATOM      2  C   UNL A   1      33.689  21.427  26.912  1.00  0.00     0.188 C 
BRANCH   2   3
ATOM      3  C   UNL A   1      32.852  22.710  26.841  1.00  0.00     0.188 C 
BRANCH   3   4
ATOM      4  O   UNL A   1      31.489  22.640  26.477  1.00  0.00    -0.376 OA
BRANCH   4   5
ATOM      5  C   UNL A   1      30.919  23.579  25.574  1.00  0.00     0.202 C 
BRANCH   5   6
ATOM      6  C   UNL A   1      31.597  24.075  24.281  1.00  0.00     0.261 C 
BRANCH   6   7
ATOM      7  O   UNL A   1      30.867  24.995  23.455  1.00  0.00    -0.459 OA
BRANCH   7   8
ATOM      8  C   UNL A   1      31.490  26.152  23.133  1.00  0.00     0.361 C 
ATOM      9  O   UNL A   1      30.932  27.083  22.555  1.00  0.00    -0.245 OA
BRANCH   8  10
ATOM     10  C   UNL A   1      32.959  26.258  23.538  1.00  0.00     0.385 C 
BRANCH  10  11
ATOM     11  N   UNL A   1      33.441  27.329  24.420  1.00  0.00    -0.333 N 
ATOM     12  H   UNL A   1      34.452  27.394  24.301  1.00  0.00     0.347 HD
ATOM     13  H   UNL A   1      32.920  28.158  24.136  1.00  0.00     0.347 HD
BRANCH  11  14
ATOM     14  C   UNL A   1      33.175  27.187  25.842  1.00  0.00     0.301 C 
BRANCH  14  15
ATOM     15  C   UNL A   1      33.762  28.376  26.546  1.00  0.00     0.047 A 
ATOM     16  C   UNL A   1      31.743  29.998  26.840  1.00  0.00     0.067 C 
ATOM     17  C   UNL A   1      33.162  29.569  26.930  1.00  0.00     0.044 A 
ATOM     18  N   UNL A   1      34.169  30.348  27.443  1.00  0.00    -0.272 N 
ATOM     19  C   UNL A   1      35.104  28.520  26.977  1.00  0.00     0.145 A 
ATOM     20  N   UNL A   1      35.345  29.705  27.540  1.00  0.00    -0.181 NA
ATOM     21  C   UNL A   1      34.097  31.739  27.829  1.00  0.00     0.174 C 
ENDBRANCH  14  15
ENDBRANCH  11  14
ENDBRANCH  10  11
ENDBRANCH   8  10
ENDBRANCH   7   8
ENDBRANCH   6   7
ENDBRANCH   5   6
ENDBRANCH   4   5
ENDBRANCH   3   4
ENDBRANCH   2   3
ENDBRANCH   1   2
BRANCH   1  22
ATOM     22  C   UNL A   1      35.001  20.613  25.023  1.00  0.00     0.188 C 
BRANCH  22  23
ATOM     23  C   UNL A   1      35.839  21.886  24.781  1.00  0.00     0.188 C 
BRANCH  23  24
ATOM     24  O   UNL A   1      36.853  22.138  25.744  1.00  0.00    -0.376 OA
BRANCH  24  25
ATOM     25  C   UNL A   1      37.329  23.470  25.883  1.00  0.00     0.202 C 
BRANCH  25  26
ATOM     26  C   UNL A   1      38.808  23.656  26.268  1.00  0.00     0.261 C 
BRANCH  26  27
ATOM     27  O   UNL A   1      39.318  24.995  26.164  1.00  0.00    -0.460 OA
BRANCH  27  28
ATOM     28  C   UNL A   1      40.610  25.192  26.484  1.00  0.00     0.338 C 
ATOM     29  O   UNL A   1      41.585  24.919  25.796  1.00  0.00    -0.246 OA
BRANCH  28  30
ATOM     30  C   UNL A   1      40.670  25.983  27.728  1.00  0.00     0.060 A 
ATOM     31  C   UNL A   1      39.635  25.839  28.660  1.00  0.00     0.016 A 
ATOM     32  C   UNL A   1      41.718  26.876  27.966  1.00  0.00     0.016 A 
ATOM     33  C   UNL A   1      39.614  26.634  29.804  1.00  0.00     0.010 A 
ATOM     34  C   UNL A   1      41.684  27.687  29.106  1.00  0.00     0.010 A 
ATOM     35  C   UNL A   1      40.611  27.599  30.010  1.00  0.00    -0.014 A 
BRANCH  35  36
ATOM     36  C   UNL A   1      40.409  28.628  31.062  1.00  0.00     0.031 A 
ATOM     37  C   UNL A   1      41.289  28.588  32.287  1.00  0.00     0.074 A 
ATOM     38  C   UNL A   1      39.521  29.626  30.901  1.00  0.00     0.049 A 
ATOM     39  N   UNL A   1      41.315  29.390  33.318  1.00  0.00    -0.248 NA
ATOM     40  C   UNL A   1      42.279  27.498  32.349  1.00  0.00     0.031 C 
ATOM     41  C   UNL A   1      38.643  29.799  29.744  1.00  0.00     0.029 A 
ATOM     42  N   UNL A   1      39.215  30.690  31.715  1.00  0.00    -0.354 N 
ATOM     43  C   UNL A   1      42.331  28.917  34.142  1.00  0.00     0.074 A 
ATOM     44  C   UNL A   1      42.864  27.728  33.515  1.00  0.00     0.031 C 
ATOM     45  C   UNL A   1      37.894  30.902  29.924  1.00  0.00     0.029 A 
ATOM     46  C   UNL A   1      38.218  31.497  31.219  1.00  0.00     0.049 A 
ATOM     47  H   UNL A   1      39.668  30.858  32.572  1.00  0.00     0.167 HD
ATOM     48  C   UNL A   1      42.794  29.439  35.303  1.00  0.00     0.037 A 
ATOM     49  C   UNL A   1      37.625  32.581  31.760  1.00  0.00     0.037 A 
ATOM     50  C   UNL A   1      42.253  30.616  35.931  1.00  0.00     0.049 A 
ATOM     51  C   UNL A   1      38.095  33.084  33.105  1.00  0.00     0.074 A 
ATOM     52  C   UNL A   1      42.636  31.209  37.122  1.00  0.00     0.029 A 
ATOM     53  N   UNL A   1      41.215  31.381  35.421  1.00  0.00    -0.354 N 
ATOM     54  N   UNL A   1      39.065  32.631  33.866  1.00  0.00    -0.248 NA
ATOM     55  C   UNL A   1      37.397  34.252  33.660  1.00  0.00     0.031 C 
ATOM     56  C   UNL A   1      41.800  32.306  37.354  1.00  0.00     0.029 A 
ATOM     57  C   UNL A   1      40.935  32.432  36.279  1.00  0.00     0.049 A 
ATOM     58  H   UNL A   1      40.746  31.203  34.574  1.00  0.00     0.167 HD
ATOM     59  C   UNL A   1      39.114  33.482  34.967  1.00  0.00     0.074 A 
ATOM     60  C   UNL A   1      38.093  34.488  34.763  1.00  0.00     0.031 C 
ATOM     61  C   UNL A   1      39.928  33.438  36.053  1.00  0.00     0.037 A 
BRANCH  48  62
ATOM     62  C   UNL A   1      43.946  28.741  35.974  1.00  0.00     0.058 A 
ATOM     63  C   UNL A   1      43.743  27.625  36.801  1.00  0.00     0.135 A 
ATOM     64  C   UNL A   1      45.269  29.150  35.740  1.00  0.00     0.135 A 
ATOM     65  F   UNL A   1      42.499  27.204  37.076  1.00  0.00    -0.206 F 
ATOM     66  C   UNL A   1      44.810  26.943  37.378  1.00  0.00     0.059 A 
ATOM     67  C   UNL A   1      46.353  28.466  36.284  1.00  0.00     0.059 A 
ATOM     68  F   UNL A   1      45.520  30.215  34.963  1.00  0.00    -0.206 F 
ATOM     69  C   UNL A   1      46.112  27.367  37.106  1.00  0.00     0.060 A 
BRANCH  69  70
ATOM     70  S   UNL A   1      47.484  26.443  37.831  1.00  0.00     0.124 S 
ATOM     71  O   UNL A   1      47.251  25.105  37.294  1.00  0.00    -0.237 OA
ATOM     72  O   UNL A   1      48.646  27.145  37.298  1.00  0.00    -0.237 OA
ATOM     73  O   UNL A   1      47.271  26.587  39.268  1.00  0.00    -0.744 OA
ENDBRANCH  69  70
ENDBRANCH  48  62
BRANCH  49  74
ATOM     74  C   UNL A   1      36.501  33.264  31.058  1.00  0.00     0.058 A 
ATOM     75  C   UNL A   1      36.724  34.063  29.926  1.00  0.00     0.135 A 
ATOM     76  C   UNL A   1      35.188  33.186  31.549  1.00  0.00     0.135 A 
ATOM     77  F   UNL A   1      37.961  34.179  29.419  1.00  0.00    -0.206 F 
ATOM     78  C   UNL A   1      35.699  34.795  29.334  1.00  0.00     0.059 A 
ATOM     79  C   UNL A   1      34.139  33.881  30.955  1.00  0.00     0.059 A 
ATOM     80  F   UNL A   1      34.914  32.429  32.622  1.00  0.00    -0.206 F 
ATOM     81  C   UNL A   1      34.409  34.702  29.861  1.00  0.00     0.060 A 
BRANCH  81  82
ATOM     82  S   UNL A   1      33.085  35.662  29.094  1.00  0.00     0.124 S 
ATOM     83  O   UNL A   1      32.337  36.113  30.261  1.00  0.00    -0.237 OA
ATOM     84  O   UNL A   1      33.830  36.690  28.375  1.00  0.00    -0.237 OA
ATOM     85  O   UNL A   1      32.409  34.682  28.249  1.00  0.00    -0.744 OA
ENDBRANCH  81  82
ENDBRANCH  49  74
BRANCH  61  86
ATOM     86  C   UNL A   1      39.785  34.535  37.074  1.00  0.00     0.058 A 
ATOM     87  C   UNL A   1      40.412  35.782  36.920  1.00  0.00     0.135 A 
ATOM     88  C   UNL A   1      38.984  34.345  38.213  1.00  0.00     0.135 A 
ATOM     89  F   UNL A   1      41.189  36.020  35.851  1.00  0.00    -0.206 F 
ATOM     90  C   UNL A   1      40.288  36.783  37.878  1.00  0.00     0.059 A 
ATOM     91  C   UNL A   1      38.818  35.345  39.167  1.00  0.00     0.059 A 
ATOM     92  F   UNL A   1      38.347  33.180  38.405  1.00  0.00    -0.206 F 
ATOM     93  C   UNL A   1      39.490  36.554  39.000  1.00  0.00     0.060 A 
BRANCH  93  94
ATOM     94  S   UNL A   1      39.334  37.863  40.233  1.00  0.00     0.124 S 
ATOM     95  O   UNL A   1      38.981  37.102  41.428  1.00  0.00    -0.237 OA
ATOM     96  O   UNL A   1      40.668  38.455  40.230  1.00  0.00    -0.237 OA
ATOM     97  O   UNL A   1      38.276  38.714  39.695  1.00  0.00    -0.744 OA
ENDBRANCH  93  94
ENDBRANCH  61  86
ENDBRANCH  35  36
ENDBRANCH  28  30
ENDBRANCH  27  28
ENDBRANCH  26  27
ENDBRANCH  25  26
ENDBRANCH  24  25
ENDBRANCH  23  24
ENDBRANCH  22  23
ENDBRANCH   1  22
TORSDOF 26
ENDMDL
MODEL 2
REMARK VINA RESULT:      -8.2      6.614     12.332
REMARK SMILES Cc1c(C[NH2+]CC(=O)OCCOCCOCCOCCOC(=O)c2ccc(-c3c4nc(c(-c5c(F)cc(S(=O)(=O)[O-])cc5F)c5ccc([nH]5)c(-c5c(F)cc(S(=O)(=O)[O-])cc5F)c5nc(c(-c6c(F)cc(S(=O)(=O)[O-])cc6F)c6ccc3[nH]6)C=C5)C=C4)cc2)cnn1C
REMARK SMILES IDX 15 1 14 2 13 3 12 4 11 5 10 6 9 7 7 8 8 9 6 10 5 11 4 14
REMARK SMILES IDX 3 15 1 16 2 17 92 18 90 19 91 20 93 21 16 22 17 23 18 24
REMARK SMILES IDX 19 25 20 26 21 27 22 28 23 29 24 30 25 31 89 32 26 33 88 34
REMARK SMILES IDX 27 35 28 36 29 37 82 38 30 39 87 40 81 41 83 42 31 43 86 44
REMARK SMILES IDX 80 45 79 46 32 48 66 49 45 50 65 51 46 52 49 53 64 54 84 55
REMARK SMILES IDX 47 56 48 57 63 59 85 60 50 61 33 62 34 63 43 64 35 65 36 66
REMARK SMILES IDX 42 67 44 68 37 69 38 70 39 71 40 72 41 73 67 74 68 75 77 76
REMARK SMILES IDX 69 77 70 78 76 79 78 80 71 81 72 82 73 83 74 84 75 85 51 86
REMARK SMILES IDX 52 87 61 88 53 89 54 90 60 91 62 92 55 93 56 94 57 95 58 96
REMARK SMILES IDX 59 97
REMARK H PARENT 5 12 5 13 83 47 49 58
REMARK Flexibility Score: inf
ROOT
ATOM      1  O   UNL A   1      32.278  30.543  26.628  1.00  0.00    -0.377 OA
ENDROOT
BRANCH   1   2
ATOM      2  C   UNL A   1      33.337  29.801  26.066  1.00  0.00     0.188 C 
BRANCH   2   3
ATOM      3  C   UNL A   1      33.043  28.322  25.783  1.00  0.00     0.188 C 
BRANCH   3   4
ATOM      4  O   UNL A   1      31.925  27.966  24.996  1.00  0.00    -0.376 OA
BRANCH   4   5
ATOM      5  C   UNL A   1      31.919  26.771  24.227  1.00  0.00     0.202 C 
BRANCH   5   6
ATOM      6  C   UNL A   1      31.234  25.457  24.654  1.00  0.00     0.261 C 
BRANCH   6   7
ATOM      7  O   UNL A   1      31.427  25.011  26.005  1.00  0.00    -0.459 OA
BRANCH   7   8
ATOM      8  C   UNL A   1      31.009  23.759  26.299  1.00  0.00     0.361 C 
ATOM      9  O   UNL A   1      30.376  23.477  27.316  1.00  0.00    -0.245 OA
BRANCH   8  10
ATOM     10  C   UNL A   1      31.360  22.677  25.278  1.00  0.00     0.385 C 
BRANCH  10  11
ATOM     11  N   UNL A   1      32.744  22.227  25.076  1.00  0.00    -0.333 N 
ATOM     12  H   UNL A   1      32.788  21.243  25.340  1.00  0.00     0.347 HD
ATOM     13  H   UNL A   1      32.942  22.419  24.095  1.00  0.00     0.347 HD
BRANCH  11  14
ATOM     14  C   UNL A   1      33.782  22.927  25.814  1.00  0.00     0.301 C 
BRANCH  14  15
ATOM     15  C   UNL A   1      35.103  22.313  25.454  1.00  0.00     0.047 A 
ATOM     16  C   UNL A   1      34.526  19.822  24.944  1.00  0.00     0.067 C 
ATOM     17  C   UNL A   1      35.414  20.999  25.124  1.00  0.00     0.044 A 
ATOM     18  N   UNL A   1      36.779  20.960  24.983  1.00  0.00    -0.272 N 
ATOM     19  C   UNL A   1      36.350  22.984  25.374  1.00  0.00     0.145 A 
ATOM     20  N   UNL A   1      37.360  22.169  25.068  1.00  0.00    -0.181 NA
ATOM     21  C   UNL A   1      37.613  19.793  24.805  1.00  0.00     0.174 C 
ENDBRANCH  14  15
ENDBRANCH  11  14
ENDBRANCH  10  11
ENDBRANCH   8  10
ENDBRANCH   7   8
ENDBRANCH   6   7
ENDBRANCH   5   6
ENDBRANCH   4   5
ENDBRANCH   3   4
ENDBRANCH   2   3
ENDBRANCH   1   2
BRANCH   1  22
ATOM     22  C   UNL A   1      32.582  31.619  27.508  1.00  0.00     0.188 C 
BRANCH  22  23
ATOM     23  C   UNL A   1      34.038  32.084  27.720  1.00  0.00     0.188 C 
BRANCH  23  24
ATOM     24  O   UNL A   1      34.217  33.489  27.829  1.00  0.00    -0.376 OA
BRANCH  24  25
ATOM     25  C   UNL A   1      35.259  33.969  28.669  1.00  0.00     0.202 C 
BRANCH  25  26
ATOM     26  C   UNL A   1      36.574  33.171  28.692  1.00  0.00     0.261 C 
BRANCH  26  27
ATOM     27  O   UNL A   1      37.057  32.798  29.992  1.00  0.00    -0.460 OA
BRANCH  27  28
ATOM     28  C   UNL A   1      36.857  31.526  30.386  1.00  0.00     0.338 C 
ATOM     29  O   UNL A   1      35.831  31.060  30.864  1.00  0.00    -0.246 OA
BRANCH  28  30
ATOM     30  C   UNL A   1      38.017  30.717  29.965  1.00  0.00     0.060 A 
ATOM     31  C   UNL A   1      39.036  30.479  30.894  1.00  0.00     0.016 A 
ATOM     32  C   UNL A   1      38.114  30.219  28.664  1.00  0.00     0.016 A 
ATOM     33  C   UNL A   1      40.185  29.793  30.505  1.00  0.00     0.010 A 
ATOM     34  C   UNL A   1      39.278  29.548  28.270  1.00  0.00     0.010 A 
ATOM     35  C   UNL A   1      40.336  29.368  29.178  1.00  0.00    -0.014 A 
BRANCH  35  36
ATOM     36  C   UNL A   1      41.674  28.917  28.715  1.00  0.00     0.031 A 
ATOM     37  C   UNL A   1      42.811  29.908  28.721  1.00  0.00     0.074 A 
ATOM     38  C   UNL A   1      41.898  27.634  28.375  1.00  0.00     0.049 A 
ATOM     39  N   UNL A   1      44.064  29.738  28.389  1.00  0.00    -0.248 NA
ATOM     40  C   UNL A   1      42.490  31.274  29.172  1.00  0.00     0.031 C 
ATOM     41  C   UNL A   1      40.892  26.572  28.370  1.00  0.00     0.029 A 
ATOM     42  N   UNL A   1      43.050  27.005  27.972  1.00  0.00    -0.354 N 
ATOM     43  C   UNL A   1      44.684  30.964  28.605  1.00  0.00     0.074 A 
ATOM     44  C   UNL A   1      43.660  31.883  29.050  1.00  0.00     0.031 C 
ATOM     45  C   UNL A   1      41.471  25.423  27.978  1.00  0.00     0.029 A 
ATOM     46  C   UNL A   1      42.880  25.672  27.679  1.00  0.00     0.049 A 
ATOM     47  H   UNL A   1      43.917  27.466  27.900  1.00  0.00     0.167 HD
ATOM     48  C   UNL A   1      45.992  31.288  28.470  1.00  0.00     0.037 A 
ATOM     49  C   UNL A   1      43.759  24.765  27.206  1.00  0.00     0.037 A 
ATOM     50  C   UNL A   1      47.007  30.375  28.014  1.00  0.00     0.049 A 
ATOM     51  C   UNL A   1      45.192  25.181  26.969  1.00  0.00     0.074 A 
ATOM     52  C   UNL A   1      48.356  30.615  27.819  1.00  0.00     0.029 A 
ATOM     53  N   UNL A   1      46.787  29.046  27.686  1.00  0.00    -0.354 N 
ATOM     54  N   UNL A   1      45.765  26.342  27.189  1.00  0.00    -0.248 NA
ATOM     55  C   UNL A   1      46.101  24.161  26.428  1.00  0.00     0.031 C 
ATOM     56  C   UNL A   1      48.944  29.445  27.329  1.00  0.00     0.029 A 
ATOM     57  C   UNL A   1      47.973  28.458  27.275  1.00  0.00     0.049 A 
ATOM     58  H   UNL A   1      45.918  28.588  27.736  1.00  0.00     0.167 HD
ATOM     59  C   UNL A   1      47.105  26.176  26.850  1.00  0.00     0.074 A 
ATOM     60  C   UNL A   1      47.261  24.799  26.430  1.00  0.00     0.031 C 
ATOM     61  C   UNL A   1      48.118  27.079  26.879  1.00  0.00     0.037 A 
BRANCH  48  62
ATOM     62  C   UNL A   1      46.405  32.693  28.818  1.00  0.00     0.058 A 
ATOM     63  C   UNL A   1      46.371  33.723  27.864  1.00  0.00     0.135 A 
ATOM     64  C   UNL A   1      46.776  33.029  30.130  1.00  0.00     0.135 A 
ATOM     65  F   UNL A   1      46.044  33.454  26.590  1.00  0.00    -0.206 F 
ATOM     66  C   UNL A   1      46.697  35.034  28.196  1.00  0.00     0.059 A 
ATOM     67  C   UNL A   1      47.080  34.339  30.491  1.00  0.00     0.059 A 
ATOM     68  F   UNL A   1      46.832  32.083  31.080  1.00  0.00    -0.206 F 
ATOM     69  C   UNL A   1      47.043  35.333  29.515  1.00  0.00     0.060 A 
BRANCH  69  70
ATOM     70  S   UNL A   1      47.423  37.048  29.934  1.00  0.00     0.124 S 
ATOM     71  O   UNL A   1      47.001  37.107  31.332  1.00  0.00    -0.237 OA
ATOM     72  O   UNL A   1      48.862  37.112  29.705  1.00  0.00    -0.237 OA
ATOM     73  O   UNL A   1      46.605  37.817  29.001  1.00  0.00    -0.744 OA
ENDBRANCH  69  70
ENDBRANCH  48  62
BRANCH  49  74
ATOM     74  C   UNL A   1      43.323  23.374  26.893  1.00  0.00     0.058 A 
ATOM     75  C   UNL A   1      43.037  22.451  27.911  1.00  0.00     0.135 A 
ATOM     76  C   UNL A   1      43.251  22.920  25.566  1.00  0.00     0.135 A 
ATOM     77  F   UNL A   1      43.099  22.829  29.197  1.00  0.00    -0.206 F 
ATOM     78  C   UNL A   1      42.742  21.120  27.629  1.00  0.00     0.059 A 
ATOM     79  C   UNL A   1      42.924  21.603  25.257  1.00  0.00     0.059 A 
ATOM     80  F   UNL A   1      43.503  23.761  24.551  1.00  0.00    -0.206 F 
ATOM     81  C   UNL A   1      42.694  20.704  26.297  1.00  0.00     0.060 A 
BRANCH  81  82
ATOM     82  S   UNL A   1      42.319  18.974  25.940  1.00  0.00     0.124 S 
ATOM     83  O   UNL A   1      40.862  18.992  25.900  1.00  0.00    -0.237 OA
ATOM     84  O   UNL A   1      42.991  18.773  24.660  1.00  0.00    -0.237 OA
ATOM     85  O   UNL A   1      42.912  18.264  27.068  1.00  0.00    -0.744 OA
ENDBRANCH  81  82
ENDBRANCH  49  74
BRANCH  61  86
ATOM     86  C   UNL A   1      49.492  26.595  26.499  1.00  0.00     0.058 A 
ATOM     87  C   UNL A   1      50.008  26.759  25.203  1.00  0.00     0.135 A 
ATOM     88  C   UNL A   1      50.317  25.980  27.455  1.00  0.00     0.135 A 
ATOM     89  F   UNL A   1      49.263  27.340  24.249  1.00  0.00    -0.206 F 
ATOM     90  C   UNL A   1      51.271  26.292  24.858  1.00  0.00     0.059 A 
ATOM     91  C   UNL A   1      51.598  25.536  27.140  1.00  0.00     0.059 A 
ATOM     92  F   UNL A   1      49.884  25.811  28.714  1.00  0.00    -0.206 F 
ATOM     93  C   UNL A   1      52.059  25.679  25.834  1.00  0.00     0.060 A 
BRANCH  93  94
ATOM     94  S   UNL A   1      53.699  25.082  25.373  1.00  0.00     0.124 S 
ATOM     95  O   UNL A   1      53.878  25.694  24.060  1.00  0.00    -0.237 OA
ATOM     96  O   UNL A   1      54.538  25.619  26.441  1.00  0.00    -0.237 OA
ATOM     97  O   UNL A   1      53.547  23.630  25.375  1.00  0.00    -0.744 OA
ENDBRANCH  93  94
ENDBRANCH  61  86
ENDBRANCH  35  36
ENDBRANCH  28  30
ENDBRANCH  27  28
ENDBRANCH  26  27
ENDBRANCH  25  26
ENDBRANCH  24  25
ENDBRANCH  23  24
ENDBRANCH  22  23
ENDBRANCH   1  22
TORSDOF 26
ENDMDL
MODEL 3
REMARK VINA RESULT:      -8.1      6.357     10.697
REMARK SMILES Cc1c(C[NH2+]CC(=O)OCCOCCOCCOCCOC(=O)c2ccc(-c3c4nc(c(-c5c(F)cc(S(=O)(=O)[O-])cc5F)c5ccc([nH]5)c(-c5c(F)cc(S(=O)(=O)[O-])cc5F)c5nc(c(-c6c(F)cc(S(=O)(=O)[O-])cc6F)c6ccc3[nH]6)C=C5)C=C4)cc2)cnn1C
REMARK SMILES IDX 15 1 14 2 13 3 12 4 11 5 10 6 9 7 7 8 8 9 6 10 5 11 4 14
REMARK SMILES IDX 3 15 1 16 2 17 92 18 90 19 91 20 93 21 16 22 17 23 18 24
REMARK SMILES IDX 19 25 20 26 21 27 22 28 23 29 24 30 25 31 89 32 26 33 88 34
REMARK SMILES IDX 27 35 28 36 29 37 82 38 30 39 87 40 81 41 83 42 31 43 86 44
REMARK SMILES IDX 80 45 79 46 32 48 66 49 45 50 65 51 46 52 49 53 64 54 84 55
REMARK SMILES IDX 47 56 48 57 63 59 85 60 50 61 33 62 34 63 43 64 35 65 36 66
REMARK SMILES IDX 42 67 44 68 37 69 38 70 39 71 40 72 41 73 67 74 68 75 77 76
REMARK SMILES IDX 69 77 70 78 76 79 78 80 71 81 72 82 73 83 74 84 75 85 51 86
REMARK SMILES IDX 52 87 61 88 53 89 54 90 60 91 62 92 55 93 56 94 57 95 58 96
REMARK SMILES IDX 59 97
REMARK H PARENT 5 12 5 13 83 47 49 58
REMARK Flexibility Score: inf
ROOT
ATOM      1  O   UNL A   1      34.057  20.433  25.665  1.00  0.00    -0.377 OA
ENDROOT
BRANCH   1   2
ATOM      2  C   UNL A   1      34.035  21.489  26.601  1.00  0.00     0.188 C 
BRANCH   2   3
ATOM      3  C   UNL A   1      33.403  22.799  26.118  1.00  0.00     0.188 C 
BRANCH   3   4
ATOM      4  O   UNL A   1      32.050  22.818  25.709  1.00  0.00    -0.376 OA
BRANCH   4   5
ATOM      5  C   UNL A   1      31.617  23.644  24.637  1.00  0.00     0.202 C 
BRANCH   5   6
ATOM      6  C   UNL A   1      32.557  24.408  23.683  1.00  0.00     0.261 C 
BRANCH   6   7
ATOM      7  O   UNL A   1      32.207  25.757  23.338  1.00  0.00    -0.459 OA
BRANCH   7   8
ATOM      8  C   UNL A   1      33.164  26.501  22.738  1.00  0.00     0.361 C 
ATOM      9  O   UNL A   1      33.934  26.056  21.889  1.00  0.00    -0.245 OA
BRANCH   8  10
ATOM     10  C   UNL A   1      33.244  27.965  23.169  1.00  0.00     0.385 C 
BRANCH  10  11
ATOM     11  N   UNL A   1      34.034  28.384  24.334  1.00  0.00    -0.333 N 
ATOM     12  H   UNL A   1      34.921  27.883  24.300  1.00  0.00     0.347 HD
ATOM     13  H   UNL A   1      34.108  29.398  24.251  1.00  0.00     0.347 HD
BRANCH  11  14
ATOM     14  C   UNL A   1      33.451  28.156  25.646  1.00  0.00     0.301 C 
BRANCH  14  15
ATOM     15  C   UNL A   1      33.915  29.253  26.559  1.00  0.00     0.047 A 
ATOM     16  C   UNL A   1      31.913  30.921  26.613  1.00  0.00     0.067 C 
ATOM     17  C   UNL A   1      33.277  30.430  26.932  1.00  0.00     0.044 A 
ATOM     18  N   UNL A   1      34.182  31.120  27.700  1.00  0.00    -0.272 N 
ATOM     19  C   UNL A   1      35.151  29.306  27.250  1.00  0.00     0.145 A 
ATOM     20  N   UNL A   1      35.303  30.426  27.958  1.00  0.00    -0.181 NA
ATOM     21  C   UNL A   1      34.067  32.474  28.195  1.00  0.00     0.174 C 
ENDBRANCH  14  15
ENDBRANCH  11  14
ENDBRANCH  10  11
ENDBRANCH   8  10
ENDBRANCH   7   8
ENDBRANCH   6   7
ENDBRANCH   5   6
ENDBRANCH   4   5
ENDBRANCH   3   4
ENDBRANCH   2   3
ENDBRANCH   1   2
BRANCH   1  22
ATOM     22  C   UNL A   1      35.272  20.140  24.986  1.00  0.00     0.188 C 
BRANCH  22  23
ATOM     23  C   UNL A   1      36.355  21.222  24.795  1.00  0.00     0.188 C 
BRANCH  23  24
ATOM     24  O   UNL A   1      37.384  21.232  25.775  1.00  0.00    -0.376 OA
BRANCH  24  25
ATOM     25  C   UNL A   1      38.727  21.068  25.341  1.00  0.00     0.202 C 
BRANCH  25  26
ATOM     26  C   UNL A   1      39.614  20.094  26.137  1.00  0.00     0.261 C 
BRANCH  26  27
ATOM     27  O   UNL A   1      40.854  19.726  25.514  1.00  0.00    -0.460 OA
BRANCH  27  28
ATOM     28  C   UNL A   1      41.963  19.753  26.276  1.00  0.00     0.338 C 
ATOM     29  O   UNL A   1      42.699  18.810  26.533  1.00  0.00    -0.246 OA
BRANCH  28  30
ATOM     30  C   UNL A   1      42.274  21.159  26.601  1.00  0.00     0.060 A 
ATOM     31  C   UNL A   1      42.305  22.093  25.559  1.00  0.00     0.016 A 
ATOM     32  C   UNL A   1      42.557  21.550  27.912  1.00  0.00     0.016 A 
ATOM     33  C   UNL A   1      42.680  23.410  25.817  1.00  0.00     0.010 A 
ATOM     34  C   UNL A   1      42.953  22.869  28.166  1.00  0.00     0.010 A 
ATOM     35  C   UNL A   1      43.057  23.795  27.112  1.00  0.00    -0.014 A 
BRANCH  35  36
ATOM     36  C   UNL A   1      43.734  25.103  27.306  1.00  0.00     0.031 A 
ATOM     37  C   UNL A   1      42.947  26.239  27.910  1.00  0.00     0.074 A 
ATOM     38  C   UNL A   1      45.042  25.258  27.029  1.00  0.00     0.049 A 
ATOM     39  N   UNL A   1      43.331  27.456  28.196  1.00  0.00    -0.248 NA
ATOM     40  C   UNL A   1      41.540  25.960  28.244  1.00  0.00     0.031 C 
ATOM     41  C   UNL A   1      45.920  24.224  26.482  1.00  0.00     0.029 A 
ATOM     42  N   UNL A   1      45.862  26.350  27.176  1.00  0.00    -0.354 N 
ATOM     43  C   UNL A   1      42.223  28.081  28.758  1.00  0.00     0.074 A 
ATOM     44  C   UNL A   1      41.137  27.126  28.726  1.00  0.00     0.031 C 
ATOM     45  C   UNL A   1      47.157  24.733  26.336  1.00  0.00     0.029 A 
ATOM     46  C   UNL A   1      47.153  26.134  26.751  1.00  0.00     0.049 A 
ATOM     47  H   UNL A   1      45.555  27.207  27.550  1.00  0.00     0.167 HD
ATOM     48  C   UNL A   1      42.125  29.329  29.275  1.00  0.00     0.037 A 
ATOM     49  C   UNL A   1      48.202  26.979  26.690  1.00  0.00     0.037 A 
ATOM     50  C   UNL A   1      43.204  30.282  29.293  1.00  0.00     0.049 A 
ATOM     51  C   UNL A   1      48.037  28.397  27.183  1.00  0.00     0.074 A 
ATOM     52  C   UNL A   1      43.196  31.582  29.771  1.00  0.00     0.029 A 
ATOM     53  N   UNL A   1      44.483  30.041  28.815  1.00  0.00    -0.354 N 
ATOM     54  N   UNL A   1      46.985  28.969  27.722  1.00  0.00    -0.248 NA
ATOM     55  C   UNL A   1      49.204  29.282  27.069  1.00  0.00     0.031 C 
ATOM     56  C   UNL A   1      44.457  32.141  29.541  1.00  0.00     0.029 A 
ATOM     57  C   UNL A   1      45.268  31.171  28.973  1.00  0.00     0.049 A 
ATOM     58  H   UNL A   1      44.787  29.192  28.420  1.00  0.00     0.167 HD
ATOM     59  C   UNL A   1      47.379  30.266  28.043  1.00  0.00     0.074 A 
ATOM     60  C   UNL A   1      48.770  30.386  27.658  1.00  0.00     0.031 C 
ATOM     61  C   UNL A   1      46.658  31.270  28.603  1.00  0.00     0.037 A 
BRANCH  48  62
ATOM     62  C   UNL A   1      40.803  29.740  29.866  1.00  0.00     0.058 A 
ATOM     63  C   UNL A   1      39.681  29.975  29.056  1.00  0.00     0.135 A 
ATOM     64  C   UNL A   1      40.638  29.839  31.257  1.00  0.00     0.135 A 
ATOM     65  F   UNL A   1      39.787  29.915  27.719  1.00  0.00    -0.206 F 
ATOM     66  C   UNL A   1      38.444  30.299  29.603  1.00  0.00     0.059 A 
ATOM     67  C   UNL A   1      39.403  30.135  31.827  1.00  0.00     0.059 A 
ATOM     68  F   UNL A   1      41.679  29.631  32.078  1.00  0.00    -0.206 F 
ATOM     69  C   UNL A   1      38.313  30.370  30.991  1.00  0.00     0.060 A 
BRANCH  69  70
ATOM     70  S   UNL A   1      36.689  30.752  31.681  1.00  0.00     0.124 S 
ATOM     71  O   UNL A   1      35.934  29.551  31.335  1.00  0.00    -0.237 OA
ATOM     72  O   UNL A   1      36.988  30.925  33.098  1.00  0.00    -0.237 OA
ATOM     73  O   UNL A   1      36.294  31.965  30.972  1.00  0.00    -0.744 OA
ENDBRANCH  69  70
ENDBRANCH  48  62
BRANCH  49  74
ATOM     74  C   UNL A   1      49.506  26.533  26.120  1.00  0.00     0.058 A 
ATOM     75  C   UNL A   1      50.410  25.767  26.873  1.00  0.00     0.135 A 
ATOM     76  C   UNL A   1      49.903  26.924  24.832  1.00  0.00     0.135 A 
ATOM     77  F   UNL A   1      50.085  25.372  28.114  1.00  0.00    -0.206 F 
ATOM     78  C   UNL A   1      51.675  25.445  26.390  1.00  0.00     0.059 A 
ATOM     79  C   UNL A   1      51.149  26.585  24.312  1.00  0.00     0.059 A 
ATOM     80  F   UNL A   1      49.076  27.648  24.062  1.00  0.00    -0.206 F 
ATOM     81  C   UNL A   1      52.038  25.865  25.109  1.00  0.00     0.060 A 
BRANCH  81  82
ATOM     82  S   UNL A   1      53.684  25.451  24.492  1.00  0.00     0.124 S 
ATOM     83  O   UNL A   1      54.529  26.310  25.312  1.00  0.00    -0.237 OA
ATOM     84  O   UNL A   1      53.764  24.021  24.771  1.00  0.00    -0.237 OA
ATOM     85  O   UNL A   1      53.608  25.803  23.077  1.00  0.00    -0.744 OA
ENDBRANCH  81  82
ENDBRANCH  49  74
BRANCH  61  86
ATOM     86  C   UNL A   1      47.372  32.565  28.884  1.00  0.00     0.058 A 
ATOM     87  C   UNL A   1      48.012  32.813  30.110  1.00  0.00     0.135 A 
ATOM     88  C   UNL A   1      47.440  33.566  27.900  1.00  0.00     0.135 A 
ATOM     89  F   UNL A   1      47.979  31.892  31.087  1.00  0.00    -0.206 F 
ATOM     90  C   UNL A   1      48.653  34.020  30.366  1.00  0.00     0.059 A 
ATOM     91  C   UNL A   1      48.107  34.768  28.123  1.00  0.00     0.059 A 
ATOM     92  F   UNL A   1      46.862  33.379  26.704  1.00  0.00    -0.206 F 
ATOM     93  C   UNL A   1      48.694  34.993  29.366  1.00  0.00     0.060 A 
BRANCH  93  94
ATOM     94  S   UNL A   1      49.534  36.553  29.709  1.00  0.00     0.124 S 
ATOM     95  O   UNL A   1      48.418  37.412  30.093  1.00  0.00    -0.237 OA
ATOM     96  O   UNL A   1      50.449  36.184  30.786  1.00  0.00    -0.237 OA
ATOM     97  O   UNL A   1      50.173  36.884  28.439  1.00  0.00    -0.744 OA
ENDBRANCH  93  94
ENDBRANCH  61  86
ENDBRANCH  35  36
ENDBRANCH  28  30
ENDBRANCH  27  28
ENDBRANCH  26  27
ENDBRANCH  25  26
ENDBRANCH  24  25
ENDBRANCH  23  24
ENDBRANCH  22  23
ENDBRANCH   1  22
TORSDOF 26
ENDMDL
