MODEL 1
REMARK VINA RESULT:      -8.1      0.000      0.000
REMARK SMILES C[N@H+]1CC[C@H]2CN(C(=O)c3csc(-c4ccncc4)n3)C[C@@]2(C(=O)OCCOCCOCCOCCOC(=O)c2ccc(-c3c4nc(c(-c5c(F)cc(S(=O)(=O)[O-])cc5F)c5ccc([nH]5)c(-c5c(F)cc(S(=O)(=O)[O-])cc5F)c5nc(c(-c6c(F)cc(S(=O)(=O)[O-])cc6F)c6ccc3[nH]6)C=C5)C=C4)cc2)C1
REMARK SMILES IDX 31 1 30 2 29 3 28 4 27 5 26 6 25 7 23 8 24 9 22 10 1 11 2 12
REMARK SMILES IDX 3 13 106 14 4 16 5 17 21 18 6 19 7 20 8 21 9 22 10 23 11 24
REMARK SMILES IDX 20 25 12 26 13 27 14 28 15 29 19 30 16 31 18 32 17 33 32 34
REMARK SMILES IDX 33 35 34 36 35 37 36 38 37 39 38 40 39 41 40 42 41 43 105 44
REMARK SMILES IDX 42 45 104 46 43 47 44 48 45 49 98 50 46 51 103 52 97 53
REMARK SMILES IDX 99 54 47 55 102 56 96 57 95 58 48 60 82 61 61 62 81 63 62 64
REMARK SMILES IDX 65 65 80 66 100 67 63 68 64 69 79 71 101 72 66 73 49 74
REMARK SMILES IDX 50 75 59 76 51 77 52 78 58 79 60 80 53 81 54 82 55 83 56 84
REMARK SMILES IDX 57 85 83 86 84 87 93 88 85 89 86 90 92 91 94 92 87 93 88 94
REMARK SMILES IDX 89 95 90 96 91 97 67 98 68 99 77 100 69 101 70 102 76 103
REMARK SMILES IDX 78 104 71 105 72 106 73 107 74 108 75 109
REMARK H PARENT 2 15 99 59 65 70
REMARK Flexibility Score: inf
ROOT
ATOM      1  O   UNL A   1      50.329  40.651  30.510  1.00  0.00    -0.377 OA
ENDROOT
BRANCH   1   2
ATOM      2  C   UNL A   1      49.702  41.742  29.896  1.00  0.00     0.188 C 
BRANCH   2   3
ATOM      3  C   UNL A   1      48.175  41.716  29.830  1.00  0.00     0.188 C 
BRANCH   3   4
ATOM      4  O   UNL A   1      47.458  40.806  29.019  1.00  0.00    -0.376 OA
BRANCH   4   5
ATOM      5  C   UNL A   1      47.592  41.009  27.603  1.00  0.00     0.202 C 
BRANCH   5   6
ATOM      6  C   UNL A   1      47.152  42.399  27.030  1.00  0.00     0.261 C 
BRANCH   6   7
ATOM      7  O   UNL A   1      45.757  42.463  26.634  1.00  0.00    -0.463 OA
BRANCH   7   8
ATOM      8  C   UNL A   1      45.118  43.497  25.951  1.00  0.00     0.320 C 
ATOM      9  O   UNL A   1      45.307  44.683  26.144  1.00  0.00    -0.251 OA
BRANCH   8  10
ATOM     10  C   UNL A   1      44.399  42.809  24.741  1.00  0.00     0.139 C 
ATOM     11  C   UNL A   1      46.073  45.339  22.480  1.00  0.00     0.332 C 
ATOM     12  N   UNL A   1      44.976  44.510  22.973  1.00  0.00    -0.336 N 
ATOM     13  C   UNL A   1      44.007  44.178  21.948  1.00  0.00     0.262 C 
ATOM     14  C   UNL A   1      45.403  43.273  23.639  1.00  0.00     0.283 C 
ATOM     15  H   UNL A   1      44.534  45.106  23.673  1.00  0.00     0.347 HD
ATOM     16  C   UNL A   1      43.070  43.105  22.491  1.00  0.00     0.068 C 
ATOM     17  C   UNL A   1      42.995  43.032  24.056  1.00  0.00     0.039 C 
ATOM     18  C   UNL A   1      44.246  41.351  25.302  1.00  0.00     0.145 C 
ATOM     19  C   UNL A   1      42.156  41.776  24.309  1.00  0.00     0.125 C 
ATOM     20  N   UNL A   1      42.804  41.129  25.392  1.00  0.00    -0.336 N 
BRANCH  20  21
ATOM     21  C   UNL A   1      42.047  40.338  26.240  1.00  0.00     0.273 C 
ATOM     22  O   UNL A   1      40.885  40.038  25.951  1.00  0.00    -0.267 OA
BRANCH  21  23
ATOM     23  C   UNL A   1      42.606  39.949  27.535  1.00  0.00     0.139 A 
ATOM     24  C   UNL A   1      42.763  38.624  27.908  1.00  0.00     0.101 A 
ATOM     25  N   UNL A   1      42.834  40.865  28.563  1.00  0.00    -0.231 NA
ATOM     26  S   UNL A   1      43.247  38.515  29.542  1.00  0.00    -0.122 S 
ATOM     27  C   UNL A   1      43.155  40.229  29.673  1.00  0.00     0.124 A 
BRANCH  27  28
ATOM     28  C   UNL A   1      43.341  40.857  30.980  1.00  0.00     0.013 A 
ATOM     29  C   UNL A   1      42.243  41.400  31.654  1.00  0.00     0.031 A 
ATOM     30  C   UNL A   1      44.600  40.919  31.583  1.00  0.00     0.031 A 
ATOM     31  C   UNL A   1      42.450  41.967  32.899  1.00  0.00     0.111 A 
ATOM     32  C   UNL A   1      44.707  41.512  32.829  1.00  0.00     0.111 A 
ATOM     33  N   UNL A   1      43.654  42.036  33.499  1.00  0.00    -0.265 NA
ENDBRANCH  27  28
ENDBRANCH  21  23
ENDBRANCH  20  21
ENDBRANCH   8  10
ENDBRANCH   7   8
ENDBRANCH   6   7
ENDBRANCH   5   6
ENDBRANCH   4   5
ENDBRANCH   3   4
ENDBRANCH   2   3
ENDBRANCH   1   2
BRANCH   1  34
ATOM     34  C   UNL A   1      49.954  40.444  31.859  1.00  0.00     0.188 C 
BRANCH  34  35
ATOM     35  C   UNL A   1      50.627  39.288  32.632  1.00  0.00     0.188 C 
BRANCH  35  36
ATOM     36  O   UNL A   1      51.904  38.875  32.145  1.00  0.00    -0.376 OA
BRANCH  36  37
ATOM     37  C   UNL A   1      51.906  37.746  31.269  1.00  0.00     0.202 C 
BRANCH  37  38
ATOM     38  C   UNL A   1      50.780  36.707  31.444  1.00  0.00     0.261 C 
BRANCH  38  39
ATOM     39  O   UNL A   1      50.281  36.103  30.241  1.00  0.00    -0.460 OA
BRANCH  39  40
ATOM     40  C   UNL A   1      49.015  36.389  29.867  1.00  0.00     0.338 C 
ATOM     41  O   UNL A   1      48.561  37.499  29.633  1.00  0.00    -0.246 OA
BRANCH  40  42
ATOM     42  C   UNL A   1      48.345  35.110  29.526  1.00  0.00     0.060 A 
ATOM     43  C   UNL A   1      48.168  34.162  30.550  1.00  0.00     0.016 A 
ATOM     44  C   UNL A   1      47.754  34.907  28.273  1.00  0.00     0.016 A 
ATOM     45  C   UNL A   1      47.390  33.025  30.327  1.00  0.00     0.010 A 
ATOM     46  C   UNL A   1      47.030  33.734  28.033  1.00  0.00     0.010 A 
ATOM     47  C   UNL A   1      46.865  32.779  29.052  1.00  0.00    -0.014 A 
BRANCH  47  48
ATOM     48  C   UNL A   1      46.429  31.402  28.720  1.00  0.00     0.031 A 
ATOM     49  C   UNL A   1      45.006  31.046  29.058  1.00  0.00     0.074 A 
ATOM     50  C   UNL A   1      47.229  30.511  28.107  1.00  0.00     0.049 A 
ATOM     51  N   UNL A   1      44.366  29.920  28.893  1.00  0.00    -0.248 NA
ATOM     52  C   UNL A   1      44.196  32.117  29.665  1.00  0.00     0.031 C 
ATOM     53  C   UNL A   1      48.605  30.752  27.683  1.00  0.00     0.029 A 
ATOM     54  N   UNL A   1      46.985  29.210  27.738  1.00  0.00    -0.354 N 
ATOM     55  C   UNL A   1      43.082  30.147  29.377  1.00  0.00     0.074 A 
ATOM     56  C   UNL A   1      43.041  31.505  29.867  1.00  0.00     0.031 C 
ATOM     57  C   UNL A   1      49.092  29.628  27.125  1.00  0.00     0.029 A 
ATOM     58  C   UNL A   1      48.071  28.580  27.178  1.00  0.00     0.049 A 
ATOM     59  H   UNL A   1      46.114  28.770  27.862  1.00  0.00     0.167 HD
ATOM     60  C   UNL A   1      42.028  29.302  29.402  1.00  0.00     0.037 A 
ATOM     61  C   UNL A   1      48.224  27.300  26.780  1.00  0.00     0.037 A 
ATOM     62  C   UNL A   1      42.079  27.946  28.929  1.00  0.00     0.049 A 
ATOM     63  C   UNL A   1      47.060  26.346  26.896  1.00  0.00     0.074 A 
ATOM     64  C   UNL A   1      41.066  27.005  28.907  1.00  0.00     0.029 A 
ATOM     65  N   UNL A   1      43.209  27.333  28.408  1.00  0.00    -0.354 N 
ATOM     66  N   UNL A   1      45.843  26.576  27.333  1.00  0.00    -0.248 NA
ATOM     67  C   UNL A   1      47.286  24.960  26.462  1.00  0.00     0.031 C 
ATOM     68  C   UNL A   1      41.599  25.806  28.427  1.00  0.00     0.029 A 
ATOM     69  C   UNL A   1      42.926  26.017  28.088  1.00  0.00     0.049 A 
ATOM     70  H   UNL A   1      44.082  27.770  28.285  1.00  0.00     0.167 HD
ATOM     71  C   UNL A   1      45.153  25.374  27.200  1.00  0.00     0.074 A 
ATOM     72  C   UNL A   1      46.085  24.423  26.630  1.00  0.00     0.031 C 
ATOM     73  C   UNL A   1      43.866  25.084  27.516  1.00  0.00     0.037 A 
BRANCH  60  74
ATOM     74  C   UNL A   1      40.748  29.814  29.999  1.00  0.00     0.058 A 
ATOM     75  C   UNL A   1      40.599  30.008  31.382  1.00  0.00     0.135 A 
ATOM     76  C   UNL A   1      39.655  30.122  29.173  1.00  0.00     0.135 A 
ATOM     77  F   UNL A   1      41.602  29.700  32.220  1.00  0.00    -0.206 F 
ATOM     78  C   UNL A   1      39.405  30.468  31.927  1.00  0.00     0.059 A 
ATOM     79  C   UNL A   1      38.463  30.614  29.693  1.00  0.00     0.059 A 
ATOM     80  F   UNL A   1      39.739  29.943  27.846  1.00  0.00    -0.206 F 
ATOM     81  C   UNL A   1      38.343  30.771  31.073  1.00  0.00     0.060 A 
BRANCH  81  82
ATOM     82  S   UNL A   1      36.805  31.378  31.795  1.00  0.00     0.124 S 
ATOM     83  O   UNL A   1      36.048  30.140  31.951  1.00  0.00    -0.237 OA
ATOM     84  O   UNL A   1      37.267  31.998  33.033  1.00  0.00    -0.237 OA
ATOM     85  O   UNL A   1      36.297  32.302  30.786  1.00  0.00    -0.744 OA
ENDBRANCH  81  82
ENDBRANCH  60  74
BRANCH  61  86
ATOM     86  C   UNL A   1      49.536  26.832  26.250  1.00  0.00     0.058 A 
ATOM     87  C   UNL A   1      49.901  27.041  24.912  1.00  0.00     0.135 A 
ATOM     88  C   UNL A   1      50.449  26.157  27.076  1.00  0.00     0.135 A 
ATOM     89  F   UNL A   1      49.056  27.663  24.076  1.00  0.00    -0.206 F 
ATOM     90  C   UNL A   1      51.120  26.594  24.409  1.00  0.00     0.059 A 
ATOM     91  C   UNL A   1      51.685  25.725  26.603  1.00  0.00     0.059 A 
ATOM     92  F   UNL A   1      50.153  25.931  28.365  1.00  0.00    -0.206 F 
ATOM     93  C   UNL A   1      52.009  25.943  25.266  1.00  0.00     0.060 A 
BRANCH  93  94
ATOM     94  S   UNL A   1      53.622  25.439  24.629  1.00  0.00     0.124 S 
ATOM     95  O   UNL A   1      53.597  26.003  23.284  1.00  0.00    -0.237 OA
ATOM     96  O   UNL A   1      54.535  26.074  25.574  1.00  0.00    -0.237 OA
ATOM     97  O   UNL A   1      53.570  23.981  24.707  1.00  0.00    -0.744 OA
ENDBRANCH  93  94
ENDBRANCH  61  86
BRANCH  73  98
ATOM     98  C   UNL A   1      43.370  23.693  27.222  1.00  0.00     0.058 A 
ATOM     99  C   UNL A   1      43.376  22.681  28.194  1.00  0.00     0.135 A 
ATOM    100  C   UNL A   1      42.824  23.387  25.964  1.00  0.00     0.135 A 
ATOM    101  F   UNL A   1      43.889  22.918  29.413  1.00  0.00    -0.206 F 
ATOM    102  C   UNL A   1      42.884  21.409  27.923  1.00  0.00     0.059 A 
ATOM    103  C   UNL A   1      42.296  22.132  25.680  1.00  0.00     0.059 A 
ATOM    104  F   UNL A   1      42.778  24.321  25.001  1.00  0.00    -0.206 F 
ATOM    105  C   UNL A   1      42.344  21.144  26.662  1.00  0.00     0.060 A 
BRANCH 105 106
ATOM    106  S   UNL A   1      41.682  19.497  26.333  1.00  0.00     0.124 S 
ATOM    107  O   UNL A   1      41.964  18.810  27.589  1.00  0.00    -0.237 OA
ATOM    108  O   UNL A   1      40.275  19.774  26.064  1.00  0.00    -0.237 OA
ATOM    109  O   UNL A   1      42.457  19.043  25.181  1.00  0.00    -0.744 OA
ENDBRANCH 105 106
ENDBRANCH  73  98
ENDBRANCH  47  48
ENDBRANCH  40  42
ENDBRANCH  39  40
ENDBRANCH  38  39
ENDBRANCH  37  38
ENDBRANCH  36  37
ENDBRANCH  35  36
ENDBRANCH  34  35
ENDBRANCH   1  34
TORSDOF 26
ENDMDL
MODEL 2
REMARK VINA RESULT:      -8.0      5.051     11.092
REMARK SMILES C[N@H+]1CC[C@H]2CN(C(=O)c3csc(-c4ccncc4)n3)C[C@@]2(C(=O)OCCOCCOCCOCCOC(=O)c2ccc(-c3c4nc(c(-c5c(F)cc(S(=O)(=O)[O-])cc5F)c5ccc([nH]5)c(-c5c(F)cc(S(=O)(=O)[O-])cc5F)c5nc(c(-c6c(F)cc(S(=O)(=O)[O-])cc6F)c6ccc3[nH]6)C=C5)C=C4)cc2)C1
REMARK SMILES IDX 31 1 30 2 29 3 28 4 27 5 26 6 25 7 23 8 24 9 22 10 1 11 2 12
REMARK SMILES IDX 3 13 106 14 4 16 5 17 21 18 6 19 7 20 8 21 9 22 10 23 11 24
REMARK SMILES IDX 20 25 12 26 13 27 14 28 15 29 19 30 16 31 18 32 17 33 32 34
REMARK SMILES IDX 33 35 34 36 35 37 36 38 37 39 38 40 39 41 40 42 41 43 105 44
REMARK SMILES IDX 42 45 104 46 43 47 44 48 45 49 98 50 46 51 103 52 97 53
REMARK SMILES IDX 99 54 47 55 102 56 96 57 95 58 48 60 82 61 61 62 81 63 62 64
REMARK SMILES IDX 65 65 80 66 100 67 63 68 64 69 79 71 101 72 66 73 49 74
REMARK SMILES IDX 50 75 59 76 51 77 52 78 58 79 60 80 53 81 54 82 55 83 56 84
REMARK SMILES IDX 57 85 83 86 84 87 93 88 85 89 86 90 92 91 94 92 87 93 88 94
REMARK SMILES IDX 89 95 90 96 91 97 67 98 68 99 77 100 69 101 70 102 76 103
REMARK SMILES IDX 78 104 71 105 72 106 73 107 74 108 75 109
REMARK H PARENT 2 15 99 59 65 70
REMARK Flexibility Score: inf
ROOT
ATOM      1  O   UNL A   1      39.042  32.200  34.440  1.00  0.00    -0.377 OA
ENDROOT
BRANCH   1   2
ATOM      2  C   UNL A   1      38.677  30.872  34.189  1.00  0.00     0.188 C 
BRANCH   2   3
ATOM      3  C   UNL A   1      39.612  30.053  33.299  1.00  0.00     0.188 C 
BRANCH   3   4
ATOM      4  O   UNL A   1      39.678  28.640  33.352  1.00  0.00    -0.376 OA
BRANCH   4   5
ATOM      5  C   UNL A   1      41.005  28.091  33.416  1.00  0.00     0.202 C 
BRANCH   5   6
ATOM      6  C   UNL A   1      41.955  28.363  32.200  1.00  0.00     0.261 C 
BRANCH   6   7
ATOM      7  O   UNL A   1      41.435  27.903  30.925  1.00  0.00    -0.463 OA
BRANCH   7   8
ATOM      8  C   UNL A   1      42.131  27.231  29.920  1.00  0.00     0.320 C 
ATOM      9  O   UNL A   1      43.124  26.550  30.093  1.00  0.00    -0.251 OA
BRANCH   8  10
ATOM     10  C   UNL A   1      41.200  27.295  28.662  1.00  0.00     0.139 C 
ATOM     11  C   UNL A   1      43.176  24.409  27.220  1.00  0.00     0.332 C 
ATOM     12  N   UNL A   1      42.477  25.691  27.196  1.00  0.00    -0.336 N 
ATOM     13  C   UNL A   1      41.935  26.020  25.893  1.00  0.00     0.262 C 
ATOM     14  C   UNL A   1      41.412  25.818  28.199  1.00  0.00     0.283 C 
ATOM     15  H   UNL A   1      43.212  26.357  27.433  1.00  0.00     0.347 HD
ATOM     16  C   UNL A   1      41.007  27.221  26.040  1.00  0.00     0.068 C 
ATOM     17  C   UNL A   1      41.274  28.103  27.309  1.00  0.00     0.039 C 
ATOM     18  C   UNL A   1      39.898  27.886  29.310  1.00  0.00     0.145 C 
ATOM     19  C   UNL A   1      40.105  29.093  27.302  1.00  0.00     0.125 C 
ATOM     20  N   UNL A   1      39.706  29.181  28.659  1.00  0.00    -0.336 N 
BRANCH  20  21
ATOM     21  C   UNL A   1      39.119  30.354  29.103  1.00  0.00     0.273 C 
ATOM     22  O   UNL A   1      39.780  31.195  29.718  1.00  0.00    -0.267 OA
BRANCH  21  23
ATOM     23  C   UNL A   1      37.678  30.537  28.925  1.00  0.00     0.139 A 
ATOM     24  C   UNL A   1      36.916  29.703  28.124  1.00  0.00     0.101 A 
ATOM     25  N   UNL A   1      37.001  31.671  29.380  1.00  0.00    -0.231 NA
ATOM     26  S   UNL A   1      35.326  30.306  27.971  1.00  0.00    -0.122 S 
ATOM     27  C   UNL A   1      35.763  31.671  28.924  1.00  0.00     0.124 A 
BRANCH  27  28
ATOM     28  C   UNL A   1      34.804  32.761  29.094  1.00  0.00     0.013 A 
ATOM     29  C   UNL A   1      33.948  33.105  28.044  1.00  0.00     0.031 A 
ATOM     30  C   UNL A   1      34.714  33.469  30.295  1.00  0.00     0.031 A 
ATOM     31  C   UNL A   1      33.037  34.126  28.245  1.00  0.00     0.111 A 
ATOM     32  C   UNL A   1      33.774  34.479  30.398  1.00  0.00     0.111 A 
ATOM     33  N   UNL A   1      32.932  34.821  29.395  1.00  0.00    -0.265 NA
ENDBRANCH  27  28
ENDBRANCH  21  23
ENDBRANCH  20  21
ENDBRANCH   8  10
ENDBRANCH   7   8
ENDBRANCH   6   7
ENDBRANCH   5   6
ENDBRANCH   4   5
ENDBRANCH   3   4
ENDBRANCH   2   3
ENDBRANCH   1   2
BRANCH   1  34
ATOM     34  C   UNL A   1      37.976  33.030  34.862  1.00  0.00     0.188 C 
BRANCH  34  35
ATOM     35  C   UNL A   1      38.310  34.240  35.764  1.00  0.00     0.188 C 
BRANCH  35  36
ATOM     36  O   UNL A   1      39.622  34.253  36.327  1.00  0.00    -0.376 OA
BRANCH  36  37
ATOM     37  C   UNL A   1      39.728  34.761  37.658  1.00  0.00     0.202 C 
BRANCH  37  38
ATOM     38  C   UNL A   1      41.004  34.417  38.452  1.00  0.00     0.261 C 
BRANCH  38  39
ATOM     39  O   UNL A   1      40.858  33.445  39.498  1.00  0.00    -0.460 OA
BRANCH  39  40
ATOM     40  C   UNL A   1      41.870  32.574  39.699  1.00  0.00     0.338 C 
ATOM     41  O   UNL A   1      42.131  31.993  40.741  1.00  0.00    -0.246 OA
BRANCH  40  42
ATOM     42  C   UNL A   1      42.444  32.235  38.373  1.00  0.00     0.060 A 
ATOM     43  C   UNL A   1      41.600  31.633  37.422  1.00  0.00     0.016 A 
ATOM     44  C   UNL A   1      43.731  32.647  38.008  1.00  0.00     0.016 A 
ATOM     45  C   UNL A   1      42.037  31.458  36.108  1.00  0.00     0.010 A 
ATOM     46  C   UNL A   1      44.189  32.410  36.706  1.00  0.00     0.010 A 
ATOM     47  C   UNL A   1      43.351  31.795  35.759  1.00  0.00    -0.014 A 
BRANCH  47  48
ATOM     48  C   UNL A   1      43.925  31.219  34.520  1.00  0.00     0.031 A 
ATOM     49  C   UNL A   1      43.979  32.123  33.318  1.00  0.00     0.074 A 
ATOM     50  C   UNL A   1      44.419  29.969  34.457  1.00  0.00     0.049 A 
ATOM     51  N   UNL A   1      44.413  31.881  32.111  1.00  0.00    -0.248 NA
ATOM     52  C   UNL A   1      43.473  33.494  33.514  1.00  0.00     0.031 C 
ATOM     53  C   UNL A   1      44.471  29.017  35.563  1.00  0.00     0.029 A 
ATOM     54  N   UNL A   1      44.973  29.289  33.400  1.00  0.00    -0.354 N 
ATOM     55  C   UNL A   1      44.231  33.066  31.406  1.00  0.00     0.074 A 
ATOM     56  C   UNL A   1      43.621  34.015  32.308  1.00  0.00     0.031 C 
ATOM     57  C   UNL A   1      45.013  27.866  35.122  1.00  0.00     0.029 A 
ATOM     58  C   UNL A   1      45.320  27.992  33.697  1.00  0.00     0.049 A 
ATOM     59  H   UNL A   1      45.111  29.692  32.513  1.00  0.00     0.167 HD
ATOM     60  C   UNL A   1      44.551  33.342  30.122  1.00  0.00     0.037 A 
ATOM     61  C   UNL A   1      45.805  27.018  32.899  1.00  0.00     0.037 A 
ATOM     62  C   UNL A   1      45.141  32.389  29.223  1.00  0.00     0.049 A 
ATOM     63  C   UNL A   1      46.076  27.320  31.444  1.00  0.00     0.074 A 
ATOM     64  C   UNL A   1      45.507  32.567  27.902  1.00  0.00     0.029 A 
ATOM     65  N   UNL A   1      45.438  31.073  29.549  1.00  0.00    -0.354 N 
ATOM     66  N   UNL A   1      45.922  28.450  30.792  1.00  0.00    -0.248 NA
ATOM     67  C   UNL A   1      46.589  26.219  30.617  1.00  0.00     0.031 C 
ATOM     68  C   UNL A   1      45.971  31.343  27.411  1.00  0.00     0.029 A 
ATOM     69  C   UNL A   1      45.956  30.419  28.445  1.00  0.00     0.049 A 
ATOM     70  H   UNL A   1      45.300  30.666  30.434  1.00  0.00     0.167 HD
ATOM     71  C   UNL A   1      46.346  28.202  29.489  1.00  0.00     0.074 A 
ATOM     72  C   UNL A   1      46.774  26.819  29.449  1.00  0.00     0.031 C 
ATOM     73  C   UNL A   1      46.382  29.041  28.424  1.00  0.00     0.037 A 
BRANCH  60  74
ATOM     74  C   UNL A   1      44.227  34.717  29.611  1.00  0.00     0.058 A 
ATOM     75  C   UNL A   1      42.952  35.048  29.125  1.00  0.00     0.135 A 
ATOM     76  C   UNL A   1      45.209  35.722  29.615  1.00  0.00     0.135 A 
ATOM     77  F   UNL A   1      41.987  34.117  29.070  1.00  0.00    -0.206 F 
ATOM     78  C   UNL A   1      42.666  36.320  28.640  1.00  0.00     0.059 A 
ATOM     79  C   UNL A   1      44.935  37.010  29.165  1.00  0.00     0.059 A 
ATOM     80  F   UNL A   1      46.447  35.456  30.056  1.00  0.00    -0.206 F 
ATOM     81  C   UNL A   1      43.665  37.295  28.667  1.00  0.00     0.060 A 
BRANCH  81  82
ATOM     82  S   UNL A   1      43.275  38.943  28.045  1.00  0.00     0.124 S 
ATOM     83  O   UNL A   1      41.927  39.141  28.568  1.00  0.00    -0.237 OA
ATOM     84  O   UNL A   1      44.318  39.760  28.655  1.00  0.00    -0.237 OA
ATOM     85  O   UNL A   1      43.369  38.791  26.596  1.00  0.00    -0.744 OA
ENDBRANCH  81  82
ENDBRANCH  60  74
BRANCH  61  86
ATOM     86  C   UNL A   1      46.051  25.654  33.447  1.00  0.00     0.058 A 
ATOM     87  C   UNL A   1      47.301  25.290  33.967  1.00  0.00     0.135 A 
ATOM     88  C   UNL A   1      45.036  24.684  33.451  1.00  0.00     0.135 A 
ATOM     89  F   UNL A   1      48.311  26.173  33.968  1.00  0.00    -0.206 F 
ATOM     90  C   UNL A   1      47.540  24.013  34.468  1.00  0.00     0.059 A 
ATOM     91  C   UNL A   1      45.242  23.409  33.971  1.00  0.00     0.059 A 
ATOM     92  F   UNL A   1      43.821  24.978  32.967  1.00  0.00    -0.206 F 
ATOM     93  C   UNL A   1      46.501  23.082  34.473  1.00  0.00     0.060 A 
BRANCH  93  94
ATOM     94  S   UNL A   1      46.791  21.453  35.200  1.00  0.00     0.124 S 
ATOM     95  O   UNL A   1      47.142  20.666  34.023  1.00  0.00    -0.237 OA
ATOM     96  O   UNL A   1      47.877  21.727  36.136  1.00  0.00    -0.237 OA
ATOM     97  O   UNL A   1      45.509  21.132  35.820  1.00  0.00    -0.744 OA
ENDBRANCH  93  94
ENDBRANCH  61  86
BRANCH  73  98
ATOM     98  C   UNL A   1      46.934  28.507  27.129  1.00  0.00     0.058 A 
ATOM     99  C   UNL A   1      48.312  28.489  26.861  1.00  0.00     0.135 A 
ATOM    100  C   UNL A   1      46.073  27.950  26.169  1.00  0.00     0.135 A 
ATOM    101  F   UNL A   1      49.179  29.012  27.743  1.00  0.00    -0.206 F 
ATOM    102  C   UNL A   1      48.814  27.963  25.676  1.00  0.00     0.059 A 
ATOM    103  C   UNL A   1      46.556  27.388  24.991  1.00  0.00     0.059 A 
ATOM    104  F   UNL A   1      44.748  27.926  26.380  1.00  0.00    -0.206 F 
ATOM    105  C   UNL A   1      47.928  27.412  24.747  1.00  0.00     0.060 A 
BRANCH 105 106
ATOM    106  S   UNL A   1      48.597  26.706  23.226  1.00  0.00     0.124 S 
ATOM    107  O   UNL A   1      48.135  25.325  23.315  1.00  0.00    -0.237 OA
ATOM    108  O   UNL A   1      47.960  27.522  22.197  1.00  0.00    -0.237 OA
ATOM    109  O   UNL A   1      50.038  26.896  23.366  1.00  0.00    -0.744 OA
ENDBRANCH 105 106
ENDBRANCH  73  98
ENDBRANCH  47  48
ENDBRANCH  40  42
ENDBRANCH  39  40
ENDBRANCH  38  39
ENDBRANCH  37  38
ENDBRANCH  36  37
ENDBRANCH  35  36
ENDBRANCH  34  35
ENDBRANCH   1  34
TORSDOF 26
ENDMDL
MODEL 3
REMARK VINA RESULT:      -8.0      2.448      9.107
REMARK SMILES C[N@H+]1CC[C@H]2CN(C(=O)c3csc(-c4ccncc4)n3)C[C@@]2(C(=O)OCCOCCOCCOCCOC(=O)c2ccc(-c3c4nc(c(-c5c(F)cc(S(=O)(=O)[O-])cc5F)c5ccc([nH]5)c(-c5c(F)cc(S(=O)(=O)[O-])cc5F)c5nc(c(-c6c(F)cc(S(=O)(=O)[O-])cc6F)c6ccc3[nH]6)C=C5)C=C4)cc2)C1
REMARK SMILES IDX 31 1 30 2 29 3 28 4 27 5 26 6 25 7 23 8 24 9 22 10 1 11 2 12
REMARK SMILES IDX 3 13 106 14 4 16 5 17 21 18 6 19 7 20 8 21 9 22 10 23 11 24
REMARK SMILES IDX 20 25 12 26 13 27 14 28 15 29 19 30 16 31 18 32 17 33 32 34
REMARK SMILES IDX 33 35 34 36 35 37 36 38 37 39 38 40 39 41 40 42 41 43 105 44
REMARK SMILES IDX 42 45 104 46 43 47 44 48 45 49 98 50 46 51 103 52 97 53
REMARK SMILES IDX 99 54 47 55 102 56 96 57 95 58 48 60 82 61 61 62 81 63 62 64
REMARK SMILES IDX 65 65 80 66 100 67 63 68 64 69 79 71 101 72 66 73 49 74
REMARK SMILES IDX 50 75 59 76 51 77 52 78 58 79 60 80 53 81 54 82 55 83 56 84
REMARK SMILES IDX 57 85 83 86 84 87 93 88 85 89 86 90 92 91 94 92 87 93 88 94
REMARK SMILES IDX 89 95 90 96 91 97 67 98 68 99 77 100 69 101 70 102 76 103
REMARK SMILES IDX 78 104 71 105 72 106 73 107 74 108 75 109
REMARK H PARENT 2 15 99 59 65 70
REMARK Flexibility Score: inf
ROOT
ATOM      1  O   UNL A   1      48.093  37.864  29.555  1.00  0.00    -0.377 OA
ENDROOT
BRANCH   1   2
ATOM      2  C   UNL A   1      47.199  37.541  28.527  1.00  0.00     0.188 C 
BRANCH   2   3
ATOM      3  C   UNL A   1      47.803  37.236  27.156  1.00  0.00     0.188 C 
BRANCH   3   4
ATOM      4  O   UNL A   1      47.152  37.562  25.943  1.00  0.00    -0.376 OA
BRANCH   4   5
ATOM      5  C   UNL A   1      46.400  38.786  25.961  1.00  0.00     0.202 C 
BRANCH   5   6
ATOM      6  C   UNL A   1      47.201  40.126  25.834  1.00  0.00     0.261 C 
BRANCH   6   7
ATOM      7  O   UNL A   1      46.477  41.190  25.163  1.00  0.00    -0.463 OA
BRANCH   7   8
ATOM      8  C   UNL A   1      46.598  41.587  23.831  1.00  0.00     0.320 C 
ATOM      9  O   UNL A   1      46.857  40.845  22.902  1.00  0.00    -0.251 OA
BRANCH   8  10
ATOM     10  C   UNL A   1      46.035  43.048  23.784  1.00  0.00     0.139 C 
ATOM     11  C   UNL A   1      48.366  43.896  26.639  1.00  0.00     0.332 C 
ATOM     12  N   UNL A   1      47.111  43.910  25.893  1.00  0.00    -0.336 N 
ATOM     13  C   UNL A   1      46.311  45.091  26.145  1.00  0.00     0.262 C 
ATOM     14  C   UNL A   1      47.267  43.743  24.443  1.00  0.00     0.283 C 
ATOM     15  H   UNL A   1      46.622  43.089  26.251  1.00  0.00     0.347 HD
ATOM     16  C   UNL A   1      45.175  45.137  25.129  1.00  0.00     0.068 C 
ATOM     17  C   UNL A   1      44.812  43.753  24.489  1.00  0.00     0.039 C 
ATOM     18  C   UNL A   1      45.618  43.135  22.273  1.00  0.00     0.145 C 
ATOM     19  C   UNL A   1      43.803  44.122  23.398  1.00  0.00     0.125 C 
ATOM     20  N   UNL A   1      44.167  43.316  22.290  1.00  0.00    -0.336 N 
BRANCH  20  21
ATOM     21  C   UNL A   1      43.185  42.951  21.385  1.00  0.00     0.273 C 
ATOM     22  O   UNL A   1      42.349  42.091  21.676  1.00  0.00    -0.267 OA
BRANCH  21  23
ATOM     23  C   UNL A   1      43.214  43.522  20.038  1.00  0.00     0.139 A 
ATOM     24  C   UNL A   1      42.824  42.804  18.919  1.00  0.00     0.101 A 
ATOM     25  N   UNL A   1      43.819  44.747  19.751  1.00  0.00    -0.231 NA
ATOM     26  S   UNL A   1      43.169  43.681  17.494  1.00  0.00    -0.122 S 
ATOM     27  C   UNL A   1      43.873  44.930  18.446  1.00  0.00     0.124 A 
BRANCH  27  28
ATOM     28  C   UNL A   1      44.550  46.041  17.779  1.00  0.00     0.013 A 
ATOM     29  C   UNL A   1      43.809  47.136  17.326  1.00  0.00     0.031 A 
ATOM     30  C   UNL A   1      45.934  46.039  17.590  1.00  0.00     0.031 A 
ATOM     31  C   UNL A   1      44.484  48.180  16.718  1.00  0.00     0.111 A 
ATOM     32  C   UNL A   1      46.517  47.128  16.966  1.00  0.00     0.111 A 
ATOM     33  N   UNL A   1      45.818  48.200  16.527  1.00  0.00    -0.265 NA
ENDBRANCH  27  28
ENDBRANCH  21  23
ENDBRANCH  20  21
ENDBRANCH   8  10
ENDBRANCH   7   8
ENDBRANCH   6   7
ENDBRANCH   5   6
ENDBRANCH   4   5
ENDBRANCH   3   4
ENDBRANCH   2   3
ENDBRANCH   1   2
BRANCH   1  34
ATOM     34  C   UNL A   1      48.106  39.235  29.909  1.00  0.00     0.188 C 
BRANCH  34  35
ATOM     35  C   UNL A   1      49.328  39.773  30.689  1.00  0.00     0.188 C 
BRANCH  35  36
ATOM     36  O   UNL A   1      50.362  38.825  30.955  1.00  0.00    -0.376 OA
BRANCH  36  37
ATOM     37  C   UNL A   1      50.314  38.188  32.234  1.00  0.00     0.202 C 
BRANCH  37  38
ATOM     38  C   UNL A   1      49.660  36.794  32.311  1.00  0.00     0.261 C 
BRANCH  38  39
ATOM     39  O   UNL A   1      50.453  35.694  31.842  1.00  0.00    -0.460 OA
BRANCH  39  40
ATOM     40  C   UNL A   1      50.489  35.459  30.512  1.00  0.00     0.338 C 
ATOM     41  O   UNL A   1      51.300  35.912  29.718  1.00  0.00    -0.246 OA
BRANCH  40  42
ATOM     42  C   UNL A   1      49.547  34.350  30.224  1.00  0.00     0.060 A 
ATOM     43  C   UNL A   1      49.257  33.443  31.259  1.00  0.00     0.016 A 
ATOM     44  C   UNL A   1      48.835  34.292  29.020  1.00  0.00     0.016 A 
ATOM     45  C   UNL A   1      48.248  32.492  31.097  1.00  0.00     0.010 A 
ATOM     46  C   UNL A   1      47.870  33.295  28.836  1.00  0.00     0.010 A 
ATOM     47  C   UNL A   1      47.589  32.379  29.866  1.00  0.00    -0.014 A 
BRANCH  47  48
ATOM     48  C   UNL A   1      46.856  31.126  29.568  1.00  0.00     0.031 A 
ATOM     49  C   UNL A   1      47.644  30.024  28.913  1.00  0.00     0.074 A 
ATOM     50  C   UNL A   1      45.564  30.940  29.896  1.00  0.00     0.049 A 
ATOM     51  N   UNL A   1      47.259  28.836  28.531  1.00  0.00    -0.248 NA
ATOM     52  C   UNL A   1      49.068  30.307  28.659  1.00  0.00     0.031 C 
ATOM     53  C   UNL A   1      44.710  31.909  30.577  1.00  0.00     0.029 A 
ATOM     54  N   UNL A   1      44.746  29.856  29.689  1.00  0.00    -0.354 N 
ATOM     55  C   UNL A   1      48.389  28.234  27.991  1.00  0.00     0.074 A 
ATOM     56  C   UNL A   1      49.467  29.194  28.068  1.00  0.00     0.031 C 
ATOM     57  C   UNL A   1      43.480  31.382  30.718  1.00  0.00     0.029 A 
ATOM     58  C   UNL A   1      43.452  30.050  30.113  1.00  0.00     0.049 A 
ATOM     59  H   UNL A   1      45.056  29.018  29.277  1.00  0.00     0.167 HD
ATOM     60  C   UNL A   1      48.522  26.988  27.484  1.00  0.00     0.037 A 
ATOM     61  C   UNL A   1      42.371  29.250  29.999  1.00  0.00     0.037 A 
ATOM     62  C   UNL A   1      47.443  26.043  27.393  1.00  0.00     0.049 A 
ATOM     63  C   UNL A   1      42.520  27.894  29.351  1.00  0.00     0.074 A 
ATOM     64  C   UNL A   1      47.472  24.753  26.898  1.00  0.00     0.029 A 
ATOM     65  N   UNL A   1      46.139  26.292  27.795  1.00  0.00    -0.354 N 
ATOM     66  N   UNL A   1      43.598  27.325  28.864  1.00  0.00    -0.248 NA
ATOM     67  C   UNL A   1      41.307  27.071  29.238  1.00  0.00     0.031 C 
ATOM     68  C   UNL A   1      46.171  24.242  26.946  1.00  0.00     0.029 A 
ATOM     69  C   UNL A   1      45.346  25.189  27.532  1.00  0.00     0.049 A 
ATOM     70  H   UNL A   1      45.824  27.130  28.205  1.00  0.00     0.167 HD
ATOM     71  C   UNL A   1      43.200  26.068  28.415  1.00  0.00     0.074 A 
ATOM     72  C   UNL A   1      41.784  25.957  28.700  1.00  0.00     0.031 C 
ATOM     73  C   UNL A   1      43.937  25.094  27.826  1.00  0.00     0.037 A 
BRANCH  60  74
ATOM     74  C   UNL A   1      49.873  26.600  26.952  1.00  0.00     0.058 A 
ATOM     75  C   UNL A   1      50.858  26.027  27.773  1.00  0.00     0.135 A 
ATOM     76  C   UNL A   1      50.183  26.797  25.597  1.00  0.00     0.135 A 
ATOM     77  F   UNL A   1      50.624  25.845  29.083  1.00  0.00    -0.206 F 
ATOM     78  C   UNL A   1      52.110  25.685  27.275  1.00  0.00     0.059 A 
ATOM     79  C   UNL A   1      51.418  26.433  25.070  1.00  0.00     0.059 A 
ATOM     80  F   UNL A   1      49.283  27.352  24.771  1.00  0.00    -0.206 F 
ATOM     81  C   UNL A   1      52.379  25.889  25.921  1.00  0.00     0.060 A 
BRANCH  81  82
ATOM     82  S   UNL A   1      54.005  25.429  25.288  1.00  0.00     0.124 S 
ATOM     83  O   UNL A   1      54.718  25.110  26.521  1.00  0.00    -0.237 OA
ATOM     84  O   UNL A   1      53.693  24.295  24.424  1.00  0.00    -0.237 OA
ATOM     85  O   UNL A   1      54.455  26.634  24.597  1.00  0.00    -0.744 OA
ENDBRANCH  81  82
ENDBRANCH  60  74
BRANCH  61  86
ATOM     86  C   UNL A   1      41.043  29.712  30.491  1.00  0.00     0.058 A 
ATOM     87  C   UNL A   1      40.744  29.755  31.860  1.00  0.00     0.135 A 
ATOM     88  C   UNL A   1      40.040  30.113  29.593  1.00  0.00     0.135 A 
ATOM     89  F   UNL A   1      41.661  29.363  32.759  1.00  0.00    -0.206 F 
ATOM     90  C   UNL A   1      39.500  30.173  32.325  1.00  0.00     0.059 A 
ATOM     91  C   UNL A   1      38.798  30.561  30.034  1.00  0.00     0.059 A 
ATOM     92  F   UNL A   1      40.270  30.094  28.272  1.00  0.00    -0.206 F 
ATOM     93  C   UNL A   1      38.536  30.582  31.403  1.00  0.00     0.060 A 
BRANCH  93  94
ATOM     94  S   UNL A   1      36.953  31.202  32.014  1.00  0.00     0.124 S 
ATOM     95  O   UNL A   1      36.947  32.562  31.488  1.00  0.00    -0.237 OA
ATOM     96  O   UNL A   1      36.006  30.274  31.403  1.00  0.00    -0.237 OA
ATOM     97  O   UNL A   1      37.085  31.082  33.464  1.00  0.00    -0.744 OA
ENDBRANCH  93  94
ENDBRANCH  61  86
BRANCH  73  98
ATOM     98  C   UNL A   1      43.243  23.803  27.479  1.00  0.00     0.058 A 
ATOM     99  C   UNL A   1      42.919  22.848  28.455  1.00  0.00     0.135 A 
ATOM    100  C   UNL A   1      42.843  23.548  26.156  1.00  0.00     0.135 A 
ATOM    101  F   UNL A   1      43.280  23.040  29.734  1.00  0.00    -0.206 F 
ATOM    102  C   UNL A   1      42.248  21.675  28.128  1.00  0.00     0.059 A 
ATOM    103  C   UNL A   1      42.143  22.397  25.812  1.00  0.00     0.059 A 
ATOM    104  F   UNL A   1      43.113  24.434  25.184  1.00  0.00    -0.206 F 
ATOM    105  C   UNL A   1      41.862  21.459  26.804  1.00  0.00     0.060 A 
BRANCH 105 106
ATOM    106  S   UNL A   1      40.966  19.945  26.399  1.00  0.00     0.124 S 
ATOM    107  O   UNL A   1      40.912  19.279  27.697  1.00  0.00    -0.237 OA
ATOM    108  O   UNL A   1      39.695  20.458  25.898  1.00  0.00    -0.237 OA
ATOM    109  O   UNL A   1      41.815  19.302  25.400  1.00  0.00    -0.744 OA
ENDBRANCH 105 106
ENDBRANCH  73  98
ENDBRANCH  47  48
ENDBRANCH  40  42
ENDBRANCH  39  40
ENDBRANCH  38  39
ENDBRANCH  37  38
ENDBRANCH  36  37
ENDBRANCH  35  36
ENDBRANCH  34  35
ENDBRANCH   1  34
TORSDOF 26
ENDMDL
