MODEL 1
REMARK VINA RESULT:      -8.9      0.000      0.000
REMARK SMILES CCc1c(C)nc(Nc2ccc(Cl)cc2Cl)nc1OCC(=O)OCCOCCOCCOCCOC(=O)c1ccc(-c2c3nc(c(-c4c(F)cc(S(=O)(=O)[O-])cc4F)c4ccc([nH]4)c(-c4c(F)cc(S(=O)(=O)[O-])cc4F)c4nc(c(-c5c(F)cc(S(=O)(=O)[O-])cc5F)c5ccc2[nH]5)C=C4)C=C3)cc1
REMARK SMILES IDX 28 1 27 2 26 3 25 4 24 5 23 6 21 7 22 8 20 9 19 10 18 11
REMARK SMILES IDX 3 12 4 13 5 14 6 15 17 16 7 17 2 18 1 19 8 20 9 22 10 23
REMARK SMILES IDX 15 24 11 25 14 26 16 27 12 28 13 29 29 30 30 31 31 32 32 33
REMARK SMILES IDX 33 34 34 35 35 36 36 37 37 38 38 39 39 40 103 41 40 42
REMARK SMILES IDX 102 43 41 44 42 45 43 46 96 47 44 48 101 49 95 50 97 51
REMARK SMILES IDX 45 52 100 53 94 54 93 55 46 57 80 58 59 59 79 60 60 61 63 62
REMARK SMILES IDX 78 63 98 64 61 65 62 66 77 68 99 69 64 70 47 71 48 72 57 73
REMARK SMILES IDX 49 74 50 75 56 76 58 77 51 78 52 79 53 80 54 81 55 82 81 83
REMARK SMILES IDX 82 84 91 85 83 86 84 87 90 88 92 89 85 90 86 91 87 92 88 93
REMARK SMILES IDX 89 94 65 95 66 96 75 97 67 98 68 99 74 100 76 101 69 102
REMARK SMILES IDX 70 103 71 104 72 105 73 106
REMARK H PARENT 8 21 97 56 63 67
REMARK Flexibility Score: inf
ROOT
ATOM      1  C   UNL A   1      34.910  23.846  25.600  1.00  0.00     0.188 C 
ENDROOT
BRANCH   1   2
ATOM      2  C   UNL A   1      33.998  25.088  25.575  1.00  0.00     0.188 C 
BRANCH   2   3
ATOM      3  O   UNL A   1      34.561  26.391  25.587  1.00  0.00    -0.376 OA
BRANCH   3   4
ATOM      4  C   UNL A   1      33.924  27.378  26.382  1.00  0.00     0.202 C 
BRANCH   4   5
ATOM      5  C   UNL A   1      33.033  28.410  25.667  1.00  0.00     0.261 C 
BRANCH   5   6
ATOM      6  O   UNL A   1      31.625  28.089  25.561  1.00  0.00    -0.461 OA
BRANCH   6   7
ATOM      7  C   UNL A   1      31.036  27.406  26.585  1.00  0.00     0.344 C 
ATOM      8  O   UNL A   1      30.980  27.806  27.743  1.00  0.00    -0.248 OA
BRANCH   7   9
ATOM      9  C   UNL A   1      30.434  26.045  26.147  1.00  0.00     0.353 C 
BRANCH   9  10
ATOM     10  O   UNL A   1      30.179  25.842  24.770  1.00  0.00    -0.465 OA
BRANCH  10  11
ATOM     11  C   UNL A   1      30.779  24.927  23.955  1.00  0.00     0.222 A 
ATOM     12  C   UNL A   1      31.480  25.167  22.771  1.00  0.00     0.035 A 
ATOM     13  C   UNL A   1      32.309  24.108  22.380  1.00  0.00     0.050 A 
ATOM     14  C   UNL A   1      33.317  24.193  21.268  1.00  0.00     0.067 C 
ATOM     15  N   UNL A   1      32.351  22.921  23.016  1.00  0.00    -0.218 NA
ATOM     16  N   UNL A   1      30.845  23.733  24.606  1.00  0.00    -0.177 NA
ATOM     17  C   UNL A   1      31.622  22.761  24.118  1.00  0.00     0.230 A 
BRANCH  12  18
ATOM     18  C   UNL A   1      31.542  26.471  22.020  1.00  0.00     0.040 C 
ATOM     19  C   UNL A   1      32.773  27.339  22.255  1.00  0.00     0.009 C 
ENDBRANCH  12  18
BRANCH  17  20
ATOM     20  N   UNL A   1      31.772  21.580  24.855  1.00  0.00    -0.323 N 
ATOM     21  H   UNL A   1      31.386  21.557  25.760  1.00  0.00     0.170 HD
BRANCH  20  22
ATOM     22  C   UNL A   1      32.433  20.420  24.406  1.00  0.00     0.060 A 
ATOM     23  C   UNL A   1      31.939  19.732  23.288  1.00  0.00     0.029 A 
ATOM     24  C   UNL A   1      33.567  19.893  25.049  1.00  0.00     0.066 A 
ATOM     25  C   UNL A   1      32.469  18.497  22.899  1.00  0.00     0.023 A 
ATOM     26  C   UNL A   1      34.126  18.674  24.643  1.00  0.00     0.043 A 
ATOM     27  Cl  UNL A   1      34.327  20.734  26.354  1.00  0.00    -0.082 Cl
ATOM     28  C   UNL A   1      33.552  17.966  23.591  1.00  0.00     0.042 A 
ATOM     29  Cl  UNL A   1      34.185  16.429  23.146  1.00  0.00    -0.084 Cl
ENDBRANCH  20  22
ENDBRANCH  17  20
ENDBRANCH  10  11
ENDBRANCH   9  10
ENDBRANCH   7   9
ENDBRANCH   6   7
ENDBRANCH   5   6
ENDBRANCH   4   5
ENDBRANCH   3   4
ENDBRANCH   2   3
ENDBRANCH   1   2
BRANCH   1  30
ATOM     30  O   UNL A   1      36.121  24.038  24.893  1.00  0.00    -0.377 OA
BRANCH  30  31
ATOM     31  C   UNL A   1      36.723  22.841  24.448  1.00  0.00     0.188 C 
BRANCH  31  32
ATOM     32  C   UNL A   1      37.857  22.356  25.363  1.00  0.00     0.188 C 
BRANCH  32  33
ATOM     33  O   UNL A   1      38.369  23.394  26.200  1.00  0.00    -0.376 OA
BRANCH  33  34
ATOM     34  C   UNL A   1      39.693  23.278  26.691  1.00  0.00     0.202 C 
BRANCH  34  35
ATOM     35  C   UNL A   1      40.635  24.454  26.425  1.00  0.00     0.261 C 
BRANCH  35  36
ATOM     36  O   UNL A   1      42.029  24.206  26.640  1.00  0.00    -0.460 OA
BRANCH  36  37
ATOM     37  C   UNL A   1      42.865  25.264  26.630  1.00  0.00     0.338 C 
ATOM     38  O   UNL A   1      43.696  25.528  25.780  1.00  0.00    -0.246 OA
BRANCH  37  39
ATOM     39  C   UNL A   1      42.414  26.170  27.709  1.00  0.00     0.060 A 
ATOM     40  C   UNL A   1      42.726  27.529  27.590  1.00  0.00     0.016 A 
ATOM     41  C   UNL A   1      41.616  25.714  28.766  1.00  0.00     0.016 A 
ATOM     42  C   UNL A   1      42.261  28.435  28.539  1.00  0.00     0.010 A 
ATOM     43  C   UNL A   1      41.181  26.619  29.742  1.00  0.00     0.010 A 
ATOM     44  C   UNL A   1      41.536  27.974  29.646  1.00  0.00    -0.014 A 
BRANCH  44  45
ATOM     45  C   UNL A   1      41.426  28.874  30.816  1.00  0.00     0.031 A 
ATOM     46  C   UNL A   1      40.307  29.881  30.799  1.00  0.00     0.074 A 
ATOM     47  C   UNL A   1      42.217  28.732  31.894  1.00  0.00     0.049 A 
ATOM     48  N   UNL A   1      39.918  30.710  31.728  1.00  0.00    -0.248 NA
ATOM     49  C   UNL A   1      39.510  29.947  29.560  1.00  0.00     0.031 C 
ATOM     50  C   UNL A   1      43.294  27.753  32.032  1.00  0.00     0.029 A 
ATOM     51  N   UNL A   1      42.217  29.405  33.089  1.00  0.00    -0.354 N 
ATOM     52  C   UNL A   1      38.827  31.385  31.193  1.00  0.00     0.074 A 
ATOM     53  C   UNL A   1      38.638  30.900  29.846  1.00  0.00     0.031 C 
ATOM     54  C   UNL A   1      43.849  27.886  33.251  1.00  0.00     0.029 A 
ATOM     55  C   UNL A   1      43.178  28.968  33.969  1.00  0.00     0.049 A 
ATOM     56  H   UNL A   1      41.587  30.133  33.297  1.00  0.00     0.167 HD
ATOM     57  C   UNL A   1      38.043  32.320  31.778  1.00  0.00     0.037 A 
ATOM     58  C   UNL A   1      43.474  29.401  35.211  1.00  0.00     0.037 A 
ATOM     59  C   UNL A   1      38.256  32.808  33.113  1.00  0.00     0.049 A 
ATOM     60  C   UNL A   1      42.639  30.504  35.814  1.00  0.00     0.074 A 
ATOM     61  C   UNL A   1      37.535  33.762  33.807  1.00  0.00     0.029 A 
ATOM     62  N   UNL A   1      39.281  32.388  33.950  1.00  0.00    -0.354 N 
ATOM     63  N   UNL A   1      41.595  31.121  35.307  1.00  0.00    -0.248 NA
ATOM     64  C   UNL A   1      43.016  30.967  37.156  1.00  0.00     0.031 C 
ATOM     65  C   UNL A   1      38.157  33.956  35.045  1.00  0.00     0.029 A 
ATOM     66  C   UNL A   1      39.230  33.082  35.145  1.00  0.00     0.049 A 
ATOM     67  H   UNL A   1      39.946  31.698  33.725  1.00  0.00     0.167 HD
ATOM     68  C   UNL A   1      41.172  32.019  36.281  1.00  0.00     0.074 A 
ATOM     69  C   UNL A   1      42.068  31.859  37.409  1.00  0.00     0.031 C 
ATOM     70  C   UNL A   1      40.134  32.895  36.253  1.00  0.00     0.037 A 
BRANCH  57  71
ATOM     71  C   UNL A   1      36.923  32.893  30.955  1.00  0.00     0.058 A 
ATOM     72  C   UNL A   1      37.115  33.988  30.097  1.00  0.00     0.135 A 
ATOM     73  C   UNL A   1      35.630  32.352  31.042  1.00  0.00     0.135 A 
ATOM     74  F   UNL A   1      38.325  34.564  29.996  1.00  0.00    -0.206 F 
ATOM     75  C   UNL A   1      36.061  34.546  29.379  1.00  0.00     0.059 A 
ATOM     76  C   UNL A   1      34.567  32.875  30.312  1.00  0.00     0.059 A 
ATOM     77  F   UNL A   1      35.386  31.312  31.856  1.00  0.00    -0.206 F 
ATOM     78  C   UNL A   1      34.790  33.983  29.497  1.00  0.00     0.060 A 
BRANCH  78  79
ATOM     79  S   UNL A   1      33.428  34.726  28.574  1.00  0.00     0.124 S 
ATOM     80  O   UNL A   1      33.110  33.667  27.621  1.00  0.00    -0.237 OA
ATOM     81  O   UNL A   1      32.434  34.959  29.618  1.00  0.00    -0.237 OA
ATOM     82  O   UNL A   1      34.022  35.929  27.999  1.00  0.00    -0.744 OA
ENDBRANCH  78  79
ENDBRANCH  57  71
BRANCH  58  83
ATOM     83  C   UNL A   1      44.601  28.792  35.971  1.00  0.00     0.058 A 
ATOM     84  C   UNL A   1      45.897  29.327  35.912  1.00  0.00     0.135 A 
ATOM     85  C   UNL A   1      44.405  27.655  36.772  1.00  0.00     0.135 A 
ATOM     86  F   UNL A   1      46.142  30.406  35.152  1.00  0.00    -0.206 F 
ATOM     87  C   UNL A   1      46.958  28.754  36.607  1.00  0.00     0.059 A 
ATOM     88  C   UNL A   1      45.444  27.079  37.497  1.00  0.00     0.059 A 
ATOM     89  F   UNL A   1      43.185  27.103  36.870  1.00  0.00    -0.206 F 
ATOM     90  C   UNL A   1      46.720  27.630  37.401  1.00  0.00     0.060 A 
BRANCH  90  91
ATOM     91  S   UNL A   1      48.094  26.923  38.339  1.00  0.00     0.124 S 
ATOM     92  O   UNL A   1      48.917  28.100  38.587  1.00  0.00    -0.237 OA
ATOM     93  O   UNL A   1      47.412  26.361  39.501  1.00  0.00    -0.237 OA
ATOM     94  O   UNL A   1      48.658  25.940  37.418  1.00  0.00    -0.744 OA
ENDBRANCH  90  91
ENDBRANCH  58  83
BRANCH  70  95
ATOM     95  C   UNL A   1      39.889  33.717  37.489  1.00  0.00     0.058 A 
ATOM     96  C   UNL A   1      40.459  34.988  37.658  1.00  0.00     0.135 A 
ATOM     97  C   UNL A   1      39.029  33.242  38.492  1.00  0.00     0.135 A 
ATOM     98  F   UNL A   1      41.290  35.486  36.729  1.00  0.00    -0.206 F 
ATOM     99  C   UNL A   1      40.207  35.749  38.795  1.00  0.00     0.059 A 
ATOM    100  C   UNL A   1      38.739  33.998  39.623  1.00  0.00     0.059 A 
ATOM    101  F   UNL A   1      38.446  32.039  38.372  1.00  0.00    -0.206 F 
ATOM    102  C   UNL A   1      39.346  35.245  39.772  1.00  0.00     0.060 A 
BRANCH 102 103
ATOM    103  S   UNL A   1      39.010  36.251  41.233  1.00  0.00     0.124 S 
ATOM    104  O   UNL A   1      38.753  37.557  40.635  1.00  0.00    -0.237 OA
ATOM    105  O   UNL A   1      37.852  35.580  41.814  1.00  0.00    -0.237 OA
ATOM    106  O   UNL A   1      40.242  36.146  42.008  1.00  0.00    -0.744 OA
ENDBRANCH 102 103
ENDBRANCH  70  95
ENDBRANCH  44  45
ENDBRANCH  37  39
ENDBRANCH  36  37
ENDBRANCH  35  36
ENDBRANCH  34  35
ENDBRANCH  33  34
ENDBRANCH  32  33
ENDBRANCH  31  32
ENDBRANCH  30  31
ENDBRANCH   1  30
TORSDOF 28
ENDMDL
MODEL 2
REMARK VINA RESULT:      -7.5      7.774     14.930
REMARK SMILES CCc1c(C)nc(Nc2ccc(Cl)cc2Cl)nc1OCC(=O)OCCOCCOCCOCCOC(=O)c1ccc(-c2c3nc(c(-c4c(F)cc(S(=O)(=O)[O-])cc4F)c4ccc([nH]4)c(-c4c(F)cc(S(=O)(=O)[O-])cc4F)c4nc(c(-c5c(F)cc(S(=O)(=O)[O-])cc5F)c5ccc2[nH]5)C=C4)C=C3)cc1
REMARK SMILES IDX 28 1 27 2 26 3 25 4 24 5 23 6 21 7 22 8 20 9 19 10 18 11
REMARK SMILES IDX 3 12 4 13 5 14 6 15 17 16 7 17 2 18 1 19 8 20 9 22 10 23
REMARK SMILES IDX 15 24 11 25 14 26 16 27 12 28 13 29 29 30 30 31 31 32 32 33
REMARK SMILES IDX 33 34 34 35 35 36 36 37 37 38 38 39 39 40 103 41 40 42
REMARK SMILES IDX 102 43 41 44 42 45 43 46 96 47 44 48 101 49 95 50 97 51
REMARK SMILES IDX 45 52 100 53 94 54 93 55 46 57 80 58 59 59 79 60 60 61 63 62
REMARK SMILES IDX 78 63 98 64 61 65 62 66 77 68 99 69 64 70 47 71 48 72 57 73
REMARK SMILES IDX 49 74 50 75 56 76 58 77 51 78 52 79 53 80 54 81 55 82 81 83
REMARK SMILES IDX 82 84 91 85 83 86 84 87 90 88 92 89 85 90 86 91 87 92 88 93
REMARK SMILES IDX 89 94 65 95 66 96 75 97 67 98 68 99 74 100 76 101 69 102
REMARK SMILES IDX 70 103 71 104 72 105 73 106
REMARK H PARENT 8 21 97 56 63 67
REMARK Flexibility Score: inf
ROOT
ATOM      1  C   UNL A   1      53.806  25.311  32.435  1.00  0.00     0.188 C 
ENDROOT
BRANCH   1   2
ATOM      2  C   UNL A   1      53.806  26.683  33.136  1.00  0.00     0.188 C 
BRANCH   2   3
ATOM      3  O   UNL A   1      53.839  26.762  34.554  1.00  0.00    -0.376 OA
BRANCH   3   4
ATOM      4  C   UNL A   1      53.794  25.547  35.284  1.00  0.00     0.202 C 
BRANCH   4   5
ATOM      5  C   UNL A   1      52.472  25.178  35.982  1.00  0.00     0.261 C 
BRANCH   5   6
ATOM      6  O   UNL A   1      51.383  24.755  35.126  1.00  0.00    -0.461 OA
BRANCH   6   7
ATOM      7  C   UNL A   1      50.509  25.699  34.672  1.00  0.00     0.344 C 
ATOM      8  O   UNL A   1      50.512  26.873  35.026  1.00  0.00    -0.248 OA
BRANCH   7   9
ATOM      9  C   UNL A   1      49.483  25.142  33.650  1.00  0.00     0.353 C 
BRANCH   9  10
ATOM     10  O   UNL A   1      49.620  25.521  32.295  1.00  0.00    -0.465 OA
BRANCH  10  11
ATOM     11  C   UNL A   1      49.035  26.592  31.683  1.00  0.00     0.222 A 
ATOM     12  C   UNL A   1      47.672  26.825  31.490  1.00  0.00     0.035 A 
ATOM     13  C   UNL A   1      47.362  28.162  31.205  1.00  0.00     0.050 A 
ATOM     14  C   UNL A   1      45.964  28.711  31.162  1.00  0.00     0.067 C 
ATOM     15  N   UNL A   1      48.292  29.119  31.023  1.00  0.00    -0.218 NA
ATOM     16  N   UNL A   1      49.968  27.571  31.521  1.00  0.00    -0.177 NA
ATOM     17  C   UNL A   1      49.574  28.804  31.189  1.00  0.00     0.230 A 
BRANCH  12  18
ATOM     18  C   UNL A   1      46.556  25.841  31.723  1.00  0.00     0.040 C 
ATOM     19  C   UNL A   1      45.652  25.537  30.535  1.00  0.00     0.009 C 
ENDBRANCH  12  18
BRANCH  17  20
ATOM     20  N   UNL A   1      50.528  29.828  31.136  1.00  0.00    -0.323 N 
ATOM     21  H   UNL A   1      50.542  30.473  31.880  1.00  0.00     0.170 HD
BRANCH  20  22
ATOM     22  C   UNL A   1      51.469  30.011  30.104  1.00  0.00     0.060 A 
ATOM     23  C   UNL A   1      51.956  28.895  29.408  1.00  0.00     0.029 A 
ATOM     24  C   UNL A   1      51.972  31.275  29.748  1.00  0.00     0.066 A 
ATOM     25  C   UNL A   1      53.000  29.012  28.483  1.00  0.00     0.023 A 
ATOM     26  C   UNL A   1      52.992  31.404  28.797  1.00  0.00     0.043 A 
ATOM     27  Cl  UNL A   1      51.342  32.720  30.457  1.00  0.00    -0.082 Cl
ATOM     28  C   UNL A   1      53.524  30.267  28.194  1.00  0.00     0.042 A 
ATOM     29  Cl  UNL A   1      54.834  30.416  27.089  1.00  0.00    -0.084 Cl
ENDBRANCH  20  22
ENDBRANCH  17  20
ENDBRANCH  10  11
ENDBRANCH   9  10
ENDBRANCH   7   9
ENDBRANCH   6   7
ENDBRANCH   5   6
ENDBRANCH   4   5
ENDBRANCH   3   4
ENDBRANCH   2   3
ENDBRANCH   1   2
BRANCH   1  30
ATOM     30  O   UNL A   1      54.883  25.154  31.530  1.00  0.00    -0.377 OA
BRANCH  30  31
ATOM     31  C   UNL A   1      55.324  26.362  30.948  1.00  0.00     0.188 C 
BRANCH  31  32
ATOM     32  C   UNL A   1      55.187  26.383  29.418  1.00  0.00     0.188 C 
BRANCH  32  33
ATOM     33  O   UNL A   1      55.439  25.108  28.827  1.00  0.00    -0.376 OA
BRANCH  33  34
ATOM     34  C   UNL A   1      56.141  25.058  27.598  1.00  0.00     0.202 C 
BRANCH  34  35
ATOM     35  C   UNL A   1      55.357  24.586  26.372  1.00  0.00     0.261 C 
BRANCH  35  36
ATOM     36  O   UNL A   1      54.382  25.500  25.856  1.00  0.00    -0.460 OA
BRANCH  36  37
ATOM     37  C   UNL A   1      53.419  25.006  25.053  1.00  0.00     0.338 C 
ATOM     38  O   UNL A   1      53.527  24.079  24.272  1.00  0.00    -0.246 OA
BRANCH  37  39
ATOM     39  C   UNL A   1      52.148  25.633  25.480  1.00  0.00     0.060 A 
ATOM     40  C   UNL A   1      51.840  25.617  26.845  1.00  0.00     0.016 A 
ATOM     41  C   UNL A   1      51.322  26.310  24.573  1.00  0.00     0.016 A 
ATOM     42  C   UNL A   1      50.694  26.257  27.306  1.00  0.00     0.010 A 
ATOM     43  C   UNL A   1      50.150  26.921  25.032  1.00  0.00     0.010 A 
ATOM     44  C   UNL A   1      49.818  26.862  26.395  1.00  0.00    -0.014 A 
BRANCH  44  45
ATOM     45  C   UNL A   1      48.442  27.153  26.857  1.00  0.00     0.031 A 
ATOM     46  C   UNL A   1      48.146  28.572  27.265  1.00  0.00     0.074 A 
ATOM     47  C   UNL A   1      47.470  26.225  26.814  1.00  0.00     0.049 A 
ATOM     48  N   UNL A   1      47.012  29.122  27.603  1.00  0.00    -0.248 NA
ATOM     49  C   UNL A   1      49.293  29.498  27.277  1.00  0.00     0.031 C 
ATOM     50  C   UNL A   1      47.641  24.838  26.385  1.00  0.00     0.029 A 
ATOM     51  N   UNL A   1      46.137  26.321  27.119  1.00  0.00    -0.354 N 
ATOM     52  C   UNL A   1      47.306  30.457  27.856  1.00  0.00     0.074 A 
ATOM     53  C   UNL A   1      48.728  30.628  27.671  1.00  0.00     0.031 C 
ATOM     54  C   UNL A   1      46.452  24.213  26.449  1.00  0.00     0.029 A 
ATOM     55  C   UNL A   1      45.442  25.150  26.938  1.00  0.00     0.049 A 
ATOM     56  H   UNL A   1      45.716  27.153  27.438  1.00  0.00     0.167 HD
ATOM     57  C   UNL A   1      46.462  31.457  28.200  1.00  0.00     0.037 A 
ATOM     58  C   UNL A   1      44.138  24.876  27.148  1.00  0.00     0.037 A 
ATOM     59  C   UNL A   1      45.051  31.267  28.401  1.00  0.00     0.049 A 
ATOM     60  C   UNL A   1      43.229  25.987  27.613  1.00  0.00     0.074 A 
ATOM     61  C   UNL A   1      44.099  32.200  28.763  1.00  0.00     0.029 A 
ATOM     62  N   UNL A   1      44.395  30.049  28.272  1.00  0.00    -0.354 N 
ATOM     63  N   UNL A   1      43.513  27.252  27.828  1.00  0.00    -0.248 NA
ATOM     64  C   UNL A   1      41.824  25.637  27.860  1.00  0.00     0.031 C 
ATOM     65  C   UNL A   1      42.875  31.537  28.904  1.00  0.00     0.029 A 
ATOM     66  C   UNL A   1      43.054  30.201  28.573  1.00  0.00     0.049 A 
ATOM     67  H   UNL A   1      44.822  29.204  28.005  1.00  0.00     0.167 HD
ATOM     68  C   UNL A   1      42.316  27.854  28.202  1.00  0.00     0.074 A 
ATOM     69  C   UNL A   1      41.305  26.816  28.176  1.00  0.00     0.031 C 
ATOM     70  C   UNL A   1      42.070  29.148  28.532  1.00  0.00     0.037 A 
BRANCH  57  71
ATOM     71  C   UNL A   1      47.059  32.818  28.419  1.00  0.00     0.058 A 
ATOM     72  C   UNL A   1      47.162  33.761  27.383  1.00  0.00     0.135 A 
ATOM     73  C   UNL A   1      47.555  33.180  29.682  1.00  0.00     0.135 A 
ATOM     74  F   UNL A   1      46.730  33.459  26.147  1.00  0.00    -0.206 F 
ATOM     75  C   UNL A   1      47.764  35.000  27.582  1.00  0.00     0.059 A 
ATOM     76  C   UNL A   1      48.135  34.424  29.911  1.00  0.00     0.059 A 
ATOM     77  F   UNL A   1      47.494  32.313  30.706  1.00  0.00    -0.206 F 
ATOM     78  C   UNL A   1      48.251  35.320  28.850  1.00  0.00     0.060 A 
BRANCH  78  79
ATOM     79  S   UNL A   1      49.045  36.923  29.091  1.00  0.00     0.124 S 
ATOM     80  O   UNL A   1      47.888  37.804  29.219  1.00  0.00    -0.237 OA
ATOM     81  O   UNL A   1      49.816  36.709  30.312  1.00  0.00    -0.237 OA
ATOM     82  O   UNL A   1      49.835  37.098  27.876  1.00  0.00    -0.744 OA
ENDBRANCH  78  79
ENDBRANCH  57  71
BRANCH  58  83
ATOM     83  C   UNL A   1      43.612  23.502  26.915  1.00  0.00     0.058 A 
ATOM     84  C   UNL A   1      43.350  22.629  27.981  1.00  0.00     0.135 A 
ATOM     85  C   UNL A   1      43.363  23.031  25.615  1.00  0.00     0.135 A 
ATOM     86  F   UNL A   1      43.583  23.023  29.243  1.00  0.00    -0.206 F 
ATOM     87  C   UNL A   1      42.872  21.339  27.771  1.00  0.00     0.059 A 
ATOM     88  C   UNL A   1      42.861  21.755  25.380  1.00  0.00     0.059 A 
ATOM     89  F   UNL A   1      43.590  23.826  24.557  1.00  0.00    -0.206 F 
ATOM     90  C   UNL A   1      42.628  20.912  26.464  1.00  0.00     0.060 A 
BRANCH  90  91
ATOM     91  S   UNL A   1      41.960  19.252  26.203  1.00  0.00     0.124 S 
ATOM     92  O   UNL A   1      42.672  18.834  25.003  1.00  0.00    -0.237 OA
ATOM     93  O   UNL A   1      42.337  18.574  27.440  1.00  0.00    -0.237 OA
ATOM     94  O   UNL A   1      40.529  19.488  26.039  1.00  0.00    -0.744 OA
ENDBRANCH  90  91
ENDBRANCH  58  83
BRANCH  70  95
ATOM     95  C   UNL A   1      40.648  29.520  28.852  1.00  0.00     0.058 A 
ATOM     96  C   UNL A   1      39.653  29.567  27.863  1.00  0.00     0.135 A 
ATOM     97  C   UNL A   1      40.268  29.782  30.179  1.00  0.00     0.135 A 
ATOM     98  F   UNL A   1      39.964  29.327  26.580  1.00  0.00    -0.206 F 
ATOM     99  C   UNL A   1      38.337  29.890  28.174  1.00  0.00     0.059 A 
ATOM    100  C   UNL A   1      38.952  30.078  30.517  1.00  0.00     0.059 A 
ATOM    101  F   UNL A   1      41.178  29.735  31.165  1.00  0.00    -0.206 F 
ATOM    102  C   UNL A   1      37.997  30.144  29.504  1.00  0.00     0.060 A 
BRANCH 102 103
ATOM    103  S   UNL A   1      36.280  30.541  29.899  1.00  0.00     0.124 S 
ATOM    104  O   UNL A   1      36.384  31.946  30.277  1.00  0.00    -0.237 OA
ATOM    105  O   UNL A   1      35.600  30.273  28.635  1.00  0.00    -0.237 OA
ATOM    106  O   UNL A   1      35.959  29.619  30.984  1.00  0.00    -0.744 OA
ENDBRANCH 102 103
ENDBRANCH  70  95
ENDBRANCH  44  45
ENDBRANCH  37  39
ENDBRANCH  36  37
ENDBRANCH  35  36
ENDBRANCH  34  35
ENDBRANCH  33  34
ENDBRANCH  32  33
ENDBRANCH  31  32
ENDBRANCH  30  31
ENDBRANCH   1  30
TORSDOF 28
ENDMDL
MODEL 3
REMARK VINA RESULT:      -7.2      8.573     14.478
REMARK SMILES CCc1c(C)nc(Nc2ccc(Cl)cc2Cl)nc1OCC(=O)OCCOCCOCCOCCOC(=O)c1ccc(-c2c3nc(c(-c4c(F)cc(S(=O)(=O)[O-])cc4F)c4ccc([nH]4)c(-c4c(F)cc(S(=O)(=O)[O-])cc4F)c4nc(c(-c5c(F)cc(S(=O)(=O)[O-])cc5F)c5ccc2[nH]5)C=C4)C=C3)cc1
REMARK SMILES IDX 28 1 27 2 26 3 25 4 24 5 23 6 21 7 22 8 20 9 19 10 18 11
REMARK SMILES IDX 3 12 4 13 5 14 6 15 17 16 7 17 2 18 1 19 8 20 9 22 10 23
REMARK SMILES IDX 15 24 11 25 14 26 16 27 12 28 13 29 29 30 30 31 31 32 32 33
REMARK SMILES IDX 33 34 34 35 35 36 36 37 37 38 38 39 39 40 103 41 40 42
REMARK SMILES IDX 102 43 41 44 42 45 43 46 96 47 44 48 101 49 95 50 97 51
REMARK SMILES IDX 45 52 100 53 94 54 93 55 46 57 80 58 59 59 79 60 60 61 63 62
REMARK SMILES IDX 78 63 98 64 61 65 62 66 77 68 99 69 64 70 47 71 48 72 57 73
REMARK SMILES IDX 49 74 50 75 56 76 58 77 51 78 52 79 53 80 54 81 55 82 81 83
REMARK SMILES IDX 82 84 91 85 83 86 84 87 90 88 92 89 85 90 86 91 87 92 88 93
REMARK SMILES IDX 89 94 65 95 66 96 75 97 67 98 68 99 74 100 76 101 69 102
REMARK SMILES IDX 70 103 71 104 72 105 73 106
REMARK H PARENT 8 21 97 56 63 67
REMARK Flexibility Score: inf
ROOT
ATOM      1  C   UNL A   1      41.545  30.756  31.841  1.00  0.00     0.188 C 
ENDROOT
BRANCH   1   2
ATOM      2  C   UNL A   1      41.410  30.345  33.321  1.00  0.00     0.188 C 
BRANCH   2   3
ATOM      3  O   UNL A   1      40.192  29.797  33.803  1.00  0.00    -0.376 OA
BRANCH   3   4
ATOM      4  C   UNL A   1      39.153  30.700  34.148  1.00  0.00     0.202 C 
BRANCH   4   5
ATOM      5  C   UNL A   1      38.985  31.066  35.634  1.00  0.00     0.261 C 
BRANCH   5   6
ATOM      6  O   UNL A   1      37.756  31.738  36.002  1.00  0.00    -0.461 OA
BRANCH   6   7
ATOM      7  C   UNL A   1      37.607  33.051  35.663  1.00  0.00     0.344 C 
ATOM      8  O   UNL A   1      38.414  33.933  35.939  1.00  0.00    -0.248 OA
BRANCH   7   9
ATOM      9  C   UNL A   1      36.296  33.338  34.887  1.00  0.00     0.353 C 
BRANCH   9  10
ATOM     10  O   UNL A   1      36.396  33.912  33.598  1.00  0.00    -0.465 OA
BRANCH  10  11
ATOM     11  C   UNL A   1      35.468  33.846  32.600  1.00  0.00     0.222 A 
ATOM     12  C   UNL A   1      34.740  34.898  32.039  1.00  0.00     0.035 A 
ATOM     13  C   UNL A   1      34.179  34.595  30.792  1.00  0.00     0.050 A 
ATOM     14  C   UNL A   1      33.531  35.610  29.891  1.00  0.00     0.067 C 
ATOM     15  N   UNL A   1      34.234  33.374  30.227  1.00  0.00    -0.218 NA
ATOM     16  N   UNL A   1      35.541  32.621  32.011  1.00  0.00    -0.177 NA
ATOM     17  C   UNL A   1      34.917  32.414  30.847  1.00  0.00     0.230 A 
BRANCH  12  18
ATOM     18  C   UNL A   1      34.663  36.308  32.562  1.00  0.00     0.040 C 
ATOM     19  C   UNL A   1      33.826  36.529  33.816  1.00  0.00     0.009 C 
ENDBRANCH  12  18
BRANCH  17  20
ATOM     20  N   UNL A   1      35.092  31.188  30.193  1.00  0.00    -0.323 N 
ATOM     21  H   UNL A   1      34.301  30.612  30.090  1.00  0.00     0.170 HD
BRANCH  20  22
ATOM     22  C   UNL A   1      36.311  30.710  29.672  1.00  0.00     0.060 A 
ATOM     23  C   UNL A   1      37.500  30.936  30.380  1.00  0.00     0.029 A 
ATOM     24  C   UNL A   1      36.400  30.030  28.445  1.00  0.00     0.066 A 
ATOM     25  C   UNL A   1      38.747  30.617  29.831  1.00  0.00     0.023 A 
ATOM     26  C   UNL A   1      37.642  29.675  27.904  1.00  0.00     0.043 A 
ATOM     27  Cl  UNL A   1      34.980  29.592  27.561  1.00  0.00    -0.082 Cl
ATOM     28  C   UNL A   1      38.812  30.001  28.586  1.00  0.00     0.042 A 
ATOM     29  Cl  UNL A   1      40.341  29.641  27.885  1.00  0.00    -0.084 Cl
ENDBRANCH  20  22
ENDBRANCH  17  20
ENDBRANCH  10  11
ENDBRANCH   9  10
ENDBRANCH   7   9
ENDBRANCH   6   7
ENDBRANCH   5   6
ENDBRANCH   4   5
ENDBRANCH   3   4
ENDBRANCH   2   3
ENDBRANCH   1   2
BRANCH   1  30
ATOM     30  O   UNL A   1      42.332  31.919  31.662  1.00  0.00    -0.377 OA
BRANCH  30  31
ATOM     31  C   UNL A   1      42.272  32.457  30.358  1.00  0.00     0.188 C 
BRANCH  31  32
ATOM     32  C   UNL A   1      41.482  33.771  30.281  1.00  0.00     0.188 C 
BRANCH  32  33
ATOM     33  O   UNL A   1      42.263  34.853  29.773  1.00  0.00    -0.376 OA
BRANCH  33  34
ATOM     34  C   UNL A   1      41.607  36.061  29.431  1.00  0.00     0.202 C 
BRANCH  34  35
ATOM     35  C   UNL A   1      41.159  36.218  27.977  1.00  0.00     0.261 C 
BRANCH  35  36
ATOM     36  O   UNL A   1      41.917  35.493  27.001  1.00  0.00    -0.460 OA
BRANCH  36  37
ATOM     37  C   UNL A   1      43.124  35.981  26.652  1.00  0.00     0.338 C 
ATOM     38  O   UNL A   1      43.429  37.154  26.535  1.00  0.00    -0.246 OA
BRANCH  37  39
ATOM     39  C   UNL A   1      44.068  34.842  26.686  1.00  0.00     0.060 A 
ATOM     40  C   UNL A   1      44.579  34.457  27.930  1.00  0.00     0.016 A 
ATOM     41  C   UNL A   1      44.371  34.105  25.534  1.00  0.00     0.016 A 
ATOM     42  C   UNL A   1      45.412  33.345  28.025  1.00  0.00     0.010 A 
ATOM     43  C   UNL A   1      45.238  33.011  25.623  1.00  0.00     0.010 A 
ATOM     44  C   UNL A   1      45.788  32.655  26.866  1.00  0.00    -0.014 A 
BRANCH  44  45
ATOM     45  C   UNL A   1      46.972  31.770  26.949  1.00  0.00     0.031 A 
ATOM     46  C   UNL A   1      46.713  30.288  26.996  1.00  0.00     0.074 A 
ATOM     47  C   UNL A   1      48.224  32.255  26.876  1.00  0.00     0.049 A 
ATOM     48  N   UNL A   1      47.558  29.293  26.964  1.00  0.00    -0.248 NA
ATOM     49  C   UNL A   1      45.300  29.876  27.078  1.00  0.00     0.031 C 
ATOM     50  C   UNL A   1      48.580  33.670  26.775  1.00  0.00     0.029 A 
ATOM     51  N   UNL A   1      49.429  31.602  26.857  1.00  0.00    -0.354 N 
ATOM     52  C   UNL A   1      46.780  28.142  27.008  1.00  0.00     0.074 A 
ATOM     53  C   UNL A   1      45.400  28.557  27.109  1.00  0.00     0.031 C 
ATOM     54  C   UNL A   1      49.919  33.776  26.698  1.00  0.00     0.029 A 
ATOM     55  C   UNL A   1      50.512  32.442  26.761  1.00  0.00     0.049 A 
ATOM     56  H   UNL A   1      49.511  30.621  26.907  1.00  0.00     0.167 HD
ATOM     57  C   UNL A   1      47.180  26.851  26.956  1.00  0.00     0.037 A 
ATOM     58  C   UNL A   1      51.829  32.155  26.729  1.00  0.00     0.037 A 
ATOM     59  C   UNL A   1      48.559  26.452  26.877  1.00  0.00     0.049 A 
ATOM     60  C   UNL A   1      52.258  30.709  26.758  1.00  0.00     0.074 A 
ATOM     61  C   UNL A   1      49.085  25.175  26.831  1.00  0.00     0.029 A 
ATOM     62  N   UNL A   1      49.631  27.333  26.847  1.00  0.00    -0.354 N 
ATOM     63  N   UNL A   1      51.513  29.626  26.777  1.00  0.00    -0.248 NA
ATOM     64  C   UNL A   1      53.703  30.442  26.754  1.00  0.00     0.031 C 
ATOM     65  C   UNL A   1      50.481  25.284  26.827  1.00  0.00     0.029 A 
ATOM     66  C   UNL A   1      50.821  26.628  26.811  1.00  0.00     0.049 A 
ATOM     67  H   UNL A   1      49.556  28.315  26.852  1.00  0.00     0.167 HD
ATOM     68  C   UNL A   1      52.398  28.553  26.755  1.00  0.00     0.074 A 
ATOM     69  C   UNL A   1      53.732  29.117  26.712  1.00  0.00     0.031 C 
ATOM     70  C   UNL A   1      52.135  27.220  26.763  1.00  0.00     0.037 A 
BRANCH  57  71
ATOM     71  C   UNL A   1      46.112  25.795  27.030  1.00  0.00     0.058 A 
ATOM     72  C   UNL A   1      45.726  25.211  28.248  1.00  0.00     0.135 A 
ATOM     73  C   UNL A   1      45.479  25.344  25.860  1.00  0.00     0.135 A 
ATOM     74  F   UNL A   1      46.319  25.583  29.395  1.00  0.00    -0.206 F 
ATOM     75  C   UNL A   1      44.775  24.197  28.301  1.00  0.00     0.059 A 
ATOM     76  C   UNL A   1      44.505  24.351  25.893  1.00  0.00     0.059 A 
ATOM     77  F   UNL A   1      45.818  25.858  24.668  1.00  0.00    -0.206 F 
ATOM     78  C   UNL A   1      44.173  23.771  27.116  1.00  0.00     0.060 A 
BRANCH  78  79
ATOM     79  S   UNL A   1      42.952  22.444  27.196  1.00  0.00     0.124 S 
ATOM     80  O   UNL A   1      41.765  23.107  26.667  1.00  0.00    -0.237 OA
ATOM     81  O   UNL A   1      43.545  21.423  26.336  1.00  0.00    -0.237 OA
ATOM     82  O   UNL A   1      42.904  22.111  28.617  1.00  0.00    -0.744 OA
ENDBRANCH  78  79
ENDBRANCH  57  71
BRANCH  58  83
ATOM     83  C   UNL A   1      52.836  33.251  26.660  1.00  0.00     0.058 A 
ATOM     84  C   UNL A   1      53.393  33.807  27.822  1.00  0.00     0.135 A 
ATOM     85  C   UNL A   1      53.260  33.770  25.426  1.00  0.00     0.135 A 
ATOM     86  F   UNL A   1      53.013  33.357  29.028  1.00  0.00    -0.206 F 
ATOM     87  C   UNL A   1      54.323  34.841  27.766  1.00  0.00     0.059 A 
ATOM     88  C   UNL A   1      54.207  34.786  25.342  1.00  0.00     0.059 A 
ATOM     89  F   UNL A   1      52.764  33.272  24.281  1.00  0.00    -0.206 F 
ATOM     90  C   UNL A   1      54.726  35.322  26.519  1.00  0.00     0.060 A 
BRANCH  90  91
ATOM     91  S   UNL A   1      55.971  36.631  26.454  1.00  0.00     0.124 S 
ATOM     92  O   UNL A   1      55.472  37.458  25.363  1.00  0.00    -0.237 OA
ATOM     93  O   UNL A   1      55.875  37.210  27.791  1.00  0.00    -0.237 OA
ATOM     94  O   UNL A   1      57.208  35.905  26.182  1.00  0.00    -0.744 OA
ENDBRANCH  90  91
ENDBRANCH  58  83
BRANCH  70  95
ATOM     95  C   UNL A   1      53.310  26.284  26.685  1.00  0.00     0.058 A 
ATOM     96  C   UNL A   1      54.123  26.021  27.799  1.00  0.00     0.135 A 
ATOM     97  C   UNL A   1      53.592  25.603  25.490  1.00  0.00     0.135 A 
ATOM     98  F   UNL A   1      53.898  26.648  28.963  1.00  0.00    -0.206 F 
ATOM     99  C   UNL A   1      55.193  25.137  27.721  1.00  0.00     0.059 A 
ATOM    100  C   UNL A   1      54.638  24.691  25.398  1.00  0.00     0.059 A 
ATOM    101  F   UNL A   1      52.835  25.807  24.399  1.00  0.00    -0.206 F 
ATOM    102  C   UNL A   1      55.442  24.477  26.516  1.00  0.00     0.060 A 
BRANCH 102 103
ATOM    103  S   UNL A   1      56.821  23.314  26.435  1.00  0.00     0.124 S 
ATOM    104  O   UNL A   1      57.294  23.517  25.070  1.00  0.00    -0.237 OA
ATOM    105  O   UNL A   1      57.703  23.801  27.491  1.00  0.00    -0.237 OA
ATOM    106  O   UNL A   1      56.193  22.023  26.698  1.00  0.00    -0.744 OA
ENDBRANCH 102 103
ENDBRANCH  70  95
ENDBRANCH  44  45
ENDBRANCH  37  39
ENDBRANCH  36  37
ENDBRANCH  35  36
ENDBRANCH  34  35
ENDBRANCH  33  34
ENDBRANCH  32  33
ENDBRANCH  31  32
ENDBRANCH  30  31
ENDBRANCH   1  30
TORSDOF 28
ENDMDL
