MODEL 1
REMARK VINA RESULT:      -7.4      0.000      0.000
REMARK SMILES C[C@@H](CS(=O)(=O)[C@@H]1CCC[C@H](S(C)(=O)=O)C1)C(=O)OCCOCCOCCOCCOC(=O)c1ccc(-c2c3nc(c(-c4c(F)cc(S(=O)(=O)[O-])cc4F)c4ccc([nH]4)c(-c4c(F)cc(S(=O)(=O)[O-])cc4F)c4nc(c(-c5c(F)cc(S(=O)(=O)[O-])cc5F)c5ccc2[nH]5)C=C4)C=C3)cc1
REMARK SMILES IDX 24 1 23 2 22 3 21 4 20 5 19 6 17 7 18 8 2 9 1 10 3 11 4 12
REMARK SMILES IDX 5 13 6 14 7 15 8 16 16 17 9 18 11 19 10 20 12 21 13 22 14 23
REMARK SMILES IDX 15 24 25 25 26 26 27 27 28 28 29 29 30 30 31 31 32 32 33 33
REMARK SMILES IDX 34 34 35 35 99 36 36 37 98 38 37 39 38 40 39 41 92 42 40 43
REMARK SMILES IDX 97 44 91 45 93 46 41 47 96 48 90 49 89 50 42 52 76 53 55 54
REMARK SMILES IDX 75 55 56 56 59 57 74 58 94 59 57 60 58 61 73 63 95 64 60 65
REMARK SMILES IDX 43 66 44 67 53 68 45 69 46 70 52 71 54 72 47 73 48 74 49 75
REMARK SMILES IDX 50 76 51 77 77 78 78 79 87 80 79 81 80 82 86 83 88 84 81 85
REMARK SMILES IDX 82 86 83 87 84 88 85 89 61 90 62 91 71 92 63 93 64 94 70 95
REMARK SMILES IDX 72 96 65 97 66 98 67 99 68 100 69 101
REMARK H PARENT 93 51 59 62
REMARK Flexibility Score: inf
ROOT
ATOM      1  C   UNL A   1      38.965  34.039  34.228  1.00  0.00     0.188 C 
ENDROOT
BRANCH   1   2
ATOM      2  C   UNL A   1      40.333  33.377  33.989  1.00  0.00     0.188 C 
BRANCH   2   3
ATOM      3  O   UNL A   1      41.437  33.670  34.830  1.00  0.00    -0.376 OA
BRANCH   3   4
ATOM      4  C   UNL A   1      41.650  32.938  36.029  1.00  0.00     0.202 C 
BRANCH   4   5
ATOM      5  C   UNL A   1      40.954  31.593  36.308  1.00  0.00     0.261 C 
BRANCH   5   6
ATOM      6  O   UNL A   1      41.498  30.426  35.665  1.00  0.00    -0.463 OA
BRANCH   6   7
ATOM      7  C   UNL A   1      40.622  29.700  34.937  1.00  0.00     0.309 C 
ATOM      8  O   UNL A   1      39.469  30.030  34.686  1.00  0.00    -0.252 OA
BRANCH   7   9
ATOM      9  C   UNL A   1      41.198  28.389  34.428  1.00  0.00     0.111 C 
ATOM     10  C   UNL A   1      41.385  28.227  32.932  1.00  0.00     0.021 C 
BRANCH   9  11
ATOM     11  C   UNL A   1      42.377  27.905  35.250  1.00  0.00     0.152 C 
BRANCH  11  12
ATOM     12  S   UNL A   1      42.312  26.355  36.123  1.00  0.00     0.154 S 
ATOM     13  O   UNL A   1      42.825  26.578  37.459  1.00  0.00    -0.229 OA
ATOM     14  O   UNL A   1      40.939  25.916  35.943  1.00  0.00    -0.229 OA
BRANCH  12  15
ATOM     15  C   UNL A   1      43.372  25.108  35.318  1.00  0.00     0.110 C 
ATOM     16  C   UNL A   1      42.639  23.802  35.027  1.00  0.00     0.020 C 
ATOM     17  C   UNL A   1      44.585  24.815  36.228  1.00  0.00     0.039 C 
ATOM     18  C   UNL A   1      43.573  22.833  34.314  1.00  0.00     0.003 C 
ATOM     19  C   UNL A   1      45.483  23.639  35.786  1.00  0.00     0.109 C 
ATOM     20  C   UNL A   1      44.710  22.434  35.238  1.00  0.00     0.020 C 
BRANCH  19  21
ATOM     21  S   UNL A   1      46.505  23.122  37.204  1.00  0.00     0.150 S 
ATOM     22  C   UNL A   1      47.950  22.379  36.485  1.00  0.00     0.158 C 
ATOM     23  O   UNL A   1      46.939  24.319  37.891  1.00  0.00    -0.229 OA
ATOM     24  O   UNL A   1      45.797  22.067  37.905  1.00  0.00    -0.229 OA
ENDBRANCH  19  21
ENDBRANCH  12  15
ENDBRANCH  11  12
ENDBRANCH   9  11
ENDBRANCH   7   9
ENDBRANCH   6   7
ENDBRANCH   5   6
ENDBRANCH   4   5
ENDBRANCH   3   4
ENDBRANCH   2   3
ENDBRANCH   1   2
BRANCH   1  25
ATOM     25  O   UNL A   1      38.152  33.417  35.197  1.00  0.00    -0.377 OA
BRANCH  25  26
ATOM     26  C   UNL A   1      36.937  34.074  35.523  1.00  0.00     0.188 C 
BRANCH  26  27
ATOM     27  C   UNL A   1      35.768  33.978  34.520  1.00  0.00     0.188 C 
BRANCH  27  28
ATOM     28  O   UNL A   1      35.684  35.058  33.597  1.00  0.00    -0.376 OA
BRANCH  28  29
ATOM     29  C   UNL A   1      34.406  35.598  33.286  1.00  0.00     0.202 C 
BRANCH  29  30
ATOM     30  C   UNL A   1      33.669  35.044  32.054  1.00  0.00     0.261 C 
BRANCH  30  31
ATOM     31  O   UNL A   1      34.046  33.731  31.613  1.00  0.00    -0.460 OA
BRANCH  31  32
ATOM     32  C   UNL A   1      34.244  33.545  30.288  1.00  0.00     0.338 C 
ATOM     33  O   UNL A   1      33.534  33.923  29.384  1.00  0.00    -0.246 OA
BRANCH  32  34
ATOM     34  C   UNL A   1      35.601  32.974  30.117  1.00  0.00     0.060 A 
ATOM     35  C   UNL A   1      36.261  32.459  31.240  1.00  0.00     0.016 A 
ATOM     36  C   UNL A   1      36.208  32.935  28.860  1.00  0.00     0.016 A 
ATOM     37  C   UNL A   1      37.543  31.923  31.114  1.00  0.00     0.010 A 
ATOM     38  C   UNL A   1      37.505  32.426  28.741  1.00  0.00     0.010 A 
ATOM     39  C   UNL A   1      38.188  31.944  29.872  1.00  0.00    -0.014 A 
BRANCH  39  40
ATOM     40  C   UNL A   1      39.636  31.633  29.793  1.00  0.00     0.031 A 
ATOM     41  C   UNL A   1      40.618  32.721  30.131  1.00  0.00     0.074 A 
ATOM     42  C   UNL A   1      40.069  30.406  29.450  1.00  0.00     0.049 A 
ATOM     43  N   UNL A   1      41.924  32.709  30.071  1.00  0.00    -0.248 NA
ATOM     44  C   UNL A   1      40.051  33.998  30.598  1.00  0.00     0.031 C 
ATOM     45  C   UNL A   1      39.214  29.260  29.149  1.00  0.00     0.029 A 
ATOM     46  N   UNL A   1      41.344  29.926  29.285  1.00  0.00    -0.354 N 
ATOM     47  C   UNL A   1      42.334  33.972  30.481  1.00  0.00     0.074 A 
ATOM     48  C   UNL A   1      41.138  34.735  30.766  1.00  0.00     0.031 C 
ATOM     49  C   UNL A   1      39.988  28.213  28.816  1.00  0.00     0.029 A 
ATOM     50  C   UNL A   1      41.392  28.623  28.845  1.00  0.00     0.049 A 
ATOM     51  H   UNL A   1      42.150  30.462  29.465  1.00  0.00     0.167 HD
ATOM     52  C   UNL A   1      43.593  34.449  30.614  1.00  0.00     0.037 A 
ATOM     53  C   UNL A   1      42.445  27.864  28.480  1.00  0.00     0.037 A 
ATOM     54  C   UNL A   1      44.777  33.681  30.334  1.00  0.00     0.049 A 
ATOM     55  C   UNL A   1      43.835  28.446  28.563  1.00  0.00     0.074 A 
ATOM     56  C   UNL A   1      46.100  34.067  30.459  1.00  0.00     0.029 A 
ATOM     57  N   UNL A   1      44.785  32.374  29.866  1.00  0.00    -0.354 N 
ATOM     58  N   UNL A   1      44.211  29.634  28.979  1.00  0.00    -0.248 NA
ATOM     59  C   UNL A   1      44.947  27.586  28.130  1.00  0.00     0.031 C 
ATOM     60  C   UNL A   1      46.905  33.018  30.006  1.00  0.00     0.029 A 
ATOM     61  C   UNL A   1      46.088  31.952  29.664  1.00  0.00     0.049 A 
ATOM     62  H   UNL A   1      43.982  31.829  29.702  1.00  0.00     0.167 HD
ATOM     63  C   UNL A   1      45.602  29.649  28.887  1.00  0.00     0.074 A 
ATOM     64  C   UNL A   1      45.999  28.348  28.392  1.00  0.00     0.031 C 
ATOM     65  C   UNL A   1      46.470  30.648  29.183  1.00  0.00     0.037 A 
BRANCH  52  66
ATOM     66  C   UNL A   1      43.765  35.877  31.052  1.00  0.00     0.058 A 
ATOM     67  C   UNL A   1      43.805  36.937  30.133  1.00  0.00     0.135 A 
ATOM     68  C   UNL A   1      43.820  36.194  32.420  1.00  0.00     0.135 A 
ATOM     69  F   UNL A   1      43.779  36.690  28.813  1.00  0.00    -0.206 F 
ATOM     70  C   UNL A   1      43.902  38.260  30.554  1.00  0.00     0.059 A 
ATOM     71  C   UNL A   1      43.888  37.511  32.863  1.00  0.00     0.059 A 
ATOM     72  F   UNL A   1      43.795  35.219  33.341  1.00  0.00    -0.206 F 
ATOM     73  C   UNL A   1      43.934  38.537  31.921  1.00  0.00     0.060 A 
BRANCH  73  74
ATOM     74  S   UNL A   1      44.021  40.262  32.449  1.00  0.00     0.124 S 
ATOM     75  O   UNL A   1      44.675  40.137  33.748  1.00  0.00    -0.237 OA
ATOM     76  O   UNL A   1      44.824  40.867  31.391  1.00  0.00    -0.237 OA
ATOM     77  O   UNL A   1      42.624  40.678  32.488  1.00  0.00    -0.744 OA
ENDBRANCH  73  74
ENDBRANCH  52  66
BRANCH  53  78
ATOM     78  C   UNL A   1      42.236  26.480  27.969  1.00  0.00     0.058 A 
ATOM     79  C   UNL A   1      42.558  25.361  28.749  1.00  0.00     0.135 A 
ATOM     80  C   UNL A   1      41.748  26.250  26.672  1.00  0.00     0.135 A 
ATOM     81  F   UNL A   1      43.040  25.524  29.990  1.00  0.00    -0.206 F 
ATOM     82  C   UNL A   1      42.436  24.066  28.254  1.00  0.00     0.059 A 
ATOM     83  C   UNL A   1      41.582  24.964  26.166  1.00  0.00     0.059 A 
ATOM     84  F   UNL A   1      41.422  27.288  25.886  1.00  0.00    -0.206 F 
ATOM     85  C   UNL A   1      41.949  23.878  26.959  1.00  0.00     0.060 A 
BRANCH  85  86
ATOM     86  S   UNL A   1      41.796  22.189  26.338  1.00  0.00     0.124 S 
ATOM     87  O   UNL A   1      40.348  22.041  26.248  1.00  0.00    -0.237 OA
ATOM     88  O   UNL A   1      42.507  22.266  25.065  1.00  0.00    -0.237 OA
ATOM     89  O   UNL A   1      42.449  21.387  27.368  1.00  0.00    -0.744 OA
ENDBRANCH  85  86
ENDBRANCH  53  78
BRANCH  65  90
ATOM     90  C   UNL A   1      47.941  30.367  29.022  1.00  0.00     0.058 A 
ATOM     91  C   UNL A   1      48.700  29.780  30.046  1.00  0.00     0.135 A 
ATOM     92  C   UNL A   1      48.587  30.639  27.804  1.00  0.00     0.135 A 
ATOM     93  F   UNL A   1      48.136  29.502  31.231  1.00  0.00    -0.206 F 
ATOM     94  C   UNL A   1      50.053  29.497  29.877  1.00  0.00     0.059 A 
ATOM     95  C   UNL A   1      49.929  30.333  27.601  1.00  0.00     0.059 A 
ATOM     96  F   UNL A   1      47.905  31.187  26.785  1.00  0.00    -0.206 F 
ATOM     97  C   UNL A   1      50.657  29.773  28.650  1.00  0.00     0.060 A 
BRANCH  97  98
ATOM     98  S   UNL A   1      52.403  29.369  28.435  1.00  0.00     0.124 S 
ATOM     99  O   UNL A   1      52.829  30.394  27.488  1.00  0.00    -0.237 OA
ATOM    100  O   UNL A   1      52.923  29.503  29.793  1.00  0.00    -0.237 OA
ATOM    101  O   UNL A   1      52.375  28.006  27.912  1.00  0.00    -0.744 OA
ENDBRANCH  97  98
ENDBRANCH  65  90
ENDBRANCH  39  40
ENDBRANCH  32  34
ENDBRANCH  31  32
ENDBRANCH  30  31
ENDBRANCH  29  30
ENDBRANCH  28  29
ENDBRANCH  27  28
ENDBRANCH  26  27
ENDBRANCH  25  26
ENDBRANCH   1  25
TORSDOF 27
ENDMDL
MODEL 2
REMARK VINA RESULT:      -7.0      3.126      8.989
REMARK SMILES C[C@@H](CS(=O)(=O)[C@@H]1CCC[C@H](S(C)(=O)=O)C1)C(=O)OCCOCCOCCOCCOC(=O)c1ccc(-c2c3nc(c(-c4c(F)cc(S(=O)(=O)[O-])cc4F)c4ccc([nH]4)c(-c4c(F)cc(S(=O)(=O)[O-])cc4F)c4nc(c(-c5c(F)cc(S(=O)(=O)[O-])cc5F)c5ccc2[nH]5)C=C4)C=C3)cc1
REMARK SMILES IDX 24 1 23 2 22 3 21 4 20 5 19 6 17 7 18 8 2 9 1 10 3 11 4 12
REMARK SMILES IDX 5 13 6 14 7 15 8 16 16 17 9 18 11 19 10 20 12 21 13 22 14 23
REMARK SMILES IDX 15 24 25 25 26 26 27 27 28 28 29 29 30 30 31 31 32 32 33 33
REMARK SMILES IDX 34 34 35 35 99 36 36 37 98 38 37 39 38 40 39 41 92 42 40 43
REMARK SMILES IDX 97 44 91 45 93 46 41 47 96 48 90 49 89 50 42 52 76 53 55 54
REMARK SMILES IDX 75 55 56 56 59 57 74 58 94 59 57 60 58 61 73 63 95 64 60 65
REMARK SMILES IDX 43 66 44 67 53 68 45 69 46 70 52 71 54 72 47 73 48 74 49 75
REMARK SMILES IDX 50 76 51 77 77 78 78 79 87 80 79 81 80 82 86 83 88 84 81 85
REMARK SMILES IDX 82 86 83 87 84 88 85 89 61 90 62 91 71 92 63 93 64 94 70 95
REMARK SMILES IDX 72 96 65 97 66 98 67 99 68 100 69 101
REMARK H PARENT 93 51 59 62
REMARK Flexibility Score: inf
ROOT
ATOM      1  C   UNL A   1      37.311  34.292  33.930  1.00  0.00     0.188 C 
ENDROOT
BRANCH   1   2
ATOM      2  C   UNL A   1      38.842  34.177  34.033  1.00  0.00     0.188 C 
BRANCH   2   3
ATOM      3  O   UNL A   1      39.685  34.946  33.191  1.00  0.00    -0.376 OA
BRANCH   3   4
ATOM      4  C   UNL A   1      40.488  34.317  32.201  1.00  0.00     0.202 C 
BRANCH   4   5
ATOM      5  C   UNL A   1      41.549  33.257  32.551  1.00  0.00     0.261 C 
BRANCH   5   6
ATOM      6  O   UNL A   1      41.104  32.096  33.276  1.00  0.00    -0.463 OA
BRANCH   6   7
ATOM      7  C   UNL A   1      41.897  31.008  33.176  1.00  0.00     0.309 C 
ATOM      8  O   UNL A   1      42.737  30.824  32.303  1.00  0.00    -0.252 OA
BRANCH   7   9
ATOM      9  C   UNL A   1      41.664  29.985  34.276  1.00  0.00     0.111 C 
ATOM     10  C   UNL A   1      40.283  29.909  34.896  1.00  0.00     0.021 C 
BRANCH   9  11
ATOM     11  C   UNL A   1      42.270  28.631  33.958  1.00  0.00     0.152 C 
BRANCH  11  12
ATOM     12  S   UNL A   1      43.916  28.214  34.493  1.00  0.00     0.154 S 
ATOM     13  O   UNL A   1      44.719  29.418  34.432  1.00  0.00    -0.229 OA
ATOM     14  O   UNL A   1      43.705  27.552  35.770  1.00  0.00    -0.229 OA
BRANCH  12  15
ATOM     15  C   UNL A   1      44.670  26.981  33.382  1.00  0.00     0.110 C 
ATOM     16  C   UNL A   1      43.786  26.636  32.187  1.00  0.00     0.020 C 
ATOM     17  C   UNL A   1      44.963  25.694  34.183  1.00  0.00     0.039 C 
ATOM     18  C   UNL A   1      44.503  25.640  31.285  1.00  0.00     0.003 C 
ATOM     19  C   UNL A   1      45.424  24.478  33.350  1.00  0.00     0.109 C 
ATOM     20  C   UNL A   1      44.690  24.321  32.014  1.00  0.00     0.020 C 
BRANCH  19  21
ATOM     21  S   UNL A   1      45.211  22.970  34.351  1.00  0.00     0.150 S 
ATOM     22  C   UNL A   1      44.631  23.540  35.930  1.00  0.00     0.158 C 
ATOM     23  O   UNL A   1      44.140  22.198  33.757  1.00  0.00    -0.229 OA
ATOM     24  O   UNL A   1      46.523  22.389  34.571  1.00  0.00    -0.229 OA
ENDBRANCH  19  21
ENDBRANCH  12  15
ENDBRANCH  11  12
ENDBRANCH   9  11
ENDBRANCH   7   9
ENDBRANCH   6   7
ENDBRANCH   5   6
ENDBRANCH   4   5
ENDBRANCH   3   4
ENDBRANCH   2   3
ENDBRANCH   1   2
BRANCH   1  25
ATOM     25  O   UNL A   1      36.837  35.216  32.976  1.00  0.00    -0.377 OA
BRANCH  25  26
ATOM     26  C   UNL A   1      36.328  34.674  31.766  1.00  0.00     0.188 C 
BRANCH  26  27
ATOM     27  C   UNL A   1      35.003  33.886  31.825  1.00  0.00     0.188 C 
BRANCH  27  28
ATOM     28  O   UNL A   1      35.127  32.491  31.568  1.00  0.00    -0.376 OA
BRANCH  28  29
ATOM     29  C   UNL A   1      35.514  31.630  32.631  1.00  0.00     0.202 C 
BRANCH  29  30
ATOM     30  C   UNL A   1      36.845  30.869  32.495  1.00  0.00     0.261 C 
BRANCH  30  31
ATOM     31  O   UNL A   1      36.774  29.535  31.967  1.00  0.00    -0.460 OA
BRANCH  31  32
ATOM     32  C   UNL A   1      36.814  29.388  30.622  1.00  0.00     0.338 C 
ATOM     33  O   UNL A   1      35.882  29.461  29.853  1.00  0.00    -0.246 OA
BRANCH  32  34
ATOM     34  C   UNL A   1      38.239  29.330  30.224  1.00  0.00     0.060 A 
ATOM     35  C   UNL A   1      38.629  29.943  29.026  1.00  0.00     0.016 A 
ATOM     36  C   UNL A   1      39.182  28.690  31.031  1.00  0.00     0.016 A 
ATOM     37  C   UNL A   1      39.963  29.897  28.619  1.00  0.00     0.010 A 
ATOM     38  C   UNL A   1      40.513  28.619  30.605  1.00  0.00     0.010 A 
ATOM     39  C   UNL A   1      40.902  29.198  29.385  1.00  0.00    -0.014 A 
BRANCH  39  40
ATOM     40  C   UNL A   1      42.245  28.917  28.820  1.00  0.00     0.031 A 
ATOM     41  C   UNL A   1      42.535  27.524  28.329  1.00  0.00     0.074 A 
ATOM     42  C   UNL A   1      43.178  29.881  28.725  1.00  0.00     0.049 A 
ATOM     43  N   UNL A   1      43.648  27.024  27.861  1.00  0.00    -0.248 NA
ATOM     44  C   UNL A   1      41.418  26.565  28.376  1.00  0.00     0.031 C 
ATOM     45  C   UNL A   1      42.998  31.276  29.121  1.00  0.00     0.029 A 
ATOM     46  N   UNL A   1      44.474  29.825  28.275  1.00  0.00    -0.354 N 
ATOM     47  C   UNL A   1      43.371  25.694  27.567  1.00  0.00     0.074 A 
ATOM     48  C   UNL A   1      41.991  25.457  27.931  1.00  0.00     0.031 C 
ATOM     49  C   UNL A   1      44.148  31.941  28.915  1.00  0.00     0.029 A 
ATOM     50  C   UNL A   1      45.157  31.013  28.407  1.00  0.00     0.049 A 
ATOM     51  H   UNL A   1      44.878  29.012  27.893  1.00  0.00     0.167 HD
ATOM     52  C   UNL A   1      44.192  24.759  27.035  1.00  0.00     0.037 A 
ATOM     53  C   UNL A   1      46.453  31.304  28.172  1.00  0.00     0.037 A 
ATOM     54  C   UNL A   1      45.562  25.006  26.670  1.00  0.00     0.049 A 
ATOM     55  C   UNL A   1      47.368  30.221  27.653  1.00  0.00     0.074 A 
ATOM     56  C   UNL A   1      46.470  24.129  26.104  1.00  0.00     0.029 A 
ATOM     57  N   UNL A   1      46.225  26.213  26.843  1.00  0.00    -0.354 N 
ATOM     58  N   UNL A   1      47.086  28.974  27.352  1.00  0.00    -0.248 NA
ATOM     59  C   UNL A   1      48.776  30.583  27.437  1.00  0.00     0.031 C 
ATOM     60  C   UNL A   1      47.699  24.786  25.992  1.00  0.00     0.029 A 
ATOM     61  C   UNL A   1      47.540  26.093  26.425  1.00  0.00     0.049 A 
ATOM     62  H   UNL A   1      45.820  27.032  27.207  1.00  0.00     0.167 HD
ATOM     63  C   UNL A   1      48.274  28.416  26.884  1.00  0.00     0.074 A 
ATOM     64  C   UNL A   1      49.271  29.465  26.926  1.00  0.00     0.031 C 
ATOM     65  C   UNL A   1      48.519  27.151  26.460  1.00  0.00     0.037 A 
BRANCH  52  66
ATOM     66  C   UNL A   1      43.648  23.370  26.842  1.00  0.00     0.058 A 
ATOM     67  C   UNL A   1      43.231  22.903  25.585  1.00  0.00     0.135 A 
ATOM     68  C   UNL A   1      43.609  22.471  27.921  1.00  0.00     0.135 A 
ATOM     69  F   UNL A   1      43.225  23.728  24.525  1.00  0.00    -0.206 F 
ATOM     70  C   UNL A   1      42.788  21.597  25.407  1.00  0.00     0.059 A 
ATOM     71  C   UNL A   1      43.197  21.152  27.758  1.00  0.00     0.059 A 
ATOM     72  F   UNL A   1      43.988  22.868  29.145  1.00  0.00    -0.206 F 
ATOM     73  C   UNL A   1      42.783  20.726  26.498  1.00  0.00     0.060 A 
BRANCH  73  74
ATOM     74  S   UNL A   1      42.241  19.023  26.239  1.00  0.00     0.124 S 
ATOM     75  O   UNL A   1      42.286  18.493  27.598  1.00  0.00    -0.237 OA
ATOM     76  O   UNL A   1      40.907  19.207  25.675  1.00  0.00    -0.237 OA
ATOM     77  O   UNL A   1      43.238  18.483  25.322  1.00  0.00    -0.744 OA
ENDBRANCH  73  74
ENDBRANCH  52  66
BRANCH  53  78
ATOM     78  C   UNL A   1      46.982  32.667  28.454  1.00  0.00     0.058 A 
ATOM     79  C   UNL A   1      47.121  33.619  27.434  1.00  0.00     0.135 A 
ATOM     80  C   UNL A   1      47.398  33.033  29.745  1.00  0.00     0.135 A 
ATOM     81  F   UNL A   1      46.751  33.317  26.180  1.00  0.00    -0.206 F 
ATOM     82  C   UNL A   1      47.683  34.869  27.673  1.00  0.00     0.059 A 
ATOM     83  C   UNL A   1      47.930  34.290  30.018  1.00  0.00     0.059 A 
ATOM     84  F   UNL A   1      47.283  32.159  30.758  1.00  0.00    -0.206 F 
ATOM     85  C   UNL A   1      48.087  35.195  28.969  1.00  0.00     0.060 A 
BRANCH  85  86
ATOM     86  S   UNL A   1      48.811  36.824  29.258  1.00  0.00     0.124 S 
ATOM     87  O   UNL A   1      47.835  37.696  28.613  1.00  0.00    -0.237 OA
ATOM     88  O   UNL A   1      48.852  36.885  30.716  1.00  0.00    -0.237 OA
ATOM     89  O   UNL A   1      50.111  36.740  28.602  1.00  0.00    -0.744 OA
ENDBRANCH  85  86
ENDBRANCH  53  78
BRANCH  65  90
ATOM     90  C   UNL A   1      49.906  26.835  25.965  1.00  0.00     0.058 A 
ATOM     91  C   UNL A   1      50.305  27.111  24.649  1.00  0.00     0.135 A 
ATOM     92  C   UNL A   1      50.867  26.299  26.841  1.00  0.00     0.135 A 
ATOM     93  F   UNL A   1      49.428  27.620  23.770  1.00  0.00    -0.206 F 
ATOM     94  C   UNL A   1      51.598  26.842  24.209  1.00  0.00     0.059 A 
ATOM     95  C   UNL A   1      52.174  26.054  26.432  1.00  0.00     0.059 A 
ATOM     96  F   UNL A   1      50.544  26.028  28.115  1.00  0.00    -0.206 F 
ATOM     97  C   UNL A   1      52.527  26.318  25.110  1.00  0.00     0.060 A 
BRANCH  97  98
ATOM     98  S   UNL A   1      54.210  26.007  24.535  1.00  0.00     0.124 S 
ATOM     99  O   UNL A   1      54.086  26.272  23.105  1.00  0.00    -0.237 OA
ATOM    100  O   UNL A   1      54.984  26.982  25.297  1.00  0.00    -0.237 OA
ATOM    101  O   UNL A   1      54.441  24.611  24.896  1.00  0.00    -0.744 OA
ENDBRANCH  97  98
ENDBRANCH  65  90
ENDBRANCH  39  40
ENDBRANCH  32  34
ENDBRANCH  31  32
ENDBRANCH  30  31
ENDBRANCH  29  30
ENDBRANCH  28  29
ENDBRANCH  27  28
ENDBRANCH  26  27
ENDBRANCH  25  26
ENDBRANCH   1  25
TORSDOF 27
ENDMDL
MODEL 3
REMARK VINA RESULT:      -6.9      3.306      5.028
REMARK SMILES C[C@@H](CS(=O)(=O)[C@@H]1CCC[C@H](S(C)(=O)=O)C1)C(=O)OCCOCCOCCOCCOC(=O)c1ccc(-c2c3nc(c(-c4c(F)cc(S(=O)(=O)[O-])cc4F)c4ccc([nH]4)c(-c4c(F)cc(S(=O)(=O)[O-])cc4F)c4nc(c(-c5c(F)cc(S(=O)(=O)[O-])cc5F)c5ccc2[nH]5)C=C4)C=C3)cc1
REMARK SMILES IDX 24 1 23 2 22 3 21 4 20 5 19 6 17 7 18 8 2 9 1 10 3 11 4 12
REMARK SMILES IDX 5 13 6 14 7 15 8 16 16 17 9 18 11 19 10 20 12 21 13 22 14 23
REMARK SMILES IDX 15 24 25 25 26 26 27 27 28 28 29 29 30 30 31 31 32 32 33 33
REMARK SMILES IDX 34 34 35 35 99 36 36 37 98 38 37 39 38 40 39 41 92 42 40 43
REMARK SMILES IDX 97 44 91 45 93 46 41 47 96 48 90 49 89 50 42 52 76 53 55 54
REMARK SMILES IDX 75 55 56 56 59 57 74 58 94 59 57 60 58 61 73 63 95 64 60 65
REMARK SMILES IDX 43 66 44 67 53 68 45 69 46 70 52 71 54 72 47 73 48 74 49 75
REMARK SMILES IDX 50 76 51 77 77 78 78 79 87 80 79 81 80 82 86 83 88 84 81 85
REMARK SMILES IDX 82 86 83 87 84 88 85 89 61 90 62 91 71 92 63 93 64 94 70 95
REMARK SMILES IDX 72 96 65 97 66 98 67 99 68 100 69 101
REMARK H PARENT 93 51 59 62
REMARK Flexibility Score: inf
ROOT
ATOM      1  C   UNL A   1      40.365  33.686  32.832  1.00  0.00     0.188 C 
ENDROOT
BRANCH   1   2
ATOM      2  C   UNL A   1      41.182  33.267  34.066  1.00  0.00     0.188 C 
BRANCH   2   3
ATOM      3  O   UNL A   1      41.657  31.938  34.205  1.00  0.00    -0.376 OA
BRANCH   3   4
ATOM      4  C   UNL A   1      40.812  30.916  34.714  1.00  0.00     0.202 C 
BRANCH   4   5
ATOM      5  C   UNL A   1      40.099  29.902  33.800  1.00  0.00     0.261 C 
BRANCH   5   6
ATOM      6  O   UNL A   1      40.923  28.939  33.118  1.00  0.00    -0.463 OA
BRANCH   6   7
ATOM      7  C   UNL A   1      41.603  28.087  33.915  1.00  0.00     0.309 C 
ATOM      8  O   UNL A   1      41.103  27.390  34.792  1.00  0.00    -0.252 OA
BRANCH   7   9
ATOM      9  C   UNL A   1      43.095  28.050  33.630  1.00  0.00     0.111 C 
ATOM     10  C   UNL A   1      43.995  28.974  34.427  1.00  0.00     0.021 C 
BRANCH   9  11
ATOM     11  C   UNL A   1      43.632  26.637  33.492  1.00  0.00     0.152 C 
BRANCH  11  12
ATOM     12  S   UNL A   1      44.596  26.158  32.074  1.00  0.00     0.154 S 
ATOM     13  O   UNL A   1      44.982  24.773  32.250  1.00  0.00    -0.229 OA
ATOM     14  O   UNL A   1      43.761  26.536  30.946  1.00  0.00    -0.229 OA
BRANCH  12  15
ATOM     15  C   UNL A   1      46.120  27.153  31.955  1.00  0.00     0.110 C 
ATOM     16  C   UNL A   1      46.163  28.030  30.707  1.00  0.00     0.020 C 
ATOM     17  C   UNL A   1      47.340  26.207  31.951  1.00  0.00     0.039 C 
ATOM     18  C   UNL A   1      47.439  28.862  30.704  1.00  0.00     0.003 C 
ATOM     19  C   UNL A   1      48.703  26.873  31.659  1.00  0.00     0.109 C 
ATOM     20  C   UNL A   1      48.649  27.955  30.574  1.00  0.00     0.020 C 
BRANCH  19  21
ATOM     21  S   UNL A   1      49.895  25.581  31.182  1.00  0.00     0.150 S 
ATOM     22  C   UNL A   1      51.491  26.347  31.325  1.00  0.00     0.158 C 
ATOM     23  O   UNL A   1      49.832  24.536  32.182  1.00  0.00    -0.229 OA
ATOM     24  O   UNL A   1      49.696  25.287  29.774  1.00  0.00    -0.229 OA
ENDBRANCH  19  21
ENDBRANCH  12  15
ENDBRANCH  11  12
ENDBRANCH   9  11
ENDBRANCH   7   9
ENDBRANCH   6   7
ENDBRANCH   5   6
ENDBRANCH   4   5
ENDBRANCH   3   4
ENDBRANCH   2   3
ENDBRANCH   1   2
BRANCH   1  25
ATOM     25  O   UNL A   1      40.349  32.756  31.772  1.00  0.00    -0.377 OA
BRANCH  25  26
ATOM     26  C   UNL A   1      40.589  33.271  30.471  1.00  0.00     0.188 C 
BRANCH  26  27
ATOM     27  C   UNL A   1      39.884  34.584  30.070  1.00  0.00     0.188 C 
BRANCH  27  28
ATOM     28  O   UNL A   1      38.462  34.510  30.034  1.00  0.00    -0.376 OA
BRANCH  28  29
ATOM     29  C   UNL A   1      37.844  33.624  29.110  1.00  0.00     0.202 C 
BRANCH  29  30
ATOM     30  C   UNL A   1      37.118  32.387  29.672  1.00  0.00     0.261 C 
BRANCH  30  31
ATOM     31  O   UNL A   1      36.928  31.287  28.770  1.00  0.00    -0.460 OA
BRANCH  31  32
ATOM     32  C   UNL A   1      37.055  30.035  29.269  1.00  0.00     0.338 C 
ATOM     33  O   UNL A   1      36.185  29.355  29.762  1.00  0.00    -0.246 OA
BRANCH  32  34
ATOM     34  C   UNL A   1      38.411  29.553  28.916  1.00  0.00     0.060 A 
ATOM     35  C   UNL A   1      39.280  29.173  29.947  1.00  0.00     0.016 A 
ATOM     36  C   UNL A   1      38.813  29.463  27.582  1.00  0.00     0.016 A 
ATOM     37  C   UNL A   1      40.566  28.723  29.647  1.00  0.00     0.010 A 
ATOM     38  C   UNL A   1      40.114  29.041  27.285  1.00  0.00     0.010 A 
ATOM     39  C   UNL A   1      41.004  28.697  28.318  1.00  0.00    -0.014 A 
BRANCH  39  40
ATOM     40  C   UNL A   1      42.442  28.486  28.024  1.00  0.00     0.031 A 
ATOM     41  C   UNL A   1      43.382  29.649  28.188  1.00  0.00     0.074 A 
ATOM     42  C   UNL A   1      42.907  27.283  27.641  1.00  0.00     0.049 A 
ATOM     43  N   UNL A   1      44.660  29.727  27.929  1.00  0.00    -0.248 NA
ATOM     44  C   UNL A   1      42.798  30.896  28.714  1.00  0.00     0.031 C 
ATOM     45  C   UNL A   1      42.104  26.071  27.495  1.00  0.00     0.029 A 
ATOM     46  N   UNL A   1      44.175  26.889  27.291  1.00  0.00    -0.354 N 
ATOM     47  C   UNL A   1      45.033  31.027  28.249  1.00  0.00     0.074 A 
ATOM     48  C   UNL A   1      43.842  31.713  28.699  1.00  0.00     0.031 C 
ATOM     49  C   UNL A   1      42.894  25.071  27.066  1.00  0.00     0.029 A 
ATOM     50  C   UNL A   1      44.251  25.580  26.872  1.00  0.00     0.049 A 
ATOM     51  H   UNL A   1      44.958  27.485  27.336  1.00  0.00     0.167 HD
ATOM     52  C   UNL A   1      46.260  31.594  28.179  1.00  0.00     0.037 A 
ATOM     53  C   UNL A   1      45.290  24.886  26.364  1.00  0.00     0.037 A 
ATOM     54  C   UNL A   1      47.441  30.904  27.735  1.00  0.00     0.049 A 
ATOM     55  C   UNL A   1      46.630  25.567  26.223  1.00  0.00     0.074 A 
ATOM     56  C   UNL A   1      48.735  31.385  27.649  1.00  0.00     0.029 A 
ATOM     57  N   UNL A   1      47.474  29.588  27.294  1.00  0.00    -0.354 N 
ATOM     58  N   UNL A   1      46.976  26.790  26.556  1.00  0.00    -0.248 NA
ATOM     59  C   UNL A   1      47.724  24.775  25.641  1.00  0.00     0.031 C 
ATOM     60  C   UNL A   1      49.538  30.382  27.097  1.00  0.00     0.029 A 
ATOM     61  C   UNL A   1      48.759  29.253  26.903  1.00  0.00     0.049 A 
ATOM     62  H   UNL A   1      46.698  28.983  27.265  1.00  0.00     0.167 HD
ATOM     63  C   UNL A   1      48.332  26.899  26.251  1.00  0.00     0.074 A 
ATOM     64  C   UNL A   1      48.745  25.616  25.725  1.00  0.00     0.031 C 
ATOM     65  C   UNL A   1      49.159  27.965  26.392  1.00  0.00     0.037 A 
BRANCH  52  66
ATOM     66  C   UNL A   1      46.390  33.044  28.560  1.00  0.00     0.058 A 
ATOM     67  C   UNL A   1      46.185  34.078  27.633  1.00  0.00     0.135 A 
ATOM     68  C   UNL A   1      46.656  33.402  29.892  1.00  0.00     0.135 A 
ATOM     69  F   UNL A   1      45.951  33.792  26.342  1.00  0.00    -0.206 F 
ATOM     70  C   UNL A   1      46.247  35.415  28.011  1.00  0.00     0.059 A 
ATOM     71  C   UNL A   1      46.694  34.732  30.298  1.00  0.00     0.059 A 
ATOM     72  F   UNL A   1      46.869  32.454  30.817  1.00  0.00    -0.206 F 
ATOM     73  C   UNL A   1      46.494  35.732  29.348  1.00  0.00     0.060 A 
BRANCH  73  74
ATOM     74  S   UNL A   1      46.533  37.472  29.827  1.00  0.00     0.124 S 
ATOM     75  O   UNL A   1      45.459  37.528  30.814  1.00  0.00    -0.237 OA
ATOM     76  O   UNL A   1      47.886  37.616  30.355  1.00  0.00    -0.237 OA
ATOM     77  O   UNL A   1      46.273  38.177  28.577  1.00  0.00    -0.744 OA
ENDBRANCH  73  74
ENDBRANCH  52  66
BRANCH  53  78
ATOM     78  C   UNL A   1      45.109  23.477  25.916  1.00  0.00     0.058 A 
ATOM     79  C   UNL A   1      45.066  23.147  24.554  1.00  0.00     0.135 A 
ATOM     80  C   UNL A   1      44.936  22.436  26.843  1.00  0.00     0.135 A 
ATOM     81  F   UNL A   1      45.214  24.105  23.626  1.00  0.00    -0.206 F 
ATOM     82  C   UNL A   1      44.825  21.845  24.125  1.00  0.00     0.059 A 
ATOM     83  C   UNL A   1      44.729  21.120  26.441  1.00  0.00     0.059 A 
ATOM     84  F   UNL A   1      44.973  22.699  28.159  1.00  0.00    -0.206 F 
ATOM     85  C   UNL A   1      44.654  20.838  25.077  1.00  0.00     0.060 A 
BRANCH  85  86
ATOM     86  S   UNL A   1      44.346  19.155  24.499  1.00  0.00     0.124 S 
ATOM     87  O   UNL A   1      44.592  19.288  23.067  1.00  0.00    -0.237 OA
ATOM     88  O   UNL A   1      45.339  18.389  25.247  1.00  0.00    -0.237 OA
ATOM     89  O   UNL A   1      42.958  18.914  24.880  1.00  0.00    -0.744 OA
ENDBRANCH  85  86
ENDBRANCH  53  78
BRANCH  65  90
ATOM     90  C   UNL A   1      50.606  27.783  26.014  1.00  0.00     0.058 A 
ATOM     91  C   UNL A   1      51.038  27.854  24.681  1.00  0.00     0.135 A 
ATOM     92  C   UNL A   1      51.581  27.591  27.008  1.00  0.00     0.135 A 
ATOM     93  F   UNL A   1      50.150  28.033  23.691  1.00  0.00    -0.206 F 
ATOM     94  C   UNL A   1      52.381  27.715  24.344  1.00  0.00     0.059 A 
ATOM     95  C   UNL A   1      52.933  27.484  26.697  1.00  0.00     0.059 A 
ATOM     96  F   UNL A   1      51.225  27.530  28.301  1.00  0.00    -0.206 F 
ATOM     97  C   UNL A   1      53.322  27.534  25.359  1.00  0.00     0.060 A 
BRANCH  97  98
ATOM     98  S   UNL A   1      55.064  27.389  24.909  1.00  0.00     0.124 S 
ATOM     99  O   UNL A   1      55.123  26.027  24.390  1.00  0.00    -0.237 OA
ATOM    100  O   UNL A   1      55.219  28.453  23.922  1.00  0.00    -0.237 OA
ATOM    101  O   UNL A   1      55.762  27.609  26.173  1.00  0.00    -0.744 OA
ENDBRANCH  97  98
ENDBRANCH  65  90
ENDBRANCH  39  40
ENDBRANCH  32  34
ENDBRANCH  31  32
ENDBRANCH  30  31
ENDBRANCH  29  30
ENDBRANCH  28  29
ENDBRANCH  27  28
ENDBRANCH  26  27
ENDBRANCH  25  26
ENDBRANCH   1  25
TORSDOF 27
ENDMDL
