MODEL 1
REMARK VINA RESULT:      -5.1      0.000      0.000
REMARK SMILES COC(=O)CCS(=O)(=O)Nc1ccc(C(=O)OCCOCCOCCOCCOC(=O)c2ccc(-c3c4nc(c(-c5c(F)cc(S(=O)(=O)[O-])cc5F)c5ccc([nH]5)c(-c5c(F)cc(S(=O)(=O)[O-])cc5F)c5nc(c(-c6c(F)cc(S(=O)(=O)[O-])cc6F)c6ccc3[nH]6)C=C5)C=C4)cc2)cc1
REMARK SMILES IDX 21 1 20 2 19 3 18 4 17 5 15 6 16 7 14 8 11 9 12 10 99 11
REMARK SMILES IDX 13 12 98 13 10 14 7 16 8 17 9 18 6 19 5 20 3 21 4 22 2 23
REMARK SMILES IDX 1 24 22 25 23 26 24 27 25 28 26 29 27 30 28 31 29 32 30 33
REMARK SMILES IDX 31 34 32 35 33 36 97 37 34 38 96 39 35 40 36 41 37 42 90 43
REMARK SMILES IDX 38 44 95 45 89 46 91 47 39 48 94 49 88 50 87 51 40 53 74 54
REMARK SMILES IDX 53 55 73 56 54 57 57 58 72 59 92 60 55 61 56 62 71 64 93 65
REMARK SMILES IDX 58 66 41 67 42 68 51 69 43 70 44 71 50 72 52 73 45 74 46 75
REMARK SMILES IDX 47 76 48 77 49 78 75 79 76 80 85 81 77 82 78 83 84 84 86 85
REMARK SMILES IDX 79 86 80 87 81 88 82 89 83 90 59 91 60 92 69 93 61 94 62 95
REMARK SMILES IDX 68 96 70 97 63 98 64 99 65 100 66 101 67 102
REMARK H PARENT 10 15 91 52 57 63
REMARK Flexibility Score: inf
ROOT
ATOM      1  C   UNL A   1      39.850  23.944  27.293  1.00  0.00     0.188 C 
ENDROOT
BRANCH   1   2
ATOM      2  O   UNL A   1      40.156  25.085  26.506  1.00  0.00    -0.376 OA
BRANCH   2   3
ATOM      3  C   UNL A   1      40.754  26.209  27.124  1.00  0.00     0.202 C 
BRANCH   3   4
ATOM      4  C   UNL A   1      40.141  27.539  26.702  1.00  0.00     0.261 C 
BRANCH   4   5
ATOM      5  O   UNL A   1      41.092  28.597  26.549  1.00  0.00    -0.460 OA
BRANCH   5   6
ATOM      6  C   UNL A   1      42.204  28.404  25.795  1.00  0.00     0.338 C 
ATOM      7  O   UNL A   1      42.278  28.051  24.644  1.00  0.00    -0.246 OA
BRANCH   6   8
ATOM      8  C   UNL A   1      43.325  28.888  26.632  1.00  0.00     0.060 A 
ATOM      9  C   UNL A   1      45.379  29.487  28.444  1.00  0.00     0.049 A 
ATOM     10  C   UNL A   1      44.181  30.210  28.471  1.00  0.00     0.027 A 
ATOM     11  C   UNL A   1      45.528  28.480  27.497  1.00  0.00     0.027 A 
ATOM     12  C   UNL A   1      43.155  29.926  27.553  1.00  0.00     0.018 A 
ATOM     13  C   UNL A   1      44.525  28.187  26.590  1.00  0.00     0.018 A 
BRANCH   9  14
ATOM     14  N   UNL A   1      46.264  29.589  29.551  1.00  0.00    -0.284 N 
ATOM     15  H   UNL A   1      45.860  29.619  30.449  1.00  0.00     0.180 HD
BRANCH  14  16
ATOM     16  S   UNL A   1      47.917  29.660  29.458  1.00  0.00     0.233 S 
ATOM     17  O   UNL A   1      48.380  29.739  30.829  1.00  0.00    -0.207 OA
ATOM     18  O   UNL A   1      48.263  30.703  28.515  1.00  0.00    -0.207 OA
BRANCH  16  19
ATOM     19  C   UNL A   1      48.520  28.113  28.794  1.00  0.00     0.171 C 
BRANCH  19  20
ATOM     20  C   UNL A   1      49.086  28.137  27.385  1.00  0.00     0.141 C 
BRANCH  20  21
ATOM     21  C   UNL A   1      48.904  26.885  26.570  1.00  0.00     0.306 C 
ATOM     22  O   UNL A   1      48.208  26.829  25.565  1.00  0.00    -0.252 OA
BRANCH  21  23
ATOM     23  O   UNL A   1      49.581  25.838  27.110  1.00  0.00    -0.469 OA
ATOM     24  C   UNL A   1      50.954  25.759  26.713  1.00  0.00     0.282 C 
ENDBRANCH  21  23
ENDBRANCH  20  21
ENDBRANCH  19  20
ENDBRANCH  16  19
ENDBRANCH  14  16
ENDBRANCH   9  14
ENDBRANCH   6   8
ENDBRANCH   5   6
ENDBRANCH   4   5
ENDBRANCH   3   4
ENDBRANCH   2   3
ENDBRANCH   1   2
BRANCH   1  25
ATOM     25  C   UNL A   1      39.122  22.816  26.526  1.00  0.00     0.188 C 
BRANCH  25  26
ATOM     26  O   UNL A   1      39.810  21.851  25.730  1.00  0.00    -0.377 OA
BRANCH  26  27
ATOM     27  C   UNL A   1      40.031  20.552  26.262  1.00  0.00     0.188 C 
BRANCH  27  28
ATOM     28  C   UNL A   1      41.515  20.223  26.518  1.00  0.00     0.188 C 
BRANCH  28  29
ATOM     29  O   UNL A   1      42.149  19.615  25.395  1.00  0.00    -0.376 OA
BRANCH  29  30
ATOM     30  C   UNL A   1      43.549  19.410  25.497  1.00  0.00     0.202 C 
BRANCH  30  31
ATOM     31  C   UNL A   1      44.426  20.563  24.989  1.00  0.00     0.261 C 
BRANCH  31  32
ATOM     32  O   UNL A   1      44.850  21.505  25.989  1.00  0.00    -0.460 OA
BRANCH  32  33
ATOM     33  C   UNL A   1      44.265  22.722  25.964  1.00  0.00     0.338 C 
ATOM     34  O   UNL A   1      43.388  23.102  25.208  1.00  0.00    -0.246 OA
BRANCH  33  35
ATOM     35  C   UNL A   1      44.732  23.475  27.143  1.00  0.00     0.060 A 
ATOM     36  C   UNL A   1      44.140  23.216  28.385  1.00  0.00     0.016 A 
ATOM     37  C   UNL A   1      45.725  24.450  27.014  1.00  0.00     0.016 A 
ATOM     38  C   UNL A   1      44.498  23.976  29.495  1.00  0.00     0.010 A 
ATOM     39  C   UNL A   1      46.070  25.225  28.124  1.00  0.00     0.010 A 
ATOM     40  C   UNL A   1      45.419  25.024  29.354  1.00  0.00    -0.014 A 
BRANCH  40  41
ATOM     41  C   UNL A   1      45.496  26.052  30.418  1.00  0.00     0.031 A 
ATOM     42  C   UNL A   1      44.280  26.913  30.652  1.00  0.00     0.074 A 
ATOM     43  C   UNL A   1      46.590  26.190  31.188  1.00  0.00     0.049 A 
ATOM     44  N   UNL A   1      44.089  27.857  31.534  1.00  0.00    -0.248 NA
ATOM     45  C   UNL A   1      43.125  26.676  29.767  1.00  0.00     0.031 C 
ATOM     46  C   UNL A   1      47.818  25.406  31.066  1.00  0.00     0.029 A 
ATOM     47  N   UNL A   1      46.840  27.046  32.230  1.00  0.00    -0.354 N 
ATOM     48  C   UNL A   1      42.801  28.331  31.307  1.00  0.00     0.074 A 
ATOM     49  C   UNL A   1      42.264  27.590  30.189  1.00  0.00     0.031 C 
ATOM     50  C   UNL A   1      48.699  25.830  31.988  1.00  0.00     0.029 A 
ATOM     51  C   UNL A   1      48.103  26.923  32.756  1.00  0.00     0.049 A 
ATOM     52  H   UNL A   1      46.176  27.690  32.570  1.00  0.00     0.167 HD
ATOM     53  C   UNL A   1      42.123  29.289  31.978  1.00  0.00     0.037 A 
ATOM     54  C   UNL A   1      48.709  27.624  33.736  1.00  0.00     0.037 A 
ATOM     55  C   UNL A   1      42.655  30.012  33.102  1.00  0.00     0.049 A 
ATOM     56  C   UNL A   1      47.932  28.697  34.460  1.00  0.00     0.074 A 
ATOM     57  C   UNL A   1      42.033  30.978  33.875  1.00  0.00     0.029 A 
ATOM     58  N   UNL A   1      43.934  29.852  33.612  1.00  0.00    -0.354 N 
ATOM     59  N   UNL A   1      46.697  29.099  34.268  1.00  0.00    -0.248 NA
ATOM     60  C   UNL A   1      48.625  29.399  35.550  1.00  0.00     0.031 C 
ATOM     61  C   UNL A   1      42.953  31.436  34.822  1.00  0.00     0.029 A 
ATOM     62  C   UNL A   1      44.128  30.715  34.676  1.00  0.00     0.049 A 
ATOM     63  H   UNL A   1      44.605  29.220  33.267  1.00  0.00     0.167 HD
ATOM     64  C   UNL A   1      46.457  30.072  35.233  1.00  0.00     0.074 A 
ATOM     65  C   UNL A   1      47.669  30.189  36.017  1.00  0.00     0.031 C 
ATOM     66  C   UNL A   1      45.337  30.805  35.455  1.00  0.00     0.037 A 
BRANCH  53  67
ATOM     67  C   UNL A   1      40.739  29.632  31.507  1.00  0.00     0.058 A 
ATOM     68  C   UNL A   1      39.609  28.931  31.956  1.00  0.00     0.135 A 
ATOM     69  C   UNL A   1      40.537  30.722  30.644  1.00  0.00     0.135 A 
ATOM     70  F   UNL A   1      39.748  27.866  32.760  1.00  0.00    -0.206 F 
ATOM     71  C   UNL A   1      38.325  29.299  31.565  1.00  0.00     0.059 A 
ATOM     72  C   UNL A   1      39.262  31.121  30.260  1.00  0.00     0.059 A 
ATOM     73  F   UNL A   1      41.586  31.417  30.178  1.00  0.00    -0.206 F 
ATOM     74  C   UNL A   1      38.162  30.402  30.723  1.00  0.00     0.060 A 
BRANCH  74  75
ATOM     75  S   UNL A   1      36.487  30.899  30.268  1.00  0.00     0.124 S 
ATOM     76  O   UNL A   1      36.025  29.729  29.529  1.00  0.00    -0.237 OA
ATOM     77  O   UNL A   1      35.862  31.115  31.569  1.00  0.00    -0.237 OA
ATOM     78  O   UNL A   1      36.696  32.104  29.469  1.00  0.00    -0.744 OA
ENDBRANCH  74  75
ENDBRANCH  53  67
BRANCH  54  79
ATOM     79  C   UNL A   1      50.130  27.356  34.089  1.00  0.00     0.058 A 
ATOM     80  C   UNL A   1      50.478  26.449  35.101  1.00  0.00     0.135 A 
ATOM     81  C   UNL A   1      51.171  28.043  33.446  1.00  0.00     0.135 A 
ATOM     82  F   UNL A   1      49.520  25.772  35.752  1.00  0.00    -0.206 F 
ATOM     83  C   UNL A   1      51.801  26.262  35.491  1.00  0.00     0.059 A 
ATOM     84  C   UNL A   1      52.503  27.852  33.798  1.00  0.00     0.059 A 
ATOM     85  F   UNL A   1      50.896  28.913  32.460  1.00  0.00    -0.206 F 
ATOM     86  C   UNL A   1      52.807  26.973  34.836  1.00  0.00     0.060 A 
BRANCH  86  87
ATOM     87  S   UNL A   1      54.523  26.720  35.340  1.00  0.00     0.124 S 
ATOM     88  O   UNL A   1      55.239  27.526  34.358  1.00  0.00    -0.237 OA
ATOM     89  O   UNL A   1      54.520  27.231  36.707  1.00  0.00    -0.237 OA
ATOM     90  O   UNL A   1      54.696  25.276  35.220  1.00  0.00    -0.744 OA
ENDBRANCH  86  87
ENDBRANCH  54  79
BRANCH  66  91
ATOM     91  C   UNL A   1      45.349  31.753  36.625  1.00  0.00     0.058 A 
ATOM     92  C   UNL A   1      45.726  33.097  36.489  1.00  0.00     0.135 A 
ATOM     93  C   UNL A   1      44.955  31.307  37.898  1.00  0.00     0.135 A 
ATOM     94  F   UNL A   1      46.108  33.575  35.295  1.00  0.00    -0.206 F 
ATOM     95  C   UNL A   1      45.760  33.955  37.585  1.00  0.00     0.059 A 
ATOM     96  C   UNL A   1      44.951  32.155  39.000  1.00  0.00     0.059 A 
ATOM     97  F   UNL A   1      44.566  30.035  38.080  1.00  0.00    -0.206 F 
ATOM     98  C   UNL A   1      45.378  33.472  38.837  1.00  0.00     0.060 A 
BRANCH  98  99
ATOM     99  S   UNL A   1      45.440  34.588  40.255  1.00  0.00     0.124 S 
ATOM    100  O   UNL A   1      46.653  34.138  40.928  1.00  0.00    -0.237 OA
ATOM    101  O   UNL A   1      45.516  35.901  39.620  1.00  0.00    -0.237 OA
ATOM    102  O   UNL A   1      44.191  34.311  40.959  1.00  0.00    -0.744 OA
ENDBRANCH  98  99
ENDBRANCH  66  91
ENDBRANCH  40  41
ENDBRANCH  33  35
ENDBRANCH  32  33
ENDBRANCH  31  32
ENDBRANCH  30  31
ENDBRANCH  29  30
ENDBRANCH  28  29
ENDBRANCH  27  28
ENDBRANCH  26  27
ENDBRANCH  25  26
ENDBRANCH   1  25
TORSDOF 29
ENDMDL
MODEL 2
REMARK VINA RESULT:      -5.0      5.290      9.490
REMARK SMILES COC(=O)CCS(=O)(=O)Nc1ccc(C(=O)OCCOCCOCCOCCOC(=O)c2ccc(-c3c4nc(c(-c5c(F)cc(S(=O)(=O)[O-])cc5F)c5ccc([nH]5)c(-c5c(F)cc(S(=O)(=O)[O-])cc5F)c5nc(c(-c6c(F)cc(S(=O)(=O)[O-])cc6F)c6ccc3[nH]6)C=C5)C=C4)cc2)cc1
REMARK SMILES IDX 21 1 20 2 19 3 18 4 17 5 15 6 16 7 14 8 11 9 12 10 99 11
REMARK SMILES IDX 13 12 98 13 10 14 7 16 8 17 9 18 6 19 5 20 3 21 4 22 2 23
REMARK SMILES IDX 1 24 22 25 23 26 24 27 25 28 26 29 27 30 28 31 29 32 30 33
REMARK SMILES IDX 31 34 32 35 33 36 97 37 34 38 96 39 35 40 36 41 37 42 90 43
REMARK SMILES IDX 38 44 95 45 89 46 91 47 39 48 94 49 88 50 87 51 40 53 74 54
REMARK SMILES IDX 53 55 73 56 54 57 57 58 72 59 92 60 55 61 56 62 71 64 93 65
REMARK SMILES IDX 58 66 41 67 42 68 51 69 43 70 44 71 50 72 52 73 45 74 46 75
REMARK SMILES IDX 47 76 48 77 49 78 75 79 76 80 85 81 77 82 78 83 84 84 86 85
REMARK SMILES IDX 79 86 80 87 81 88 82 89 83 90 59 91 60 92 69 93 61 94 62 95
REMARK SMILES IDX 68 96 70 97 63 98 64 99 65 100 66 101 67 102
REMARK H PARENT 10 15 91 52 57 63
REMARK Flexibility Score: inf
ROOT
ATOM      1  C   UNL A   1      41.068  24.526  28.056  1.00  0.00     0.188 C 
ENDROOT
BRANCH   1   2
ATOM      2  O   UNL A   1      40.810  25.910  27.870  1.00  0.00    -0.376 OA
BRANCH   2   3
ATOM      3  C   UNL A   1      41.222  26.829  28.865  1.00  0.00     0.202 C 
BRANCH   3   4
ATOM      4  C   UNL A   1      40.067  27.543  29.556  1.00  0.00     0.261 C 
BRANCH   4   5
ATOM      5  O   UNL A   1      39.355  28.451  28.709  1.00  0.00    -0.460 OA
BRANCH   5   6
ATOM      6  C   UNL A   1      39.067  29.702  29.149  1.00  0.00     0.338 C 
ATOM      7  O   UNL A   1      39.777  30.466  29.756  1.00  0.00    -0.246 OA
BRANCH   6   8
ATOM      8  C   UNL A   1      37.741  30.018  28.573  1.00  0.00     0.060 A 
ATOM      9  C   UNL A   1      35.096  30.615  27.859  1.00  0.00     0.049 A 
ATOM     10  C   UNL A   1      35.604  29.325  27.668  1.00  0.00     0.027 A 
ATOM     11  C   UNL A   1      35.932  31.587  28.397  1.00  0.00     0.027 A 
ATOM     12  C   UNL A   1      36.934  29.024  28.008  1.00  0.00     0.018 A 
ATOM     13  C   UNL A   1      37.243  31.304  28.739  1.00  0.00     0.018 A 
BRANCH   9  14
ATOM     14  N   UNL A   1      33.691  30.815  27.789  1.00  0.00    -0.284 N 
ATOM     15  H   UNL A   1      33.309  31.527  28.352  1.00  0.00     0.180 HD
BRANCH  14  16
ATOM     16  S   UNL A   1      32.642  29.948  26.843  1.00  0.00     0.233 S 
ATOM     17  O   UNL A   1      31.820  30.935  26.171  1.00  0.00    -0.207 OA
ATOM     18  O   UNL A   1      32.025  28.938  27.676  1.00  0.00    -0.207 OA
BRANCH  16  19
ATOM     19  C   UNL A   1      33.579  29.103  25.576  1.00  0.00     0.171 C 
BRANCH  19  20
ATOM     20  C   UNL A   1      33.072  29.211  24.150  1.00  0.00     0.141 C 
BRANCH  20  21
ATOM     21  C   UNL A   1      32.581  27.938  23.515  1.00  0.00     0.306 C 
ATOM     22  O   UNL A   1      32.870  26.823  23.928  1.00  0.00    -0.252 OA
BRANCH  21  23
ATOM     23  O   UNL A   1      31.813  28.191  22.423  1.00  0.00    -0.469 OA
ATOM     24  C   UNL A   1      30.437  27.827  22.575  1.00  0.00     0.282 C 
ENDBRANCH  21  23
ENDBRANCH  20  21
ENDBRANCH  19  20
ENDBRANCH  16  19
ENDBRANCH  14  16
ENDBRANCH   9  14
ENDBRANCH   6   8
ENDBRANCH   5   6
ENDBRANCH   4   5
ENDBRANCH   3   4
ENDBRANCH   2   3
ENDBRANCH   1   2
BRANCH   1  25
ATOM     25  C   UNL A   1      40.435  23.609  26.984  1.00  0.00     0.188 C 
BRANCH  25  26
ATOM     26  O   UNL A   1      41.211  22.880  26.033  1.00  0.00    -0.377 OA
BRANCH  26  27
ATOM     27  C   UNL A   1      42.227  22.004  26.501  1.00  0.00     0.188 C 
BRANCH  27  28
ATOM     28  C   UNL A   1      43.623  22.652  26.592  1.00  0.00     0.188 C 
BRANCH  28  29
ATOM     29  O   UNL A   1      44.217  22.870  25.314  1.00  0.00    -0.376 OA
BRANCH  29  30
ATOM     30  C   UNL A   1      45.543  23.373  25.314  1.00  0.00     0.202 C 
BRANCH  30  31
ATOM     31  C   UNL A   1      45.718  24.778  24.717  1.00  0.00     0.261 C 
BRANCH  31  32
ATOM     32  O   UNL A   1      45.308  25.864  25.563  1.00  0.00    -0.460 OA
BRANCH  32  33
ATOM     33  C   UNL A   1      44.135  26.461  25.262  1.00  0.00     0.338 C 
ATOM     34  O   UNL A   1      43.210  25.986  24.628  1.00  0.00    -0.246 OA
BRANCH  33  35
ATOM     35  C   UNL A   1      44.072  27.739  25.997  1.00  0.00     0.060 A 
ATOM     36  C   UNL A   1      45.254  28.266  26.532  1.00  0.00     0.016 A 
ATOM     37  C   UNL A   1      42.851  28.393  26.179  1.00  0.00     0.016 A 
ATOM     38  C   UNL A   1      45.207  29.422  27.307  1.00  0.00     0.010 A 
ATOM     39  C   UNL A   1      42.802  29.541  26.973  1.00  0.00     0.010 A 
ATOM     40  C   UNL A   1      43.973  30.028  27.580  1.00  0.00    -0.014 A 
BRANCH  40  41
ATOM     41  C   UNL A   1      43.888  30.998  28.697  1.00  0.00     0.031 A 
ATOM     42  C   UNL A   1      43.674  30.452  30.087  1.00  0.00     0.074 A 
ATOM     43  C   UNL A   1      44.045  32.318  28.498  1.00  0.00     0.049 A 
ATOM     44  N   UNL A   1      43.593  31.089  31.224  1.00  0.00    -0.248 NA
ATOM     45  C   UNL A   1      43.531  28.990  30.206  1.00  0.00     0.031 C 
ATOM     46  C   UNL A   1      44.272  32.960  27.204  1.00  0.00     0.029 A 
ATOM     47  N   UNL A   1      44.034  33.359  29.392  1.00  0.00    -0.354 N 
ATOM     48  C   UNL A   1      43.381  30.110  32.190  1.00  0.00     0.074 A 
ATOM     49  C   UNL A   1      43.320  28.839  31.504  1.00  0.00     0.031 C 
ATOM     50  C   UNL A   1      44.363  34.289  27.387  1.00  0.00     0.029 A 
ATOM     51  C   UNL A   1      44.188  34.593  28.807  1.00  0.00     0.049 A 
ATOM     52  H   UNL A   1      43.927  33.233  30.363  1.00  0.00     0.167 HD
ATOM     53  C   UNL A   1      43.259  30.256  33.529  1.00  0.00     0.037 A 
ATOM     54  C   UNL A   1      44.173  35.823  29.357  1.00  0.00     0.037 A 
ATOM     55  C   UNL A   1      43.337  31.521  34.209  1.00  0.00     0.049 A 
ATOM     56  C   UNL A   1      44.023  35.958  30.853  1.00  0.00     0.074 A 
ATOM     57  C   UNL A   1      43.264  31.771  35.569  1.00  0.00     0.029 A 
ATOM     58  N   UNL A   1      43.504  32.747  33.584  1.00  0.00    -0.354 N 
ATOM     59  N   UNL A   1      43.874  35.019  31.759  1.00  0.00    -0.248 NA
ATOM     60  C   UNL A   1      44.059  37.320  31.405  1.00  0.00     0.031 C 
ATOM     61  C   UNL A   1      43.338  33.154  35.761  1.00  0.00     0.029 A 
ATOM     62  C   UNL A   1      43.515  33.759  34.527  1.00  0.00     0.049 A 
ATOM     63  H   UNL A   1      43.599  32.878  32.612  1.00  0.00     0.167 HD
ATOM     64  C   UNL A   1      43.836  35.675  32.986  1.00  0.00     0.074 A 
ATOM     65  C   UNL A   1      43.991  37.087  32.708  1.00  0.00     0.031 C 
ATOM     66  C   UNL A   1      43.687  35.159  34.233  1.00  0.00     0.037 A 
BRANCH  53  67
ATOM     67  C   UNL A   1      43.008  29.025  34.351  1.00  0.00     0.058 A 
ATOM     68  C   UNL A   1      41.720  28.490  34.510  1.00  0.00     0.135 A 
ATOM     69  C   UNL A   1      44.083  28.334  34.933  1.00  0.00     0.135 A 
ATOM     70  F   UNL A   1      40.655  29.124  33.997  1.00  0.00    -0.206 F 
ATOM     71  C   UNL A   1      41.507  27.311  35.219  1.00  0.00     0.059 A 
ATOM     72  C   UNL A   1      43.896  27.142  35.625  1.00  0.00     0.059 A 
ATOM     73  F   UNL A   1      45.333  28.811  34.820  1.00  0.00    -0.206 F 
ATOM     74  C   UNL A   1      42.603  26.640  35.765  1.00  0.00     0.060 A 
BRANCH  74  75
ATOM     75  S   UNL A   1      42.316  25.085  36.636  1.00  0.00     0.124 S 
ATOM     76  O   UNL A   1      43.624  24.839  37.235  1.00  0.00    -0.237 OA
ATOM     77  O   UNL A   1      41.250  25.441  37.565  1.00  0.00    -0.237 OA
ATOM     78  O   UNL A   1      41.933  24.164  35.569  1.00  0.00    -0.744 OA
ENDBRANCH  74  75
ENDBRANCH  53  67
BRANCH  54  79
ATOM     79  C   UNL A   1      44.286  37.036  28.500  1.00  0.00     0.058 A 
ATOM     80  C   UNL A   1      45.511  37.692  28.313  1.00  0.00     0.135 A 
ATOM     81  C   UNL A   1      43.151  37.589  27.886  1.00  0.00     0.135 A 
ATOM     82  F   UNL A   1      46.625  37.208  28.885  1.00  0.00    -0.206 F 
ATOM     83  C   UNL A   1      45.603  38.874  27.584  1.00  0.00     0.059 A 
ATOM     84  C   UNL A   1      43.222  38.753  27.128  1.00  0.00     0.059 A 
ATOM     85  F   UNL A   1      41.956  36.994  28.020  1.00  0.00    -0.206 F 
ATOM     86  C   UNL A   1      44.450  39.400  26.999  1.00  0.00     0.060 A 
BRANCH  86  87
ATOM     87  S   UNL A   1      44.577  40.929  26.046  1.00  0.00     0.124 S 
ATOM     88  O   UNL A   1      45.053  41.866  27.056  1.00  0.00    -0.237 OA
ATOM     89  O   UNL A   1      45.536  40.566  25.007  1.00  0.00    -0.237 OA
ATOM     90  O   UNL A   1      43.211  41.144  25.577  1.00  0.00    -0.744 OA
ENDBRANCH  86  87
ENDBRANCH  54  79
BRANCH  66  91
ATOM     91  C   UNL A   1      43.744  36.118  35.391  1.00  0.00     0.058 A 
ATOM     92  C   UNL A   1      44.959  36.606  35.895  1.00  0.00     0.135 A 
ATOM     93  C   UNL A   1      42.556  36.572  35.990  1.00  0.00     0.135 A 
ATOM     94  F   UNL A   1      46.122  36.208  35.357  1.00  0.00    -0.206 F 
ATOM     95  C   UNL A   1      44.998  37.471  36.985  1.00  0.00     0.059 A 
ATOM     96  C   UNL A   1      42.571  37.460  37.060  1.00  0.00     0.059 A 
ATOM     97  F   UNL A   1      41.365  36.153  35.535  1.00  0.00    -0.206 F 
ATOM     98  C   UNL A   1      43.799  37.886  37.565  1.00  0.00     0.060 A 
BRANCH  98  99
ATOM     99  S   UNL A   1      43.859  38.995  38.987  1.00  0.00     0.124 S 
ATOM    100  O   UNL A   1      43.836  40.302  38.339  1.00  0.00    -0.237 OA
ATOM    101  O   UNL A   1      42.652  38.631  39.723  1.00  0.00    -0.237 OA
ATOM    102  O   UNL A   1      45.115  38.641  39.641  1.00  0.00    -0.744 OA
ENDBRANCH  98  99
ENDBRANCH  66  91
ENDBRANCH  40  41
ENDBRANCH  33  35
ENDBRANCH  32  33
ENDBRANCH  31  32
ENDBRANCH  30  31
ENDBRANCH  29  30
ENDBRANCH  28  29
ENDBRANCH  27  28
ENDBRANCH  26  27
ENDBRANCH  25  26
ENDBRANCH   1  25
TORSDOF 29
ENDMDL
MODEL 3
REMARK VINA RESULT:      -4.9      8.421     14.104
REMARK SMILES COC(=O)CCS(=O)(=O)Nc1ccc(C(=O)OCCOCCOCCOCCOC(=O)c2ccc(-c3c4nc(c(-c5c(F)cc(S(=O)(=O)[O-])cc5F)c5ccc([nH]5)c(-c5c(F)cc(S(=O)(=O)[O-])cc5F)c5nc(c(-c6c(F)cc(S(=O)(=O)[O-])cc6F)c6ccc3[nH]6)C=C5)C=C4)cc2)cc1
REMARK SMILES IDX 21 1 20 2 19 3 18 4 17 5 15 6 16 7 14 8 11 9 12 10 99 11
REMARK SMILES IDX 13 12 98 13 10 14 7 16 8 17 9 18 6 19 5 20 3 21 4 22 2 23
REMARK SMILES IDX 1 24 22 25 23 26 24 27 25 28 26 29 27 30 28 31 29 32 30 33
REMARK SMILES IDX 31 34 32 35 33 36 97 37 34 38 96 39 35 40 36 41 37 42 90 43
REMARK SMILES IDX 38 44 95 45 89 46 91 47 39 48 94 49 88 50 87 51 40 53 74 54
REMARK SMILES IDX 53 55 73 56 54 57 57 58 72 59 92 60 55 61 56 62 71 64 93 65
REMARK SMILES IDX 58 66 41 67 42 68 51 69 43 70 44 71 50 72 52 73 45 74 46 75
REMARK SMILES IDX 47 76 48 77 49 78 75 79 76 80 85 81 77 82 78 83 84 84 86 85
REMARK SMILES IDX 79 86 80 87 81 88 82 89 83 90 59 91 60 92 69 93 61 94 62 95
REMARK SMILES IDX 68 96 70 97 63 98 64 99 65 100 66 101 67 102
REMARK H PARENT 10 15 91 52 57 63
REMARK Flexibility Score: inf
ROOT
ATOM      1  C   UNL A   1      36.997  30.243  30.655  1.00  0.00     0.188 C 
ENDROOT
BRANCH   1   2
ATOM      2  O   UNL A   1      37.889  30.629  29.620  1.00  0.00    -0.376 OA
BRANCH   2   3
ATOM      3  C   UNL A   1      37.550  30.342  28.275  1.00  0.00     0.202 C 
BRANCH   3   4
ATOM      4  C   UNL A   1      36.157  30.816  27.880  1.00  0.00     0.261 C 
BRANCH   4   5
ATOM      5  O   UNL A   1      35.236  29.755  27.610  1.00  0.00    -0.460 OA
BRANCH   5   6
ATOM      6  C   UNL A   1      33.931  30.037  27.367  1.00  0.00     0.338 C 
ATOM      7  O   UNL A   1      33.405  31.116  27.255  1.00  0.00    -0.246 OA
BRANCH   6   8
ATOM      8  C   UNL A   1      33.299  28.727  27.088  1.00  0.00     0.060 A 
ATOM      9  C   UNL A   1      32.104  26.360  26.179  1.00  0.00     0.049 A 
ATOM     10  C   UNL A   1      31.337  27.333  26.828  1.00  0.00     0.027 A 
ATOM     11  C   UNL A   1      33.465  26.590  26.007  1.00  0.00     0.027 A 
ATOM     12  C   UNL A   1      31.934  28.515  27.302  1.00  0.00     0.018 A 
ATOM     13  C   UNL A   1      34.065  27.750  26.465  1.00  0.00     0.018 A 
BRANCH   9  14
ATOM     14  N   UNL A   1      31.438  25.332  25.458  1.00  0.00    -0.284 N 
ATOM     15  H   UNL A   1      31.000  25.586  24.614  1.00  0.00     0.180 HD
BRANCH  14  16
ATOM     16  S   UNL A   1      31.338  23.744  25.920  1.00  0.00     0.233 S 
ATOM     17  O   UNL A   1      30.641  23.070  24.842  1.00  0.00    -0.207 OA
ATOM     18  O   UNL A   1      30.802  23.705  27.264  1.00  0.00    -0.207 OA
BRANCH  16  19
ATOM     19  C   UNL A   1      32.989  23.059  25.979  1.00  0.00     0.171 C 
BRANCH  19  20
ATOM     20  C   UNL A   1      33.583  22.568  24.671  1.00  0.00     0.141 C 
BRANCH  20  21
ATOM     21  C   UNL A   1      33.596  23.550  23.531  1.00  0.00     0.306 C 
ATOM     22  O   UNL A   1      34.307  24.545  23.505  1.00  0.00    -0.252 OA
BRANCH  21  23
ATOM     23  O   UNL A   1      32.703  23.204  22.568  1.00  0.00    -0.469 OA
ATOM     24  C   UNL A   1      32.519  21.792  22.417  1.00  0.00     0.282 C 
ENDBRANCH  21  23
ENDBRANCH  20  21
ENDBRANCH  19  20
ENDBRANCH  16  19
ENDBRANCH  14  16
ENDBRANCH   9  14
ENDBRANCH   6   8
ENDBRANCH   5   6
ENDBRANCH   4   5
ENDBRANCH   3   4
ENDBRANCH   2   3
ENDBRANCH   1   2
BRANCH   1  25
ATOM     25  C   UNL A   1      36.347  31.425  31.410  1.00  0.00     0.188 C 
BRANCH  25  26
ATOM     26  O   UNL A   1      37.085  32.569  31.841  1.00  0.00    -0.377 OA
BRANCH  26  27
ATOM     27  C   UNL A   1      36.450  33.518  32.687  1.00  0.00     0.188 C 
BRANCH  27  28
ATOM     28  C   UNL A   1      36.998  33.541  34.127  1.00  0.00     0.188 C 
BRANCH  28  29
ATOM     29  O   UNL A   1      36.858  32.287  34.793  1.00  0.00    -0.376 OA
BRANCH  29  30
ATOM     30  C   UNL A   1      38.055  31.564  35.031  1.00  0.00     0.202 C 
BRANCH  30  31
ATOM     31  C   UNL A   1      38.163  30.901  36.412  1.00  0.00     0.261 C 
BRANCH  31  32
ATOM     32  O   UNL A   1      38.719  31.723  37.451  1.00  0.00    -0.460 OA
BRANCH  32  33
ATOM     33  C   UNL A   1      37.851  32.483  38.153  1.00  0.00     0.338 C 
ATOM     34  O   UNL A   1      36.766  32.147  38.592  1.00  0.00    -0.246 OA
BRANCH  33  35
ATOM     35  C   UNL A   1      38.521  33.757  38.476  1.00  0.00     0.060 A 
ATOM     36  C   UNL A   1      38.671  34.714  37.464  1.00  0.00     0.016 A 
ATOM     37  C   UNL A   1      39.021  33.991  39.759  1.00  0.00     0.016 A 
ATOM     38  C   UNL A   1      39.379  35.885  37.718  1.00  0.00     0.010 A 
ATOM     39  C   UNL A   1      39.748  35.158  40.008  1.00  0.00     0.010 A 
ATOM     40  C   UNL A   1      39.972  36.083  38.973  1.00  0.00    -0.014 A 
BRANCH  40  41
ATOM     41  C   UNL A   1      41.025  37.116  39.108  1.00  0.00     0.031 A 
ATOM     42  C   UNL A   1      40.670  38.392  39.829  1.00  0.00     0.074 A 
ATOM     43  C   UNL A   1      42.273  36.914  38.649  1.00  0.00     0.049 A 
ATOM     44  N   UNL A   1      41.418  39.428  40.098  1.00  0.00    -0.248 NA
ATOM     45  C   UNL A   1      39.282  38.513  40.309  1.00  0.00     0.031 C 
ATOM     46  C   UNL A   1      42.737  35.716  37.951  1.00  0.00     0.029 A 
ATOM     47  N   UNL A   1      43.381  37.721  38.706  1.00  0.00    -0.354 N 
ATOM     48  C   UNL A   1      40.593  40.325  40.768  1.00  0.00     0.074 A 
ATOM     49  C   UNL A   1      39.281  39.724  40.844  1.00  0.00     0.031 C 
ATOM     50  C   UNL A   1      44.033  35.875  37.628  1.00  0.00     0.029 A 
ATOM     51  C   UNL A   1      44.485  37.188  38.085  1.00  0.00     0.049 A 
ATOM     52  H   UNL A   1      43.385  38.600  39.149  1.00  0.00     0.167 HD
ATOM     53  C   UNL A   1      40.904  41.535  41.285  1.00  0.00     0.037 A 
ATOM     54  C   UNL A   1      45.714  37.711  37.897  1.00  0.00     0.037 A 
ATOM     55  C   UNL A   1      42.216  42.122  41.222  1.00  0.00     0.049 A 
ATOM     56  C   UNL A   1      46.030  39.070  38.474  1.00  0.00     0.074 A 
ATOM     57  C   UNL A   1      42.643  43.329  41.750  1.00  0.00     0.029 A 
ATOM     58  N   UNL A   1      43.311  41.549  40.595  1.00  0.00    -0.354 N 
ATOM     59  N   UNL A   1      45.254  39.885  39.150  1.00  0.00    -0.248 NA
ATOM     60  C   UNL A   1      47.397  39.574  38.279  1.00  0.00     0.031 C 
ATOM     61  C   UNL A   1      43.984  43.507  41.398  1.00  0.00     0.029 A 
ATOM     62  C   UNL A   1      44.407  42.385  40.703  1.00  0.00     0.049 A 
ATOM     63  H   UNL A   1      43.307  40.676  40.139  1.00  0.00     0.167 HD
ATOM     64  C   UNL A   1      46.047  40.976  39.490  1.00  0.00     0.074 A 
ATOM     65  C   UNL A   1      47.368  40.711  38.958  1.00  0.00     0.031 C 
ATOM     66  C   UNL A   1      45.719  42.097  40.181  1.00  0.00     0.037 A 
BRANCH  53  67
ATOM     67  C   UNL A   1      39.808  42.321  41.945  1.00  0.00     0.058 A 
ATOM     68  C   UNL A   1      39.418  42.080  43.271  1.00  0.00     0.135 A 
ATOM     69  C   UNL A   1      39.184  43.376  41.258  1.00  0.00     0.135 A 
ATOM     70  F   UNL A   1      39.964  41.068  43.964  1.00  0.00    -0.206 F 
ATOM     71  C   UNL A   1      38.447  42.858  43.895  1.00  0.00     0.059 A 
ATOM     72  C   UNL A   1      38.229  44.180  41.869  1.00  0.00     0.059 A 
ATOM     73  F   UNL A   1      39.513  43.639  39.983  1.00  0.00    -0.206 F 
ATOM     74  C   UNL A   1      37.865  43.912  43.187  1.00  0.00     0.060 A 
BRANCH  74  75
ATOM     75  S   UNL A   1      36.646  44.945  44.027  1.00  0.00     0.124 S 
ATOM     76  O   UNL A   1      37.401  45.405  45.187  1.00  0.00    -0.237 OA
ATOM     77  O   UNL A   1      36.350  45.959  43.020  1.00  0.00    -0.237 OA
ATOM     78  O   UNL A   1      35.556  44.017  44.317  1.00  0.00    -0.744 OA
ENDBRANCH  74  75
ENDBRANCH  53  67
BRANCH  54  79
ATOM     79  C   UNL A   1      46.741  36.967  37.117  1.00  0.00     0.058 A 
ATOM     80  C   UNL A   1      46.829  37.080  35.722  1.00  0.00     0.135 A 
ATOM     81  C   UNL A   1      47.628  36.087  37.756  1.00  0.00     0.135 A 
ATOM     82  F   UNL A   1      45.998  37.902  35.062  1.00  0.00    -0.206 F 
ATOM     83  C   UNL A   1      47.731  36.320  34.983  1.00  0.00     0.059 A 
ATOM     84  C   UNL A   1      48.558  35.338  37.043  1.00  0.00     0.059 A 
ATOM     85  F   UNL A   1      47.597  35.950  39.091  1.00  0.00    -0.206 F 
ATOM     86  C   UNL A   1      48.589  35.446  35.653  1.00  0.00     0.060 A 
BRANCH  86  87
ATOM     87  S   UNL A   1      49.763  34.469  34.691  1.00  0.00     0.124 S 
ATOM     88  O   UNL A   1      49.817  33.233  35.461  1.00  0.00    -0.237 OA
ATOM     89  O   UNL A   1      49.102  34.385  33.392  1.00  0.00    -0.237 OA
ATOM     90  O   UNL A   1      50.975  35.283  34.716  1.00  0.00    -0.744 OA
ENDBRANCH  86  87
ENDBRANCH  54  79
BRANCH  66  91
ATOM     91  C   UNL A   1      46.816  43.091  40.451  1.00  0.00     0.058 A 
ATOM     92  C   UNL A   1      47.085  44.157  39.580  1.00  0.00     0.135 A 
ATOM     93  C   UNL A   1      47.595  42.983  41.615  1.00  0.00     0.135 A 
ATOM     94  F   UNL A   1      46.369  44.309  38.455  1.00  0.00    -0.206 F 
ATOM     95  C   UNL A   1      48.122  45.053  39.828  1.00  0.00     0.059 A 
ATOM     96  C   UNL A   1      48.614  43.886  41.898  1.00  0.00     0.059 A 
ATOM     97  F   UNL A   1      47.367  41.993  42.493  1.00  0.00    -0.206 F 
ATOM     98  C   UNL A   1      48.885  44.904  40.986  1.00  0.00     0.060 A 
BRANCH  98  99
ATOM     99  S   UNL A   1      50.236  46.061  41.291  1.00  0.00     0.124 S 
ATOM    100  O   UNL A   1      49.609  47.337  40.963  1.00  0.00    -0.237 OA
ATOM    101  O   UNL A   1      50.525  45.842  42.706  1.00  0.00    -0.237 OA
ATOM    102  O   UNL A   1      51.278  45.618  40.370  1.00  0.00    -0.744 OA
ENDBRANCH  98  99
ENDBRANCH  66  91
ENDBRANCH  40  41
ENDBRANCH  33  35
ENDBRANCH  32  33
ENDBRANCH  31  32
ENDBRANCH  30  31
ENDBRANCH  29  30
ENDBRANCH  28  29
ENDBRANCH  27  28
ENDBRANCH  26  27
ENDBRANCH  25  26
ENDBRANCH   1  25
TORSDOF 29
ENDMDL
