MODEL 1
REMARK VINA RESULT:      -7.6      0.000      0.000
REMARK SMILES O=C(CCc1cccnc1)Nc1ccsc1C(=O)OCCOCCOCCOCCOC(=O)c1ccc(-c2c3nc(c(-c4c(F)cc(S(=O)(=O)[O-])cc4F)c4ccc([nH]4)c(-c4c(F)cc(S(=O)(=O)[O-])cc4F)c4nc(c(-c5c(F)cc(S(=O)(=O)[O-])cc5F)c5ccc2[nH]5)C=C4)C=C3)cc1
REMARK SMILES IDX 24 1 23 2 22 3 21 4 20 5 19 6 17 7 18 8 16 9 12 10 13 11
REMARK SMILES IDX 14 12 15 13 11 14 1 15 2 16 3 18 4 19 5 20 6 21 10 22 7 23
REMARK SMILES IDX 9 24 8 25 25 26 26 27 27 28 28 29 29 30 30 31 31 32 32 33
REMARK SMILES IDX 33 34 34 35 35 36 99 37 36 38 98 39 37 40 38 41 39 42 92 43
REMARK SMILES IDX 40 44 97 45 91 46 93 47 41 48 96 49 90 50 89 51 42 53 76 54
REMARK SMILES IDX 55 55 75 56 56 57 59 58 74 59 94 60 57 61 58 62 73 64 95 65
REMARK SMILES IDX 60 66 43 67 44 68 53 69 45 70 46 71 52 72 54 73 47 74 48 75
REMARK SMILES IDX 49 76 50 77 51 78 77 79 78 80 87 81 79 82 80 83 86 84 88 85
REMARK SMILES IDX 81 86 82 87 83 88 84 89 85 90 61 91 62 92 71 93 63 94 64 95
REMARK SMILES IDX 70 96 72 97 65 98 66 99 67 100 68 101 69 102
REMARK H PARENT 11 17 93 52 59 63
REMARK Flexibility Score: inf
ROOT
ATOM      1  C   UNL A   1      44.539  25.672  28.578  1.00  0.00     0.188 C 
ENDROOT
BRANCH   1   2
ATOM      2  C   UNL A   1      45.963  26.111  28.979  1.00  0.00     0.188 C 
BRANCH   2   3
ATOM      3  O   UNL A   1      47.116  25.319  28.722  1.00  0.00    -0.376 OA
BRANCH   3   4
ATOM      4  C   UNL A   1      47.280  24.638  27.488  1.00  0.00     0.202 C 
BRANCH   4   5
ATOM      5  C   UNL A   1      48.427  25.027  26.546  1.00  0.00     0.261 C 
BRANCH   5   6
ATOM      6  O   UNL A   1      48.073  25.935  25.493  1.00  0.00    -0.459 OA
BRANCH   6   7
ATOM      7  C   UNL A   1      47.990  27.248  25.850  1.00  0.00     0.350 C 
ATOM      8  O   UNL A   1      46.965  27.917  25.779  1.00  0.00    -0.245 OA
BRANCH   7   9
ATOM      9  C   UNL A   1      49.253  27.695  26.419  1.00  0.00     0.136 A 
ATOM     10  C   UNL A   1      50.567  27.633  25.961  1.00  0.00     0.066 A 
ATOM     11  C   UNL A   1      51.472  28.155  26.943  1.00  0.00     0.039 A 
ATOM     12  C   UNL A   1      50.844  28.590  28.086  1.00  0.00     0.068 A 
ATOM     13  S   UNL A   1      49.160  28.417  27.983  1.00  0.00    -0.135 S 
BRANCH  10  14
ATOM     14  N   UNL A   1      50.924  27.151  24.696  1.00  0.00    -0.325 N 
ATOM     15  O   UNL A   1      51.301  29.155  23.594  1.00  0.00    -0.275 OA
ATOM     16  C   UNL A   1      51.133  27.934  23.576  1.00  0.00     0.224 C 
ATOM     17  H   UNL A   1      51.035  26.177  24.596  1.00  0.00     0.169 HD
BRANCH  16  18
ATOM     18  C   UNL A   1      50.988  27.233  22.230  1.00  0.00     0.105 C 
BRANCH  18  19
ATOM     19  C   UNL A   1      52.260  26.895  21.463  1.00  0.00     0.047 C 
BRANCH  19  20
ATOM     20  C   UNL A   1      52.137  26.476  20.019  1.00  0.00    -0.029 A 
ATOM     21  C   UNL A   1      53.038  26.816  19.006  1.00  0.00     0.007 A 
ATOM     22  C   UNL A   1      51.060  25.668  19.654  1.00  0.00     0.114 A 
ATOM     23  C   UNL A   1      52.810  26.394  17.699  1.00  0.00     0.020 A 
ATOM     24  N   UNL A   1      50.813  25.245  18.394  1.00  0.00    -0.264 NA
ATOM     25  C   UNL A   1      51.701  25.607  17.447  1.00  0.00     0.111 A 
ENDBRANCH  19  20
ENDBRANCH  18  19
ENDBRANCH  16  18
ENDBRANCH  10  14
ENDBRANCH   7   9
ENDBRANCH   6   7
ENDBRANCH   5   6
ENDBRANCH   4   5
ENDBRANCH   3   4
ENDBRANCH   2   3
ENDBRANCH   1   2
BRANCH   1  26
ATOM     26  O   UNL A   1      44.409  25.168  27.260  1.00  0.00    -0.377 OA
BRANCH  26  27
ATOM     27  C   UNL A   1      43.774  23.894  27.162  1.00  0.00     0.188 C 
BRANCH  27  28
ATOM     28  C   UNL A   1      43.591  23.342  25.737  1.00  0.00     0.188 C 
BRANCH  28  29
ATOM     29  O   UNL A   1      42.504  22.419  25.635  1.00  0.00    -0.376 OA
BRANCH  29  30
ATOM     30  C   UNL A   1      41.545  22.465  26.691  1.00  0.00     0.202 C 
BRANCH  30  31
ATOM     31  C   UNL A   1      40.124  22.829  26.233  1.00  0.00     0.261 C 
BRANCH  31  32
ATOM     32  O   UNL A   1      39.622  24.072  26.756  1.00  0.00    -0.460 OA
BRANCH  32  33
ATOM     33  C   UNL A   1      40.314  25.188  26.442  1.00  0.00     0.338 C 
ATOM     34  O   UNL A   1      40.648  25.552  25.329  1.00  0.00    -0.246 OA
BRANCH  33  35
ATOM     35  C   UNL A   1      40.441  26.013  27.659  1.00  0.00     0.060 A 
ATOM     36  C   UNL A   1      39.477  25.864  28.663  1.00  0.00     0.016 A 
ATOM     37  C   UNL A   1      41.475  26.943  27.800  1.00  0.00     0.016 A 
ATOM     38  C   UNL A   1      39.514  26.687  29.788  1.00  0.00     0.010 A 
ATOM     39  C   UNL A   1      41.502  27.776  28.923  1.00  0.00     0.010 A 
ATOM     40  C   UNL A   1      40.499  27.676  29.902  1.00  0.00    -0.014 A 
BRANCH  40  41
ATOM     41  C   UNL A   1      40.374  28.708  30.959  1.00  0.00     0.031 A 
ATOM     42  C   UNL A   1      41.242  28.595  32.184  1.00  0.00     0.074 A 
ATOM     43  C   UNL A   1      39.521  29.739  30.824  1.00  0.00     0.049 A 
ATOM     44  N   UNL A   1      41.323  29.390  33.218  1.00  0.00    -0.248 NA
ATOM     45  C   UNL A   1      42.140  27.428  32.252  1.00  0.00     0.031 C 
ATOM     46  C   UNL A   1      38.633  29.959  29.684  1.00  0.00     0.029 A 
ATOM     47  N   UNL A   1      39.258  30.793  31.663  1.00  0.00    -0.354 N 
ATOM     48  C   UNL A   1      42.274  28.825  34.059  1.00  0.00     0.074 A 
ATOM     49  C   UNL A   1      42.726  27.603  33.428  1.00  0.00     0.031 C 
ATOM     50  C   UNL A   1      37.906  31.069  29.904  1.00  0.00     0.029 A 
ATOM     51  C   UNL A   1      38.270  31.630  31.203  1.00  0.00     0.049 A 
ATOM     52  H   UNL A   1      39.733  30.935  32.513  1.00  0.00     0.167 HD
ATOM     53  C   UNL A   1      42.737  29.286  35.244  1.00  0.00     0.037 A 
ATOM     54  C   UNL A   1      37.717  32.719  31.776  1.00  0.00     0.037 A 
ATOM     55  C   UNL A   1      42.296  30.506  35.865  1.00  0.00     0.049 A 
ATOM     56  C   UNL A   1      38.235  33.199  33.109  1.00  0.00     0.074 A 
ATOM     57  C   UNL A   1      42.750  31.087  37.035  1.00  0.00     0.029 A 
ATOM     58  N   UNL A   1      41.293  31.326  35.373  1.00  0.00    -0.354 N 
ATOM     59  N   UNL A   1      39.188  32.692  33.855  1.00  0.00    -0.248 NA
ATOM     60  C   UNL A   1      37.612  34.406  33.671  1.00  0.00     0.031 C 
ATOM     61  C   UNL A   1      41.988  32.236  37.276  1.00  0.00     0.029 A 
ATOM     62  C   UNL A   1      41.090  32.393  36.233  1.00  0.00     0.049 A 
ATOM     63  H   UNL A   1      40.797  31.173  34.537  1.00  0.00     0.167 HD
ATOM     64  C   UNL A   1      39.290  33.528  34.963  1.00  0.00     0.074 A 
ATOM     65  C   UNL A   1      38.315  34.583  34.780  1.00  0.00     0.031 C 
ATOM     66  C   UNL A   1      40.115  33.434  36.036  1.00  0.00     0.037 A 
BRANCH  53  67
ATOM     67  C   UNL A   1      43.770  28.465  35.960  1.00  0.00     0.058 A 
ATOM     68  C   UNL A   1      43.412  27.405  36.807  1.00  0.00     0.135 A 
ATOM     69  C   UNL A   1      45.138  28.703  35.747  1.00  0.00     0.135 A 
ATOM     70  F   UNL A   1      42.119  27.149  37.060  1.00  0.00    -0.206 F 
ATOM     71  C   UNL A   1      44.375  26.612  37.423  1.00  0.00     0.059 A 
ATOM     72  C   UNL A   1      46.117  27.910  36.336  1.00  0.00     0.059 A 
ATOM     73  F   UNL A   1      45.531  29.712  34.952  1.00  0.00    -0.206 F 
ATOM     74  C   UNL A   1      45.725  26.870  37.177  1.00  0.00     0.060 A 
BRANCH  74  75
ATOM     75  S   UNL A   1      46.962  25.810  37.955  1.00  0.00     0.124 S 
ATOM     76  O   UNL A   1      46.958  24.655  37.063  1.00  0.00    -0.237 OA
ATOM     77  O   UNL A   1      48.160  26.641  37.909  1.00  0.00    -0.237 OA
ATOM     78  O   UNL A   1      46.417  25.574  39.289  1.00  0.00    -0.744 OA
ENDBRANCH  74  75
ENDBRANCH  53  67
BRANCH  54  79
ATOM     79  C   UNL A   1      36.592  33.424  31.106  1.00  0.00     0.058 A 
ATOM     80  C   UNL A   1      35.280  33.341  31.596  1.00  0.00     0.135 A 
ATOM     81  C   UNL A   1      36.808  34.171  29.938  1.00  0.00     0.135 A 
ATOM     82  F   UNL A   1      35.022  32.630  32.704  1.00  0.00    -0.206 F 
ATOM     83  C   UNL A   1      34.217  33.952  30.938  1.00  0.00     0.059 A 
ATOM     84  C   UNL A   1      35.764  34.810  29.275  1.00  0.00     0.059 A 
ATOM     85  F   UNL A   1      38.046  34.291  29.435  1.00  0.00    -0.206 F 
ATOM     86  C   UNL A   1      34.469  34.681  29.774  1.00  0.00     0.060 A 
BRANCH  86  87
ATOM     87  S   UNL A   1      33.090  35.486  28.931  1.00  0.00     0.124 S 
ATOM     88  O   UNL A   1      33.774  36.542  28.195  1.00  0.00    -0.237 OA
ATOM     89  O   UNL A   1      32.540  34.400  28.127  1.00  0.00    -0.237 OA
ATOM     90  O   UNL A   1      32.241  35.932  30.032  1.00  0.00    -0.744 OA
ENDBRANCH  86  87
ENDBRANCH  54  79
BRANCH  66  91
ATOM     91  C   UNL A   1      40.012  34.506  37.085  1.00  0.00     0.058 A 
ATOM     92  C   UNL A   1      39.088  34.417  38.138  1.00  0.00     0.135 A 
ATOM     93  C   UNL A   1      40.872  35.615  37.059  1.00  0.00     0.135 A 
ATOM     94  F   UNL A   1      38.242  33.377  38.207  1.00  0.00    -0.206 F 
ATOM     95  C   UNL A   1      39.000  35.406  39.112  1.00  0.00     0.059 A 
ATOM     96  C   UNL A   1      40.820  36.604  38.038  1.00  0.00     0.059 A 
ATOM     97  F   UNL A   1      41.785  35.741  36.082  1.00  0.00    -0.206 F 
ATOM     98  C   UNL A   1      39.868  36.497  39.052  1.00  0.00     0.060 A 
BRANCH  98  99
ATOM     99  S   UNL A   1      39.757  37.769  40.329  1.00  0.00     0.124 S 
ATOM    100  O   UNL A   1      40.020  36.994  41.537  1.00  0.00    -0.237 OA
ATOM    101  O   UNL A   1      40.806  38.704  39.935  1.00  0.00    -0.237 OA
ATOM    102  O   UNL A   1      38.394  38.272  40.188  1.00  0.00    -0.744 OA
ENDBRANCH  98  99
ENDBRANCH  66  91
ENDBRANCH  40  41
ENDBRANCH  33  35
ENDBRANCH  32  33
ENDBRANCH  31  32
ENDBRANCH  30  31
ENDBRANCH  29  30
ENDBRANCH  28  29
ENDBRANCH  27  28
ENDBRANCH  26  27
ENDBRANCH   1  26
TORSDOF 27
ENDMDL
MODEL 2
REMARK VINA RESULT:      -7.5      6.439     13.229
REMARK SMILES O=C(CCc1cccnc1)Nc1ccsc1C(=O)OCCOCCOCCOCCOC(=O)c1ccc(-c2c3nc(c(-c4c(F)cc(S(=O)(=O)[O-])cc4F)c4ccc([nH]4)c(-c4c(F)cc(S(=O)(=O)[O-])cc4F)c4nc(c(-c5c(F)cc(S(=O)(=O)[O-])cc5F)c5ccc2[nH]5)C=C4)C=C3)cc1
REMARK SMILES IDX 24 1 23 2 22 3 21 4 20 5 19 6 17 7 18 8 16 9 12 10 13 11
REMARK SMILES IDX 14 12 15 13 11 14 1 15 2 16 3 18 4 19 5 20 6 21 10 22 7 23
REMARK SMILES IDX 9 24 8 25 25 26 26 27 27 28 28 29 29 30 30 31 31 32 32 33
REMARK SMILES IDX 33 34 34 35 35 36 99 37 36 38 98 39 37 40 38 41 39 42 92 43
REMARK SMILES IDX 40 44 97 45 91 46 93 47 41 48 96 49 90 50 89 51 42 53 76 54
REMARK SMILES IDX 55 55 75 56 56 57 59 58 74 59 94 60 57 61 58 62 73 64 95 65
REMARK SMILES IDX 60 66 43 67 44 68 53 69 45 70 46 71 52 72 54 73 47 74 48 75
REMARK SMILES IDX 49 76 50 77 51 78 77 79 78 80 87 81 79 82 80 83 86 84 88 85
REMARK SMILES IDX 81 86 82 87 83 88 84 89 85 90 61 91 62 92 71 93 63 94 64 95
REMARK SMILES IDX 70 96 72 97 65 98 66 99 67 100 68 101 69 102
REMARK H PARENT 11 17 93 52 59 63
REMARK Flexibility Score: inf
ROOT
ATOM      1  C   UNL A   1      41.356  26.414  28.509  1.00  0.00     0.188 C 
ENDROOT
BRANCH   1   2
ATOM      2  C   UNL A   1      41.980  27.299  29.608  1.00  0.00     0.188 C 
BRANCH   2   3
ATOM      3  O   UNL A   1      41.319  28.434  30.155  1.00  0.00    -0.376 OA
BRANCH   3   4
ATOM      4  C   UNL A   1      40.361  28.297  31.192  1.00  0.00     0.202 C 
BRANCH   4   5
ATOM      5  C   UNL A   1      38.864  28.350  30.863  1.00  0.00     0.261 C 
BRANCH   5   6
ATOM      6  O   UNL A   1      38.393  29.604  30.348  1.00  0.00    -0.459 OA
BRANCH   6   7
ATOM      7  C   UNL A   1      37.971  29.587  29.052  1.00  0.00     0.350 C 
ATOM      8  O   UNL A   1      38.166  28.657  28.276  1.00  0.00    -0.245 OA
BRANCH   7   9
ATOM      9  C   UNL A   1      37.174  30.771  28.767  1.00  0.00     0.136 A 
ATOM     10  C   UNL A   1      36.144  31.019  27.863  1.00  0.00     0.066 A 
ATOM     11  C   UNL A   1      35.734  32.392  27.923  1.00  0.00     0.039 A 
ATOM     12  C   UNL A   1      36.438  33.131  28.844  1.00  0.00     0.068 A 
ATOM     13  S   UNL A   1      37.572  32.182  29.677  1.00  0.00    -0.135 S 
BRANCH  10  14
ATOM     14  N   UNL A   1      35.582  30.034  27.042  1.00  0.00    -0.325 N 
ATOM     15  O   UNL A   1      33.339  30.318  27.552  1.00  0.00    -0.275 OA
ATOM     16  C   UNL A   1      34.250  29.664  27.042  1.00  0.00     0.224 C 
ATOM     17  H   UNL A   1      36.182  29.568  26.416  1.00  0.00     0.169 HD
BRANCH  16  18
ATOM     18  C   UNL A   1      33.940  28.272  26.500  1.00  0.00     0.105 C 
BRANCH  18  19
ATOM     19  C   UNL A   1      33.637  28.139  25.013  1.00  0.00     0.047 C 
BRANCH  19  20
ATOM     20  C   UNL A   1      33.731  26.772  24.382  1.00  0.00    -0.029 A 
ATOM     21  C   UNL A   1      33.453  26.488  23.041  1.00  0.00     0.007 A 
ATOM     22  C   UNL A   1      34.147  25.703  25.175  1.00  0.00     0.114 A 
ATOM     23  C   UNL A   1      33.547  25.181  22.571  1.00  0.00     0.020 A 
ATOM     24  N   UNL A   1      34.246  24.426  24.747  1.00  0.00    -0.264 NA
ATOM     25  C   UNL A   1      33.956  24.195  23.450  1.00  0.00     0.111 A 
ENDBRANCH  19  20
ENDBRANCH  18  19
ENDBRANCH  16  18
ENDBRANCH  10  14
ENDBRANCH   7   9
ENDBRANCH   6   7
ENDBRANCH   5   6
ENDBRANCH   4   5
ENDBRANCH   3   4
ENDBRANCH   2   3
ENDBRANCH   1   2
BRANCH   1  26
ATOM     26  O   UNL A   1      42.222  26.077  27.439  1.00  0.00    -0.377 OA
BRANCH  26  27
ATOM     27  C   UNL A   1      41.595  25.406  26.346  1.00  0.00     0.188 C 
BRANCH  27  28
ATOM     28  C   UNL A   1      41.232  23.930  26.584  1.00  0.00     0.188 C 
BRANCH  28  29
ATOM     29  O   UNL A   1      41.858  23.047  25.648  1.00  0.00    -0.376 OA
BRANCH  29  30
ATOM     30  C   UNL A   1      42.434  21.863  26.198  1.00  0.00     0.202 C 
BRANCH  30  31
ATOM     31  C   UNL A   1      42.319  21.760  27.727  1.00  0.00     0.261 C 
BRANCH  31  32
ATOM     32  O   UNL A   1      43.526  22.072  28.445  1.00  0.00    -0.460 OA
BRANCH  32  33
ATOM     33  C   UNL A   1      43.486  23.138  29.272  1.00  0.00     0.338 C 
ATOM     34  O   UNL A   1      42.772  23.277  30.249  1.00  0.00    -0.246 OA
BRANCH  33  35
ATOM     35  C   UNL A   1      44.593  24.045  28.915  1.00  0.00     0.060 A 
ATOM     36  C   UNL A   1      45.160  24.827  29.929  1.00  0.00     0.016 A 
ATOM     37  C   UNL A   1      45.047  24.152  27.597  1.00  0.00     0.016 A 
ATOM     38  C   UNL A   1      46.149  25.759  29.615  1.00  0.00     0.010 A 
ATOM     39  C   UNL A   1      46.030  25.096  27.284  1.00  0.00     0.010 A 
ATOM     40  C   UNL A   1      46.556  25.930  28.285  1.00  0.00    -0.014 A 
BRANCH  40  41
ATOM     41  C   UNL A   1      47.404  27.092  27.927  1.00  0.00     0.031 A 
ATOM     42  C   UNL A   1      48.874  26.866  27.689  1.00  0.00     0.074 A 
ATOM     43  C   UNL A   1      46.876  28.321  27.796  1.00  0.00     0.049 A 
ATOM     44  N   UNL A   1      49.798  27.723  27.342  1.00  0.00    -0.248 NA
ATOM     45  C   UNL A   1      49.368  25.488  27.865  1.00  0.00     0.031 C 
ATOM     46  C   UNL A   1      45.469  28.664  27.996  1.00  0.00     0.029 A 
ATOM     47  N   UNL A   1      47.469  29.515  27.469  1.00  0.00    -0.354 N 
ATOM     48  C   UNL A   1      50.979  26.995  27.260  1.00  0.00     0.074 A 
ATOM     49  C   UNL A   1      50.663  25.629  27.618  1.00  0.00     0.031 C 
ATOM     50  C   UNL A   1      45.310  29.986  27.808  1.00  0.00     0.029 A 
ATOM     51  C   UNL A   1      46.604  30.583  27.484  1.00  0.00     0.049 A 
ATOM     52  H   UNL A   1      48.424  29.597  27.243  1.00  0.00     0.167 HD
ATOM     53  C   UNL A   1      52.214  27.423  26.907  1.00  0.00     0.037 A 
ATOM     54  C   UNL A   1      46.838  31.894  27.273  1.00  0.00     0.037 A 
ATOM     55  C   UNL A   1      52.525  28.779  26.540  1.00  0.00     0.049 A 
ATOM     56  C   UNL A   1      48.228  32.349  26.904  1.00  0.00     0.074 A 
ATOM     57  C   UNL A   1      53.734  29.296  26.109  1.00  0.00     0.029 A 
ATOM     58  N   UNL A   1      51.626  29.833  26.571  1.00  0.00    -0.354 N 
ATOM     59  N   UNL A   1      49.319  31.634  26.758  1.00  0.00    -0.248 NA
ATOM     60  C   UNL A   1      48.417  33.786  26.659  1.00  0.00     0.031 C 
ATOM     61  C   UNL A   1      53.577  30.675  25.924  1.00  0.00     0.029 A 
ATOM     62  C   UNL A   1      52.261  31.006  26.197  1.00  0.00     0.049 A 
ATOM     63  H   UNL A   1      50.677  29.760  26.821  1.00  0.00     0.167 HD
ATOM     64  C   UNL A   1      50.316  32.531  26.386  1.00  0.00     0.074 A 
ATOM     65  C   UNL A   1      49.695  33.837  26.312  1.00  0.00     0.031 C 
ATOM     66  C   UNL A   1      51.628  32.298  26.129  1.00  0.00     0.037 A 
BRANCH  53  67
ATOM     67  C   UNL A   1      53.330  26.420  26.910  1.00  0.00     0.058 A 
ATOM     68  C   UNL A   1      53.589  25.603  25.799  1.00  0.00     0.135 A 
ATOM     69  C   UNL A   1      54.190  26.319  28.015  1.00  0.00     0.135 A 
ATOM     70  F   UNL A   1      52.785  25.646  24.725  1.00  0.00    -0.206 F 
ATOM     71  C   UNL A   1      54.661  24.716  25.786  1.00  0.00     0.059 A 
ATOM     72  C   UNL A   1      55.279  25.454  28.016  1.00  0.00     0.059 A 
ATOM     73  F   UNL A   1      53.978  27.074  29.106  1.00  0.00    -0.206 F 
ATOM     74  C   UNL A   1      55.503  24.652  26.898  1.00  0.00     0.060 A 
BRANCH  74  75
ATOM     75  S   UNL A   1      56.910  23.522  26.852  1.00  0.00     0.124 S 
ATOM     76  O   UNL A   1      56.292  22.308  26.328  1.00  0.00    -0.237 OA
ATOM     77  O   UNL A   1      57.830  24.205  25.949  1.00  0.00    -0.237 OA
ATOM     78  O   UNL A   1      57.338  23.456  28.246  1.00  0.00    -0.744 OA
ENDBRANCH  74  75
ENDBRANCH  53  67
BRANCH  54  79
ATOM     79  C   UNL A   1      45.737  32.882  27.424  1.00  0.00     0.058 A 
ATOM     80  C   UNL A   1      44.883  33.196  26.356  1.00  0.00     0.135 A 
ATOM     81  C   UNL A   1      45.540  33.556  28.639  1.00  0.00     0.135 A 
ATOM     82  F   UNL A   1      45.039  32.585  25.172  1.00  0.00    -0.206 F 
ATOM     83  C   UNL A   1      43.890  34.163  26.478  1.00  0.00     0.059 A 
ATOM     84  C   UNL A   1      44.539  34.510  28.792  1.00  0.00     0.059 A 
ATOM     85  F   UNL A   1      46.323  33.283  29.694  1.00  0.00    -0.206 F 
ATOM     86  C   UNL A   1      43.728  34.819  27.700  1.00  0.00     0.060 A 
BRANCH  86  87
ATOM     87  S   UNL A   1      42.427  36.061  27.861  1.00  0.00     0.124 S 
ATOM     88  O   UNL A   1      41.271  35.233  28.184  1.00  0.00    -0.237 OA
ATOM     89  O   UNL A   1      42.932  36.902  28.941  1.00  0.00    -0.237 OA
ATOM     90  O   UNL A   1      42.404  36.692  26.544  1.00  0.00    -0.744 OA
ENDBRANCH  86  87
ENDBRANCH  54  79
BRANCH  66  91
ATOM     91  C   UNL A   1      52.474  33.473  25.728  1.00  0.00     0.058 A 
ATOM     92  C   UNL A   1      53.105  34.285  26.684  1.00  0.00     0.135 A 
ATOM     93  C   UNL A   1      52.688  33.770  24.372  1.00  0.00     0.135 A 
ATOM     94  F   UNL A   1      52.932  34.045  27.993  1.00  0.00    -0.206 F 
ATOM     95  C   UNL A   1      53.895  35.367  26.310  1.00  0.00     0.059 A 
ATOM     96  C   UNL A   1      53.494  34.832  23.974  1.00  0.00     0.059 A 
ATOM     97  F   UNL A   1      52.119  33.017  23.417  1.00  0.00    -0.206 F 
ATOM     98  C   UNL A   1      54.081  35.635  24.953  1.00  0.00     0.060 A 
BRANCH  98  99
ATOM     99  S   UNL A   1      55.119  37.033  24.476  1.00  0.00     0.124 S 
ATOM    100  O   UNL A   1      54.675  38.061  25.413  1.00  0.00    -0.237 OA
ATOM    101  O   UNL A   1      56.466  36.515  24.695  1.00  0.00    -0.237 OA
ATOM    102  O   UNL A   1      54.762  37.259  23.079  1.00  0.00    -0.744 OA
ENDBRANCH  98  99
ENDBRANCH  66  91
ENDBRANCH  40  41
ENDBRANCH  33  35
ENDBRANCH  32  33
ENDBRANCH  31  32
ENDBRANCH  30  31
ENDBRANCH  29  30
ENDBRANCH  28  29
ENDBRANCH  27  28
ENDBRANCH  26  27
ENDBRANCH   1  26
TORSDOF 27
ENDMDL
MODEL 3
REMARK VINA RESULT:      -7.3      2.261      3.346
REMARK SMILES O=C(CCc1cccnc1)Nc1ccsc1C(=O)OCCOCCOCCOCCOC(=O)c1ccc(-c2c3nc(c(-c4c(F)cc(S(=O)(=O)[O-])cc4F)c4ccc([nH]4)c(-c4c(F)cc(S(=O)(=O)[O-])cc4F)c4nc(c(-c5c(F)cc(S(=O)(=O)[O-])cc5F)c5ccc2[nH]5)C=C4)C=C3)cc1
REMARK SMILES IDX 24 1 23 2 22 3 21 4 20 5 19 6 17 7 18 8 16 9 12 10 13 11
REMARK SMILES IDX 14 12 15 13 11 14 1 15 2 16 3 18 4 19 5 20 6 21 10 22 7 23
REMARK SMILES IDX 9 24 8 25 25 26 26 27 27 28 28 29 29 30 30 31 31 32 32 33
REMARK SMILES IDX 33 34 34 35 35 36 99 37 36 38 98 39 37 40 38 41 39 42 92 43
REMARK SMILES IDX 40 44 97 45 91 46 93 47 41 48 96 49 90 50 89 51 42 53 76 54
REMARK SMILES IDX 55 55 75 56 56 57 59 58 74 59 94 60 57 61 58 62 73 64 95 65
REMARK SMILES IDX 60 66 43 67 44 68 53 69 45 70 46 71 52 72 54 73 47 74 48 75
REMARK SMILES IDX 49 76 50 77 51 78 77 79 78 80 87 81 79 82 80 83 86 84 88 85
REMARK SMILES IDX 81 86 82 87 83 88 84 89 85 90 61 91 62 92 71 93 63 94 64 95
REMARK SMILES IDX 70 96 72 97 65 98 66 99 67 100 68 101 69 102
REMARK H PARENT 11 17 93 52 59 63
REMARK Flexibility Score: inf
ROOT
ATOM      1  C   UNL A   1      44.314  25.797  28.884  1.00  0.00     0.188 C 
ENDROOT
BRANCH   1   2
ATOM      2  C   UNL A   1      45.676  26.087  29.549  1.00  0.00     0.188 C 
BRANCH   2   3
ATOM      3  O   UNL A   1      46.646  25.075  29.797  1.00  0.00    -0.376 OA
BRANCH   3   4
ATOM      4  C   UNL A   1      47.893  25.072  29.121  1.00  0.00     0.202 C 
BRANCH   4   5
ATOM      5  C   UNL A   1      49.158  25.547  29.847  1.00  0.00     0.261 C 
BRANCH   5   6
ATOM      6  O   UNL A   1      49.321  26.971  29.927  1.00  0.00    -0.459 OA
BRANCH   6   7
ATOM      7  C   UNL A   1      50.578  27.435  29.678  1.00  0.00     0.350 C 
ATOM      8  O   UNL A   1      51.227  28.121  30.460  1.00  0.00    -0.245 OA
BRANCH   7   9
ATOM      9  C   UNL A   1      51.066  26.911  28.411  1.00  0.00     0.136 A 
ATOM     10  C   UNL A   1      50.428  26.594  27.214  1.00  0.00     0.066 A 
ATOM     11  C   UNL A   1      51.356  26.032  26.276  1.00  0.00     0.039 A 
ATOM     12  C   UNL A   1      52.637  25.939  26.766  1.00  0.00     0.068 A 
ATOM     13  S   UNL A   1      52.754  26.562  28.341  1.00  0.00    -0.135 S 
BRANCH  10  14
ATOM     14  N   UNL A   1      49.069  26.834  26.974  1.00  0.00    -0.325 N 
ATOM     15  O   UNL A   1      49.222  28.753  25.683  1.00  0.00    -0.275 OA
ATOM     16  C   UNL A   1      48.558  27.956  26.347  1.00  0.00     0.224 C 
ATOM     17  H   UNL A   1      48.428  26.151  27.276  1.00  0.00     0.169 HD
BRANCH  16  18
ATOM     18  C   UNL A   1      47.099  28.284  26.646  1.00  0.00     0.105 C 
BRANCH  18  19
ATOM     19  C   UNL A   1      46.035  27.688  25.732  1.00  0.00     0.047 C 
BRANCH  19  20
ATOM     20  C   UNL A   1      44.627  28.220  25.830  1.00  0.00    -0.029 A 
ATOM     21  C   UNL A   1      44.200  29.195  26.737  1.00  0.00     0.007 A 
ATOM     22  C   UNL A   1      43.670  27.730  24.942  1.00  0.00     0.114 A 
ATOM     23  C   UNL A   1      42.866  29.593  26.756  1.00  0.00     0.020 A 
ATOM     24  N   UNL A   1      42.369  28.096  24.939  1.00  0.00    -0.264 NA
ATOM     25  C   UNL A   1      41.999  29.029  25.838  1.00  0.00     0.111 A 
ENDBRANCH  19  20
ENDBRANCH  18  19
ENDBRANCH  16  18
ENDBRANCH  10  14
ENDBRANCH   7   9
ENDBRANCH   6   7
ENDBRANCH   5   6
ENDBRANCH   4   5
ENDBRANCH   3   4
ENDBRANCH   2   3
ENDBRANCH   1   2
BRANCH   1  26
ATOM     26  O   UNL A   1      44.380  25.133  27.634  1.00  0.00    -0.377 OA
BRANCH  26  27
ATOM     27  C   UNL A   1      43.757  23.851  27.600  1.00  0.00     0.188 C 
BRANCH  27  28
ATOM     28  C   UNL A   1      43.702  23.167  26.222  1.00  0.00     0.188 C 
BRANCH  28  29
ATOM     29  O   UNL A   1      42.630  22.227  26.112  1.00  0.00    -0.376 OA
BRANCH  29  30
ATOM     30  C   UNL A   1      41.608  22.327  27.102  1.00  0.00     0.202 C 
BRANCH  30  31
ATOM     31  C   UNL A   1      40.211  22.624  26.535  1.00  0.00     0.261 C 
BRANCH  31  32
ATOM     32  O   UNL A   1      39.598  23.823  27.040  1.00  0.00    -0.460 OA
BRANCH  32  33
ATOM     33  C   UNL A   1      40.183  24.994  26.706  1.00  0.00     0.338 C 
ATOM     34  O   UNL A   1      40.445  25.385  25.583  1.00  0.00    -0.246 OA
BRANCH  33  35
ATOM     35  C   UNL A   1      40.286  25.824  27.921  1.00  0.00     0.060 A 
ATOM     36  C   UNL A   1      39.226  25.794  28.835  1.00  0.00     0.016 A 
ATOM     37  C   UNL A   1      41.394  26.647  28.145  1.00  0.00     0.016 A 
ATOM     38  C   UNL A   1      39.248  26.631  29.950  1.00  0.00     0.010 A 
ATOM     39  C   UNL A   1      41.407  27.494  29.258  1.00  0.00     0.010 A 
ATOM     40  C   UNL A   1      40.316  27.517  30.143  1.00  0.00    -0.014 A 
BRANCH  40  41
ATOM     41  C   UNL A   1      40.205  28.576  31.174  1.00  0.00     0.031 A 
ATOM     42  C   UNL A   1      41.059  28.472  32.410  1.00  0.00     0.074 A 
ATOM     43  C   UNL A   1      39.377  29.623  31.005  1.00  0.00     0.049 A 
ATOM     44  N   UNL A   1      41.148  29.290  33.425  1.00  0.00    -0.248 NA
ATOM     45  C   UNL A   1      41.929  27.287  32.514  1.00  0.00     0.031 C 
ATOM     46  C   UNL A   1      38.506  29.836  29.851  1.00  0.00     0.029 A 
ATOM     47  N   UNL A   1      39.131  30.702  31.817  1.00  0.00    -0.354 N 
ATOM     48  C   UNL A   1      42.077  28.723  34.289  1.00  0.00     0.074 A 
ATOM     49  C   UNL A   1      42.507  27.476  33.692  1.00  0.00     0.031 C 
ATOM     50  C   UNL A   1      37.803  30.967  30.038  1.00  0.00     0.029 A 
ATOM     51  C   UNL A   1      38.168  31.551  31.327  1.00  0.00     0.049 A 
ATOM     52  H   UNL A   1      39.601  30.853  32.668  1.00  0.00     0.167 HD
ATOM     53  C   UNL A   1      42.540  29.202  35.467  1.00  0.00     0.037 A 
ATOM     54  C   UNL A   1      37.634  32.665  31.868  1.00  0.00     0.037 A 
ATOM     55  C   UNL A   1      42.121  30.446  36.054  1.00  0.00     0.049 A 
ATOM     56  C   UNL A   1      38.151  33.165  33.194  1.00  0.00     0.074 A 
ATOM     57  C   UNL A   1      42.577  31.045  37.216  1.00  0.00     0.029 A 
ATOM     58  N   UNL A   1      41.142  31.277  35.533  1.00  0.00    -0.354 N 
ATOM     59  N   UNL A   1      39.084  32.655  33.962  1.00  0.00    -0.248 NA
ATOM     60  C   UNL A   1      37.550  34.400  33.722  1.00  0.00     0.031 C 
ATOM     61  C   UNL A   1      41.840  32.217  37.421  1.00  0.00     0.029 A 
ATOM     62  C   UNL A   1      40.956  32.369  36.365  1.00  0.00     0.049 A 
ATOM     63  H   UNL A   1      40.651  31.115  34.696  1.00  0.00     0.167 HD
ATOM     64  C   UNL A   1      39.195  33.515  35.051  1.00  0.00     0.074 A 
ATOM     65  C   UNL A   1      38.247  34.587  34.833  1.00  0.00     0.031 C 
ATOM     66  C   UNL A   1      40.007  33.427  36.134  1.00  0.00     0.037 A 
BRANCH  53  67
ATOM     67  C   UNL A   1      43.547  28.374  36.213  1.00  0.00     0.058 A 
ATOM     68  C   UNL A   1      43.167  27.253  36.965  1.00  0.00     0.135 A 
ATOM     69  C   UNL A   1      44.916  28.673  36.123  1.00  0.00     0.135 A 
ATOM     70  F   UNL A   1      41.869  26.936  37.100  1.00  0.00    -0.206 F 
ATOM     71  C   UNL A   1      44.110  26.457  37.607  1.00  0.00     0.059 A 
ATOM     72  C   UNL A   1      45.877  27.880  36.740  1.00  0.00     0.059 A 
ATOM     73  F   UNL A   1      45.329  29.742  35.423  1.00  0.00    -0.206 F 
ATOM     74  C   UNL A   1      45.464  26.777  37.485  1.00  0.00     0.060 A 
BRANCH  74  75
ATOM     75  S   UNL A   1      46.678  25.714  38.294  1.00  0.00     0.124 S 
ATOM     76  O   UNL A   1      46.795  24.622  37.333  1.00  0.00    -0.237 OA
ATOM     77  O   UNL A   1      47.840  26.591  38.400  1.00  0.00    -0.237 OA
ATOM     78  O   UNL A   1      46.039  25.370  39.561  1.00  0.00    -0.744 OA
ENDBRANCH  74  75
ENDBRANCH  53  67
BRANCH  54  79
ATOM     79  C   UNL A   1      36.532  33.379  31.171  1.00  0.00     0.058 A 
ATOM     80  C   UNL A   1      35.207  33.303  31.624  1.00  0.00     0.135 A 
ATOM     81  C   UNL A   1      36.785  34.130  30.012  1.00  0.00     0.135 A 
ATOM     82  F   UNL A   1      34.915  32.589  32.721  1.00  0.00    -0.206 F 
ATOM     83  C   UNL A   1      34.166  33.923  30.939  1.00  0.00     0.059 A 
ATOM     84  C   UNL A   1      35.764  34.778  29.322  1.00  0.00     0.059 A 
ATOM     85  F   UNL A   1      38.038  34.244  29.544  1.00  0.00    -0.206 F 
ATOM     86  C   UNL A   1      34.455  34.655  29.785  1.00  0.00     0.060 A 
BRANCH  86  87
ATOM     87  S   UNL A   1      33.104  35.472  28.908  1.00  0.00     0.124 S 
ATOM     88  O   UNL A   1      33.820  36.497  28.158  1.00  0.00    -0.237 OA
ATOM     89  O   UNL A   1      32.540  34.381  28.120  1.00  0.00    -0.237 OA
ATOM     90  O   UNL A   1      32.252  35.960  29.988  1.00  0.00    -0.744 OA
ENDBRANCH  86  87
ENDBRANCH  54  79
BRANCH  66  91
ATOM     91  C   UNL A   1      39.919  34.526  37.156  1.00  0.00     0.058 A 
ATOM     92  C   UNL A   1      39.150  34.385  38.322  1.00  0.00     0.135 A 
ATOM     93  C   UNL A   1      40.642  35.717  36.987  1.00  0.00     0.135 A 
ATOM     94  F   UNL A   1      38.439  33.265  38.530  1.00  0.00    -0.206 F 
ATOM     95  C   UNL A   1      39.077  35.400  39.270  1.00  0.00     0.059 A 
ATOM     96  C   UNL A   1      40.604  36.736  37.935  1.00  0.00     0.059 A 
ATOM     97  F   UNL A   1      41.406  35.898  35.897  1.00  0.00    -0.206 F 
ATOM     98  C   UNL A   1      39.805  36.573  39.067  1.00  0.00     0.060 A 
BRANCH  98  99
ATOM     99  S   UNL A   1      39.715  37.879  40.310  1.00  0.00     0.124 S 
ATOM    100  O   UNL A   1      40.773  38.781  39.863  1.00  0.00    -0.237 OA
ATOM    101  O   UNL A   1      38.351  38.374  40.150  1.00  0.00    -0.237 OA
ATOM    102  O   UNL A   1      39.977  37.175  41.561  1.00  0.00    -0.744 OA
ENDBRANCH  98  99
ENDBRANCH  66  91
ENDBRANCH  40  41
ENDBRANCH  33  35
ENDBRANCH  32  33
ENDBRANCH  31  32
ENDBRANCH  30  31
ENDBRANCH  29  30
ENDBRANCH  28  29
ENDBRANCH  27  28
ENDBRANCH  26  27
ENDBRANCH   1  26
TORSDOF 27
ENDMDL
