MODEL 1
REMARK VINA RESULT:     -10.0      0.000      0.000
REMARK SMILES CC(C)Cc1cc2c(cc1Cl)C=C(C(=O)OCCOCCOCCOCCOC(=O)c1ccc(-c3c4nc(c(-c5c(F)cc(S(=O)(=O)[O-])cc5F)c5ccc([nH]5)c(-c5c(F)cc(S(=O)(=O)[O-])cc5F)c5nc(c(-c6c(F)cc(S(=O)(=O)[O-])cc6F)c6ccc3[nH]6)C=C5)C=C4)cc1)[C@@H](C(F)(F)F)O2
REMARK SMILES IDX 23 1 22 2 21 3 20 4 19 5 18 6 17 7 16 8 14 9 15 10 13 11
REMARK SMILES IDX 5 12 6 13 10 14 7 15 9 16 11 17 8 18 102 19 12 20 97 21 4 22
REMARK SMILES IDX 2 23 1 24 3 25 98 26 99 27 100 28 101 29 24 30 25 31 26 32
REMARK SMILES IDX 27 33 28 34 29 35 30 36 31 37 32 38 96 39 33 40 95 41 34 42
REMARK SMILES IDX 35 43 36 44 89 45 37 46 94 47 88 48 90 49 38 50 93 51 87 52
REMARK SMILES IDX 86 53 39 55 73 56 52 57 72 58 53 59 56 60 71 61 91 62 54 63
REMARK SMILES IDX 55 64 70 66 92 67 57 68 40 69 41 70 50 71 42 72 43 73 49 74
REMARK SMILES IDX 51 75 44 76 45 77 46 78 47 79 48 80 74 81 75 82 84 83 76 84
REMARK SMILES IDX 77 85 83 86 85 87 78 88 79 89 80 90 81 91 82 92 58 93 59 94
REMARK SMILES IDX 68 95 60 96 61 97 67 98 69 99 62 100 63 101 64 102 65 103
REMARK SMILES IDX 66 104
REMARK H PARENT 90 54 56 65
REMARK Flexibility Score: inf
ROOT
ATOM      1  C   UNL A   1      38.087  22.484  25.703  1.00  0.00     0.188 C 
ENDROOT
BRANCH   1   2
ATOM      2  O   UNL A   1      36.728  22.789  26.012  1.00  0.00    -0.377 OA
BRANCH   2   3
ATOM      3  C   UNL A   1      36.069  23.800  25.274  1.00  0.00     0.188 C 
BRANCH   3   4
ATOM      4  C   UNL A   1      35.994  23.564  23.755  1.00  0.00     0.188 C 
BRANCH   4   5
ATOM      5  O   UNL A   1      34.856  24.153  23.131  1.00  0.00    -0.376 OA
BRANCH   5   6
ATOM      6  C   UNL A   1      34.565  25.502  23.483  1.00  0.00     0.202 C 
BRANCH   6   7
ATOM      7  C   UNL A   1      33.239  26.044  22.938  1.00  0.00     0.261 C 
BRANCH   7   8
ATOM      8  O   UNL A   1      32.363  25.035  22.415  1.00  0.00    -0.460 OA
BRANCH   8   9
ATOM      9  C   UNL A   1      31.354  24.616  23.204  1.00  0.00     0.338 C 
ATOM     10  O   UNL A   1      30.234  25.089  23.283  1.00  0.00    -0.246 OA
BRANCH   9  11
ATOM     11  C   UNL A   1      31.783  23.357  23.846  1.00  0.00     0.087 C 
ATOM     12  C   UNL A   1      32.853  18.582  25.020  1.00  0.00    -0.025 A 
ATOM     13  C   UNL A   1      32.812  19.802  25.714  1.00  0.00     0.052 A 
ATOM     14  C   UNL A   1      32.621  18.613  23.636  1.00  0.00     0.045 A 
ATOM     15  C   UNL A   1      32.534  21.002  25.064  1.00  0.00     0.128 A 
ATOM     16  C   UNL A   1      32.292  19.815  22.989  1.00  0.00     0.032 A 
ATOM     17  Cl  UNL A   1      32.684  17.186  22.661  1.00  0.00    -0.084 Cl
ATOM     18  C   UNL A   1      32.219  21.010  23.710  1.00  0.00     0.019 A 
ATOM     19  O   UNL A   1      32.561  22.111  25.854  1.00  0.00    -0.475 OA
ATOM     20  C   UNL A   1      31.760  22.246  23.095  1.00  0.00     0.027 C 
ATOM     21  C   UNL A   1      32.300  23.410  25.262  1.00  0.00     0.316 C 
BRANCH  12  22
ATOM     22  C   UNL A   1      33.055  17.311  25.819  1.00  0.00     0.040 C 
BRANCH  22  23
ATOM     23  C   UNL A   1      33.599  16.090  25.046  1.00  0.00    -0.013 C 
ATOM     24  C   UNL A   1      35.100  15.858  25.248  1.00  0.00     0.008 C 
ATOM     25  C   UNL A   1      32.846  14.836  25.504  1.00  0.00     0.008 C 
ENDBRANCH  22  23
ENDBRANCH  12  22
BRANCH  21  26
ATOM     26  C   UNL A   1      31.358  24.154  26.222  1.00  0.00     0.430 C 
ATOM     27  F   UNL A   1      31.505  25.494  26.100  1.00  0.00    -0.167 F 
ATOM     28  F   UNL A   1      30.058  23.874  25.990  1.00  0.00    -0.167 F 
ATOM     29  F   UNL A   1      31.620  23.831  27.511  1.00  0.00    -0.167 F 
ENDBRANCH  21  26
ENDBRANCH   9  11
ENDBRANCH   8   9
ENDBRANCH   7   8
ENDBRANCH   6   7
ENDBRANCH   5   6
ENDBRANCH   4   5
ENDBRANCH   3   4
ENDBRANCH   2   3
ENDBRANCH   1   2
BRANCH   1  30
ATOM     30  C   UNL A   1      38.654  21.048  25.754  1.00  0.00     0.188 C 
BRANCH  30  31
ATOM     31  O   UNL A   1      40.008  20.960  26.187  1.00  0.00    -0.376 OA
BRANCH  31  32
ATOM     32  C   UNL A   1      40.447  21.976  27.079  1.00  0.00     0.202 C 
BRANCH  32  33
ATOM     33  C   UNL A   1      41.698  22.708  26.586  1.00  0.00     0.261 C 
BRANCH  33  34
ATOM     34  O   UNL A   1      41.563  24.134  26.489  1.00  0.00    -0.460 OA
BRANCH  34  35
ATOM     35  C   UNL A   1      42.653  24.885  26.768  1.00  0.00     0.338 C 
ATOM     36  O   UNL A   1      43.730  24.861  26.201  1.00  0.00    -0.246 OA
BRANCH  35  37
ATOM     37  C   UNL A   1      42.236  25.894  27.761  1.00  0.00     0.060 A 
ATOM     38  C   UNL A   1      41.090  25.689  28.535  1.00  0.00     0.016 A 
ATOM     39  C   UNL A   1      42.971  27.080  27.876  1.00  0.00     0.016 A 
ATOM     40  C   UNL A   1      40.692  26.665  29.448  1.00  0.00     0.010 A 
ATOM     41  C   UNL A   1      42.560  28.063  28.778  1.00  0.00     0.010 A 
ATOM     42  C   UNL A   1      41.433  27.851  29.587  1.00  0.00    -0.014 A 
BRANCH  42  43
ATOM     43  C   UNL A   1      41.156  28.764  30.719  1.00  0.00     0.031 A 
ATOM     44  C   UNL A   1      40.081  29.805  30.666  1.00  0.00     0.074 A 
ATOM     45  C   UNL A   1      41.928  28.633  31.813  1.00  0.00     0.049 A 
ATOM     46  N   UNL A   1      39.719  30.651  31.595  1.00  0.00    -0.248 NA
ATOM     47  C   UNL A   1      39.315  29.912  29.417  1.00  0.00     0.031 C 
ATOM     48  C   UNL A   1      43.008  27.654  31.963  1.00  0.00     0.029 A 
ATOM     49  N   UNL A   1      41.933  29.321  32.998  1.00  0.00    -0.354 N 
ATOM     50  C   UNL A   1      38.669  31.383  31.059  1.00  0.00     0.074 A 
ATOM     51  C   UNL A   1      38.477  30.902  29.704  1.00  0.00     0.031 C 
ATOM     52  C   UNL A   1      43.568  27.802  33.172  1.00  0.00     0.029 A 
ATOM     53  C   UNL A   1      42.903  28.897  33.871  1.00  0.00     0.049 A 
ATOM     54  H   UNL A   1      41.301  30.047  33.203  1.00  0.00     0.167 HD
ATOM     55  C   UNL A   1      37.931  32.355  31.651  1.00  0.00     0.037 A 
ATOM     56  C   UNL A   1      43.227  29.340  35.100  1.00  0.00     0.037 A 
ATOM     57  C   UNL A   1      38.153  32.844  32.992  1.00  0.00     0.049 A 
ATOM     58  C   UNL A   1      42.423  30.447  35.714  1.00  0.00     0.074 A 
ATOM     59  C   UNL A   1      37.450  33.816  33.683  1.00  0.00     0.029 A 
ATOM     60  N   UNL A   1      39.160  32.408  33.844  1.00  0.00    -0.354 N 
ATOM     61  N   UNL A   1      41.407  31.104  35.208  1.00  0.00    -0.248 NA
ATOM     62  C   UNL A   1      42.799  30.864  37.069  1.00  0.00     0.031 C 
ATOM     63  C   UNL A   1      38.055  33.998  34.931  1.00  0.00     0.029 A 
ATOM     64  C   UNL A   1      39.106  33.104  35.043  1.00  0.00     0.049 A 
ATOM     65  H   UNL A   1      39.817  31.707  33.628  1.00  0.00     0.167 HD
ATOM     66  C   UNL A   1      41.003  31.995  36.195  1.00  0.00     0.074 A 
ATOM     67  C   UNL A   1      41.881  31.785  37.328  1.00  0.00     0.031 C 
ATOM     68  C   UNL A   1      39.991  32.897  36.163  1.00  0.00     0.037 A 
BRANCH  55  69
ATOM     69  C   UNL A   1      36.807  32.966  30.857  1.00  0.00     0.058 A 
ATOM     70  C   UNL A   1      35.467  32.634  31.113  1.00  0.00     0.135 A 
ATOM     71  C   UNL A   1      37.062  33.951  29.889  1.00  0.00     0.135 A 
ATOM     72  F   UNL A   1      35.165  31.693  32.021  1.00  0.00    -0.206 F 
ATOM     73  C   UNL A   1      34.422  33.244  30.426  1.00  0.00     0.059 A 
ATOM     74  C   UNL A   1      36.032  34.591  29.206  1.00  0.00     0.059 A 
ATOM     75  F   UNL A   1      38.325  34.310  29.607  1.00  0.00    -0.206 F 
ATOM     76  C   UNL A   1      34.714  34.224  29.475  1.00  0.00     0.060 A 
BRANCH  76  77
ATOM     77  S   UNL A   1      33.345  35.021  28.608  1.00  0.00     0.124 S 
ATOM     78  O   UNL A   1      34.051  36.008  27.796  1.00  0.00    -0.237 OA
ATOM     79  O   UNL A   1      32.748  33.908  27.877  1.00  0.00    -0.237 OA
ATOM     80  O   UNL A   1      32.529  35.568  29.688  1.00  0.00    -0.744 OA
ENDBRANCH  76  77
ENDBRANCH  55  69
BRANCH  56  81
ATOM     81  C   UNL A   1      44.342  28.692  35.834  1.00  0.00     0.058 A 
ATOM     82  C   UNL A   1      45.657  29.155  35.696  1.00  0.00     0.135 A 
ATOM     83  C   UNL A   1      44.103  27.641  36.734  1.00  0.00     0.135 A 
ATOM     84  F   UNL A   1      45.928  30.157  34.846  1.00  0.00    -0.206 F 
ATOM     85  C   UNL A   1      46.702  28.599  36.423  1.00  0.00     0.059 A 
ATOM     86  C   UNL A   1      45.129  27.084  37.490  1.00  0.00     0.059 A 
ATOM     87  F   UNL A   1      42.856  27.179  36.915  1.00  0.00    -0.206 F 
ATOM     88  C   UNL A   1      46.426  27.568  37.324  1.00  0.00     0.060 A 
BRANCH  88  89
ATOM     89  S   UNL A   1      47.780  26.908  38.318  1.00  0.00     0.124 S 
ATOM     90  O   UNL A   1      48.944  27.352  37.561  1.00  0.00    -0.237 OA
ATOM     91  O   UNL A   1      47.564  27.564  39.604  1.00  0.00    -0.237 OA
ATOM     92  O   UNL A   1      47.533  25.469  38.309  1.00  0.00    -0.744 OA
ENDBRANCH  88  89
ENDBRANCH  56  81
BRANCH  68  93
ATOM     93  C   UNL A   1      39.763  33.709  37.409  1.00  0.00     0.058 A 
ATOM     94  C   UNL A   1      38.839  33.316  38.389  1.00  0.00     0.135 A 
ATOM     95  C   UNL A   1      40.488  34.892  37.630  1.00  0.00     0.135 A 
ATOM     96  F   UNL A   1      38.113  32.199  38.225  1.00  0.00    -0.206 F 
ATOM     97  C   UNL A   1      38.616  34.085  39.528  1.00  0.00     0.059 A 
ATOM     98  C   UNL A   1      40.302  35.661  38.774  1.00  0.00     0.059 A 
ATOM     99  F   UNL A   1      41.392  35.309  36.728  1.00  0.00    -0.206 F 
ATOM    100  C   UNL A   1      39.350  35.259  39.710  1.00  0.00     0.060 A 
BRANCH 100 101
ATOM    101  S   UNL A   1      39.052  36.246  41.191  1.00  0.00     0.124 S 
ATOM    102  O   UNL A   1      40.341  36.158  41.868  1.00  0.00    -0.237 OA
ATOM    103  O   UNL A   1      38.717  37.553  40.634  1.00  0.00    -0.237 OA
ATOM    104  O   UNL A   1      37.949  35.550  41.848  1.00  0.00    -0.744 OA
ENDBRANCH 100 101
ENDBRANCH  68  93
ENDBRANCH  42  43
ENDBRANCH  35  37
ENDBRANCH  34  35
ENDBRANCH  33  34
ENDBRANCH  32  33
ENDBRANCH  31  32
ENDBRANCH  30  31
ENDBRANCH   1  30
TORSDOF 26
ENDMDL
MODEL 2
REMARK VINA RESULT:      -9.4      7.179     14.691
REMARK SMILES CC(C)Cc1cc2c(cc1Cl)C=C(C(=O)OCCOCCOCCOCCOC(=O)c1ccc(-c3c4nc(c(-c5c(F)cc(S(=O)(=O)[O-])cc5F)c5ccc([nH]5)c(-c5c(F)cc(S(=O)(=O)[O-])cc5F)c5nc(c(-c6c(F)cc(S(=O)(=O)[O-])cc6F)c6ccc3[nH]6)C=C5)C=C4)cc1)[C@@H](C(F)(F)F)O2
REMARK SMILES IDX 23 1 22 2 21 3 20 4 19 5 18 6 17 7 16 8 14 9 15 10 13 11
REMARK SMILES IDX 5 12 6 13 10 14 7 15 9 16 11 17 8 18 102 19 12 20 97 21 4 22
REMARK SMILES IDX 2 23 1 24 3 25 98 26 99 27 100 28 101 29 24 30 25 31 26 32
REMARK SMILES IDX 27 33 28 34 29 35 30 36 31 37 32 38 96 39 33 40 95 41 34 42
REMARK SMILES IDX 35 43 36 44 89 45 37 46 94 47 88 48 90 49 38 50 93 51 87 52
REMARK SMILES IDX 86 53 39 55 73 56 52 57 72 58 53 59 56 60 71 61 91 62 54 63
REMARK SMILES IDX 55 64 70 66 92 67 57 68 40 69 41 70 50 71 42 72 43 73 49 74
REMARK SMILES IDX 51 75 44 76 45 77 46 78 47 79 48 80 74 81 75 82 84 83 76 84
REMARK SMILES IDX 77 85 83 86 85 87 78 88 79 89 80 90 81 91 82 92 58 93 59 94
REMARK SMILES IDX 68 95 60 96 61 97 67 98 69 99 62 100 63 101 64 102 65 103
REMARK SMILES IDX 66 104
REMARK H PARENT 90 54 56 65
REMARK Flexibility Score: inf
ROOT
ATOM      1  C   UNL A   1      33.427  35.125  28.724  1.00  0.00     0.188 C 
ENDROOT
BRANCH   1   2
ATOM      2  O   UNL A   1      33.023  34.988  30.086  1.00  0.00    -0.377 OA
BRANCH   2   3
ATOM      3  C   UNL A   1      34.007  34.732  31.069  1.00  0.00     0.188 C 
BRANCH   3   4
ATOM      4  C   UNL A   1      33.701  35.289  32.470  1.00  0.00     0.188 C 
BRANCH   4   5
ATOM      5  O   UNL A   1      34.034  34.400  33.534  1.00  0.00    -0.376 OA
BRANCH   5   6
ATOM      6  C   UNL A   1      35.153  34.763  34.336  1.00  0.00     0.202 C 
BRANCH   6   7
ATOM      7  C   UNL A   1      36.023  33.591  34.804  1.00  0.00     0.261 C 
BRANCH   7   8
ATOM      8  O   UNL A   1      36.748  32.941  33.751  1.00  0.00    -0.460 OA
BRANCH   8   9
ATOM      9  C   UNL A   1      37.821  32.202  34.096  1.00  0.00     0.338 C 
ATOM     10  O   UNL A   1      37.872  30.993  34.234  1.00  0.00    -0.246 OA
BRANCH   9  11
ATOM     11  C   UNL A   1      38.993  33.101  34.114  1.00  0.00     0.087 C 
ATOM     12  C   UNL A   1      43.162  35.724  33.083  1.00  0.00    -0.025 A 
ATOM     13  C   UNL A   1      42.386  35.479  34.228  1.00  0.00     0.052 A 
ATOM     14  C   UNL A   1      42.699  35.209  31.862  1.00  0.00     0.045 A 
ATOM     15  C   UNL A   1      41.209  34.737  34.167  1.00  0.00     0.128 A 
ATOM     16  C   UNL A   1      41.539  34.419  31.809  1.00  0.00     0.032 A 
ATOM     17  Cl  UNL A   1      43.540  35.475  30.374  1.00  0.00    -0.084 Cl
ATOM     18  C   UNL A   1      40.807  34.157  32.970  1.00  0.00     0.019 A 
ATOM     19  O   UNL A   1      40.542  34.608  35.347  1.00  0.00    -0.475 OA
ATOM     20  C   UNL A   1      39.675  33.243  32.969  1.00  0.00     0.027 C 
ATOM     21  C   UNL A   1      39.295  33.865  35.379  1.00  0.00     0.316 C 
BRANCH  12  22
ATOM     22  C   UNL A   1      44.481  36.448  33.254  1.00  0.00     0.040 C 
BRANCH  22  23
ATOM     23  C   UNL A   1      45.608  35.667  33.966  1.00  0.00    -0.013 C 
ATOM     24  C   UNL A   1      46.199  34.537  33.117  1.00  0.00     0.008 C 
ATOM     25  C   UNL A   1      46.734  36.642  34.330  1.00  0.00     0.008 C 
ENDBRANCH  22  23
ENDBRANCH  12  22
BRANCH  21  26
ATOM     26  C   UNL A   1      39.344  32.972  36.628  1.00  0.00     0.430 C 
ATOM     27  F   UNL A   1      39.903  31.772  36.341  1.00  0.00    -0.167 F 
ATOM     28  F   UNL A   1      40.069  33.519  37.627  1.00  0.00    -0.167 F 
ATOM     29  F   UNL A   1      38.100  32.737  37.109  1.00  0.00    -0.167 F 
ENDBRANCH  21  26
ENDBRANCH   9  11
ENDBRANCH   8   9
ENDBRANCH   7   8
ENDBRANCH   6   7
ENDBRANCH   5   6
ENDBRANCH   4   5
ENDBRANCH   3   4
ENDBRANCH   2   3
ENDBRANCH   1   2
BRANCH   1  30
ATOM     30  C   UNL A   1      34.639  34.372  28.132  1.00  0.00     0.188 C 
BRANCH  30  31
ATOM     31  O   UNL A   1      34.334  33.087  27.597  1.00  0.00    -0.376 OA
BRANCH  31  32
ATOM     32  C   UNL A   1      34.190  32.034  28.541  1.00  0.00     0.202 C 
BRANCH  32  33
ATOM     33  C   UNL A   1      35.461  31.196  28.704  1.00  0.00     0.261 C 
BRANCH  33  34
ATOM     34  O   UNL A   1      36.234  31.496  29.877  1.00  0.00    -0.460 OA
BRANCH  34  35
ATOM     35  C   UNL A   1      36.724  30.453  30.585  1.00  0.00     0.338 C 
ATOM     36  O   UNL A   1      36.109  29.714  31.332  1.00  0.00    -0.246 OA
BRANCH  35  37
ATOM     37  C   UNL A   1      38.112  30.239  30.128  1.00  0.00     0.060 A 
ATOM     38  C   UNL A   1      39.167  30.280  31.043  1.00  0.00     0.016 A 
ATOM     39  C   UNL A   1      38.358  30.052  28.763  1.00  0.00     0.016 A 
ATOM     40  C   UNL A   1      40.476  30.106  30.593  1.00  0.00     0.010 A 
ATOM     41  C   UNL A   1      39.670  29.896  28.313  1.00  0.00     0.010 A 
ATOM     42  C   UNL A   1      40.734  29.897  29.228  1.00  0.00    -0.014 A 
BRANCH  42  43
ATOM     43  C   UNL A   1      42.082  29.468  28.790  1.00  0.00     0.031 A 
ATOM     44  C   UNL A   1      43.241  30.414  28.717  1.00  0.00     0.074 A 
ATOM     45  C   UNL A   1      42.231  28.177  28.442  1.00  0.00     0.049 A 
ATOM     46  N   UNL A   1      44.478  30.163  28.374  1.00  0.00    -0.248 NA
ATOM     47  C   UNL A   1      42.982  31.817  29.069  1.00  0.00     0.031 C 
ATOM     48  C   UNL A   1      41.163  27.174  28.473  1.00  0.00     0.029 A 
ATOM     49  N   UNL A   1      43.325  27.487  27.992  1.00  0.00    -0.354 N 
ATOM     50  C   UNL A   1      45.158  31.368  28.487  1.00  0.00     0.074 A 
ATOM     51  C   UNL A   1      44.183  32.360  28.896  1.00  0.00     0.031 C 
ATOM     52  C   UNL A   1      41.656  25.997  28.062  1.00  0.00     0.029 A 
ATOM     53  C   UNL A   1      43.064  26.167  27.719  1.00  0.00     0.049 A 
ATOM     54  H   UNL A   1      44.212  27.898  27.875  1.00  0.00     0.167 HD
ATOM     55  C   UNL A   1      46.476  31.614  28.278  1.00  0.00     0.037 A 
ATOM     56  C   UNL A   1      43.868  25.198  27.244  1.00  0.00     0.037 A 
ATOM     57  C   UNL A   1      47.430  30.620  27.842  1.00  0.00     0.049 A 
ATOM     58  C   UNL A   1      45.310  25.507  26.980  1.00  0.00     0.074 A 
ATOM     59  C   UNL A   1      48.788  30.771  27.617  1.00  0.00     0.029 A 
ATOM     60  N   UNL A   1      47.129  29.296  27.554  1.00  0.00    -0.354 N 
ATOM     61  N   UNL A   1      45.948  26.644  27.129  1.00  0.00    -0.248 NA
ATOM     62  C   UNL A   1      46.146  24.402  26.497  1.00  0.00     0.031 C 
ATOM     63  C   UNL A   1      49.298  29.553  27.153  1.00  0.00     0.029 A 
ATOM     64  C   UNL A   1      48.270  28.626  27.136  1.00  0.00     0.049 A 
ATOM     65  H   UNL A   1      46.235  28.890  27.634  1.00  0.00     0.167 HD
ATOM     66  C   UNL A   1      47.269  26.383  26.783  1.00  0.00     0.074 A 
ATOM     67  C   UNL A   1      47.337  24.981  26.426  1.00  0.00     0.031 C 
ATOM     68  C   UNL A   1      48.328  27.231  26.772  1.00  0.00     0.037 A 
BRANCH  55  69
ATOM     69  C   UNL A   1      46.976  33.013  28.516  1.00  0.00     0.058 A 
ATOM     70  C   UNL A   1      47.512  33.398  29.756  1.00  0.00     0.135 A 
ATOM     71  C   UNL A   1      46.996  33.956  27.475  1.00  0.00     0.135 A 
ATOM     72  F   UNL A   1      47.510  32.540  30.788  1.00  0.00    -0.206 F 
ATOM     73  C   UNL A   1      48.034  34.671  29.960  1.00  0.00     0.059 A 
ATOM     74  C   UNL A   1      47.536  35.228  27.650  1.00  0.00     0.059 A 
ATOM     75  F   UNL A   1      46.501  33.640  26.268  1.00  0.00    -0.206 F 
ATOM     76  C   UNL A   1      48.044  35.580  28.899  1.00  0.00     0.060 A 
BRANCH  76  77
ATOM     77  S   UNL A   1      48.746  37.221  29.175  1.00  0.00     0.124 S 
ATOM     78  O   UNL A   1      47.838  38.059  28.398  1.00  0.00    -0.237 OA
ATOM     79  O   UNL A   1      48.653  37.359  30.624  1.00  0.00    -0.237 OA
ATOM     80  O   UNL A   1      50.100  37.107  28.644  1.00  0.00    -0.744 OA
ENDBRANCH  76  77
ENDBRANCH  55  69
BRANCH  56  81
ATOM     81  C   UNL A   1      43.315  23.836  27.038  1.00  0.00     0.058 A 
ATOM     82  C   UNL A   1      43.050  23.358  25.748  1.00  0.00     0.135 A 
ATOM     83  C   UNL A   1      43.105  22.967  28.120  1.00  0.00     0.135 A 
ATOM     84  F   UNL A   1      43.237  24.156  24.686  1.00  0.00    -0.206 F 
ATOM     85  C   UNL A   1      42.591  22.064  25.534  1.00  0.00     0.059 A 
ATOM     86  C   UNL A   1      42.670  21.660  27.930  1.00  0.00     0.059 A 
ATOM     87  F   UNL A   1      43.367  23.374  29.372  1.00  0.00    -0.206 F 
ATOM     88  C   UNL A   1      42.412  21.219  26.632  1.00  0.00     0.060 A 
BRANCH  88  89
ATOM     89  S   UNL A   1      41.890  19.518  26.333  1.00  0.00     0.124 S 
ATOM     90  O   UNL A   1      42.383  18.844  27.528  1.00  0.00    -0.237 OA
ATOM     91  O   UNL A   1      40.440  19.657  26.229  1.00  0.00    -0.237 OA
ATOM     92  O   UNL A   1      42.568  19.171  25.087  1.00  0.00    -0.744 OA
ENDBRANCH  88  89
ENDBRANCH  56  81
BRANCH  68  93
ATOM     93  C   UNL A   1      49.661  26.651  26.385  1.00  0.00     0.058 A 
ATOM     94  C   UNL A   1      50.467  25.968  27.309  1.00  0.00     0.135 A 
ATOM     95  C   UNL A   1      50.134  26.773  25.068  1.00  0.00     0.135 A 
ATOM     96  F   UNL A   1      50.066  25.830  28.583  1.00  0.00    -0.206 F 
ATOM     97  C   UNL A   1      51.709  25.455  26.950  1.00  0.00     0.059 A 
ATOM     98  C   UNL A   1      51.361  26.243  24.680  1.00  0.00     0.059 A 
ATOM     99  F   UNL A   1      49.399  27.409  24.142  1.00  0.00    -0.206 F 
ATOM    100  C   UNL A   1      52.150  25.602  25.633  1.00  0.00     0.060 A 
BRANCH 100 101
ATOM    101  S   UNL A   1      53.764  24.931  25.180  1.00  0.00     0.124 S 
ATOM    102  O   UNL A   1      54.014  25.601  23.908  1.00  0.00    -0.237 OA
ATOM    103  O   UNL A   1      54.604  25.356  26.295  1.00  0.00    -0.237 OA
ATOM    104  O   UNL A   1      53.524  23.493  25.096  1.00  0.00    -0.744 OA
ENDBRANCH 100 101
ENDBRANCH  68  93
ENDBRANCH  42  43
ENDBRANCH  35  37
ENDBRANCH  34  35
ENDBRANCH  33  34
ENDBRANCH  32  33
ENDBRANCH  31  32
ENDBRANCH  30  31
ENDBRANCH   1  30
TORSDOF 26
ENDMDL
MODEL 3
REMARK VINA RESULT:      -9.3      2.856      9.469
REMARK SMILES CC(C)Cc1cc2c(cc1Cl)C=C(C(=O)OCCOCCOCCOCCOC(=O)c1ccc(-c3c4nc(c(-c5c(F)cc(S(=O)(=O)[O-])cc5F)c5ccc([nH]5)c(-c5c(F)cc(S(=O)(=O)[O-])cc5F)c5nc(c(-c6c(F)cc(S(=O)(=O)[O-])cc6F)c6ccc3[nH]6)C=C5)C=C4)cc1)[C@@H](C(F)(F)F)O2
REMARK SMILES IDX 23 1 22 2 21 3 20 4 19 5 18 6 17 7 16 8 14 9 15 10 13 11
REMARK SMILES IDX 5 12 6 13 10 14 7 15 9 16 11 17 8 18 102 19 12 20 97 21 4 22
REMARK SMILES IDX 2 23 1 24 3 25 98 26 99 27 100 28 101 29 24 30 25 31 26 32
REMARK SMILES IDX 27 33 28 34 29 35 30 36 31 37 32 38 96 39 33 40 95 41 34 42
REMARK SMILES IDX 35 43 36 44 89 45 37 46 94 47 88 48 90 49 38 50 93 51 87 52
REMARK SMILES IDX 86 53 39 55 73 56 52 57 72 58 53 59 56 60 71 61 91 62 54 63
REMARK SMILES IDX 55 64 70 66 92 67 57 68 40 69 41 70 50 71 42 72 43 73 49 74
REMARK SMILES IDX 51 75 44 76 45 77 46 78 47 79 48 80 74 81 75 82 84 83 76 84
REMARK SMILES IDX 77 85 83 86 85 87 78 88 79 89 80 90 81 91 82 92 58 93 59 94
REMARK SMILES IDX 68 95 60 96 61 97 67 98 69 99 62 100 63 101 64 102 65 103
REMARK SMILES IDX 66 104
REMARK H PARENT 90 54 56 65
REMARK Flexibility Score: inf
ROOT
ATOM      1  C   UNL A   1      35.185  23.164  23.232  1.00  0.00     0.188 C 
ENDROOT
BRANCH   1   2
ATOM      2  O   UNL A   1      34.188  22.201  23.571  1.00  0.00    -0.377 OA
BRANCH   2   3
ATOM      3  C   UNL A   1      32.881  22.360  23.055  1.00  0.00     0.188 C 
BRANCH   3   4
ATOM      4  C   UNL A   1      31.847  22.930  24.042  1.00  0.00     0.188 C 
BRANCH   4   5
ATOM      5  O   UNL A   1      31.298  24.185  23.648  1.00  0.00    -0.376 OA
BRANCH   5   6
ATOM      6  C   UNL A   1      32.066  24.953  22.727  1.00  0.00     0.202 C 
BRANCH   6   7
ATOM      7  C   UNL A   1      32.346  26.396  23.161  1.00  0.00     0.261 C 
BRANCH   7   8
ATOM      8  O   UNL A   1      33.632  26.587  23.767  1.00  0.00    -0.460 OA
BRANCH   8   9
ATOM      9  C   UNL A   1      33.745  26.324  25.084  1.00  0.00     0.338 C 
ATOM     10  O   UNL A   1      33.999  25.252  25.604  1.00  0.00    -0.246 OA
BRANCH   9  11
ATOM     11  C   UNL A   1      33.678  27.612  25.803  1.00  0.00     0.087 C 
ATOM     12  C   UNL A   1      34.617  31.829  28.385  1.00  0.00    -0.025 A 
ATOM     13  C   UNL A   1      33.466  31.132  27.983  1.00  0.00     0.052 A 
ATOM     14  C   UNL A   1      35.859  31.343  27.944  1.00  0.00     0.045 A 
ATOM     15  C   UNL A   1      33.544  29.989  27.191  1.00  0.00     0.128 A 
ATOM     16  C   UNL A   1      35.940  30.162  27.187  1.00  0.00     0.032 A 
ATOM     17  Cl  UNL A   1      37.347  32.132  28.335  1.00  0.00    -0.084 Cl
ATOM     18  C   UNL A   1      34.781  29.466  26.834  1.00  0.00     0.019 A 
ATOM     19  O   UNL A   1      32.347  29.437  26.849  1.00  0.00    -0.475 OA
ATOM     20  C   UNL A   1      34.839  28.178  26.160  1.00  0.00     0.027 C 
ATOM     21  C   UNL A   1      32.326  28.252  26.011  1.00  0.00     0.316 C 
BRANCH  12  22
ATOM     22  C   UNL A   1      34.452  32.998  29.332  1.00  0.00     0.040 C 
BRANCH  22  23
ATOM     23  C   UNL A   1      33.977  34.329  28.709  1.00  0.00    -0.013 C 
ATOM     24  C   UNL A   1      34.973  34.925  27.709  1.00  0.00     0.008 C 
ATOM     25  C   UNL A   1      32.644  34.093  27.988  1.00  0.00     0.008 C 
ENDBRANCH  22  23
ENDBRANCH  12  22
BRANCH  21  26
ATOM     26  C   UNL A   1      31.292  27.294  26.623  1.00  0.00     0.430 C 
ATOM     27  F   UNL A   1      31.885  26.153  27.049  1.00  0.00    -0.167 F 
ATOM     28  F   UNL A   1      30.656  27.831  27.686  1.00  0.00    -0.167 F 
ATOM     29  F   UNL A   1      30.349  26.949  25.715  1.00  0.00    -0.167 F 
ENDBRANCH  21  26
ENDBRANCH   9  11
ENDBRANCH   8   9
ENDBRANCH   7   8
ENDBRANCH   6   7
ENDBRANCH   5   6
ENDBRANCH   4   5
ENDBRANCH   3   4
ENDBRANCH   2   3
ENDBRANCH   1   2
BRANCH   1  30
ATOM     30  C   UNL A   1      36.639  23.080  23.749  1.00  0.00     0.188 C 
BRANCH  30  31
ATOM     31  O   UNL A   1      36.770  22.553  25.066  1.00  0.00    -0.376 OA
BRANCH  31  32
ATOM     32  C   UNL A   1      37.012  23.500  26.097  1.00  0.00     0.202 C 
BRANCH  32  33
ATOM     33  C   UNL A   1      38.471  23.960  26.160  1.00  0.00     0.261 C 
BRANCH  33  34
ATOM     34  O   UNL A   1      38.777  24.848  27.246  1.00  0.00    -0.460 OA
BRANCH  34  35
ATOM     35  C   UNL A   1      39.829  25.683  27.092  1.00  0.00     0.338 C 
ATOM     36  O   UNL A   1      40.555  25.784  26.120  1.00  0.00    -0.246 OA
BRANCH  35  37
ATOM     37  C   UNL A   1      39.820  26.603  28.247  1.00  0.00     0.060 A 
ATOM     38  C   UNL A   1      38.970  26.364  29.330  1.00  0.00     0.016 A 
ATOM     39  C   UNL A   1      40.631  27.744  28.215  1.00  0.00     0.016 A 
ATOM     40  C   UNL A   1      38.950  27.258  30.401  1.00  0.00     0.010 A 
ATOM     41  C   UNL A   1      40.596  28.646  29.279  1.00  0.00     0.010 A 
ATOM     42  C   UNL A   1      39.774  28.396  30.389  1.00  0.00    -0.014 A 
BRANCH  42  43
ATOM     43  C   UNL A   1      39.935  29.202  31.621  1.00  0.00     0.031 A 
ATOM     44  C   UNL A   1      41.028  28.944  32.611  1.00  0.00     0.074 A 
ATOM     45  C   UNL A   1      39.041  30.185  31.830  1.00  0.00     0.049 A 
ATOM     46  N   UNL A   1      41.296  29.590  33.717  1.00  0.00    -0.248 NA
ATOM     47  C   UNL A   1      41.933  27.821  32.331  1.00  0.00     0.031 C 
ATOM     48  C   UNL A   1      37.934  30.515  30.929  1.00  0.00     0.029 A 
ATOM     49  N   UNL A   1      38.913  31.080  32.859  1.00  0.00    -0.354 N 
ATOM     50  C   UNL A   1      42.414  28.972  34.260  1.00  0.00     0.074 A 
ATOM     51  C   UNL A   1      42.751  27.872  33.377  1.00  0.00     0.031 C 
ATOM     52  C   UNL A   1      37.242  31.541  31.443  1.00  0.00     0.029 A 
ATOM     53  C   UNL A   1      37.842  31.926  32.716  1.00  0.00     0.049 A 
ATOM     54  H   UNL A   1      39.530  31.114  33.625  1.00  0.00     0.167 HD
ATOM     55  C   UNL A   1      43.096  29.303  35.385  1.00  0.00     0.037 A 
ATOM     56  C   UNL A   1      37.387  32.905  33.521  1.00  0.00     0.037 A 
ATOM     57  C   UNL A   1      42.730  30.384  36.270  1.00  0.00     0.049 A 
ATOM     58  C   UNL A   1      38.135  33.221  34.782  1.00  0.00     0.074 A 
ATOM     59  C   UNL A   1      43.367  30.805  37.426  1.00  0.00     0.029 A 
ATOM     60  N   UNL A   1      41.625  31.209  36.109  1.00  0.00    -0.354 N 
ATOM     61  N   UNL A   1      39.214  32.652  35.263  1.00  0.00    -0.248 NA
ATOM     62  C   UNL A   1      37.614  34.321  35.601  1.00  0.00     0.031 C 
ATOM     63  C   UNL A   1      42.626  31.852  37.984  1.00  0.00     0.029 A 
ATOM     64  C   UNL A   1      41.554  32.122  37.152  1.00  0.00     0.049 A 
ATOM     65  H   UNL A   1      40.984  31.154  35.362  1.00  0.00     0.167 HD
ATOM     66  C   UNL A   1      39.518  33.343  36.429  1.00  0.00     0.074 A 
ATOM     67  C   UNL A   1      38.512  34.376  36.575  1.00  0.00     0.031 C 
ATOM     68  C   UNL A   1      40.543  33.141  37.295  1.00  0.00     0.037 A 
BRANCH  55  69
ATOM     69  C   UNL A   1      44.314  28.490  35.733  1.00  0.00     0.058 A 
ATOM     70  C   UNL A   1      44.212  27.300  36.472  1.00  0.00     0.135 A 
ATOM     71  C   UNL A   1      45.584  28.858  35.259  1.00  0.00     0.135 A 
ATOM     72  F   UNL A   1      43.025  26.905  36.957  1.00  0.00    -0.206 F 
ATOM     73  C   UNL A   1      45.328  26.512  36.741  1.00  0.00     0.059 A 
ATOM     74  C   UNL A   1      46.709  28.073  35.496  1.00  0.00     0.059 A 
ATOM     75  F   UNL A   1      45.738  29.984  34.545  1.00  0.00    -0.206 F 
ATOM     76  C   UNL A   1      46.573  26.906  36.247  1.00  0.00     0.060 A 
BRANCH  76  77
ATOM     77  S   UNL A   1      48.006  25.861  36.587  1.00  0.00     0.124 S 
ATOM     78  O   UNL A   1      47.960  24.931  35.463  1.00  0.00    -0.237 OA
ATOM     79  O   UNL A   1      49.104  26.823  36.569  1.00  0.00    -0.237 OA
ATOM     80  O   UNL A   1      47.705  25.282  37.892  1.00  0.00    -0.744 OA
ENDBRANCH  76  77
ENDBRANCH  55  69
BRANCH  56  81
ATOM     81  C   UNL A   1      36.184  33.674  33.118  1.00  0.00     0.058 A 
ATOM     82  C   UNL A   1      34.902  33.128  33.259  1.00  0.00     0.135 A 
ATOM     83  C   UNL A   1      36.291  34.993  32.648  1.00  0.00     0.135 A 
ATOM     84  F   UNL A   1      34.756  31.871  33.706  1.00  0.00    -0.206 F 
ATOM     85  C   UNL A   1      33.764  33.858  32.944  1.00  0.00     0.059 A 
ATOM     86  C   UNL A   1      35.165  35.752  32.349  1.00  0.00     0.059 A 
ATOM     87  F   UNL A   1      37.498  35.566  32.517  1.00  0.00    -0.206 F 
ATOM     88  C   UNL A   1      33.905  35.174  32.497  1.00  0.00     0.060 A 
BRANCH  88  89
ATOM     89  S   UNL A   1      32.415  36.136  32.166  1.00  0.00     0.124 S 
ATOM     90  O   UNL A   1      31.369  35.216  32.597  1.00  0.00    -0.237 OA
ATOM     91  O   UNL A   1      32.618  37.313  33.005  1.00  0.00    -0.237 OA
ATOM     92  O   UNL A   1      32.486  36.382  30.728  1.00  0.00    -0.744 OA
ENDBRANCH  88  89
ENDBRANCH  56  81
BRANCH  68  93
ATOM     93  C   UNL A   1      40.641  34.081  38.466  1.00  0.00     0.058 A 
ATOM     94  C   UNL A   1      41.327  35.302  38.379  1.00  0.00     0.135 A 
ATOM     95  C   UNL A   1      40.030  33.759  39.689  1.00  0.00     0.135 A 
ATOM     96  F   UNL A   1      41.936  35.655  37.235  1.00  0.00    -0.206 F 
ATOM     97  C   UNL A   1      41.434  36.156  39.473  1.00  0.00     0.059 A 
ATOM     98  C   UNL A   1      40.101  34.610  40.787  1.00  0.00     0.059 A 
ATOM     99  F   UNL A   1      39.353  32.607  39.824  1.00  0.00    -0.206 F 
ATOM    100  C   UNL A   1      40.821  35.798  40.675  1.00  0.00     0.060 A 
BRANCH 100 101
ATOM    101  S   UNL A   1      40.967  36.914  42.087  1.00  0.00     0.124 S 
ATOM    102  O   UNL A   1      41.048  35.973  43.198  1.00  0.00    -0.237 OA
ATOM    103  O   UNL A   1      42.194  37.644  41.784  1.00  0.00    -0.237 OA
ATOM    104  O   UNL A   1      39.741  37.706  42.023  1.00  0.00    -0.744 OA
ENDBRANCH 100 101
ENDBRANCH  68  93
ENDBRANCH  42  43
ENDBRANCH  35  37
ENDBRANCH  34  35
ENDBRANCH  33  34
ENDBRANCH  32  33
ENDBRANCH  31  32
ENDBRANCH  30  31
ENDBRANCH   1  30
TORSDOF 26
ENDMDL
