MODEL 1
REMARK VINA RESULT:      -8.4      0.000      0.000
REMARK SMILES Cc1cc(Cl)c(C)c2c1O[C@H](C(F)(F)F)C(C(=O)OCCOCCOCCOCCOC(=O)c1ccc(-c3c4nc(c(-c5c(F)cc(S(=O)(=O)[O-])cc5F)c5ccc([nH]5)c(-c5c(F)cc(S(=O)(=O)[O-])cc5F)c5nc(c(-c6c(F)cc(S(=O)(=O)[O-])cc6F)c6ccc3[nH]6)C=C5)C=C4)cc1)=C2
REMARK SMILES IDX 26 1 25 2 24 3 23 4 22 5 21 6 20 7 19 8 17 9 18 10 16 11
REMARK SMILES IDX 1 12 2 13 3 14 9 15 4 16 8 17 10 18 5 19 6 20 100 21 11 22
REMARK SMILES IDX 7 23 12 24 13 25 14 26 15 27 27 28 28 29 29 30 30 31 31 32
REMARK SMILES IDX 32 33 33 34 34 35 35 36 99 37 36 38 98 39 37 40 38 41 39 42
REMARK SMILES IDX 92 43 40 44 97 45 91 46 93 47 41 48 96 49 90 50 89 51 42 53
REMARK SMILES IDX 76 54 55 55 75 56 56 57 59 58 74 59 94 60 57 61 58 62 73 64
REMARK SMILES IDX 95 65 60 66 43 67 44 68 53 69 45 70 46 71 52 72 54 73 47 74
REMARK SMILES IDX 48 75 49 76 50 77 51 78 77 79 78 80 87 81 79 82 80 83 86 84
REMARK SMILES IDX 88 85 81 86 82 87 83 88 84 89 85 90 61 91 62 92 71 93 63 94
REMARK SMILES IDX 64 95 70 96 72 97 65 98 66 99 67 100 68 101 69 102
REMARK H PARENT 93 52 59 63
REMARK Flexibility Score: inf
ROOT
ATOM      1  C   UNL A   1      37.398  29.969  31.872  1.00  0.00     0.188 C 
ENDROOT
BRANCH   1   2
ATOM      2  O   UNL A   1      38.161  30.162  30.679  1.00  0.00    -0.377 OA
BRANCH   2   3
ATOM      3  C   UNL A   1      38.328  29.053  29.812  1.00  0.00     0.188 C 
BRANCH   3   4
ATOM      4  C   UNL A   1      37.537  29.190  28.497  1.00  0.00     0.188 C 
BRANCH   4   5
ATOM      5  O   UNL A   1      36.243  29.738  28.663  1.00  0.00    -0.376 OA
BRANCH   5   6
ATOM      6  C   UNL A   1      35.543  30.341  27.586  1.00  0.00     0.202 C 
BRANCH   6   7
ATOM      7  C   UNL A   1      34.271  29.774  26.926  1.00  0.00     0.261 C 
BRANCH   7   8
ATOM      8  O   UNL A   1      34.246  28.380  26.623  1.00  0.00    -0.460 OA
BRANCH   8   9
ATOM      9  C   UNL A   1      33.688  27.998  25.461  1.00  0.00     0.338 C 
ATOM     10  O   UNL A   1      33.663  28.626  24.417  1.00  0.00    -0.246 OA
BRANCH   9  11
ATOM     11  C   UNL A   1      33.275  26.585  25.614  1.00  0.00     0.087 C 
ATOM     12  C   UNL A   1      30.658  22.237  26.038  1.00  0.00     0.048 C 
ATOM     13  C   UNL A   1      32.101  22.592  25.808  1.00  0.00    -0.007 A 
ATOM     14  C   UNL A   1      33.037  21.582  25.570  1.00  0.00     0.028 A 
ATOM     15  C   UNL A   1      32.533  23.925  25.836  1.00  0.00     0.131 A 
ATOM     16  C   UNL A   1      34.390  21.888  25.397  1.00  0.00     0.045 A 
ATOM     17  C   UNL A   1      33.880  24.249  25.598  1.00  0.00     0.022 A 
ATOM     18  O   UNL A   1      31.568  24.853  26.111  1.00  0.00    -0.475 OA
ATOM     19  Cl  UNL A   1      35.454  20.552  25.116  1.00  0.00    -0.084 Cl
ATOM     20  C   UNL A   1      34.841  23.220  25.431  1.00  0.00    -0.021 A 
ATOM     21  C   UNL A   1      34.231  25.660  25.466  1.00  0.00     0.027 C 
ATOM     22  C   UNL A   1      31.860  26.269  26.005  1.00  0.00     0.316 C 
ATOM     23  C   UNL A   1      36.309  23.561  25.338  1.00  0.00     0.047 C 
BRANCH  22  24
ATOM     24  C   UNL A   1      30.837  26.892  25.047  1.00  0.00     0.430 C 
ATOM     25  F   UNL A   1      30.681  28.216  25.287  1.00  0.00    -0.167 F 
ATOM     26  F   UNL A   1      31.209  26.765  23.754  1.00  0.00    -0.167 F 
ATOM     27  F   UNL A   1      29.621  26.311  25.179  1.00  0.00    -0.167 F 
ENDBRANCH  22  24
ENDBRANCH   9  11
ENDBRANCH   8   9
ENDBRANCH   7   8
ENDBRANCH   6   7
ENDBRANCH   5   6
ENDBRANCH   4   5
ENDBRANCH   3   4
ENDBRANCH   2   3
ENDBRANCH   1   2
BRANCH   1  28
ATOM     28  C   UNL A   1      36.594  31.123  32.519  1.00  0.00     0.188 C 
BRANCH  28  29
ATOM     29  O   UNL A   1      35.428  31.505  31.797  1.00  0.00    -0.376 OA
BRANCH  29  30
ATOM     30  C   UNL A   1      35.561  32.509  30.803  1.00  0.00     0.202 C 
BRANCH  30  31
ATOM     31  C   UNL A   1      35.008  33.891  31.173  1.00  0.00     0.261 C 
BRANCH  31  32
ATOM     32  O   UNL A   1      34.666  34.075  32.555  1.00  0.00    -0.460 OA
BRANCH  32  33
ATOM     33  C   UNL A   1      35.315  35.047  33.232  1.00  0.00     0.338 C 
ATOM     34  O   UNL A   1      34.944  36.196  33.402  1.00  0.00    -0.246 OA
BRANCH  33  35
ATOM     35  C   UNL A   1      36.469  34.420  33.905  1.00  0.00     0.060 A 
ATOM     36  C   UNL A   1      36.258  33.687  35.081  1.00  0.00     0.016 A 
ATOM     37  C   UNL A   1      37.752  34.542  33.365  1.00  0.00     0.016 A 
ATOM     38  C   UNL A   1      37.339  33.099  35.738  1.00  0.00     0.010 A 
ATOM     39  C   UNL A   1      38.836  33.974  34.037  1.00  0.00     0.010 A 
ATOM     40  C   UNL A   1      38.638  33.278  35.243  1.00  0.00    -0.014 A 
BRANCH  40  41
ATOM     41  C   UNL A   1      39.801  32.938  36.095  1.00  0.00     0.031 A 
ATOM     42  C   UNL A   1      40.190  33.910  37.175  1.00  0.00     0.074 A 
ATOM     43  C   UNL A   1      40.482  31.788  35.935  1.00  0.00     0.049 A 
ATOM     44  N   UNL A   1      41.193  33.864  38.012  1.00  0.00    -0.248 NA
ATOM     45  C   UNL A   1      39.328  35.094  37.333  1.00  0.00     0.031 C 
ATOM     46  C   UNL A   1      40.165  30.745  34.962  1.00  0.00     0.029 A 
ATOM     47  N   UNL A   1      41.586  31.310  36.596  1.00  0.00    -0.354 N 
ATOM     48  C   UNL A   1      41.081  35.006  38.796  1.00  0.00     0.074 A 
ATOM     49  C   UNL A   1      39.936  35.745  38.312  1.00  0.00     0.031 C 
ATOM     50  C   UNL A   1      41.061  29.749  35.086  1.00  0.00     0.029 A 
ATOM     51  C   UNL A   1      42.033  30.100  36.121  1.00  0.00     0.049 A 
ATOM     52  H   UNL A   1      42.018  31.790  37.339  1.00  0.00     0.167 HD
ATOM     53  C   UNL A   1      41.853  35.396  39.835  1.00  0.00     0.037 A 
ATOM     54  C   UNL A   1      43.113  29.371  36.472  1.00  0.00     0.037 A 
ATOM     55  C   UNL A   1      42.997  34.662  40.305  1.00  0.00     0.049 A 
ATOM     56  C   UNL A   1      44.020  29.877  37.566  1.00  0.00     0.074 A 
ATOM     57  C   UNL A   1      43.852  34.978  41.347  1.00  0.00     0.029 A 
ATOM     58  N   UNL A   1      43.451  33.469  39.763  1.00  0.00    -0.354 N 
ATOM     59  N   UNL A   1      43.904  30.959  38.301  1.00  0.00    -0.248 NA
ATOM     60  C   UNL A   1      45.206  29.067  37.877  1.00  0.00     0.031 C 
ATOM     61  C   UNL A   1      44.852  34.003  41.400  1.00  0.00     0.029 A 
ATOM     62  C   UNL A   1      44.588  33.048  40.431  1.00  0.00     0.049 A 
ATOM     63  H   UNL A   1      43.026  32.991  39.014  1.00  0.00     0.167 HD
ATOM     64  C   UNL A   1      44.986  30.944  39.178  1.00  0.00     0.074 A 
ATOM     65  C   UNL A   1      45.738  29.741  38.890  1.00  0.00     0.031 C 
ATOM     66  C   UNL A   1      45.325  31.844  40.135  1.00  0.00     0.037 A 
BRANCH  53  67
ATOM     67  C   UNL A   1      41.499  36.684  40.523  1.00  0.00     0.058 A 
ATOM     68  C   UNL A   1      41.887  37.929  40.001  1.00  0.00     0.135 A 
ATOM     69  C   UNL A   1      40.724  36.679  41.695  1.00  0.00     0.135 A 
ATOM     70  F   UNL A   1      42.649  37.992  38.898  1.00  0.00    -0.206 F 
ATOM     71  C   UNL A   1      41.531  39.120  40.623  1.00  0.00     0.059 A 
ATOM     72  C   UNL A   1      40.333  37.859  42.318  1.00  0.00     0.059 A 
ATOM     73  F   UNL A   1      40.334  35.515  42.240  1.00  0.00    -0.206 F 
ATOM     74  C   UNL A   1      40.749  39.075  41.778  1.00  0.00     0.060 A 
BRANCH  74  75
ATOM     75  S   UNL A   1      40.280  40.634  42.559  1.00  0.00     0.124 S 
ATOM     76  O   UNL A   1      40.470  41.578  41.462  1.00  0.00    -0.237 OA
ATOM     77  O   UNL A   1      38.895  40.381  42.944  1.00  0.00    -0.237 OA
ATOM     78  O   UNL A   1      41.223  40.760  43.664  1.00  0.00    -0.744 OA
ENDBRANCH  74  75
ENDBRANCH  53  67
BRANCH  54  79
ATOM     79  C   UNL A   1      43.400  28.084  35.782  1.00  0.00     0.058 A 
ATOM     80  C   UNL A   1      42.833  26.881  36.229  1.00  0.00     0.135 A 
ATOM     81  C   UNL A   1      44.242  28.029  34.659  1.00  0.00     0.135 A 
ATOM     82  F   UNL A   1      42.036  26.878  37.308  1.00  0.00    -0.206 F 
ATOM     83  C   UNL A   1      43.092  25.671  35.594  1.00  0.00     0.059 A 
ATOM     84  C   UNL A   1      44.495  26.835  33.990  1.00  0.00     0.059 A 
ATOM     85  F   UNL A   1      44.809  29.151  34.188  1.00  0.00    -0.206 F 
ATOM     86  C   UNL A   1      43.919  25.659  34.469  1.00  0.00     0.060 A 
BRANCH  86  87
ATOM     87  S   UNL A   1      44.198  24.090  33.620  1.00  0.00     0.124 S 
ATOM     88  O   UNL A   1      44.185  24.504  32.222  1.00  0.00    -0.237 OA
ATOM     89  O   UNL A   1      45.495  23.684  34.154  1.00  0.00    -0.237 OA
ATOM     90  O   UNL A   1      43.067  23.271  34.046  1.00  0.00    -0.744 OA
ENDBRANCH  86  87
ENDBRANCH  54  79
BRANCH  66  91
ATOM     91  C   UNL A   1      46.549  31.561  40.964  1.00  0.00     0.058 A 
ATOM     92  C   UNL A   1      46.486  30.781  42.128  1.00  0.00     0.135 A 
ATOM     93  C   UNL A   1      47.813  32.005  40.542  1.00  0.00     0.135 A 
ATOM     94  F   UNL A   1      45.303  30.332  42.578  1.00  0.00    -0.206 F 
ATOM     95  C   UNL A   1      47.629  30.466  42.856  1.00  0.00     0.059 A 
ATOM     96  C   UNL A   1      48.974  31.677  41.236  1.00  0.00     0.059 A 
ATOM     97  F   UNL A   1      47.933  32.743  39.427  1.00  0.00    -0.206 F 
ATOM     98  C   UNL A   1      48.870  30.914  42.398  1.00  0.00     0.060 A 
BRANCH  98  99
ATOM     99  S   UNL A   1      50.348  30.461  43.332  1.00  0.00     0.124 S 
ATOM    100  O   UNL A   1      50.889  31.770  43.681  1.00  0.00    -0.237 OA
ATOM    101  O   UNL A   1      49.791  29.689  44.438  1.00  0.00    -0.237 OA
ATOM    102  O   UNL A   1      51.136  29.692  42.372  1.00  0.00    -0.744 OA
ENDBRANCH  98  99
ENDBRANCH  66  91
ENDBRANCH  40  41
ENDBRANCH  33  35
ENDBRANCH  32  33
ENDBRANCH  31  32
ENDBRANCH  30  31
ENDBRANCH  29  30
ENDBRANCH  28  29
ENDBRANCH   1  28
TORSDOF 24
ENDMDL
MODEL 2
REMARK VINA RESULT:      -8.4      7.226     10.031
REMARK SMILES Cc1cc(Cl)c(C)c2c1O[C@H](C(F)(F)F)C(C(=O)OCCOCCOCCOCCOC(=O)c1ccc(-c3c4nc(c(-c5c(F)cc(S(=O)(=O)[O-])cc5F)c5ccc([nH]5)c(-c5c(F)cc(S(=O)(=O)[O-])cc5F)c5nc(c(-c6c(F)cc(S(=O)(=O)[O-])cc6F)c6ccc3[nH]6)C=C5)C=C4)cc1)=C2
REMARK SMILES IDX 26 1 25 2 24 3 23 4 22 5 21 6 20 7 19 8 17 9 18 10 16 11
REMARK SMILES IDX 1 12 2 13 3 14 9 15 4 16 8 17 10 18 5 19 6 20 100 21 11 22
REMARK SMILES IDX 7 23 12 24 13 25 14 26 15 27 27 28 28 29 29 30 30 31 31 32
REMARK SMILES IDX 32 33 33 34 34 35 35 36 99 37 36 38 98 39 37 40 38 41 39 42
REMARK SMILES IDX 92 43 40 44 97 45 91 46 93 47 41 48 96 49 90 50 89 51 42 53
REMARK SMILES IDX 76 54 55 55 75 56 56 57 59 58 74 59 94 60 57 61 58 62 73 64
REMARK SMILES IDX 95 65 60 66 43 67 44 68 53 69 45 70 46 71 52 72 54 73 47 74
REMARK SMILES IDX 48 75 49 76 50 77 51 78 77 79 78 80 87 81 79 82 80 83 86 84
REMARK SMILES IDX 88 85 81 86 82 87 83 88 84 89 85 90 61 91 62 92 71 93 63 94
REMARK SMILES IDX 64 95 70 96 72 97 65 98 66 99 67 100 68 101 69 102
REMARK H PARENT 93 52 59 63
REMARK Flexibility Score: inf
ROOT
ATOM      1  C   UNL A   1      37.669  29.708  29.344  1.00  0.00     0.188 C 
ENDROOT
BRANCH   1   2
ATOM      2  O   UNL A   1      36.468  29.322  28.676  1.00  0.00    -0.377 OA
BRANCH   2   3
ATOM      3  C   UNL A   1      35.497  30.323  28.424  1.00  0.00     0.188 C 
BRANCH   3   4
ATOM      4  C   UNL A   1      34.561  29.976  27.251  1.00  0.00     0.188 C 
BRANCH   4   5
ATOM      5  O   UNL A   1      33.199  30.271  27.499  1.00  0.00    -0.376 OA
BRANCH   5   6
ATOM      6  C   UNL A   1      32.163  29.367  27.152  1.00  0.00     0.202 C 
BRANCH   6   7
ATOM      7  C   UNL A   1      32.297  27.831  27.121  1.00  0.00     0.261 C 
BRANCH   7   8
ATOM      8  O   UNL A   1      31.938  27.159  25.914  1.00  0.00    -0.460 OA
BRANCH   8   9
ATOM      9  C   UNL A   1      32.918  26.870  25.041  1.00  0.00     0.338 C 
ATOM     10  O   UNL A   1      33.672  27.656  24.495  1.00  0.00    -0.246 OA
BRANCH   9  11
ATOM     11  C   UNL A   1      33.055  25.397  25.004  1.00  0.00     0.087 C 
ATOM     12  C   UNL A   1      32.303  20.393  24.424  1.00  0.00     0.048 C 
ATOM     13  C   UNL A   1      33.501  21.267  24.674  1.00  0.00    -0.007 A 
ATOM     14  C   UNL A   1      34.779  20.703  24.706  1.00  0.00     0.028 A 
ATOM     15  C   UNL A   1      33.362  22.645  24.885  1.00  0.00     0.131 A 
ATOM     16  C   UNL A   1      35.901  21.492  24.981  1.00  0.00     0.045 A 
ATOM     17  C   UNL A   1      34.489  23.458  25.096  1.00  0.00     0.022 A 
ATOM     18  O   UNL A   1      32.079  23.117  24.875  1.00  0.00    -0.475 OA
ATOM     19  Cl  UNL A   1      37.429  20.679  25.002  1.00  0.00    -0.084 Cl
ATOM     20  C   UNL A   1      35.777  22.875  25.204  1.00  0.00    -0.021 A 
ATOM     21  C   UNL A   1      34.293  24.904  25.133  1.00  0.00     0.027 C 
ATOM     22  C   UNL A   1      31.822  24.543  24.917  1.00  0.00     0.316 C 
ATOM     23  C   UNL A   1      36.964  23.724  25.591  1.00  0.00     0.047 C 
BRANCH  22  24
ATOM     24  C   UNL A   1      30.949  24.903  23.709  1.00  0.00     0.430 C 
ATOM     25  F   UNL A   1      29.995  25.805  24.042  1.00  0.00    -0.167 F 
ATOM     26  F   UNL A   1      31.672  25.444  22.703  1.00  0.00    -0.167 F 
ATOM     27  F   UNL A   1      30.318  23.811  23.214  1.00  0.00    -0.167 F 
ENDBRANCH  22  24
ENDBRANCH   9  11
ENDBRANCH   8   9
ENDBRANCH   7   8
ENDBRANCH   6   7
ENDBRANCH   5   6
ENDBRANCH   4   5
ENDBRANCH   3   4
ENDBRANCH   2   3
ENDBRANCH   1   2
BRANCH   1  28
ATOM     28  C   UNL A   1      38.941  28.825  29.306  1.00  0.00     0.188 C 
BRANCH  28  29
ATOM     29  O   UNL A   1      38.858  27.710  28.425  1.00  0.00    -0.376 OA
BRANCH  29  30
ATOM     30  C   UNL A   1      39.503  26.508  28.813  1.00  0.00     0.202 C 
BRANCH  30  31
ATOM     31  C   UNL A   1      39.851  25.541  27.674  1.00  0.00     0.261 C 
BRANCH  31  32
ATOM     32  O   UNL A   1      40.348  26.148  26.472  1.00  0.00    -0.460 OA
BRANCH  32  33
ATOM     33  C   UNL A   1      41.659  25.986  26.191  1.00  0.00     0.338 C 
ATOM     34  O   UNL A   1      42.171  25.062  25.582  1.00  0.00    -0.246 OA
BRANCH  33  35
ATOM     35  C   UNL A   1      42.350  27.231  26.580  1.00  0.00     0.060 A 
ATOM     36  C   UNL A   1      43.329  27.184  27.581  1.00  0.00     0.016 A 
ATOM     37  C   UNL A   1      42.044  28.436  25.943  1.00  0.00     0.016 A 
ATOM     38  C   UNL A   1      43.984  28.353  27.970  1.00  0.00     0.010 A 
ATOM     39  C   UNL A   1      42.681  29.609  26.351  1.00  0.00     0.010 A 
ATOM     40  C   UNL A   1      43.629  29.578  27.388  1.00  0.00    -0.014 A 
BRANCH  40  41
ATOM     41  C   UNL A   1      44.079  30.844  28.012  1.00  0.00     0.031 A 
ATOM     42  C   UNL A   1      43.167  31.497  29.015  1.00  0.00     0.074 A 
ATOM     43  C   UNL A   1      45.273  31.391  27.720  1.00  0.00     0.049 A 
ATOM     44  N   UNL A   1      43.311  32.627  29.656  1.00  0.00    -0.248 NA
ATOM     45  C   UNL A   1      41.925  30.774  29.338  1.00  0.00     0.031 C 
ATOM     46  C   UNL A   1      46.264  30.823  26.808  1.00  0.00     0.029 A 
ATOM     47  N   UNL A   1      45.851  32.554  28.164  1.00  0.00    -0.354 N 
ATOM     48  C   UNL A   1      42.184  32.748  30.460  1.00  0.00     0.074 A 
ATOM     49  C   UNL A   1      41.347  31.597  30.199  1.00  0.00     0.031 C 
ATOM     50  C   UNL A   1      47.328  31.644  26.757  1.00  0.00     0.029 A 
ATOM     51  C   UNL A   1      47.079  32.810  27.603  1.00  0.00     0.049 A 
ATOM     52  H   UNL A   1      45.424  33.149  28.822  1.00  0.00     0.167 HD
ATOM     53  C   UNL A   1      41.879  33.723  31.347  1.00  0.00     0.037 A 
ATOM     54  C   UNL A   1      47.897  33.874  27.745  1.00  0.00     0.037 A 
ATOM     55  C   UNL A   1      42.710  34.870  31.594  1.00  0.00     0.049 A 
ATOM     56  C   UNL A   1      47.489  35.000  28.663  1.00  0.00     0.074 A 
ATOM     57  C   UNL A   1      42.487  35.920  32.468  1.00  0.00     0.029 A 
ATOM     58  N   UNL A   1      43.921  35.122  30.966  1.00  0.00    -0.354 N 
ATOM     59  N   UNL A   1      46.421  35.104  29.419  1.00  0.00    -0.248 NA
ATOM     60  C   UNL A   1      48.395  36.155  28.746  1.00  0.00     0.031 C 
ATOM     61  C   UNL A   1      43.536  36.833  32.328  1.00  0.00     0.029 A 
ATOM     62  C   UNL A   1      44.444  36.324  31.413  1.00  0.00     0.049 A 
ATOM     63  H   UNL A   1      44.346  34.534  30.301  1.00  0.00     0.167 HD
ATOM     64  C   UNL A   1      46.540  36.321  30.085  1.00  0.00     0.074 A 
ATOM     65  C   UNL A   1      47.790  36.912  29.653  1.00  0.00     0.031 C 
ATOM     66  C   UNL A   1      45.693  36.898  30.975  1.00  0.00     0.037 A 
BRANCH  53  67
ATOM     67  C   UNL A   1      40.586  33.601  32.101  1.00  0.00     0.058 A 
ATOM     68  C   UNL A   1      40.499  32.880  33.303  1.00  0.00     0.135 A 
ATOM     69  C   UNL A   1      39.427  34.249  31.642  1.00  0.00     0.135 A 
ATOM     70  F   UNL A   1      41.570  32.221  33.774  1.00  0.00    -0.206 F 
ATOM     71  C   UNL A   1      39.309  32.794  34.015  1.00  0.00     0.059 A 
ATOM     72  C   UNL A   1      38.232  34.200  32.353  1.00  0.00     0.059 A 
ATOM     73  F   UNL A   1      39.453  34.944  30.494  1.00  0.00    -0.206 F 
ATOM     74  C   UNL A   1      38.182  33.463  33.534  1.00  0.00     0.060 A 
BRANCH  74  75
ATOM     75  S   UNL A   1      36.650  33.357  34.485  1.00  0.00     0.124 S 
ATOM     76  O   UNL A   1      37.151  32.979  35.803  1.00  0.00    -0.237 OA
ATOM     77  O   UNL A   1      36.124  34.713  34.372  1.00  0.00    -0.237 OA
ATOM     78  O   UNL A   1      35.885  32.330  33.787  1.00  0.00    -0.744 OA
ENDBRANCH  74  75
ENDBRANCH  53  67
BRANCH  54  79
ATOM     79  C   UNL A   1      49.185  33.930  27.001  1.00  0.00     0.058 A 
ATOM     80  C   UNL A   1      50.370  33.440  27.569  1.00  0.00     0.135 A 
ATOM     81  C   UNL A   1      49.257  34.467  25.705  1.00  0.00     0.135 A 
ATOM     82  F   UNL A   1      50.358  32.933  28.811  1.00  0.00    -0.206 F 
ATOM     83  C   UNL A   1      51.581  33.486  26.885  1.00  0.00     0.059 A 
ATOM     84  C   UNL A   1      50.450  34.498  24.990  1.00  0.00     0.059 A 
ATOM     85  F   UNL A   1      48.151  34.946  25.113  1.00  0.00    -0.206 F 
ATOM     86  C   UNL A   1      51.609  34.009  25.591  1.00  0.00     0.060 A 
BRANCH  86  87
ATOM     87  S   UNL A   1      53.176  34.005  24.693  1.00  0.00     0.124 S 
ATOM     88  O   UNL A   1      53.755  32.735  25.115  1.00  0.00    -0.237 OA
ATOM     89  O   UNL A   1      52.729  34.074  23.305  1.00  0.00    -0.237 OA
ATOM     90  O   UNL A   1      53.851  35.201  25.188  1.00  0.00    -0.744 OA
ENDBRANCH  86  87
ENDBRANCH  54  79
BRANCH  66  91
ATOM     91  C   UNL A   1      46.089  38.224  31.567  1.00  0.00     0.058 A 
ATOM     92  C   UNL A   1      45.659  39.437  31.010  1.00  0.00     0.135 A 
ATOM     93  C   UNL A   1      46.838  38.278  32.754  1.00  0.00     0.135 A 
ATOM     94  F   UNL A   1      44.943  39.444  29.874  1.00  0.00    -0.206 F 
ATOM     95  C   UNL A   1      45.973  40.659  31.597  1.00  0.00     0.059 A 
ATOM     96  C   UNL A   1      47.139  39.486  33.376  1.00  0.00     0.059 A 
ATOM     97  F   UNL A   1      47.263  37.146  33.338  1.00  0.00    -0.206 F 
ATOM     98  C   UNL A   1      46.708  40.673  32.785  1.00  0.00     0.060 A 
BRANCH  98  99
ATOM     99  S   UNL A   1      47.071  42.265  33.556  1.00  0.00     0.124 S 
ATOM    100  O   UNL A   1      46.063  42.317  34.609  1.00  0.00    -0.237 OA
ATOM    101  O   UNL A   1      48.448  42.085  34.004  1.00  0.00    -0.237 OA
ATOM    102  O   UNL A   1      46.890  43.221  32.467  1.00  0.00    -0.744 OA
ENDBRANCH  98  99
ENDBRANCH  66  91
ENDBRANCH  40  41
ENDBRANCH  33  35
ENDBRANCH  32  33
ENDBRANCH  31  32
ENDBRANCH  30  31
ENDBRANCH  29  30
ENDBRANCH  28  29
ENDBRANCH   1  28
TORSDOF 24
ENDMDL
MODEL 3
REMARK VINA RESULT:      -8.2      7.520     16.596
REMARK SMILES Cc1cc(Cl)c(C)c2c1O[C@H](C(F)(F)F)C(C(=O)OCCOCCOCCOCCOC(=O)c1ccc(-c3c4nc(c(-c5c(F)cc(S(=O)(=O)[O-])cc5F)c5ccc([nH]5)c(-c5c(F)cc(S(=O)(=O)[O-])cc5F)c5nc(c(-c6c(F)cc(S(=O)(=O)[O-])cc6F)c6ccc3[nH]6)C=C5)C=C4)cc1)=C2
REMARK SMILES IDX 26 1 25 2 24 3 23 4 22 5 21 6 20 7 19 8 17 9 18 10 16 11
REMARK SMILES IDX 1 12 2 13 3 14 9 15 4 16 8 17 10 18 5 19 6 20 100 21 11 22
REMARK SMILES IDX 7 23 12 24 13 25 14 26 15 27 27 28 28 29 29 30 30 31 31 32
REMARK SMILES IDX 32 33 33 34 34 35 35 36 99 37 36 38 98 39 37 40 38 41 39 42
REMARK SMILES IDX 92 43 40 44 97 45 91 46 93 47 41 48 96 49 90 50 89 51 42 53
REMARK SMILES IDX 76 54 55 55 75 56 56 57 59 58 74 59 94 60 57 61 58 62 73 64
REMARK SMILES IDX 95 65 60 66 43 67 44 68 53 69 45 70 46 71 52 72 54 73 47 74
REMARK SMILES IDX 48 75 49 76 50 77 51 78 77 79 78 80 87 81 79 82 80 83 86 84
REMARK SMILES IDX 88 85 81 86 82 87 83 88 84 89 85 90 61 91 62 92 71 93 63 94
REMARK SMILES IDX 64 95 70 96 72 97 65 98 66 99 67 100 68 101 69 102
REMARK H PARENT 93 52 59 63
REMARK Flexibility Score: inf
ROOT
ATOM      1  C   UNL A   1      50.783  22.186  36.028  1.00  0.00     0.188 C 
ENDROOT
BRANCH   1   2
ATOM      2  O   UNL A   1      49.792  21.349  35.429  1.00  0.00    -0.377 OA
BRANCH   2   3
ATOM      3  C   UNL A   1      49.261  20.289  36.206  1.00  0.00     0.188 C 
BRANCH   3   4
ATOM      4  C   UNL A   1      48.194  20.756  37.214  1.00  0.00     0.188 C 
BRANCH   4   5
ATOM      5  O   UNL A   1      48.111  19.949  38.374  1.00  0.00    -0.376 OA
BRANCH   5   6
ATOM      6  C   UNL A   1      47.022  19.067  38.594  1.00  0.00     0.202 C 
BRANCH   6   7
ATOM      7  C   UNL A   1      46.969  17.977  39.683  1.00  0.00     0.261 C 
BRANCH   7   8
ATOM      8  O   UNL A   1      45.703  17.378  39.959  1.00  0.00    -0.460 OA
BRANCH   8   9
ATOM      9  C   UNL A   1      44.994  17.855  40.996  1.00  0.00     0.338 C 
ATOM     10  O   UNL A   1      44.616  19.001  41.163  1.00  0.00    -0.246 OA
BRANCH   9  11
ATOM     11  C   UNL A   1      44.577  16.695  41.816  1.00  0.00     0.087 C 
ATOM     12  C   UNL A   1      42.182  12.641  43.755  1.00  0.00     0.048 C 
ATOM     13  C   UNL A   1      43.520  13.291  43.974  1.00  0.00    -0.007 A 
ATOM     14  C   UNL A   1      44.448  12.703  44.838  1.00  0.00     0.028 A 
ATOM     15  C   UNL A   1      43.857  14.490  43.331  1.00  0.00     0.131 A 
ATOM     16  C   UNL A   1      45.680  13.315  45.089  1.00  0.00     0.045 A 
ATOM     17  C   UNL A   1      45.118  15.080  43.525  1.00  0.00     0.022 A 
ATOM     18  O   UNL A   1      42.886  15.024  42.531  1.00  0.00    -0.475 OA
ATOM     19  Cl  UNL A   1      46.741  12.495  46.183  1.00  0.00    -0.084 Cl
ATOM     20  C   UNL A   1      46.029  14.523  44.459  1.00  0.00    -0.021 A 
ATOM     21  C   UNL A   1      45.472  16.227  42.695  1.00  0.00     0.027 C 
ATOM     22  C   UNL A   1      43.176  16.168  41.690  1.00  0.00     0.316 C 
ATOM     23  C   UNL A   1      47.315  15.244  44.787  1.00  0.00     0.047 C 
BRANCH  22  24
ATOM     24  C   UNL A   1      42.821  15.796  40.245  1.00  0.00     0.430 C 
ATOM     25  F   UNL A   1      41.757  14.960  40.200  1.00  0.00    -0.167 F 
ATOM     26  F   UNL A   1      42.505  16.881  39.504  1.00  0.00    -0.167 F 
ATOM     27  F   UNL A   1      43.853  15.170  39.630  1.00  0.00    -0.167 F 
ENDBRANCH  22  24
ENDBRANCH   9  11
ENDBRANCH   8   9
ENDBRANCH   7   8
ENDBRANCH   6   7
ENDBRANCH   5   6
ENDBRANCH   4   5
ENDBRANCH   3   4
ENDBRANCH   2   3
ENDBRANCH   1   2
BRANCH   1  28
ATOM     28  C   UNL A   1      50.905  23.688  35.669  1.00  0.00     0.188 C 
BRANCH  28  29
ATOM     29  O   UNL A   1      50.043  24.113  34.619  1.00  0.00    -0.376 OA
BRANCH  29  30
ATOM     30  C   UNL A   1      50.370  25.313  33.936  1.00  0.00     0.202 C 
BRANCH  30  31
ATOM     31  C   UNL A   1      50.585  26.546  34.822  1.00  0.00     0.261 C 
BRANCH  31  32
ATOM     32  O   UNL A   1      49.393  27.174  35.315  1.00  0.00    -0.460 OA
BRANCH  32  33
ATOM     33  C   UNL A   1      49.475  28.477  35.663  1.00  0.00     0.338 C 
ATOM     34  O   UNL A   1      50.482  29.093  35.969  1.00  0.00    -0.246 OA
BRANCH  33  35
ATOM     35  C   UNL A   1      48.152  29.083  35.417  1.00  0.00     0.060 A 
ATOM     36  C   UNL A   1      46.997  28.357  35.739  1.00  0.00     0.016 A 
ATOM     37  C   UNL A   1      48.054  30.372  34.888  1.00  0.00     0.016 A 
ATOM     38  C   UNL A   1      45.738  28.909  35.502  1.00  0.00     0.010 A 
ATOM     39  C   UNL A   1      46.794  30.914  34.628  1.00  0.00     0.010 A 
ATOM     40  C   UNL A   1      45.632  30.172  34.903  1.00  0.00    -0.014 A 
BRANCH  40  41
ATOM     41  C   UNL A   1      44.328  30.619  34.360  1.00  0.00     0.031 A 
ATOM     42  C   UNL A   1      43.881  30.046  33.043  1.00  0.00     0.074 A 
ATOM     43  C   UNL A   1      43.547  31.489  35.024  1.00  0.00     0.049 A 
ATOM     44  N   UNL A   1      42.812  30.315  32.340  1.00  0.00    -0.248 NA
ATOM     45  C   UNL A   1      44.760  29.030  32.437  1.00  0.00     0.031 C 
ATOM     46  C   UNL A   1      43.847  32.068  36.332  1.00  0.00     0.029 A 
ATOM     47  N   UNL A   1      42.336  32.038  34.682  1.00  0.00    -0.354 N 
ATOM     48  C   UNL A   1      42.888  29.501  31.216  1.00  0.00     0.074 A 
ATOM     49  C   UNL A   1      44.124  28.757  31.309  1.00  0.00     0.031 C 
ATOM     50  C   UNL A   1      42.846  32.897  36.680  1.00  0.00     0.029 A 
ATOM     51  C   UNL A   1      41.855  32.934  35.606  1.00  0.00     0.049 A 
ATOM     52  H   UNL A   1      41.858  31.811  33.852  1.00  0.00     0.167 HD
ATOM     53  C   UNL A   1      42.000  29.375  30.204  1.00  0.00     0.037 A 
ATOM     54  C   UNL A   1      40.749  33.707  35.576  1.00  0.00     0.037 A 
ATOM     55  C   UNL A   1      40.777  30.126  30.111  1.00  0.00     0.049 A 
ATOM     56  C   UNL A   1      39.824  33.624  34.387  1.00  0.00     0.074 A 
ATOM     57  C   UNL A   1      39.812  30.077  29.119  1.00  0.00     0.029 A 
ATOM     58  N   UNL A   1      40.350  31.064  31.038  1.00  0.00    -0.354 N 
ATOM     59  N   UNL A   1      39.905  32.851  33.329  1.00  0.00    -0.248 NA
ATOM     60  C   UNL A   1      38.659  34.521  34.385  1.00  0.00     0.031 C 
ATOM     61  C   UNL A   1      38.830  31.024  29.421  1.00  0.00     0.029 A 
ATOM     62  C   UNL A   1      39.150  31.621  30.630  1.00  0.00     0.049 A 
ATOM     63  H   UNL A   1      40.830  31.300  31.865  1.00  0.00     0.167 HD
ATOM     64  C   UNL A   1      38.789  33.150  32.551  1.00  0.00     0.074 A 
ATOM     65  C   UNL A   1      38.043  34.165  33.265  1.00  0.00     0.031 C 
ATOM     66  C   UNL A   1      38.416  32.629  31.354  1.00  0.00     0.037 A 
BRANCH  53  67
ATOM     67  C   UNL A   1      42.327  28.402  29.106  1.00  0.00     0.058 A 
ATOM     68  C   UNL A   1      41.861  27.077  29.133  1.00  0.00     0.135 A 
ATOM     69  C   UNL A   1      43.077  28.809  27.991  1.00  0.00     0.135 A 
ATOM     70  F   UNL A   1      41.160  26.628  30.187  1.00  0.00    -0.206 F 
ATOM     71  C   UNL A   1      42.140  26.188  28.102  1.00  0.00     0.059 A 
ATOM     72  C   UNL A   1      43.344  27.945  26.934  1.00  0.00     0.059 A 
ATOM     73  F   UNL A   1      43.554  30.062  27.919  1.00  0.00    -0.206 F 
ATOM     74  C   UNL A   1      42.877  26.633  27.003  1.00  0.00     0.060 A 
BRANCH  74  75
ATOM     75  S   UNL A   1      43.209  25.469  25.664  1.00  0.00     0.124 S 
ATOM     76  O   UNL A   1      41.884  25.322  25.070  1.00  0.00    -0.237 OA
ATOM     77  O   UNL A   1      44.186  26.196  24.859  1.00  0.00    -0.237 OA
ATOM     78  O   UNL A   1      43.721  24.291  26.354  1.00  0.00    -0.744 OA
ENDBRANCH  74  75
ENDBRANCH  53  67
BRANCH  54  79
ATOM     79  C   UNL A   1      40.453  34.630  36.707  1.00  0.00     0.058 A 
ATOM     80  C   UNL A   1      41.029  35.908  36.766  1.00  0.00     0.135 A 
ATOM     81  C   UNL A   1      39.586  34.257  37.746  1.00  0.00     0.135 A 
ATOM     82  F   UNL A   1      41.878  36.305  35.807  1.00  0.00    -0.206 F 
ATOM     83  C   UNL A   1      40.762  36.780  37.816  1.00  0.00     0.059 A 
ATOM     84  C   UNL A   1      39.282  35.122  38.793  1.00  0.00     0.059 A 
ATOM     85  F   UNL A   1      39.006  33.046  37.737  1.00  0.00    -0.206 F 
ATOM     86  C   UNL A   1      39.879  36.381  38.822  1.00  0.00     0.060 A 
BRANCH  86  87
ATOM     87  S   UNL A   1      39.496  37.548  40.146  1.00  0.00     0.124 S 
ATOM     88  O   UNL A   1      38.334  38.241  39.601  1.00  0.00    -0.237 OA
ATOM     89  O   UNL A   1      39.236  36.654  41.271  1.00  0.00    -0.237 OA
ATOM     90  O   UNL A   1      40.713  38.346  40.255  1.00  0.00    -0.744 OA
ENDBRANCH  86  87
ENDBRANCH  54  79
BRANCH  66  91
ATOM     91  C   UNL A   1      37.133  33.123  30.742  1.00  0.00     0.058 A 
ATOM     92  C   UNL A   1      35.881  32.779  31.275  1.00  0.00     0.135 A 
ATOM     93  C   UNL A   1      37.159  34.021  29.661  1.00  0.00     0.135 A 
ATOM     94  F   UNL A   1      35.799  31.924  32.307  1.00  0.00    -0.206 F 
ATOM     95  C   UNL A   1      34.700  33.291  30.748  1.00  0.00     0.059 A 
ATOM     96  C   UNL A   1      35.993  34.569  29.136  1.00  0.00     0.059 A 
ATOM     97  F   UNL A   1      38.330  34.395  29.121  1.00  0.00    -0.206 F 
ATOM     98  C   UNL A   1      34.766  34.191  29.681  1.00  0.00     0.060 A 
BRANCH  98  99
ATOM     99  S   UNL A   1      33.226  34.878  29.036  1.00  0.00     0.124 S 
ATOM    100  O   UNL A   1      33.687  36.129  28.444  1.00  0.00    -0.237 OA
ATOM    101  O   UNL A   1      32.799  33.849  28.094  1.00  0.00    -0.237 OA
ATOM    102  O   UNL A   1      32.390  35.017  30.225  1.00  0.00    -0.744 OA
ENDBRANCH  98  99
ENDBRANCH  66  91
ENDBRANCH  40  41
ENDBRANCH  33  35
ENDBRANCH  32  33
ENDBRANCH  31  32
ENDBRANCH  30  31
ENDBRANCH  29  30
ENDBRANCH  28  29
ENDBRANCH   1  28
TORSDOF 24
ENDMDL
