MODEL 1
REMARK VINA RESULT:     -11.9      0.000      0.000
REMARK SMILES CN1C(=O)C[C@@H](C(=O)OCCOCCOCCOCCOC(=O)c2ccc(-c3c4nc(c(-c5c(F)cc(S(=O)(=O)[O-])cc5F)c5ccc([nH]5)c(-c5c(F)cc(S(=O)(=O)[O-])cc5F)c5nc(c(-c6c(F)cc(S(=O)(=O)[O-])cc6F)c6ccc3[nH]6)C=C5)C=C4)cc2)C12CCN(C(=O)c1cccc3ccccc13)CC2
REMARK SMILES IDX 16 1 15 2 14 3 13 4 12 5 11 6 10 7 9 8 7 9 8 10 6 11 1 12
REMARK SMILES IDX 2 13 3 14 90 15 4 16 5 17 91 18 107 19 92 20 106 21 93 22
REMARK SMILES IDX 94 23 95 24 96 25 97 26 105 27 98 28 100 29 104 30 99 31
REMARK SMILES IDX 101 32 103 33 102 34 17 35 18 36 19 37 20 38 21 39 22 40
REMARK SMILES IDX 23 41 24 42 25 43 89 44 26 45 88 46 27 47 28 48 29 49 82 50
REMARK SMILES IDX 30 51 87 52 81 53 83 54 31 55 86 56 80 57 79 58 32 60 66 61
REMARK SMILES IDX 45 62 65 63 46 64 49 65 64 66 84 67 47 68 48 69 63 71 85 72
REMARK SMILES IDX 50 73 33 74 34 75 43 76 35 77 36 78 42 79 44 80 37 81 38 82
REMARK SMILES IDX 39 83 40 84 41 85 67 86 68 87 77 88 69 89 70 90 76 91 78 92
REMARK SMILES IDX 71 93 72 94 73 95 74 96 75 97 51 98 52 99 61 100 53 101
REMARK SMILES IDX 54 102 60 103 62 104 55 105 56 106 57 107 58 108 59 109
REMARK H PARENT 83 59 49 70
REMARK Flexibility Score: inf
ROOT
ATOM      1  C   UNL A   1      32.778  35.716  30.810  1.00  0.00     0.188 C 
ENDROOT
BRANCH   1   2
ATOM      2  O   UNL A   1      33.237  35.585  29.464  1.00  0.00    -0.377 OA
BRANCH   2   3
ATOM      3  C   UNL A   1      34.157  34.568  29.117  1.00  0.00     0.188 C 
BRANCH   3   4
ATOM      4  C   UNL A   1      33.700  33.599  28.030  1.00  0.00     0.188 C 
BRANCH   4   5
ATOM      5  O   UNL A   1      34.664  32.685  27.554  1.00  0.00    -0.376 OA
BRANCH   5   6
ATOM      6  C   UNL A   1      34.471  31.287  27.780  1.00  0.00     0.202 C 
BRANCH   6   7
ATOM      7  C   UNL A   1      33.238  30.523  27.247  1.00  0.00     0.261 C 
BRANCH   7   8
ATOM      8  O   UNL A   1      33.456  29.614  26.126  1.00  0.00    -0.463 OA
BRANCH   8   9
ATOM      9  C   UNL A   1      32.468  28.721  25.904  1.00  0.00     0.311 C 
ATOM     10  O   UNL A   1      31.890  28.112  26.810  1.00  0.00    -0.252 OA
BRANCH   9  11
ATOM     11  C   UNL A   1      32.142  28.316  24.476  1.00  0.00     0.134 C 
ATOM     12  C   UNL A   1      28.714  27.101  23.493  1.00  0.00     0.147 C 
ATOM     13  N   UNL A   1      29.939  27.787  23.869  1.00  0.00    -0.339 N 
ATOM     14  C   UNL A   1      30.016  29.171  23.770  1.00  0.00     0.223 C 
ATOM     15  C   UNL A   1      31.269  27.150  23.931  1.00  0.00     0.060 C 
ATOM     16  O   UNL A   1      29.103  29.941  23.525  1.00  0.00    -0.275 OA
ATOM     17  C   UNL A   1      31.456  29.575  23.902  1.00  0.00     0.118 C 
ATOM     18  C   UNL A   1      31.260  25.813  24.703  1.00  0.00     0.051 C 
ATOM     19  C   UNL A   1      31.708  26.837  22.456  1.00  0.00     0.051 C 
ATOM     20  C   UNL A   1      32.503  24.926  24.513  1.00  0.00     0.122 C 
ATOM     21  C   UNL A   1      32.966  25.985  22.350  1.00  0.00     0.122 C 
ATOM     22  N   UNL A   1      32.844  24.750  23.104  1.00  0.00    -0.338 N 
ATOM     23  C   UNL A   1      33.245  23.562  22.484  1.00  0.00     0.254 C 
ATOM     24  O   UNL A   1      33.449  23.474  21.273  1.00  0.00    -0.269 OA
BRANCH  23  25
ATOM     25  C   UNL A   1      33.597  22.368  23.287  1.00  0.00     0.047 A 
ATOM     26  C   UNL A   1      32.543  21.463  23.502  1.00  0.00     0.014 A 
ATOM     27  C   UNL A   1      34.850  22.195  23.925  1.00  0.00    -0.006 A 
ATOM     28  C   UNL A   1      32.717  20.370  24.344  1.00  0.00     0.001 A 
ATOM     29  C   UNL A   1      35.013  21.065  24.771  1.00  0.00    -0.018 A 
ATOM     30  C   UNL A   1      35.956  23.058  23.755  1.00  0.00     0.009 A 
ATOM     31  C   UNL A   1      33.940  20.179  24.982  1.00  0.00     0.009 A 
ATOM     32  C   UNL A   1      36.265  20.791  25.344  1.00  0.00     0.009 A 
ATOM     33  C   UNL A   1      37.195  22.769  24.337  1.00  0.00     0.001 A 
ATOM     34  C   UNL A   1      37.354  21.628  25.114  1.00  0.00     0.001 A 
ENDBRANCH  23  25
ENDBRANCH   9  11
ENDBRANCH   8   9
ENDBRANCH   7   8
ENDBRANCH   6   7
ENDBRANCH   5   6
ENDBRANCH   4   5
ENDBRANCH   3   4
ENDBRANCH   2   3
ENDBRANCH   1   2
BRANCH   1  35
ATOM     35  C   UNL A   1      33.791  35.963  31.934  1.00  0.00     0.188 C 
BRANCH  35  36
ATOM     36  O   UNL A   1      34.172  34.830  32.722  1.00  0.00    -0.376 OA
BRANCH  36  37
ATOM     37  C   UNL A   1      35.239  34.031  32.219  1.00  0.00     0.202 C 
BRANCH  37  38
ATOM     38  C   UNL A   1      34.840  32.594  31.944  1.00  0.00     0.261 C 
BRANCH  38  39
ATOM     39  O   UNL A   1      35.875  31.878  31.274  1.00  0.00    -0.460 OA
BRANCH  39  40
ATOM     40  C   UNL A   1      36.731  31.262  32.113  1.00  0.00     0.338 C 
ATOM     41  O   UNL A   1      36.720  31.255  33.329  1.00  0.00    -0.246 OA
BRANCH  40  42
ATOM     42  C   UNL A   1      37.685  30.510  31.301  1.00  0.00     0.060 A 
ATOM     43  C   UNL A   1      38.545  29.622  31.948  1.00  0.00     0.016 A 
ATOM     44  C   UNL A   1      37.807  30.792  29.938  1.00  0.00     0.016 A 
ATOM     45  C   UNL A   1      39.609  29.078  31.241  1.00  0.00     0.010 A 
ATOM     46  C   UNL A   1      38.870  30.237  29.229  1.00  0.00     0.010 A 
ATOM     47  C   UNL A   1      39.806  29.431  29.897  1.00  0.00    -0.014 A 
BRANCH  47  48
ATOM     48  C   UNL A   1      41.106  29.117  29.271  1.00  0.00     0.031 A 
ATOM     49  C   UNL A   1      42.145  30.202  29.197  1.00  0.00     0.074 A 
ATOM     50  C   UNL A   1      41.364  27.869  28.846  1.00  0.00     0.049 A 
ATOM     51  N   UNL A   1      43.377  30.141  28.765  1.00  0.00    -0.248 NA
ATOM     52  C   UNL A   1      41.744  31.535  29.680  1.00  0.00     0.031 C 
ATOM     53  C   UNL A   1      40.420  26.753  28.893  1.00  0.00     0.029 A 
ATOM     54  N   UNL A   1      42.497  27.331  28.300  1.00  0.00    -0.354 N 
ATOM     55  C   UNL A   1      43.897  31.420  28.927  1.00  0.00     0.074 A 
ATOM     56  C   UNL A   1      42.840  32.247  29.462  1.00  0.00     0.031 C 
ATOM     57  C   UNL A   1      41.016  25.658  28.392  1.00  0.00     0.029 A 
ATOM     58  C   UNL A   1      42.374  26.003  27.979  1.00  0.00     0.049 A 
ATOM     59  H   UNL A   1      43.323  27.848  28.151  1.00  0.00     0.167 HD
ATOM     60  C   UNL A   1      45.150  31.858  28.662  1.00  0.00     0.037 A 
ATOM     61  C   UNL A   1      43.261  25.165  27.408  1.00  0.00     0.037 A 
ATOM     62  C   UNL A   1      46.186  31.016  28.125  1.00  0.00     0.049 A 
ATOM     63  C   UNL A   1      44.641  25.680  27.097  1.00  0.00     0.074 A 
ATOM     64  C   UNL A   1      47.498  31.341  27.829  1.00  0.00     0.029 A 
ATOM     65  N   UNL A   1      46.020  29.678  27.797  1.00  0.00    -0.354 N 
ATOM     66  N   UNL A   1      45.133  26.881  27.292  1.00  0.00    -0.248 NA
ATOM     67  C   UNL A   1      45.588  24.729  26.504  1.00  0.00     0.031 C 
ATOM     68  C   UNL A   1      48.112  30.210  27.282  1.00  0.00     0.029 A 
ATOM     69  C   UNL A   1      47.197  29.167  27.279  1.00  0.00     0.049 A 
ATOM     70  H   UNL A   1      45.187  29.167  27.914  1.00  0.00     0.167 HD
ATOM     71  C   UNL A   1      46.453  26.828  26.858  1.00  0.00     0.074 A 
ATOM     72  C   UNL A   1      46.684  25.470  26.407  1.00  0.00     0.031 C 
ATOM     73  C   UNL A   1      47.390  27.809  26.835  1.00  0.00     0.037 A 
BRANCH  60  74
ATOM     74  C   UNL A   1      45.451  33.307  28.925  1.00  0.00     0.058 A 
ATOM     75  C   UNL A   1      45.950  33.747  30.162  1.00  0.00     0.135 A 
ATOM     76  C   UNL A   1      45.245  34.271  27.925  1.00  0.00     0.135 A 
ATOM     77  F   UNL A   1      46.147  32.873  31.161  1.00  0.00    -0.206 F 
ATOM     78  C   UNL A   1      46.205  35.094  30.408  1.00  0.00     0.059 A 
ATOM     79  C   UNL A   1      45.515  35.619  28.140  1.00  0.00     0.059 A 
ATOM     80  F   UNL A   1      44.764  33.907  26.726  1.00  0.00    -0.206 F 
ATOM     81  C   UNL A   1      45.981  36.023  29.391  1.00  0.00     0.060 A 
BRANCH  81  82
ATOM     82  S   UNL A   1      46.307  37.768  29.725  1.00  0.00     0.124 S 
ATOM     83  O   UNL A   1      45.624  37.952  31.002  1.00  0.00    -0.237 OA
ATOM     84  O   UNL A   1      47.765  37.811  29.774  1.00  0.00    -0.237 OA
ATOM     85  O   UNL A   1      45.702  38.451  28.585  1.00  0.00    -0.744 OA
ENDBRANCH  81  82
ENDBRANCH  60  74
BRANCH  61  86
ATOM     86  C   UNL A   1      42.863  23.765  27.108  1.00  0.00     0.058 A 
ATOM     87  C   UNL A   1      42.685  23.324  25.790  1.00  0.00     0.135 A 
ATOM     88  C   UNL A   1      42.696  22.828  28.140  1.00  0.00     0.135 A 
ATOM     89  F   UNL A   1      42.828  24.182  24.769  1.00  0.00    -0.206 F 
ATOM     90  C   UNL A   1      42.350  22.003  25.503  1.00  0.00     0.059 A 
ATOM     91  C   UNL A   1      42.385  21.498  27.878  1.00  0.00     0.059 A 
ATOM     92  F   UNL A   1      42.872  23.198  29.418  1.00  0.00    -0.206 F 
ATOM     93  C   UNL A   1      42.209  21.096  26.556  1.00  0.00     0.060 A 
BRANCH  93  94
ATOM     94  S   UNL A   1      41.848  19.369  26.171  1.00  0.00     0.124 S 
ATOM     95  O   UNL A   1      42.683  19.149  24.997  1.00  0.00    -0.237 OA
ATOM     96  O   UNL A   1      42.268  18.688  27.391  1.00  0.00    -0.237 OA
ATOM     97  O   UNL A   1      40.408  19.374  25.931  1.00  0.00    -0.744 OA
ENDBRANCH  93  94
ENDBRANCH  61  86
BRANCH  73  98
ATOM     98  C   UNL A   1      48.750  27.441  26.316  1.00  0.00     0.058 A 
ATOM     99  C   UNL A   1      49.772  27.018  27.178  1.00  0.00     0.135 A 
ATOM    100  C   UNL A   1      49.012  27.457  24.937  1.00  0.00     0.135 A 
ATOM    101  F   UNL A   1      49.569  26.990  28.505  1.00  0.00    -0.206 F 
ATOM    102  C   UNL A   1      51.020  26.645  26.692  1.00  0.00     0.059 A 
ATOM    103  C   UNL A   1      50.244  27.065  24.427  1.00  0.00     0.059 A 
ATOM    104  F   UNL A   1      48.061  27.843  24.072  1.00  0.00    -0.206 F 
ATOM    105  C   UNL A   1      51.246  26.672  25.314  1.00  0.00     0.060 A 
BRANCH 105 106
ATOM    106  S   UNL A   1      52.859  26.155  24.691  1.00  0.00     0.124 S 
ATOM    107  O   UNL A   1      53.733  27.174  25.261  1.00  0.00    -0.237 OA
ATOM    108  O   UNL A   1      52.998  24.814  25.252  1.00  0.00    -0.237 OA
ATOM    109  O   UNL A   1      52.694  26.206  23.241  1.00  0.00    -0.744 OA
ENDBRANCH 105 106
ENDBRANCH  73  98
ENDBRANCH  47  48
ENDBRANCH  40  42
ENDBRANCH  39  40
ENDBRANCH  38  39
ENDBRANCH  37  38
ENDBRANCH  36  37
ENDBRANCH  35  36
ENDBRANCH   1  35
TORSDOF 24
ENDMDL
MODEL 2
REMARK VINA RESULT:     -11.0      2.930     10.135
REMARK SMILES CN1C(=O)C[C@@H](C(=O)OCCOCCOCCOCCOC(=O)c2ccc(-c3c4nc(c(-c5c(F)cc(S(=O)(=O)[O-])cc5F)c5ccc([nH]5)c(-c5c(F)cc(S(=O)(=O)[O-])cc5F)c5nc(c(-c6c(F)cc(S(=O)(=O)[O-])cc6F)c6ccc3[nH]6)C=C5)C=C4)cc2)C12CCN(C(=O)c1cccc3ccccc13)CC2
REMARK SMILES IDX 16 1 15 2 14 3 13 4 12 5 11 6 10 7 9 8 7 9 8 10 6 11 1 12
REMARK SMILES IDX 2 13 3 14 90 15 4 16 5 17 91 18 107 19 92 20 106 21 93 22
REMARK SMILES IDX 94 23 95 24 96 25 97 26 105 27 98 28 100 29 104 30 99 31
REMARK SMILES IDX 101 32 103 33 102 34 17 35 18 36 19 37 20 38 21 39 22 40
REMARK SMILES IDX 23 41 24 42 25 43 89 44 26 45 88 46 27 47 28 48 29 49 82 50
REMARK SMILES IDX 30 51 87 52 81 53 83 54 31 55 86 56 80 57 79 58 32 60 66 61
REMARK SMILES IDX 45 62 65 63 46 64 49 65 64 66 84 67 47 68 48 69 63 71 85 72
REMARK SMILES IDX 50 73 33 74 34 75 43 76 35 77 36 78 42 79 44 80 37 81 38 82
REMARK SMILES IDX 39 83 40 84 41 85 67 86 68 87 77 88 69 89 70 90 76 91 78 92
REMARK SMILES IDX 71 93 72 94 73 95 74 96 75 97 51 98 52 99 61 100 53 101
REMARK SMILES IDX 54 102 60 103 62 104 55 105 56 106 57 107 58 108 59 109
REMARK H PARENT 83 59 49 70
REMARK Flexibility Score: inf
ROOT
ATOM      1  C   UNL A   1      41.435  21.048  26.160  1.00  0.00     0.188 C 
ENDROOT
BRANCH   1   2
ATOM      2  O   UNL A   1      41.049  21.985  27.165  1.00  0.00    -0.377 OA
BRANCH   2   3
ATOM      3  C   UNL A   1      41.111  23.375  26.908  1.00  0.00     0.188 C 
BRANCH   3   4
ATOM      4  C   UNL A   1      40.225  24.253  27.788  1.00  0.00     0.188 C 
BRANCH   4   5
ATOM      5  O   UNL A   1      38.831  24.108  27.622  1.00  0.00    -0.376 OA
BRANCH   5   6
ATOM      6  C   UNL A   1      38.287  24.058  26.302  1.00  0.00     0.202 C 
BRANCH   6   7
ATOM      7  C   UNL A   1      37.823  22.738  25.645  1.00  0.00     0.261 C 
BRANCH   7   8
ATOM      8  O   UNL A   1      36.504  22.239  26.021  1.00  0.00    -0.463 OA
BRANCH   8   9
ATOM      9  C   UNL A   1      35.621  22.115  25.006  1.00  0.00     0.311 C 
ATOM     10  O   UNL A   1      35.897  22.385  23.833  1.00  0.00    -0.252 OA
BRANCH   9  11
ATOM     11  C   UNL A   1      34.172  21.780  25.320  1.00  0.00     0.134 C 
ATOM     12  C   UNL A   1      31.785  20.609  22.652  1.00  0.00     0.147 C 
ATOM     13  N   UNL A   1      32.792  20.838  23.675  1.00  0.00    -0.339 N 
ATOM     14  C   UNL A   1      33.470  19.762  24.233  1.00  0.00     0.223 C 
ATOM     15  C   UNL A   1      32.874  22.053  24.510  1.00  0.00     0.060 C 
ATOM     16  O   UNL A   1      33.428  18.599  23.868  1.00  0.00    -0.275 OA
ATOM     17  C   UNL A   1      34.191  20.242  25.459  1.00  0.00     0.118 C 
ATOM     18  C   UNL A   1      32.779  23.356  23.688  1.00  0.00     0.051 C 
ATOM     19  C   UNL A   1      31.650  22.028  25.494  1.00  0.00     0.051 C 
ATOM     20  C   UNL A   1      32.502  24.635  24.497  1.00  0.00     0.122 C 
ATOM     21  C   UNL A   1      31.464  23.316  26.285  1.00  0.00     0.122 C 
ATOM     22  N   UNL A   1      31.376  24.475  25.412  1.00  0.00    -0.338 N 
ATOM     23  C   UNL A   1      30.361  25.405  25.660  1.00  0.00     0.254 C 
ATOM     24  O   UNL A   1      29.403  25.171  26.396  1.00  0.00    -0.269 OA
BRANCH  23  25
ATOM     25  C   UNL A   1      30.467  26.794  25.159  1.00  0.00     0.047 A 
ATOM     26  C   UNL A   1      29.789  27.047  23.954  1.00  0.00     0.014 A 
ATOM     27  C   UNL A   1      31.300  27.778  25.748  1.00  0.00    -0.006 A 
ATOM     28  C   UNL A   1      29.918  28.278  23.321  1.00  0.00     0.001 A 
ATOM     29  C   UNL A   1      31.409  29.035  25.094  1.00  0.00    -0.018 A 
ATOM     30  C   UNL A   1      32.009  27.600  26.958  1.00  0.00     0.009 A 
ATOM     31  C   UNL A   1      30.731  29.261  23.882  1.00  0.00     0.009 A 
ATOM     32  C   UNL A   1      32.137  30.077  25.690  1.00  0.00     0.009 A 
ATOM     33  C   UNL A   1      32.732  28.649  27.534  1.00  0.00     0.001 A 
ATOM     34  C   UNL A   1      32.780  29.891  26.911  1.00  0.00     0.001 A 
ENDBRANCH  23  25
ENDBRANCH   9  11
ENDBRANCH   8   9
ENDBRANCH   7   8
ENDBRANCH   6   7
ENDBRANCH   5   6
ENDBRANCH   4   5
ENDBRANCH   3   4
ENDBRANCH   2   3
ENDBRANCH   1   2
BRANCH   1  35
ATOM     35  C   UNL A   1      41.012  19.579  26.291  1.00  0.00     0.188 C 
BRANCH  35  36
ATOM     36  O   UNL A   1      41.892  18.600  25.728  1.00  0.00    -0.376 OA
BRANCH  36  37
ATOM     37  C   UNL A   1      43.076  18.307  26.462  1.00  0.00     0.202 C 
BRANCH  37  38
ATOM     38  C   UNL A   1      44.329  18.297  25.608  1.00  0.00     0.261 C 
BRANCH  38  39
ATOM     39  O   UNL A   1      44.356  19.395  24.699  1.00  0.00    -0.460 OA
BRANCH  39  40
ATOM     40  C   UNL A   1      45.543  20.033  24.663  1.00  0.00     0.338 C 
ATOM     41  O   UNL A   1      46.627  19.587  24.340  1.00  0.00    -0.246 OA
BRANCH  40  42
ATOM     42  C   UNL A   1      45.309  21.429  25.023  1.00  0.00     0.060 A 
ATOM     43  C   UNL A   1      45.237  22.372  23.996  1.00  0.00     0.016 A 
ATOM     44  C   UNL A   1      45.300  21.804  26.369  1.00  0.00     0.016 A 
ATOM     45  C   UNL A   1      45.254  23.722  24.319  1.00  0.00     0.010 A 
ATOM     46  C   UNL A   1      45.308  23.159  26.690  1.00  0.00     0.010 A 
ATOM     47  C   UNL A   1      45.349  24.116  25.662  1.00  0.00    -0.014 A 
BRANCH  47  48
ATOM     48  C   UNL A   1      45.700  25.520  25.960  1.00  0.00     0.031 A 
ATOM     49  C   UNL A   1      44.623  26.429  26.487  1.00  0.00     0.074 A 
ATOM     50  C   UNL A   1      46.969  25.939  25.826  1.00  0.00     0.049 A 
ATOM     51  N   UNL A   1      44.712  27.669  26.889  1.00  0.00    -0.248 NA
ATOM     52  C   UNL A   1      43.266  25.864  26.578  1.00  0.00     0.031 C 
ATOM     53  C   UNL A   1      48.077  25.120  25.337  1.00  0.00     0.029 A 
ATOM     54  N   UNL A   1      47.538  27.154  26.096  1.00  0.00    -0.354 N 
ATOM     55  C   UNL A   1      43.427  28.030  27.283  1.00  0.00     0.074 A 
ATOM     56  C   UNL A   1      42.570  26.893  27.038  1.00  0.00     0.031 C 
ATOM     57  C   UNL A   1      49.199  25.860  25.340  1.00  0.00     0.029 A 
ATOM     58  C   UNL A   1      48.881  27.204  25.817  1.00  0.00     0.049 A 
ATOM     59  H   UNL A   1      47.032  27.919  26.456  1.00  0.00     0.167 HD
ATOM     60  C   UNL A   1      43.008  29.204  27.811  1.00  0.00     0.037 A 
ATOM     61  C   UNL A   1      49.750  28.226  25.931  1.00  0.00     0.037 A 
ATOM     62  C   UNL A   1      43.880  30.325  28.041  1.00  0.00     0.049 A 
ATOM     63  C   UNL A   1      49.256  29.531  26.497  1.00  0.00     0.074 A 
ATOM     64  C   UNL A   1      43.576  31.559  28.585  1.00  0.00     0.029 A 
ATOM     65  N   UNL A   1      45.233  30.345  27.731  1.00  0.00    -0.354 N 
ATOM     66  N   UNL A   1      48.049  29.847  26.903  1.00  0.00    -0.248 NA
ATOM     67  C   UNL A   1      50.241  30.611  26.633  1.00  0.00     0.031 C 
ATOM     68  C   UNL A   1      44.736  32.341  28.564  1.00  0.00     0.029 A 
ATOM     69  C   UNL A   1      45.774  31.578  28.049  1.00  0.00     0.049 A 
ATOM     70  H   UNL A   1      45.734  29.593  27.342  1.00  0.00     0.167 HD
ATOM     71  C   UNL A   1      48.129  31.159  27.356  1.00  0.00     0.074 A 
ATOM     72  C   UNL A   1      49.510  31.569  27.188  1.00  0.00     0.031 C 
ATOM     73  C   UNL A   1      47.154  31.953  27.865  1.00  0.00     0.037 A 
BRANCH  60  74
ATOM     74  C   UNL A   1      41.548  29.334  28.146  1.00  0.00     0.058 A 
ATOM     75  C   UNL A   1      40.557  29.326  27.152  1.00  0.00     0.135 A 
ATOM     76  C   UNL A   1      41.133  29.465  29.481  1.00  0.00     0.135 A 
ATOM     77  F   UNL A   1      40.898  29.224  25.857  1.00  0.00    -0.206 F 
ATOM     78  C   UNL A   1      39.208  29.470  27.466  1.00  0.00     0.059 A 
ATOM     79  C   UNL A   1      39.789  29.587  29.821  1.00  0.00     0.059 A 
ATOM     80  F   UNL A   1      42.039  29.486  30.471  1.00  0.00    -0.206 F 
ATOM     81  C   UNL A   1      38.834  29.604  28.804  1.00  0.00     0.060 A 
BRANCH  81  82
ATOM     82  S   UNL A   1      37.083  29.801  29.199  1.00  0.00     0.124 S 
ATOM     83  O   UNL A   1      36.999  31.237  29.444  1.00  0.00    -0.237 OA
ATOM     84  O   UNL A   1      36.432  29.327  27.981  1.00  0.00    -0.237 OA
ATOM     85  O   UNL A   1      36.901  28.952  30.373  1.00  0.00    -0.744 OA
ENDBRANCH  81  82
ENDBRANCH  60  74
BRANCH  61  86
ATOM     86  C   UNL A   1      51.162  28.043  25.506  1.00  0.00     0.058 A 
ATOM     87  C   UNL A   1      51.557  28.246  24.177  1.00  0.00     0.135 A 
ATOM     88  C   UNL A   1      52.155  27.702  26.438  1.00  0.00     0.135 A 
ATOM     89  F   UNL A   1      50.644  28.569  23.248  1.00  0.00    -0.206 F 
ATOM     90  C   UNL A   1      52.885  28.113  23.783  1.00  0.00     0.059 A 
ATOM     91  C   UNL A   1      53.492  27.585  26.075  1.00  0.00     0.059 A 
ATOM     92  F   UNL A   1      51.830  27.512  27.726  1.00  0.00    -0.206 F 
ATOM     93  C   UNL A   1      53.847  27.788  24.742  1.00  0.00     0.060 A 
BRANCH  93  94
ATOM     94  S   UNL A   1      55.578  27.691  24.237  1.00  0.00     0.124 S 
ATOM     95  O   UNL A   1      55.517  26.703  23.167  1.00  0.00    -0.237 OA
ATOM     96  O   UNL A   1      55.856  29.063  23.826  1.00  0.00    -0.237 OA
ATOM     97  O   UNL A   1      56.258  27.263  25.456  1.00  0.00    -0.744 OA
ENDBRANCH  93  94
ENDBRANCH  61  86
BRANCH  73  98
ATOM     98  C   UNL A   1      47.554  33.337  28.287  1.00  0.00     0.058 A 
ATOM     99  C   UNL A   1      47.517  34.415  27.391  1.00  0.00     0.135 A 
ATOM    100  C   UNL A   1      47.922  33.596  29.617  1.00  0.00     0.135 A 
ATOM    101  F   UNL A   1      47.176  34.215  26.107  1.00  0.00    -0.206 F 
ATOM    102  C   UNL A   1      47.855  35.702  27.792  1.00  0.00     0.059 A 
ATOM    103  C   UNL A   1      48.240  34.879  30.047  1.00  0.00     0.059 A 
ATOM    104  F   UNL A   1      47.960  32.599  30.515  1.00  0.00    -0.206 F 
ATOM    105  C   UNL A   1      48.214  35.924  29.123  1.00  0.00     0.060 A 
BRANCH 105 106
ATOM    106  S   UNL A   1      48.620  37.605  29.642  1.00  0.00     0.124 S 
ATOM    107  O   UNL A   1      49.941  37.782  29.051  1.00  0.00    -0.237 OA
ATOM    108  O   UNL A   1      47.545  38.387  29.039  1.00  0.00    -0.237 OA
ATOM    109  O   UNL A   1      48.587  37.526  31.100  1.00  0.00    -0.744 OA
ENDBRANCH 105 106
ENDBRANCH  73  98
ENDBRANCH  47  48
ENDBRANCH  40  42
ENDBRANCH  39  40
ENDBRANCH  38  39
ENDBRANCH  37  38
ENDBRANCH  36  37
ENDBRANCH  35  36
ENDBRANCH   1  35
TORSDOF 24
ENDMDL
MODEL 3
REMARK VINA RESULT:     -10.8      2.761      9.900
REMARK SMILES CN1C(=O)C[C@@H](C(=O)OCCOCCOCCOCCOC(=O)c2ccc(-c3c4nc(c(-c5c(F)cc(S(=O)(=O)[O-])cc5F)c5ccc([nH]5)c(-c5c(F)cc(S(=O)(=O)[O-])cc5F)c5nc(c(-c6c(F)cc(S(=O)(=O)[O-])cc6F)c6ccc3[nH]6)C=C5)C=C4)cc2)C12CCN(C(=O)c1cccc3ccccc13)CC2
REMARK SMILES IDX 16 1 15 2 14 3 13 4 12 5 11 6 10 7 9 8 7 9 8 10 6 11 1 12
REMARK SMILES IDX 2 13 3 14 90 15 4 16 5 17 91 18 107 19 92 20 106 21 93 22
REMARK SMILES IDX 94 23 95 24 96 25 97 26 105 27 98 28 100 29 104 30 99 31
REMARK SMILES IDX 101 32 103 33 102 34 17 35 18 36 19 37 20 38 21 39 22 40
REMARK SMILES IDX 23 41 24 42 25 43 89 44 26 45 88 46 27 47 28 48 29 49 82 50
REMARK SMILES IDX 30 51 87 52 81 53 83 54 31 55 86 56 80 57 79 58 32 60 66 61
REMARK SMILES IDX 45 62 65 63 46 64 49 65 64 66 84 67 47 68 48 69 63 71 85 72
REMARK SMILES IDX 50 73 33 74 34 75 43 76 35 77 36 78 42 79 44 80 37 81 38 82
REMARK SMILES IDX 39 83 40 84 41 85 67 86 68 87 77 88 69 89 70 90 76 91 78 92
REMARK SMILES IDX 71 93 72 94 73 95 74 96 75 97 51 98 52 99 61 100 53 101
REMARK SMILES IDX 54 102 60 103 62 104 55 105 56 106 57 107 58 108 59 109
REMARK H PARENT 83 59 49 70
REMARK Flexibility Score: inf
ROOT
ATOM      1  C   UNL A   1      41.828  22.094  26.638  1.00  0.00     0.188 C 
ENDROOT
BRANCH   1   2
ATOM      2  O   UNL A   1      40.745  22.795  27.249  1.00  0.00    -0.377 OA
BRANCH   2   3
ATOM      3  C   UNL A   1      40.234  23.977  26.661  1.00  0.00     0.188 C 
BRANCH   3   4
ATOM      4  C   UNL A   1      38.935  24.509  27.261  1.00  0.00     0.188 C 
BRANCH   4   5
ATOM      5  O   UNL A   1      37.736  24.064  26.663  1.00  0.00    -0.376 OA
BRANCH   5   6
ATOM      6  C   UNL A   1      37.787  23.440  25.379  1.00  0.00     0.202 C 
BRANCH   6   7
ATOM      7  C   UNL A   1      37.740  21.907  25.199  1.00  0.00     0.261 C 
BRANCH   7   8
ATOM      8  O   UNL A   1      36.435  21.265  25.317  1.00  0.00    -0.463 OA
BRANCH   8   9
ATOM      9  C   UNL A   1      35.449  21.817  24.579  1.00  0.00     0.311 C 
ATOM     10  O   UNL A   1      35.657  22.632  23.674  1.00  0.00    -0.252 OA
BRANCH   9  11
ATOM     11  C   UNL A   1      34.001  21.560  24.963  1.00  0.00     0.134 C 
ATOM     12  C   UNL A   1      31.414  20.585  22.403  1.00  0.00     0.147 C 
ATOM     13  N   UNL A   1      32.484  20.734  23.376  1.00  0.00    -0.339 N 
ATOM     14  C   UNL A   1      33.126  19.609  23.878  1.00  0.00     0.223 C 
ATOM     15  C   UNL A   1      32.680  21.924  24.228  1.00  0.00     0.060 C 
ATOM     16  O   UNL A   1      32.997  18.458  23.494  1.00  0.00    -0.275 OA
ATOM     17  C   UNL A   1      33.937  20.020  25.072  1.00  0.00     0.118 C 
ATOM     18  C   UNL A   1      32.620  23.248  23.435  1.00  0.00     0.051 C 
ATOM     19  C   UNL A   1      31.510  21.949  25.274  1.00  0.00     0.051 C 
ATOM     20  C   UNL A   1      32.461  24.523  24.281  1.00  0.00     0.122 C 
ATOM     21  C   UNL A   1      31.441  23.229  26.097  1.00  0.00     0.122 C 
ATOM     22  N   UNL A   1      31.376  24.409  25.251  1.00  0.00    -0.338 N 
ATOM     23  C   UNL A   1      30.431  25.390  25.569  1.00  0.00     0.254 C 
ATOM     24  O   UNL A   1      29.500  25.196  26.350  1.00  0.00    -0.269 OA
BRANCH  23  25
ATOM     25  C   UNL A   1      30.593  26.782  25.088  1.00  0.00     0.047 A 
ATOM     26  C   UNL A   1      29.993  27.057  23.848  1.00  0.00     0.014 A 
ATOM     27  C   UNL A   1      31.407  27.744  25.736  1.00  0.00    -0.006 A 
ATOM     28  C   UNL A   1      30.183  28.291  23.234  1.00  0.00     0.001 A 
ATOM     29  C   UNL A   1      31.577  29.004  25.101  1.00  0.00    -0.018 A 
ATOM     30  C   UNL A   1      32.038  27.543  26.984  1.00  0.00     0.009 A 
ATOM     31  C   UNL A   1      30.978  29.253  23.853  1.00  0.00     0.009 A 
ATOM     32  C   UNL A   1      32.287  30.028  25.749  1.00  0.00     0.009 A 
ATOM     33  C   UNL A   1      32.744  28.574  27.613  1.00  0.00     0.001 A 
ATOM     34  C   UNL A   1      32.852  29.820  27.005  1.00  0.00     0.001 A 
ENDBRANCH  23  25
ENDBRANCH   9  11
ENDBRANCH   8   9
ENDBRANCH   7   8
ENDBRANCH   6   7
ENDBRANCH   5   6
ENDBRANCH   4   5
ENDBRANCH   3   4
ENDBRANCH   2   3
ENDBRANCH   1   2
BRANCH   1  35
ATOM     35  C   UNL A   1      41.898  20.566  26.745  1.00  0.00     0.188 C 
BRANCH  35  36
ATOM     36  O   UNL A   1      42.253  19.850  25.557  1.00  0.00    -0.376 OA
BRANCH  36  37
ATOM     37  C   UNL A   1      42.844  18.567  25.736  1.00  0.00     0.202 C 
BRANCH  37  38
ATOM     38  C   UNL A   1      44.235  18.455  25.142  1.00  0.00     0.261 C 
BRANCH  38  39
ATOM     39  O   UNL A   1      44.474  19.465  24.165  1.00  0.00    -0.460 OA
BRANCH  39  40
ATOM     40  C   UNL A   1      45.626  20.138  24.358  1.00  0.00     0.338 C 
ATOM     41  O   UNL A   1      46.754  19.802  24.051  1.00  0.00    -0.246 OA
BRANCH  40  42
ATOM     42  C   UNL A   1      45.293  21.426  24.962  1.00  0.00     0.060 A 
ATOM     43  C   UNL A   1      44.929  22.475  24.117  1.00  0.00     0.016 A 
ATOM     44  C   UNL A   1      45.478  21.615  26.334  1.00  0.00     0.016 A 
ATOM     45  C   UNL A   1      44.840  23.759  24.637  1.00  0.00     0.010 A 
ATOM     46  C   UNL A   1      45.379  22.903  26.855  1.00  0.00     0.010 A 
ATOM     47  C   UNL A   1      45.123  23.983  25.993  1.00  0.00    -0.014 A 
BRANCH  47  48
ATOM     48  C   UNL A   1      45.350  25.371  26.445  1.00  0.00     0.031 A 
ATOM     49  C   UNL A   1      46.734  25.947  26.318  1.00  0.00     0.074 A 
ATOM     50  C   UNL A   1      44.320  26.111  26.889  1.00  0.00     0.049 A 
ATOM     51  N   UNL A   1      47.153  27.157  26.575  1.00  0.00    -0.248 NA
ATOM     52  C   UNL A   1      47.786  25.037  25.833  1.00  0.00     0.031 C 
ATOM     53  C   UNL A   1      42.944  25.637  27.030  1.00  0.00     0.029 A 
ATOM     54  N   UNL A   1      44.273  27.416  27.296  1.00  0.00    -0.354 N 
ATOM     55  C   UNL A   1      48.512  27.156  26.280  1.00  0.00     0.074 A 
ATOM     56  C   UNL A   1      48.856  25.817  25.859  1.00  0.00     0.031 C 
ATOM     57  C   UNL A   1      42.183  26.642  27.495  1.00  0.00     0.029 A 
ATOM     58  C   UNL A   1      43.023  27.821  27.695  1.00  0.00     0.049 A 
ATOM     59  H   UNL A   1      45.060  28.009  27.302  1.00  0.00     0.167 HD
ATOM     60  C   UNL A   1      49.388  28.186  26.344  1.00  0.00     0.037 A 
ATOM     61  C   UNL A   1      42.612  29.010  28.175  1.00  0.00     0.037 A 
ATOM     62  C   UNL A   1      49.022  29.511  26.770  1.00  0.00     0.049 A 
ATOM     63  C   UNL A   1      43.609  30.135  28.263  1.00  0.00     0.074 A 
ATOM     64  C   UNL A   1      49.816  30.639  26.861  1.00  0.00     0.029 A 
ATOM     65  N   UNL A   1      47.749  29.880  27.183  1.00  0.00    -0.354 N 
ATOM     66  N   UNL A   1      44.882  30.132  27.943  1.00  0.00    -0.248 NA
ATOM     67  C   UNL A   1      43.115  31.423  28.762  1.00  0.00     0.031 C 
ATOM     68  C   UNL A   1      49.032  31.681  27.371  1.00  0.00     0.029 A 
ATOM     69  C   UNL A   1      47.739  31.213  27.554  1.00  0.00     0.049 A 
ATOM     70  H   UNL A   1      46.968  29.282  27.209  1.00  0.00     0.167 HD
ATOM     71  C   UNL A   1      45.340  31.421  28.188  1.00  0.00     0.074 A 
ATOM     72  C   UNL A   1      44.201  32.180  28.668  1.00  0.00     0.031 C 
ATOM     73  C   UNL A   1      46.586  31.935  28.031  1.00  0.00     0.037 A 
BRANCH  60  74
ATOM     74  C   UNL A   1      50.817  27.909  25.971  1.00  0.00     0.058 A 
ATOM     75  C   UNL A   1      51.790  27.609  26.938  1.00  0.00     0.135 A 
ATOM     76  C   UNL A   1      51.221  27.938  24.627  1.00  0.00     0.135 A 
ATOM     77  F   UNL A   1      51.465  27.587  28.241  1.00  0.00    -0.206 F 
ATOM     78  C   UNL A   1      53.118  27.375  26.589  1.00  0.00     0.059 A 
ATOM     79  C   UNL A   1      52.538  27.685  24.252  1.00  0.00     0.059 A 
ATOM     80  F   UNL A   1      50.334  28.225  23.661  1.00  0.00    -0.206 F 
ATOM     81  C   UNL A   1      53.483  27.419  25.243  1.00  0.00     0.060 A 
BRANCH  81  82
ATOM     82  S   UNL A   1      55.209  27.125  24.803  1.00  0.00     0.124 S 
ATOM     83  O   UNL A   1      55.320  25.684  25.007  1.00  0.00    -0.237 OA
ATOM     84  O   UNL A   1      55.260  27.572  23.414  1.00  0.00    -0.237 OA
ATOM     85  O   UNL A   1      55.948  27.952  25.751  1.00  0.00    -0.744 OA
ENDBRANCH  81  82
ENDBRANCH  60  74
BRANCH  61  86
ATOM     86  C   UNL A   1      41.198  29.184  28.596  1.00  0.00     0.058 A 
ATOM     87  C   UNL A   1      40.840  29.237  29.950  1.00  0.00     0.135 A 
ATOM     88  C   UNL A   1      40.179  29.346  27.643  1.00  0.00     0.135 A 
ATOM     89  F   UNL A   1      41.777  29.083  30.898  1.00  0.00    -0.206 F 
ATOM     90  C   UNL A   1      39.521  29.440  30.348  1.00  0.00     0.059 A 
ATOM     91  C   UNL A   1      38.858  29.572  28.015  1.00  0.00     0.059 A 
ATOM     92  F   UNL A   1      40.473  29.319  26.334  1.00  0.00    -0.206 F 
ATOM     93  C   UNL A   1      38.538  29.612  29.371  1.00  0.00     0.060 A 
BRANCH  93  94
ATOM     94  S   UNL A   1      36.843  29.948  29.896  1.00  0.00     0.124 S 
ATOM     95  O   UNL A   1      36.713  29.068  31.050  1.00  0.00    -0.237 OA
ATOM     96  O   UNL A   1      36.888  31.378  30.184  1.00  0.00    -0.237 OA
ATOM     97  O   UNL A   1      36.052  29.579  28.726  1.00  0.00    -0.744 OA
ENDBRANCH  93  94
ENDBRANCH  61  86
BRANCH  73  98
ATOM     98  C   UNL A   1      46.773  33.385  28.371  1.00  0.00     0.058 A 
ATOM     99  C   UNL A   1      46.576  34.392  27.415  1.00  0.00     0.135 A 
ATOM    100  C   UNL A   1      47.099  33.772  29.681  1.00  0.00     0.135 A 
ATOM    101  F   UNL A   1      46.267  34.070  26.148  1.00  0.00    -0.206 F 
ATOM    102  C   UNL A   1      46.717  35.736  27.740  1.00  0.00     0.059 A 
ATOM    103  C   UNL A   1      47.222  35.111  30.034  1.00  0.00     0.059 A 
ATOM    104  F   UNL A   1      47.287  32.845  30.633  1.00  0.00    -0.206 F 
ATOM    105  C   UNL A   1      47.039  36.085  29.053  1.00  0.00     0.060 A 
BRANCH 105 106
ATOM    106  S   UNL A   1      47.189  37.835  29.472  1.00  0.00     0.124 S 
ATOM    107  O   UNL A   1      45.789  38.235  29.557  1.00  0.00    -0.237 OA
ATOM    108  O   UNL A   1      47.914  37.793  30.738  1.00  0.00    -0.237 OA
ATOM    109  O   UNL A   1      47.936  38.390  28.347  1.00  0.00    -0.744 OA
ENDBRANCH 105 106
ENDBRANCH  73  98
ENDBRANCH  47  48
ENDBRANCH  40  42
ENDBRANCH  39  40
ENDBRANCH  38  39
ENDBRANCH  37  38
ENDBRANCH  36  37
ENDBRANCH  35  36
ENDBRANCH   1  35
TORSDOF 24
ENDMDL
