MODEL 1
REMARK VINA RESULT:      -9.7      0.000      0.000
REMARK SMILES C[C@H](c1ccc(C(=O)OCCOCCOCCOCCOC(=O)c2ccc(-c3c4nc(c(-c5c(F)cc(S(=O)(=O)[O-])cc5F)c5ccc([nH]5)c(-c5c(F)cc(S(=O)(=O)[O-])cc5F)c5nc(c(-c6c(F)cc(S(=O)(=O)[O-])cc6F)c6ccc3[nH]6)C=C5)C=C4)cc2)o1)[NH+]1Cc2ccccc2C1
REMARK SMILES IDX 16 1 15 2 14 3 13 4 12 5 11 6 10 7 9 8 7 9 8 10 6 11 3 12
REMARK SMILES IDX 4 13 90 14 5 15 2 16 1 17 91 18 92 19 99 20 93 22 98 23
REMARK SMILES IDX 94 24 97 25 95 26 96 27 17 28 18 29 19 30 20 31 21 32 22 33
REMARK SMILES IDX 23 34 24 35 25 36 89 37 26 38 88 39 27 40 28 41 29 42 82 43
REMARK SMILES IDX 30 44 87 45 81 46 83 47 31 48 86 49 80 50 79 51 32 53 66 54
REMARK SMILES IDX 45 55 65 56 46 57 49 58 64 59 84 60 47 61 48 62 63 64 85 65
REMARK SMILES IDX 50 66 33 67 34 68 43 69 35 70 36 71 42 72 44 73 37 74 38 75
REMARK SMILES IDX 39 76 40 77 41 78 67 79 68 80 77 81 69 82 70 83 76 84 78 85
REMARK SMILES IDX 71 86 72 87 73 88 74 89 75 90 51 91 52 92 61 93 53 94 54 95
REMARK SMILES IDX 60 96 62 97 55 98 56 99 57 100 58 101 59 102
REMARK H PARENT 91 21 83 52 49 63
REMARK Flexibility Score: inf
ROOT
ATOM      1  C   UNL A   1      37.513  23.232  26.017  1.00  0.00     0.188 C 
ENDROOT
BRANCH   1   2
ATOM      2  O   UNL A   1      36.996  23.513  24.717  1.00  0.00    -0.377 OA
BRANCH   2   3
ATOM      3  C   UNL A   1      36.394  22.450  24.001  1.00  0.00     0.188 C 
BRANCH   3   4
ATOM      4  C   UNL A   1      34.869  22.585  23.887  1.00  0.00     0.188 C 
BRANCH   4   5
ATOM      5  O   UNL A   1      34.230  22.895  25.127  1.00  0.00    -0.376 OA
BRANCH   5   6
ATOM      6  C   UNL A   1      33.278  21.943  25.595  1.00  0.00     0.202 C 
BRANCH   6   7
ATOM      7  C   UNL A   1      32.076  22.545  26.342  1.00  0.00     0.261 C 
BRANCH   7   8
ATOM      8  O   UNL A   1      31.133  23.221  25.500  1.00  0.00    -0.457 OA
BRANCH   8   9
ATOM      9  C   UNL A   1      30.964  24.555  25.690  1.00  0.00     0.374 C 
ATOM     10  O   UNL A   1      30.963  25.112  26.782  1.00  0.00    -0.242 OA
BRANCH   9  11
ATOM     11  C   UNL A   1      30.971  25.190  24.396  1.00  0.00     0.212 A 
ATOM     12  C   UNL A   1      30.630  26.868  23.012  1.00  0.00     0.162 A 
ATOM     13  C   UNL A   1      31.471  25.984  22.361  1.00  0.00     0.053 A 
ATOM     14  O   UNL A   1      30.304  26.377  24.242  1.00  0.00    -0.448 OA
ATOM     15  C   UNL A   1      31.673  24.901  23.239  1.00  0.00     0.059 A 
BRANCH  12  16
ATOM     16  C   UNL A   1      30.081  28.222  22.637  1.00  0.00     0.248 C 
ATOM     17  C   UNL A   1      28.637  28.331  23.184  1.00  0.00     0.084 C 
BRANCH  16  18
ATOM     18  N   UNL A   1      31.041  29.337  22.900  1.00  0.00    -0.319 N 
ATOM     19  C   UNL A   1      32.469  28.914  22.925  1.00  0.00     0.300 C 
ATOM     20  C   UNL A   1      30.847  29.943  24.250  1.00  0.00     0.300 C 
ATOM     21  H   UNL A   1      30.850  29.980  22.131  1.00  0.00     0.349 HD
ATOM     22  C   UNL A   1      32.730  28.541  24.346  1.00  0.00     0.015 A 
ATOM     23  C   UNL A   1      31.776  29.177  25.147  1.00  0.00     0.015 A 
ATOM     24  C   UNL A   1      33.677  27.688  24.874  1.00  0.00     0.010 A 
ATOM     25  C   UNL A   1      31.757  28.986  26.514  1.00  0.00     0.010 A 
ATOM     26  C   UNL A   1      33.650  27.467  26.251  1.00  0.00     0.001 A 
ATOM     27  C   UNL A   1      32.702  28.113  27.064  1.00  0.00     0.001 A 
ENDBRANCH  16  18
ENDBRANCH  12  16
ENDBRANCH   9  11
ENDBRANCH   8   9
ENDBRANCH   7   8
ENDBRANCH   6   7
ENDBRANCH   5   6
ENDBRANCH   4   5
ENDBRANCH   3   4
ENDBRANCH   2   3
ENDBRANCH   1   2
BRANCH   1  28
ATOM     28  C   UNL A   1      39.032  23.169  26.291  1.00  0.00     0.188 C 
BRANCH  28  29
ATOM     29  O   UNL A   1      39.680  22.023  25.738  1.00  0.00    -0.376 OA
BRANCH  29  30
ATOM     30  C   UNL A   1      39.660  20.845  26.536  1.00  0.00     0.202 C 
BRANCH  30  31
ATOM     31  C   UNL A   1      39.997  19.575  25.747  1.00  0.00     0.261 C 
BRANCH  31  32
ATOM     32  O   UNL A   1      41.379  19.443  25.388  1.00  0.00    -0.460 OA
BRANCH  32  33
ATOM     33  C   UNL A   1      42.275  19.397  26.399  1.00  0.00     0.338 C 
ATOM     34  O   UNL A   1      42.634  18.416  27.024  1.00  0.00    -0.246 OA
BRANCH  33  35
ATOM     35  C   UNL A   1      42.881  20.735  26.515  1.00  0.00     0.060 A 
ATOM     36  C   UNL A   1      42.994  21.324  27.781  1.00  0.00     0.016 A 
ATOM     37  C   UNL A   1      43.327  21.400  25.372  1.00  0.00     0.016 A 
ATOM     38  C   UNL A   1      43.525  22.609  27.900  1.00  0.00     0.010 A 
ATOM     39  C   UNL A   1      43.840  22.689  25.492  1.00  0.00     0.010 A 
ATOM     40  C   UNL A   1      43.912  23.310  26.750  1.00  0.00    -0.014 A 
BRANCH  40  41
ATOM     41  C   UNL A   1      44.204  24.759  26.802  1.00  0.00     0.031 A 
ATOM     42  C   UNL A   1      45.625  25.197  26.591  1.00  0.00     0.074 A 
ATOM     43  C   UNL A   1      43.246  25.652  27.104  1.00  0.00     0.049 A 
ATOM     44  N   UNL A   1      46.164  26.373  26.764  1.00  0.00    -0.248 NA
ATOM     45  C   UNL A   1      46.568  24.159  26.137  1.00  0.00     0.031 C 
ATOM     46  C   UNL A   1      41.830  25.344  27.296  1.00  0.00     0.029 A 
ATOM     47  N   UNL A   1      43.334  27.001  27.333  1.00  0.00    -0.354 N 
ATOM     48  C   UNL A   1      47.510  26.218  26.456  1.00  0.00     0.074 A 
ATOM     49  C   UNL A   1      47.709  24.832  26.097  1.00  0.00     0.031 C 
ATOM     50  C   UNL A   1      41.184  26.471  27.644  1.00  0.00     0.029 A 
ATOM     51  C   UNL A   1      42.148  27.567  27.736  1.00  0.00     0.049 A 
ATOM     52  H   UNL A   1      44.166  27.516  27.218  1.00  0.00     0.167 HD
ATOM     53  C   UNL A   1      48.492  27.147  26.477  1.00  0.00     0.037 A 
ATOM     54  C   UNL A   1      41.885  28.818  28.164  1.00  0.00     0.037 A 
ATOM     55  C   UNL A   1      48.289  28.520  26.850  1.00  0.00     0.049 A 
ATOM     56  C   UNL A   1      43.004  29.825  28.235  1.00  0.00     0.074 A 
ATOM     57  C   UNL A   1      49.217  29.544  26.909  1.00  0.00     0.029 A 
ATOM     58  N   UNL A   1      47.070  29.059  27.234  1.00  0.00    -0.354 N 
ATOM     59  N   UNL A   1      44.272  29.671  27.933  1.00  0.00    -0.248 NA
ATOM     60  C   UNL A   1      42.663  31.175  28.710  1.00  0.00     0.031 C 
ATOM     61  C   UNL A   1      48.565  30.696  27.360  1.00  0.00     0.029 A 
ATOM     62  C   UNL A   1      47.223  30.398  27.543  1.00  0.00     0.049 A 
ATOM     63  H   UNL A   1      46.221  28.561  27.281  1.00  0.00     0.167 HD
ATOM     64  C   UNL A   1      44.870  30.909  28.148  1.00  0.00     0.074 A 
ATOM     65  C   UNL A   1      43.827  31.801  28.612  1.00  0.00     0.031 C 
ATOM     66  C   UNL A   1      46.163  31.275  27.974  1.00  0.00     0.037 A 
BRANCH  53  67
ATOM     67  C   UNL A   1      49.876  26.695  26.116  1.00  0.00     0.058 A 
ATOM     68  C   UNL A   1      50.703  26.049  27.047  1.00  0.00     0.135 A 
ATOM     69  C   UNL A   1      50.377  26.903  24.822  1.00  0.00     0.135 A 
ATOM     70  F   UNL A   1      50.278  25.847  28.304  1.00  0.00    -0.206 F 
ATOM     71  C   UNL A   1      51.991  25.645  26.714  1.00  0.00     0.059 A 
ATOM     72  C   UNL A   1      51.655  26.489  24.460  1.00  0.00     0.059 A 
ATOM     73  F   UNL A   1      49.627  27.525  23.898  1.00  0.00    -0.206 F 
ATOM     74  C   UNL A   1      52.461  25.875  25.418  1.00  0.00     0.060 A 
BRANCH  74  75
ATOM     75  S   UNL A   1      54.137  25.354  25.000  1.00  0.00     0.124 S 
ATOM     76  O   UNL A   1      54.307  25.954  23.681  1.00  0.00    -0.237 OA
ATOM     77  O   UNL A   1      54.928  25.948  26.073  1.00  0.00    -0.237 OA
ATOM     78  O   UNL A   1      54.054  23.897  25.021  1.00  0.00    -0.744 OA
ENDBRANCH  74  75
ENDBRANCH  53  67
BRANCH  54  79
ATOM     79  C   UNL A   1      40.506  29.186  28.579  1.00  0.00     0.058 A 
ATOM     80  C   UNL A   1      40.170  29.309  29.935  1.00  0.00     0.135 A 
ATOM     81  C   UNL A   1      39.498  29.424  27.632  1.00  0.00     0.135 A 
ATOM     82  F   UNL A   1      41.098  29.080  30.878  1.00  0.00    -0.206 F 
ATOM     83  C   UNL A   1      38.883  29.646  30.340  1.00  0.00     0.059 A 
ATOM     84  C   UNL A   1      38.208  29.781  28.011  1.00  0.00     0.059 A 
ATOM     85  F   UNL A   1      39.772  29.328  26.321  1.00  0.00    -0.206 F 
ATOM     86  C   UNL A   1      37.908  29.880  29.369  1.00  0.00     0.060 A 
BRANCH  86  87
ATOM     87  S   UNL A   1      36.251  30.364  29.901  1.00  0.00     0.124 S 
ATOM     88  O   UNL A   1      36.378  31.816  29.970  1.00  0.00    -0.237 OA
ATOM     89  O   UNL A   1      35.416  29.846  28.822  1.00  0.00    -0.237 OA
ATOM     90  O   UNL A   1      36.100  29.682  31.183  1.00  0.00    -0.744 OA
ENDBRANCH  86  87
ENDBRANCH  54  79
BRANCH  66  91
ATOM     91  C   UNL A   1      46.528  32.709  28.225  1.00  0.00     0.058 A 
ATOM     92  C   UNL A   1      46.402  33.687  27.228  1.00  0.00     0.135 A 
ATOM     93  C   UNL A   1      46.903  33.124  29.514  1.00  0.00     0.135 A 
ATOM     94  F   UNL A   1      46.052  33.338  25.981  1.00  0.00    -0.206 F 
ATOM     95  C   UNL A   1      46.630  35.032  27.502  1.00  0.00     0.059 A 
ATOM     96  C   UNL A   1      47.118  34.465  29.814  1.00  0.00     0.059 A 
ATOM     97  F   UNL A   1      47.028  32.225  30.503  1.00  0.00    -0.206 F 
ATOM     98  C   UNL A   1      46.980  35.411  28.800  1.00  0.00     0.060 A 
BRANCH  98  99
ATOM     99  S   UNL A   1      47.194  37.168  29.165  1.00  0.00     0.124 S 
ATOM    100  O   UNL A   1      46.161  37.386  30.172  1.00  0.00    -0.237 OA
ATOM    101  O   UNL A   1      48.571  37.225  29.645  1.00  0.00    -0.237 OA
ATOM    102  O   UNL A   1      46.961  37.812  27.876  1.00  0.00    -0.744 OA
ENDBRANCH  98  99
ENDBRANCH  66  91
ENDBRANCH  40  41
ENDBRANCH  33  35
ENDBRANCH  32  33
ENDBRANCH  31  32
ENDBRANCH  30  31
ENDBRANCH  29  30
ENDBRANCH  28  29
ENDBRANCH   1  28
TORSDOF 25
ENDMDL
MODEL 2
REMARK VINA RESULT:      -9.4      0.796      7.998
REMARK SMILES C[C@H](c1ccc(C(=O)OCCOCCOCCOCCOC(=O)c2ccc(-c3c4nc(c(-c5c(F)cc(S(=O)(=O)[O-])cc5F)c5ccc([nH]5)c(-c5c(F)cc(S(=O)(=O)[O-])cc5F)c5nc(c(-c6c(F)cc(S(=O)(=O)[O-])cc6F)c6ccc3[nH]6)C=C5)C=C4)cc2)o1)[NH+]1Cc2ccccc2C1
REMARK SMILES IDX 16 1 15 2 14 3 13 4 12 5 11 6 10 7 9 8 7 9 8 10 6 11 3 12
REMARK SMILES IDX 4 13 90 14 5 15 2 16 1 17 91 18 92 19 99 20 93 22 98 23
REMARK SMILES IDX 94 24 97 25 95 26 96 27 17 28 18 29 19 30 20 31 21 32 22 33
REMARK SMILES IDX 23 34 24 35 25 36 89 37 26 38 88 39 27 40 28 41 29 42 82 43
REMARK SMILES IDX 30 44 87 45 81 46 83 47 31 48 86 49 80 50 79 51 32 53 66 54
REMARK SMILES IDX 45 55 65 56 46 57 49 58 64 59 84 60 47 61 48 62 63 64 85 65
REMARK SMILES IDX 50 66 33 67 34 68 43 69 35 70 36 71 42 72 44 73 37 74 38 75
REMARK SMILES IDX 39 76 40 77 41 78 67 79 68 80 77 81 69 82 70 83 76 84 78 85
REMARK SMILES IDX 71 86 72 87 73 88 74 89 75 90 51 91 52 92 61 93 53 94 54 95
REMARK SMILES IDX 60 96 62 97 55 98 56 99 57 100 58 101 59 102
REMARK H PARENT 91 21 83 52 49 63
REMARK Flexibility Score: inf
ROOT
ATOM      1  C   UNL A   1      37.259  23.529  25.913  1.00  0.00     0.188 C 
ENDROOT
BRANCH   1   2
ATOM      2  O   UNL A   1      36.678  23.846  24.649  1.00  0.00    -0.377 OA
BRANCH   2   3
ATOM      3  C   UNL A   1      36.179  22.777  23.865  1.00  0.00     0.188 C 
BRANCH   3   4
ATOM      4  C   UNL A   1      34.663  22.856  23.629  1.00  0.00     0.188 C 
BRANCH   4   5
ATOM      5  O   UNL A   1      33.906  22.999  24.833  1.00  0.00    -0.376 OA
BRANCH   5   6
ATOM      6  C   UNL A   1      33.023  21.925  25.148  1.00  0.00     0.202 C 
BRANCH   6   7
ATOM      7  C   UNL A   1      31.752  22.336  25.907  1.00  0.00     0.261 C 
BRANCH   7   8
ATOM      8  O   UNL A   1      30.834  23.128  25.142  1.00  0.00    -0.457 OA
BRANCH   8   9
ATOM      9  C   UNL A   1      30.769  24.456  25.415  1.00  0.00     0.374 C 
ATOM     10  O   UNL A   1      30.810  24.942  26.541  1.00  0.00    -0.242 OA
BRANCH   9  11
ATOM     11  C   UNL A   1      30.827  25.169  24.164  1.00  0.00     0.212 A 
ATOM     12  C   UNL A   1      30.577  26.940  22.880  1.00  0.00     0.162 A 
ATOM     13  C   UNL A   1      31.399  26.067  22.192  1.00  0.00     0.053 A 
ATOM     14  O   UNL A   1      30.207  26.388  24.071  1.00  0.00    -0.448 OA
ATOM     15  C   UNL A   1      31.543  24.925  23.005  1.00  0.00     0.059 A 
BRANCH  12  16
ATOM     16  C   UNL A   1      30.086  28.334  22.580  1.00  0.00     0.248 C 
ATOM     17  C   UNL A   1      28.640  28.468  23.116  1.00  0.00     0.084 C 
BRANCH  16  18
ATOM     18  N   UNL A   1      31.085  29.394  22.918  1.00  0.00    -0.319 N 
ATOM     19  C   UNL A   1      32.497  28.919  22.912  1.00  0.00     0.300 C 
ATOM     20  C   UNL A   1      30.910  29.910  24.308  1.00  0.00     0.300 C 
ATOM     21  H   UNL A   1      30.917  30.095  22.196  1.00  0.00     0.349 HD
ATOM     22  C   UNL A   1      32.742  28.439  24.302  1.00  0.00     0.015 A 
ATOM     23  C   UNL A   1      31.811  29.050  25.148  1.00  0.00     0.015 A 
ATOM     24  C   UNL A   1      33.659  27.519  24.769  1.00  0.00     0.010 A 
ATOM     25  C   UNL A   1      31.783  28.766  26.498  1.00  0.00     0.010 A 
ATOM     26  C   UNL A   1      33.622  27.203  26.127  1.00  0.00     0.001 A 
ATOM     27  C   UNL A   1      32.697  27.824  26.984  1.00  0.00     0.001 A 
ENDBRANCH  16  18
ENDBRANCH  12  16
ENDBRANCH   9  11
ENDBRANCH   8   9
ENDBRANCH   7   8
ENDBRANCH   6   7
ENDBRANCH   5   6
ENDBRANCH   4   5
ENDBRANCH   3   4
ENDBRANCH   2   3
ENDBRANCH   1   2
BRANCH   1  28
ATOM     28  C   UNL A   1      38.616  24.120  26.353  1.00  0.00     0.188 C 
BRANCH  28  29
ATOM     29  O   UNL A   1      39.695  23.184  26.344  1.00  0.00    -0.376 OA
BRANCH  29  30
ATOM     30  C   UNL A   1      39.389  21.871  26.801  1.00  0.00     0.202 C 
BRANCH  30  31
ATOM     31  C   UNL A   1      39.694  20.785  25.764  1.00  0.00     0.261 C 
BRANCH  31  32
ATOM     32  O   UNL A   1      41.089  20.495  25.593  1.00  0.00    -0.460 OA
BRANCH  32  33
ATOM     33  C   UNL A   1      41.807  20.249  26.711  1.00  0.00     0.338 C 
ATOM     34  O   UNL A   1      41.877  19.201  27.327  1.00  0.00    -0.246 OA
BRANCH  33  35
ATOM     35  C   UNL A   1      42.636  21.437  26.977  1.00  0.00     0.060 A 
ATOM     36  C   UNL A   1      42.883  21.813  28.304  1.00  0.00     0.016 A 
ATOM     37  C   UNL A   1      43.159  22.174  25.913  1.00  0.00     0.016 A 
ATOM     38  C   UNL A   1      43.629  22.961  28.569  1.00  0.00     0.010 A 
ATOM     39  C   UNL A   1      43.888  23.330  26.180  1.00  0.00     0.010 A 
ATOM     40  C   UNL A   1      44.099  23.745  27.506  1.00  0.00    -0.014 A 
BRANCH  40  41
ATOM     41  C   UNL A   1      44.638  25.103  27.738  1.00  0.00     0.031 A 
ATOM     42  C   UNL A   1      43.672  26.184  28.132  1.00  0.00     0.074 A 
ATOM     43  C   UNL A   1      45.936  25.382  27.529  1.00  0.00     0.049 A 
ATOM     44  N   UNL A   1      43.860  27.472  28.216  1.00  0.00    -0.248 NA
ATOM     45  C   UNL A   1      42.303  25.748  28.463  1.00  0.00     0.031 C 
ATOM     46  C   UNL A   1      46.967  24.408  27.177  1.00  0.00     0.029 A 
ATOM     47  N   UNL A   1      46.598  26.583  27.555  1.00  0.00    -0.354 N 
ATOM     48  C   UNL A   1      42.633  28.006  28.593  1.00  0.00     0.074 A 
ATOM     49  C   UNL A   1      41.706  26.903  28.711  1.00  0.00     0.031 C 
ATOM     50  C   UNL A   1      48.130  25.056  26.988  1.00  0.00     0.029 A 
ATOM     51  C   UNL A   1      47.914  26.491  27.170  1.00  0.00     0.049 A 
ATOM     52  H   UNL A   1      46.172  27.429  27.823  1.00  0.00     0.167 HD
ATOM     53  C   UNL A   1      42.310  29.300  28.815  1.00  0.00     0.037 A 
ATOM     54  C   UNL A   1      48.825  27.462  26.955  1.00  0.00     0.037 A 
ATOM     55  C   UNL A   1      43.234  30.392  28.682  1.00  0.00     0.049 A 
ATOM     56  C   UNL A   1      48.430  28.903  27.153  1.00  0.00     0.074 A 
ATOM     57  C   UNL A   1      43.008  31.742  28.880  1.00  0.00     0.029 A 
ATOM     58  N   UNL A   1      44.563  30.257  28.309  1.00  0.00    -0.354 N 
ATOM     59  N   UNL A   1      47.270  29.397  27.518  1.00  0.00    -0.248 NA
ATOM     60  C   UNL A   1      49.461  29.921  26.904  1.00  0.00     0.031 C 
ATOM     61  C   UNL A   1      44.194  32.427  28.595  1.00  0.00     0.029 A 
ATOM     62  C   UNL A   1      45.168  31.499  28.259  1.00  0.00     0.049 A 
ATOM     63  H   UNL A   1      45.010  29.401  28.107  1.00  0.00     0.167 HD
ATOM     64  C   UNL A   1      47.442  30.776  27.577  1.00  0.00     0.074 A 
ATOM     65  C   UNL A   1      48.817  31.041  27.202  1.00  0.00     0.031 C 
ATOM     66  C   UNL A   1      46.547  31.736  27.912  1.00  0.00     0.037 A 
BRANCH  53  67
ATOM     67  C   UNL A   1      40.890  29.599  29.195  1.00  0.00     0.058 A 
ATOM     68  C   UNL A   1      39.860  29.597  28.242  1.00  0.00     0.135 A 
ATOM     69  C   UNL A   1      40.554  29.883  30.527  1.00  0.00     0.135 A 
ATOM     70  F   UNL A   1      40.134  29.355  26.951  1.00  0.00    -0.206 F 
ATOM     71  C   UNL A   1      38.547  29.892  28.593  1.00  0.00     0.059 A 
ATOM     72  C   UNL A   1      39.244  30.159  30.906  1.00  0.00     0.059 A 
ATOM     73  F   UNL A   1      41.505  29.905  31.475  1.00  0.00    -0.206 F 
ATOM     74  C   UNL A   1      38.249  30.176  29.928  1.00  0.00     0.060 A 
BRANCH  74  75
ATOM     75  S   UNL A   1      36.543  30.564  30.371  1.00  0.00     0.124 S 
ATOM     76  O   UNL A   1      35.844  30.253  29.128  1.00  0.00    -0.237 OA
ATOM     77  O   UNL A   1      36.292  29.655  31.484  1.00  0.00    -0.237 OA
ATOM     78  O   UNL A   1      36.598  31.980  30.722  1.00  0.00    -0.744 OA
ENDBRANCH  74  75
ENDBRANCH  53  67
BRANCH  54  79
ATOM     79  C   UNL A   1      50.197  27.107  26.508  1.00  0.00     0.058 A 
ATOM     80  C   UNL A   1      50.536  27.111  25.148  1.00  0.00     0.135 A 
ATOM     81  C   UNL A   1      51.197  26.758  27.430  1.00  0.00     0.135 A 
ATOM     82  F   UNL A   1      49.611  27.427  24.228  1.00  0.00    -0.206 F 
ATOM     83  C   UNL A   1      51.814  26.774  24.713  1.00  0.00     0.059 A 
ATOM     84  C   UNL A   1      52.487  26.435  27.022  1.00  0.00     0.059 A 
ATOM     85  F   UNL A   1      50.925  26.746  28.744  1.00  0.00    -0.206 F 
ATOM     86  C   UNL A   1      52.784  26.437  25.659  1.00  0.00     0.060 A 
BRANCH  86  87
ATOM     87  S   UNL A   1      54.453  26.048  25.091  1.00  0.00     0.124 S 
ATOM     88  O   UNL A   1      54.336  26.279  23.656  1.00  0.00    -0.237 OA
ATOM     89  O   UNL A   1      55.264  27.010  25.830  1.00  0.00    -0.237 OA
ATOM     90  O   UNL A   1      54.626  24.655  25.494  1.00  0.00    -0.744 OA
ENDBRANCH  86  87
ENDBRANCH  54  79
BRANCH  66  91
ATOM     91  C   UNL A   1      47.022  33.159  27.953  1.00  0.00     0.058 A 
ATOM     92  C   UNL A   1      46.790  34.043  26.890  1.00  0.00     0.135 A 
ATOM     93  C   UNL A   1      47.618  33.669  29.118  1.00  0.00     0.135 A 
ATOM     94  F   UNL A   1      46.228  33.602  25.754  1.00  0.00    -0.206 F 
ATOM     95  C   UNL A   1      47.129  35.390  26.983  1.00  0.00     0.059 A 
ATOM     96  C   UNL A   1      47.947  35.015  29.239  1.00  0.00     0.059 A 
ATOM     97  F   UNL A   1      47.852  32.862  30.166  1.00  0.00    -0.206 F 
ATOM     98  C   UNL A   1      47.700  35.867  28.165  1.00  0.00     0.060 A 
BRANCH  98  99
ATOM     99  S   UNL A   1      48.060  37.632  28.305  1.00  0.00     0.124 S 
ATOM    100  O   UNL A   1      46.778  38.223  27.937  1.00  0.00    -0.237 OA
ATOM    101  O   UNL A   1      48.441  37.764  29.708  1.00  0.00    -0.237 OA
ATOM    102  O   UNL A   1      49.143  37.834  27.348  1.00  0.00    -0.744 OA
ENDBRANCH  98  99
ENDBRANCH  66  91
ENDBRANCH  40  41
ENDBRANCH  33  35
ENDBRANCH  32  33
ENDBRANCH  31  32
ENDBRANCH  30  31
ENDBRANCH  29  30
ENDBRANCH  28  29
ENDBRANCH   1  28
TORSDOF 25
ENDMDL
MODEL 3
REMARK VINA RESULT:      -9.0      4.634      6.015
REMARK SMILES C[C@H](c1ccc(C(=O)OCCOCCOCCOCCOC(=O)c2ccc(-c3c4nc(c(-c5c(F)cc(S(=O)(=O)[O-])cc5F)c5ccc([nH]5)c(-c5c(F)cc(S(=O)(=O)[O-])cc5F)c5nc(c(-c6c(F)cc(S(=O)(=O)[O-])cc6F)c6ccc3[nH]6)C=C5)C=C4)cc2)o1)[NH+]1Cc2ccccc2C1
REMARK SMILES IDX 16 1 15 2 14 3 13 4 12 5 11 6 10 7 9 8 7 9 8 10 6 11 3 12
REMARK SMILES IDX 4 13 90 14 5 15 2 16 1 17 91 18 92 19 99 20 93 22 98 23
REMARK SMILES IDX 94 24 97 25 95 26 96 27 17 28 18 29 19 30 20 31 21 32 22 33
REMARK SMILES IDX 23 34 24 35 25 36 89 37 26 38 88 39 27 40 28 41 29 42 82 43
REMARK SMILES IDX 30 44 87 45 81 46 83 47 31 48 86 49 80 50 79 51 32 53 66 54
REMARK SMILES IDX 45 55 65 56 46 57 49 58 64 59 84 60 47 61 48 62 63 64 85 65
REMARK SMILES IDX 50 66 33 67 34 68 43 69 35 70 36 71 42 72 44 73 37 74 38 75
REMARK SMILES IDX 39 76 40 77 41 78 67 79 68 80 77 81 69 82 70 83 76 84 78 85
REMARK SMILES IDX 71 86 72 87 73 88 74 89 75 90 51 91 52 92 61 93 53 94 54 95
REMARK SMILES IDX 60 96 62 97 55 98 56 99 57 100 58 101 59 102
REMARK H PARENT 91 21 83 52 49 63
REMARK Flexibility Score: inf
ROOT
ATOM      1  C   UNL A   1      42.475  18.802  26.021  1.00  0.00     0.188 C 
ENDROOT
BRANCH   1   2
ATOM      2  O   UNL A   1      41.215  19.469  25.948  1.00  0.00    -0.377 OA
BRANCH   2   3
ATOM      3  C   UNL A   1      41.176  20.844  26.284  1.00  0.00     0.188 C 
BRANCH   3   4
ATOM      4  C   UNL A   1      39.751  21.374  26.497  1.00  0.00     0.188 C 
BRANCH   4   5
ATOM      5  O   UNL A   1      39.709  22.716  26.986  1.00  0.00    -0.376 OA
BRANCH   5   6
ATOM      6  C   UNL A   1      38.863  23.616  26.273  1.00  0.00     0.202 C 
BRANCH   6   7
ATOM      7  C   UNL A   1      37.360  23.315  26.385  1.00  0.00     0.261 C 
BRANCH   7   8
ATOM      8  O   UNL A   1      36.690  23.167  25.126  1.00  0.00    -0.457 OA
BRANCH   8   9
ATOM      9  C   UNL A   1      35.549  22.431  25.104  1.00  0.00     0.374 C 
ATOM     10  O   UNL A   1      35.312  21.485  25.847  1.00  0.00    -0.242 OA
BRANCH   9  11
ATOM     11  C   UNL A   1      34.629  23.069  24.197  1.00  0.00     0.212 A 
ATOM     12  C   UNL A   1      33.477  24.777  23.420  1.00  0.00     0.162 A 
ATOM     13  C   UNL A   1      33.490  23.822  22.420  1.00  0.00     0.053 A 
ATOM     14  O   UNL A   1      34.149  24.313  24.513  1.00  0.00    -0.448 OA
ATOM     15  C   UNL A   1      34.210  22.721  22.924  1.00  0.00     0.059 A 
BRANCH  12  16
ATOM     16  C   UNL A   1      32.920  26.177  23.491  1.00  0.00     0.248 C 
ATOM     17  C   UNL A   1      33.211  26.886  22.146  1.00  0.00     0.084 C 
BRANCH  16  18
ATOM     18  N   UNL A   1      31.536  26.230  24.052  1.00  0.00    -0.319 N 
ATOM     19  C   UNL A   1      30.816  27.503  23.773  1.00  0.00     0.300 C 
ATOM     20  C   UNL A   1      31.529  26.161  25.544  1.00  0.00     0.300 C 
ATOM     21  H   UNL A   1      31.084  25.432  23.604  1.00  0.00     0.349 HD
ATOM     22  C   UNL A   1      31.164  28.395  24.916  1.00  0.00     0.015 A 
ATOM     23  C   UNL A   1      31.567  27.595  25.989  1.00  0.00     0.015 A 
ATOM     24  C   UNL A   1      31.175  29.774  24.988  1.00  0.00     0.010 A 
ATOM     25  C   UNL A   1      31.980  28.158  27.180  1.00  0.00     0.010 A 
ATOM     26  C   UNL A   1      31.615  30.355  26.177  1.00  0.00     0.001 A 
ATOM     27  C   UNL A   1      32.010  29.555  27.265  1.00  0.00     0.001 A 
ENDBRANCH  16  18
ENDBRANCH  12  16
ENDBRANCH   9  11
ENDBRANCH   8   9
ENDBRANCH   7   8
ENDBRANCH   6   7
ENDBRANCH   5   6
ENDBRANCH   4   5
ENDBRANCH   3   4
ENDBRANCH   2   3
ENDBRANCH   1   2
BRANCH   1  28
ATOM     28  C   UNL A   1      43.606  19.092  25.012  1.00  0.00     0.188 C 
BRANCH  28  29
ATOM     29  O   UNL A   1      44.889  18.610  25.414  1.00  0.00    -0.376 OA
BRANCH  29  30
ATOM     30  C   UNL A   1      45.954  19.554  25.376  1.00  0.00     0.202 C 
BRANCH  30  31
ATOM     31  C   UNL A   1      45.638  20.786  24.522  1.00  0.00     0.261 C 
BRANCH  31  32
ATOM     32  O   UNL A   1      45.258  21.951  25.269  1.00  0.00    -0.460 OA
BRANCH  32  33
ATOM     33  C   UNL A   1      44.305  22.743  24.731  1.00  0.00     0.338 C 
ATOM     34  O   UNL A   1      43.689  22.559  23.698  1.00  0.00    -0.246 OA
BRANCH  33  35
ATOM     35  C   UNL A   1      44.012  23.808  25.705  1.00  0.00     0.060 A 
ATOM     36  C   UNL A   1      44.271  25.140  25.358  1.00  0.00     0.016 A 
ATOM     37  C   UNL A   1      43.488  23.482  26.958  1.00  0.00     0.016 A 
ATOM     38  C   UNL A   1      44.040  26.154  26.287  1.00  0.00     0.010 A 
ATOM     39  C   UNL A   1      43.275  24.494  27.890  1.00  0.00     0.010 A 
ATOM     40  C   UNL A   1      43.579  25.828  27.571  1.00  0.00    -0.014 A 
BRANCH  40  41
ATOM     41  C   UNL A   1      43.596  26.825  28.663  1.00  0.00     0.031 A 
ATOM     42  C   UNL A   1      44.735  26.778  29.641  1.00  0.00     0.074 A 
ATOM     43  C   UNL A   1      42.585  27.697  28.826  1.00  0.00     0.049 A 
ATOM     44  N   UNL A   1      44.885  27.413  30.771  1.00  0.00    -0.248 NA
ATOM     45  C   UNL A   1      45.852  25.878  29.299  1.00  0.00     0.031 C 
ATOM     46  C   UNL A   1      41.447  27.853  27.922  1.00  0.00     0.029 A 
ATOM     47  N   UNL A   1      42.345  28.595  29.833  1.00  0.00    -0.354 N 
ATOM     48  C   UNL A   1      46.101  26.981  31.285  1.00  0.00     0.074 A 
ATOM     49  C   UNL A   1      46.644  26.022  30.350  1.00  0.00     0.031 C 
ATOM     50  C   UNL A   1      40.610  28.773  28.434  1.00  0.00     0.029 A 
ATOM     51  C   UNL A   1      41.137  29.240  29.716  1.00  0.00     0.049 A 
ATOM     52  H   UNL A   1      42.977  28.764  30.570  1.00  0.00     0.167 HD
ATOM     53  C   UNL A   1      46.707  27.349  32.437  1.00  0.00     0.037 A 
ATOM     54  C   UNL A   1      40.516  30.081  30.568  1.00  0.00     0.037 A 
ATOM     55  C   UNL A   1      46.153  28.292  33.369  1.00  0.00     0.049 A 
ATOM     56  C   UNL A   1      41.181  30.435  31.873  1.00  0.00     0.074 A 
ATOM     57  C   UNL A   1      46.683  28.732  34.568  1.00  0.00     0.029 A 
ATOM     58  N   UNL A   1      44.936  28.938  33.206  1.00  0.00    -0.354 N 
ATOM     59  N   UNL A   1      42.335  30.028  32.347  1.00  0.00    -0.248 NA
ATOM     60  C   UNL A   1      40.460  31.355  32.765  1.00  0.00     0.031 C 
ATOM     61  C   UNL A   1      45.771  29.621  35.146  1.00  0.00     0.029 A 
ATOM     62  C   UNL A   1      44.691  29.763  34.287  1.00  0.00     0.049 A 
ATOM     63  H   UNL A   1      44.334  28.823  32.434  1.00  0.00     0.167 HD
ATOM     64  C   UNL A   1      42.494  30.668  33.571  1.00  0.00     0.074 A 
ATOM     65  C   UNL A   1      41.313  31.485  33.772  1.00  0.00     0.031 C 
ATOM     66  C   UNL A   1      43.522  30.591  34.450  1.00  0.00     0.037 A 
BRANCH  53  67
ATOM     67  C   UNL A   1      48.021  26.701  32.761  1.00  0.00     0.058 A 
ATOM     68  C   UNL A   1      48.088  25.501  33.485  1.00  0.00     0.135 A 
ATOM     69  C   UNL A   1      49.224  27.283  32.336  1.00  0.00     0.135 A 
ATOM     70  F   UNL A   1      46.966  24.918  33.934  1.00  0.00    -0.206 F 
ATOM     71  C   UNL A   1      49.308  24.912  33.798  1.00  0.00     0.059 A 
ATOM     72  C   UNL A   1      50.456  26.701  32.619  1.00  0.00     0.059 A 
ATOM     73  F   UNL A   1      49.212  28.436  31.647  1.00  0.00    -0.206 F 
ATOM     74  C   UNL A   1      50.488  25.523  33.364  1.00  0.00     0.060 A 
BRANCH  74  75
ATOM     75  S   UNL A   1      52.065  24.752  33.784  1.00  0.00     0.124 S 
ATOM     76  O   UNL A   1      52.775  25.866  34.405  1.00  0.00    -0.237 OA
ATOM     77  O   UNL A   1      51.661  23.678  34.684  1.00  0.00    -0.237 OA
ATOM     78  O   UNL A   1      52.585  24.320  32.490  1.00  0.00    -0.744 OA
ENDBRANCH  74  75
ENDBRANCH  53  67
BRANCH  54  79
ATOM     79  C   UNL A   1      39.180  30.633  30.223  1.00  0.00     0.058 A 
ATOM     80  C   UNL A   1      39.041  31.949  29.759  1.00  0.00     0.135 A 
ATOM     81  C   UNL A   1      38.016  29.858  30.349  1.00  0.00     0.135 A 
ATOM     82  F   UNL A   1      40.124  32.732  29.633  1.00  0.00    -0.206 F 
ATOM     83  C   UNL A   1      37.797  32.483  29.440  1.00  0.00     0.059 A 
ATOM     84  C   UNL A   1      36.762  30.362  30.018  1.00  0.00     0.059 A 
ATOM     85  F   UNL A   1      38.096  28.590  30.781  1.00  0.00    -0.206 F 
ATOM     86  C   UNL A   1      36.662  31.681  29.572  1.00  0.00     0.060 A 
BRANCH  86  87
ATOM     87  S   UNL A   1      35.056  32.364  29.110  1.00  0.00     0.124 S 
ATOM     88  O   UNL A   1      35.445  33.598  28.437  1.00  0.00    -0.237 OA
ATOM     89  O   UNL A   1      34.508  31.316  28.255  1.00  0.00    -0.237 OA
ATOM     90  O   UNL A   1      34.382  32.531  30.395  1.00  0.00    -0.744 OA
ENDBRANCH  86  87
ENDBRANCH  54  79
BRANCH  66  91
ATOM     91  C   UNL A   1      43.462  31.446  35.682  1.00  0.00     0.058 A 
ATOM     92  C   UNL A   1      42.968  30.953  36.898  1.00  0.00     0.135 A 
ATOM     93  C   UNL A   1      44.012  32.739  35.668  1.00  0.00     0.135 A 
ATOM     94  F   UNL A   1      42.428  29.726  36.960  1.00  0.00    -0.206 F 
ATOM     95  C   UNL A   1      43.024  31.713  38.062  1.00  0.00     0.059 A 
ATOM     96  C   UNL A   1      44.095  33.508  36.823  1.00  0.00     0.059 A 
ATOM     97  F   UNL A   1      44.506  33.251  34.528  1.00  0.00    -0.206 F 
ATOM     98  C   UNL A   1      43.597  32.986  38.016  1.00  0.00     0.060 A 
BRANCH  98  99
ATOM     99  S   UNL A   1      43.740  33.931  39.549  1.00  0.00     0.124 S 
ATOM    100  O   UNL A   1      43.108  33.031  40.508  1.00  0.00    -0.237 OA
ATOM    101  O   UNL A   1      45.184  34.092  39.686  1.00  0.00    -0.237 OA
ATOM    102  O   UNL A   1      43.005  35.159  39.261  1.00  0.00    -0.744 OA
ENDBRANCH  98  99
ENDBRANCH  66  91
ENDBRANCH  40  41
ENDBRANCH  33  35
ENDBRANCH  32  33
ENDBRANCH  31  32
ENDBRANCH  30  31
ENDBRANCH  29  30
ENDBRANCH  28  29
ENDBRANCH   1  28
TORSDOF 25
ENDMDL
