MODEL 1
REMARK VINA RESULT:      -6.4      0.000      0.000
REMARK SMILES CC(C)(C)C[N@H+]1[C@@H](C(=O)OCCOCCOCCOCCOC(=O)c2ccc(-c3c4nc(c(-c5c(F)cc(S(=O)(=O)[O-])cc5F)c5ccc([nH]5)c(-c5c(F)cc(S(=O)(=O)[O-])cc5F)c5nc(c(-c6c(F)cc(S(=O)(=O)[O-])cc6F)c6ccc3[nH]6)C=C5)C=C4)cc2)CC[C@H]2CCCC[C@@H]21
REMARK SMILES IDX 17 1 16 2 15 3 14 4 13 5 12 6 11 7 10 8 8 9 9 10 7 11 6 12
REMARK SMILES IDX 98 13 91 15 93 16 97 17 92 18 94 19 96 20 95 21 5 22 2 23
REMARK SMILES IDX 1 24 3 25 4 26 18 27 19 28 20 29 21 30 22 31 23 32 24 33
REMARK SMILES IDX 25 34 26 35 90 36 27 37 89 38 28 39 29 40 30 41 83 42 31 43
REMARK SMILES IDX 88 44 82 45 84 46 32 47 87 48 81 49 80 50 33 52 67 53 46 54
REMARK SMILES IDX 66 55 47 56 50 57 65 58 85 59 48 60 49 61 64 63 86 64 51 65
REMARK SMILES IDX 34 66 35 67 44 68 36 69 37 70 43 71 45 72 38 73 39 74 40 75
REMARK SMILES IDX 41 76 42 77 68 78 69 79 78 80 70 81 71 82 77 83 79 84 72 85
REMARK SMILES IDX 73 86 74 87 75 88 76 89 52 90 53 91 62 92 54 93 55 94 61 95
REMARK SMILES IDX 63 96 56 97 57 98 58 99 59 100 60 101
REMARK H PARENT 6 14 84 51 50 62
REMARK Flexibility Score: inf
ROOT
ATOM      1  C   UNL A   1      45.077  24.053  33.617  1.00  0.00     0.188 C 
ENDROOT
BRANCH   1   2
ATOM      2  O   UNL A   1      44.098  24.197  32.604  1.00  0.00    -0.377 OA
BRANCH   2   3
ATOM      3  C   UNL A   1      44.320  23.610  31.334  1.00  0.00     0.188 C 
BRANCH   3   4
ATOM      4  C   UNL A   1      43.872  24.298  30.031  1.00  0.00     0.188 C 
BRANCH   4   5
ATOM      5  O   UNL A   1      44.922  24.920  29.322  1.00  0.00    -0.376 OA
BRANCH   5   6
ATOM      6  C   UNL A   1      45.964  25.526  30.062  1.00  0.00     0.202 C 
BRANCH   6   7
ATOM      7  C   UNL A   1      46.674  26.792  29.544  1.00  0.00     0.261 C 
BRANCH   7   8
ATOM      8  O   UNL A   1      45.888  27.981  29.389  1.00  0.00    -0.459 OA
BRANCH   8   9
ATOM      9  C   UNL A   1      46.523  29.171  29.427  1.00  0.00     0.364 C 
ATOM     10  O   UNL A   1      47.521  29.416  28.748  1.00  0.00    -0.245 OA
BRANCH   9  11
ATOM     11  C   UNL A   1      45.839  30.258  30.281  1.00  0.00     0.295 C 
ATOM     12  N   UNL A   1      45.410  31.551  29.633  1.00  0.00    -0.320 N 
ATOM     13  C   UNL A   1      44.523  32.281  30.573  1.00  0.00     0.187 C 
ATOM     14  H   UNL A   1      44.923  31.279  28.778  1.00  0.00     0.349 HD
ATOM     15  C   UNL A   1      46.497  30.380  31.683  1.00  0.00     0.078 C 
ATOM     16  C   UNL A   1      44.552  31.828  32.056  1.00  0.00     0.048 C 
ATOM     17  C   UNL A   1      43.070  32.212  30.093  1.00  0.00     0.065 C 
ATOM     18  C   UNL A   1      45.990  31.584  32.479  1.00  0.00     0.016 C 
ATOM     19  C   UNL A   1      43.813  32.866  32.899  1.00  0.00     0.010 C 
ATOM     20  C   UNL A   1      42.203  33.157  30.930  1.00  0.00     0.006 C 
ATOM     21  C   UNL A   1      42.353  32.941  32.440  1.00  0.00     0.001 C 
BRANCH  12  22
ATOM     22  C   UNL A   1      46.496  32.441  29.138  1.00  0.00     0.269 C 
BRANCH  22  23
ATOM     23  C   UNL A   1      46.495  32.990  27.653  1.00  0.00     0.011 C 
ATOM     24  C   UNL A   1      45.333  32.373  26.858  1.00  0.00     0.017 C 
ATOM     25  C   UNL A   1      47.826  32.551  26.987  1.00  0.00     0.017 C 
ATOM     26  C   UNL A   1      46.435  34.520  27.509  1.00  0.00     0.017 C 
ENDBRANCH  22  23
ENDBRANCH  12  22
ENDBRANCH   9  11
ENDBRANCH   8   9
ENDBRANCH   7   8
ENDBRANCH   6   7
ENDBRANCH   5   6
ENDBRANCH   4   5
ENDBRANCH   3   4
ENDBRANCH   2   3
ENDBRANCH   1   2
BRANCH   1  27
ATOM     27  C   UNL A   1      44.905  22.907  34.631  1.00  0.00     0.188 C 
BRANCH  27  28
ATOM     28  O   UNL A   1      46.066  22.615  35.395  1.00  0.00    -0.376 OA
BRANCH  28  29
ATOM     29  C   UNL A   1      47.152  23.527  35.295  1.00  0.00     0.202 C 
BRANCH  29  30
ATOM     30  C   UNL A   1      47.818  24.018  36.593  1.00  0.00     0.261 C 
BRANCH  30  31
ATOM     31  O   UNL A   1      47.348  25.262  37.130  1.00  0.00    -0.460 OA
BRANCH  31  32
ATOM     32  C   UNL A   1      47.805  26.397  36.563  1.00  0.00     0.338 C 
ATOM     33  O   UNL A   1      48.958  26.648  36.245  1.00  0.00    -0.246 OA
BRANCH  32  34
ATOM     34  C   UNL A   1      46.637  27.230  36.223  1.00  0.00     0.060 A 
ATOM     35  C   UNL A   1      45.352  26.759  36.525  1.00  0.00     0.016 A 
ATOM     36  C   UNL A   1      46.813  28.477  35.619  1.00  0.00     0.016 A 
ATOM     37  C   UNL A   1      44.235  27.528  36.201  1.00  0.00     0.010 A 
ATOM     38  C   UNL A   1      45.690  29.230  35.265  1.00  0.00     0.010 A 
ATOM     39  C   UNL A   1      44.397  28.744  35.527  1.00  0.00    -0.014 A 
BRANCH  39  40
ATOM     40  C   UNL A   1      43.220  29.397  34.907  1.00  0.00     0.031 A 
ATOM     41  C   UNL A   1      42.830  28.978  33.516  1.00  0.00     0.074 A 
ATOM     42  C   UNL A   1      42.500  30.322  35.567  1.00  0.00     0.049 A 
ATOM     43  N   UNL A   1      41.876  29.433  32.748  1.00  0.00    -0.248 NA
ATOM     44  C   UNL A   1      43.627  27.898  32.910  1.00  0.00     0.031 C 
ATOM     45  C   UNL A   1      42.755  30.776  36.933  1.00  0.00     0.029 A 
ATOM     46  N   UNL A   1      41.411  31.054  35.165  1.00  0.00    -0.354 N 
ATOM     47  C   UNL A   1      41.967  28.709  31.565  1.00  0.00     0.074 A 
ATOM     48  C   UNL A   1      43.083  27.800  31.707  1.00  0.00     0.031 C 
ATOM     49  C   UNL A   1      41.854  31.723  37.250  1.00  0.00     0.029 A 
ATOM     50  C   UNL A   1      40.984  31.967  36.099  1.00  0.00     0.049 A 
ATOM     51  H   UNL A   1      40.976  30.936  34.289  1.00  0.00     0.167 HD
ATOM     52  C   UNL A   1      41.189  28.794  30.462  1.00  0.00     0.037 A 
ATOM     53  C   UNL A   1      40.021  32.908  36.022  1.00  0.00     0.037 A 
ATOM     54  C   UNL A   1      40.080  29.703  30.330  1.00  0.00     0.049 A 
ATOM     55  C   UNL A   1      39.205  33.028  34.758  1.00  0.00     0.074 A 
ATOM     56  C   UNL A   1      39.212  29.848  29.262  1.00  0.00     0.029 A 
ATOM     57  N   UNL A   1      39.695  30.630  31.287  1.00  0.00    -0.354 N 
ATOM     58  N   UNL A   1      39.283  32.321  33.655  1.00  0.00    -0.248 NA
ATOM     59  C   UNL A   1      38.169  34.070  34.729  1.00  0.00     0.031 C 
ATOM     60  C   UNL A   1      38.344  30.907  29.546  1.00  0.00     0.029 A 
ATOM     61  C   UNL A   1      38.623  31.373  30.821  1.00  0.00     0.049 A 
ATOM     62  H   UNL A   1      40.121  30.744  32.167  1.00  0.00     0.167 HD
ATOM     63  C   UNL A   1      38.288  32.813  32.814  1.00  0.00     0.074 A 
ATOM     64  C   UNL A   1      37.616  33.870  33.541  1.00  0.00     0.031 C 
ATOM     65  C   UNL A   1      37.958  32.422  31.557  1.00  0.00     0.037 A 
BRANCH  52  66
ATOM     66  C   UNL A   1      41.530  27.910  29.294  1.00  0.00     0.058 A 
ATOM     67  C   UNL A   1      42.573  28.215  28.407  1.00  0.00     0.135 A 
ATOM     68  C   UNL A   1      40.822  26.714  29.086  1.00  0.00     0.135 A 
ATOM     69  F   UNL A   1      43.268  29.355  28.544  1.00  0.00    -0.206 F 
ATOM     70  C   UNL A   1      42.892  27.375  27.343  1.00  0.00     0.059 A 
ATOM     71  C   UNL A   1      41.144  25.844  28.048  1.00  0.00     0.059 A 
ATOM     72  F   UNL A   1      39.809  26.377  29.899  1.00  0.00    -0.206 F 
ATOM     73  C   UNL A   1      42.175  26.190  27.175  1.00  0.00     0.060 A 
BRANCH  73  74
ATOM     74  S   UNL A   1      42.617  25.101  25.805  1.00  0.00     0.124 S 
ATOM     75  O   UNL A   1      44.029  24.852  26.074  1.00  0.00    -0.237 OA
ATOM     76  O   UNL A   1      41.723  23.966  26.010  1.00  0.00    -0.237 OA
ATOM     77  O   UNL A   1      42.337  25.911  24.623  1.00  0.00    -0.744 OA
ENDBRANCH  73  74
ENDBRANCH  52  66
BRANCH  53  78
ATOM     78  C   UNL A   1      39.783  33.821  37.173  1.00  0.00     0.058 A 
ATOM     79  C   UNL A   1      38.903  33.475  38.209  1.00  0.00     0.135 A 
ATOM     80  C   UNL A   1      40.442  35.058  37.265  1.00  0.00     0.135 A 
ATOM     81  F   UNL A   1      38.235  32.311  38.160  1.00  0.00    -0.206 F 
ATOM     82  C   UNL A   1      38.680  34.321  39.290  1.00  0.00     0.059 A 
ATOM     83  C   UNL A   1      40.258  35.909  38.350  1.00  0.00     0.059 A 
ATOM     84  F   UNL A   1      41.298  35.437  36.302  1.00  0.00    -0.206 F 
ATOM     85  C   UNL A   1      39.368  35.534  39.356  1.00  0.00     0.060 A 
BRANCH  85  86
ATOM     86  S   UNL A   1      39.123  36.590  40.800  1.00  0.00     0.124 S 
ATOM     87  O   UNL A   1      38.371  35.708  41.686  1.00  0.00    -0.237 OA
ATOM     88  O   UNL A   1      40.495  36.881  41.201  1.00  0.00    -0.237 OA
ATOM     89  O   UNL A   1      38.380  37.726  40.263  1.00  0.00    -0.744 OA
ENDBRANCH  85  86
ENDBRANCH  53  78
BRANCH  65  90
ATOM     90  C   UNL A   1      36.793  33.106  30.892  1.00  0.00     0.058 A 
ATOM     91  C   UNL A   1      36.969  34.057  29.875  1.00  0.00     0.135 A 
ATOM     92  C   UNL A   1      35.476  32.753  31.235  1.00  0.00     0.135 A 
ATOM     93  F   UNL A   1      38.204  34.433  29.508  1.00  0.00    -0.206 F 
ATOM     94  C   UNL A   1      35.883  34.651  29.239  1.00  0.00     0.059 A 
ATOM     95  C   UNL A   1      34.376  33.311  30.590  1.00  0.00     0.059 A 
ATOM     96  F   UNL A   1      35.248  31.840  32.192  1.00  0.00    -0.206 F 
ATOM     97  C   UNL A   1      34.590  34.269  29.601  1.00  0.00     0.060 A 
BRANCH  97  98
ATOM     98  S   UNL A   1      33.192  35.024  28.745  1.00  0.00     0.124 S 
ATOM     99  O   UNL A   1      32.318  35.375  29.860  1.00  0.00    -0.237 OA
ATOM    100  O   UNL A   1      33.818  36.146  28.053  1.00  0.00    -0.237 OA
ATOM    101  O   UNL A   1      32.703  33.955  27.879  1.00  0.00    -0.744 OA
ENDBRANCH  97  98
ENDBRANCH  65  90
ENDBRANCH  39  40
ENDBRANCH  32  34
ENDBRANCH  31  32
ENDBRANCH  30  31
ENDBRANCH  29  30
ENDBRANCH  28  29
ENDBRANCH  27  28
ENDBRANCH   1  27
TORSDOF 25
ENDMDL
MODEL 2
REMARK VINA RESULT:      -5.9      1.082      2.659
REMARK SMILES CC(C)(C)C[N@H+]1[C@@H](C(=O)OCCOCCOCCOCCOC(=O)c2ccc(-c3c4nc(c(-c5c(F)cc(S(=O)(=O)[O-])cc5F)c5ccc([nH]5)c(-c5c(F)cc(S(=O)(=O)[O-])cc5F)c5nc(c(-c6c(F)cc(S(=O)(=O)[O-])cc6F)c6ccc3[nH]6)C=C5)C=C4)cc2)CC[C@H]2CCCC[C@@H]21
REMARK SMILES IDX 17 1 16 2 15 3 14 4 13 5 12 6 11 7 10 8 8 9 9 10 7 11 6 12
REMARK SMILES IDX 98 13 91 15 93 16 97 17 92 18 94 19 96 20 95 21 5 22 2 23
REMARK SMILES IDX 1 24 3 25 4 26 18 27 19 28 20 29 21 30 22 31 23 32 24 33
REMARK SMILES IDX 25 34 26 35 90 36 27 37 89 38 28 39 29 40 30 41 83 42 31 43
REMARK SMILES IDX 88 44 82 45 84 46 32 47 87 48 81 49 80 50 33 52 67 53 46 54
REMARK SMILES IDX 66 55 47 56 50 57 65 58 85 59 48 60 49 61 64 63 86 64 51 65
REMARK SMILES IDX 34 66 35 67 44 68 36 69 37 70 43 71 45 72 38 73 39 74 40 75
REMARK SMILES IDX 41 76 42 77 68 78 69 79 78 80 70 81 71 82 77 83 79 84 72 85
REMARK SMILES IDX 73 86 74 87 75 88 76 89 52 90 53 91 62 92 54 93 55 94 61 95
REMARK SMILES IDX 63 96 56 97 57 98 58 99 59 100 60 101
REMARK H PARENT 6 14 84 51 50 62
REMARK Flexibility Score: inf
ROOT
ATOM      1  C   UNL A   1      45.048  24.689  32.912  1.00  0.00     0.188 C 
ENDROOT
BRANCH   1   2
ATOM      2  O   UNL A   1      44.364  24.964  31.704  1.00  0.00    -0.377 OA
BRANCH   2   3
ATOM      3  C   UNL A   1      45.105  25.152  30.511  1.00  0.00     0.188 C 
BRANCH   3   4
ATOM      4  C   UNL A   1      46.219  26.210  30.403  1.00  0.00     0.188 C 
BRANCH   4   5
ATOM      5  O   UNL A   1      45.779  27.453  29.898  1.00  0.00    -0.376 OA
BRANCH   5   6
ATOM      6  C   UNL A   1      45.666  27.607  28.497  1.00  0.00     0.202 C 
BRANCH   6   7
ATOM      7  C   UNL A   1      46.403  28.741  27.760  1.00  0.00     0.261 C 
BRANCH   7   8
ATOM      8  O   UNL A   1      45.775  30.030  27.722  1.00  0.00    -0.459 OA
BRANCH   8   9
ATOM      9  C   UNL A   1      45.974  30.801  26.633  1.00  0.00     0.364 C 
ATOM     10  O   UNL A   1      46.319  30.341  25.544  1.00  0.00    -0.245 OA
BRANCH   9  11
ATOM     11  C   UNL A   1      45.611  32.291  26.803  1.00  0.00     0.295 C 
ATOM     12  N   UNL A   1      45.618  32.904  28.181  1.00  0.00    -0.320 N 
ATOM     13  C   UNL A   1      45.540  34.380  28.044  1.00  0.00     0.187 C 
ATOM     14  H   UNL A   1      46.495  32.604  28.608  1.00  0.00     0.349 HD
ATOM     15  C   UNL A   1      44.432  32.700  25.877  1.00  0.00     0.078 C 
ATOM     16  C   UNL A   1      45.076  34.930  26.670  1.00  0.00     0.048 C 
ATOM     17  C   UNL A   1      46.896  35.015  28.367  1.00  0.00     0.065 C 
ATOM     18  C   UNL A   1      43.904  34.106  26.167  1.00  0.00     0.016 C 
ATOM     19  C   UNL A   1      44.783  36.423  26.814  1.00  0.00     0.010 C 
ATOM     20  C   UNL A   1      46.747  36.537  28.453  1.00  0.00     0.006 C 
ATOM     21  C   UNL A   1      46.067  37.151  27.225  1.00  0.00     0.001 C 
BRANCH  12  22
ATOM     22  C   UNL A   1      44.588  32.410  29.136  1.00  0.00     0.269 C 
BRANCH  22  23
ATOM     23  C   UNL A   1      44.795  32.528  30.700  1.00  0.00     0.011 C 
ATOM     24  C   UNL A   1      44.066  31.384  31.422  1.00  0.00     0.017 C 
ATOM     25  C   UNL A   1      44.167  33.870  31.160  1.00  0.00     0.017 C 
ATOM     26  C   UNL A   1      46.257  32.561  31.178  1.00  0.00     0.017 C 
ENDBRANCH  22  23
ENDBRANCH  12  22
ENDBRANCH   9  11
ENDBRANCH   8   9
ENDBRANCH   7   8
ENDBRANCH   6   7
ENDBRANCH   5   6
ENDBRANCH   4   5
ENDBRANCH   3   4
ENDBRANCH   2   3
ENDBRANCH   1   2
BRANCH   1  27
ATOM     27  C   UNL A   1      44.998  23.251  33.459  1.00  0.00     0.188 C 
BRANCH  27  28
ATOM     28  O   UNL A   1      46.028  22.936  34.387  1.00  0.00    -0.376 OA
BRANCH  28  29
ATOM     29  C   UNL A   1      46.911  23.987  34.753  1.00  0.00     0.202 C 
BRANCH  29  30
ATOM     30  C   UNL A   1      47.331  24.109  36.230  1.00  0.00     0.261 C 
BRANCH  30  31
ATOM     31  O   UNL A   1      46.722  25.164  36.989  1.00  0.00    -0.460 OA
BRANCH  31  32
ATOM     32  C   UNL A   1      47.212  26.409  36.827  1.00  0.00     0.338 C 
ATOM     33  O   UNL A   1      48.387  26.744  36.835  1.00  0.00    -0.246 OA
BRANCH  32  34
ATOM     34  C   UNL A   1      46.088  27.289  36.460  1.00  0.00     0.060 A 
ATOM     35  C   UNL A   1      44.787  26.929  36.838  1.00  0.00     0.016 A 
ATOM     36  C   UNL A   1      46.320  28.473  35.755  1.00  0.00     0.016 A 
ATOM     37  C   UNL A   1      43.710  27.743  36.491  1.00  0.00     0.010 A 
ATOM     38  C   UNL A   1      45.235  29.269  35.379  1.00  0.00     0.010 A 
ATOM     39  C   UNL A   1      43.924  28.891  35.718  1.00  0.00    -0.014 A 
BRANCH  39  40
ATOM     40  C   UNL A   1      42.768  29.571  35.087  1.00  0.00     0.031 A 
ATOM     41  C   UNL A   1      42.298  29.069  33.750  1.00  0.00     0.074 A 
ATOM     42  C   UNL A   1      42.138  30.593  35.692  1.00  0.00     0.049 A 
ATOM     43  N   UNL A   1      41.347  29.526  32.979  1.00  0.00    -0.248 NA
ATOM     44  C   UNL A   1      42.998  27.892  33.208  1.00  0.00     0.031 C 
ATOM     45  C   UNL A   1      42.475  31.136  37.006  1.00  0.00     0.029 A 
ATOM     46  N   UNL A   1      41.084  31.363  35.268  1.00  0.00    -0.354 N 
ATOM     47  C   UNL A   1      41.343  28.704  31.857  1.00  0.00     0.074 A 
ATOM     48  C   UNL A   1      42.402  27.735  32.037  1.00  0.00     0.031 C 
ATOM     49  C   UNL A   1      41.651  32.166  37.274  1.00  0.00     0.029 A 
ATOM     50  C   UNL A   1      40.755  32.375  36.137  1.00  0.00     0.049 A 
ATOM     51  H   UNL A   1      40.608  31.205  34.420  1.00  0.00     0.167 HD
ATOM     52  C   UNL A   1      40.530  28.754  30.778  1.00  0.00     0.037 A 
ATOM     53  C   UNL A   1      39.853  33.371  36.015  1.00  0.00     0.037 A 
ATOM     54  C   UNL A   1      39.478  29.723  30.609  1.00  0.00     0.049 A 
ATOM     55  C   UNL A   1      38.998  33.444  34.774  1.00  0.00     0.074 A 
ATOM     56  C   UNL A   1      38.580  29.840  29.563  1.00  0.00     0.029 A 
ATOM     57  N   UNL A   1      39.192  30.748  31.498  1.00  0.00    -0.354 N 
ATOM     58  N   UNL A   1      38.986  32.648  33.731  1.00  0.00    -0.248 NA
ATOM     59  C   UNL A   1      38.032  34.550  34.694  1.00  0.00     0.031 C 
ATOM     60  C   UNL A   1      37.796  30.976  29.787  1.00  0.00     0.029 A 
ATOM     61  C   UNL A   1      38.154  31.523  31.010  1.00  0.00     0.049 A 
ATOM     62  H   UNL A   1      39.660  30.902  32.351  1.00  0.00     0.167 HD
ATOM     63  C   UNL A   1      37.993  33.138  32.886  1.00  0.00     0.074 A 
ATOM     64  C   UNL A   1      37.421  34.293  33.545  1.00  0.00     0.031 C 
ATOM     65  C   UNL A   1      37.589  32.670  31.678  1.00  0.00     0.037 A 
BRANCH  52  66
ATOM     66  C   UNL A   1      40.766  27.757  29.676  1.00  0.00     0.058 A 
ATOM     67  C   UNL A   1      39.912  26.664  29.463  1.00  0.00     0.135 A 
ATOM     68  C   UNL A   1      41.845  27.926  28.793  1.00  0.00     0.135 A 
ATOM     69  F   UNL A   1      38.878  26.441  30.290  1.00  0.00    -0.206 F 
ATOM     70  C   UNL A   1      40.129  25.763  28.425  1.00  0.00     0.059 A 
ATOM     71  C   UNL A   1      42.063  27.056  27.729  1.00  0.00     0.059 A 
ATOM     72  F   UNL A   1      42.698  28.950  28.955  1.00  0.00    -0.206 F 
ATOM     73  C   UNL A   1      41.206  25.971  27.560  1.00  0.00     0.060 A 
BRANCH  73  74
ATOM     74  S   UNL A   1      41.460  24.805  26.205  1.00  0.00     0.124 S 
ATOM     75  O   UNL A   1      42.842  24.396  26.428  1.00  0.00    -0.237 OA
ATOM     76  O   UNL A   1      40.447  23.790  26.476  1.00  0.00    -0.237 OA
ATOM     77  O   UNL A   1      41.230  25.615  25.013  1.00  0.00    -0.744 OA
ENDBRANCH  73  74
ENDBRANCH  52  66
BRANCH  53  78
ATOM     78  C   UNL A   1      39.721  34.388  37.094  1.00  0.00     0.058 A 
ATOM     79  C   UNL A   1      38.861  34.187  38.184  1.00  0.00     0.135 A 
ATOM     80  C   UNL A   1      40.463  35.580  37.061  1.00  0.00     0.135 A 
ATOM     81  F   UNL A   1      38.117  33.072  38.253  1.00  0.00    -0.206 F 
ATOM     82  C   UNL A   1      38.736  35.131  39.199  1.00  0.00     0.059 A 
ATOM     83  C   UNL A   1      40.377  36.525  38.078  1.00  0.00     0.059 A 
ATOM     84  F   UNL A   1      41.304  35.821  36.042  1.00  0.00    -0.206 F 
ATOM     85  C   UNL A   1      39.505  36.294  39.140  1.00  0.00     0.060 A 
BRANCH  85  86
ATOM     86  S   UNL A   1      39.386  37.477  40.500  1.00  0.00     0.124 S 
ATOM     87  O   UNL A   1      40.722  38.063  40.499  1.00  0.00    -0.237 OA
ATOM     88  O   UNL A   1      38.306  38.349  40.050  1.00  0.00    -0.237 OA
ATOM     89  O   UNL A   1      39.067  36.637  41.650  1.00  0.00    -0.744 OA
ENDBRANCH  85  86
ENDBRANCH  53  78
BRANCH  65  90
ATOM     90  C   UNL A   1      36.446  33.377  30.999  1.00  0.00     0.058 A 
ATOM     91  C   UNL A   1      35.127  33.281  31.467  1.00  0.00     0.135 A 
ATOM     92  C   UNL A   1      36.688  34.218  29.899  1.00  0.00     0.135 A 
ATOM     93  F   UNL A   1      34.837  32.491  32.514  1.00  0.00    -0.206 F 
ATOM     94  C   UNL A   1      34.085  33.972  30.856  1.00  0.00     0.059 A 
ATOM     95  C   UNL A   1      35.667  34.944  29.292  1.00  0.00     0.059 A 
ATOM     96  F   UNL A   1      37.932  34.358  29.415  1.00  0.00    -0.206 F 
ATOM     97  C   UNL A   1      34.366  34.804  29.770  1.00  0.00     0.060 A 
BRANCH  97  98
ATOM     98  S   UNL A   1      33.010  35.720  29.008  1.00  0.00     0.124 S 
ATOM     99  O   UNL A   1      32.220  36.102  30.175  1.00  0.00    -0.237 OA
ATOM    100  O   UNL A   1      33.710  36.808  28.332  1.00  0.00    -0.237 OA
ATOM    101  O   UNL A   1      32.387  34.738  28.125  1.00  0.00    -0.744 OA
ENDBRANCH  97  98
ENDBRANCH  65  90
ENDBRANCH  39  40
ENDBRANCH  32  34
ENDBRANCH  31  32
ENDBRANCH  30  31
ENDBRANCH  29  30
ENDBRANCH  28  29
ENDBRANCH  27  28
ENDBRANCH   1  27
TORSDOF 25
ENDMDL
MODEL 3
REMARK VINA RESULT:      -5.7      6.007     13.554
REMARK SMILES CC(C)(C)C[N@H+]1[C@@H](C(=O)OCCOCCOCCOCCOC(=O)c2ccc(-c3c4nc(c(-c5c(F)cc(S(=O)(=O)[O-])cc5F)c5ccc([nH]5)c(-c5c(F)cc(S(=O)(=O)[O-])cc5F)c5nc(c(-c6c(F)cc(S(=O)(=O)[O-])cc6F)c6ccc3[nH]6)C=C5)C=C4)cc2)CC[C@H]2CCCC[C@@H]21
REMARK SMILES IDX 17 1 16 2 15 3 14 4 13 5 12 6 11 7 10 8 8 9 9 10 7 11 6 12
REMARK SMILES IDX 98 13 91 15 93 16 97 17 92 18 94 19 96 20 95 21 5 22 2 23
REMARK SMILES IDX 1 24 3 25 4 26 18 27 19 28 20 29 21 30 22 31 23 32 24 33
REMARK SMILES IDX 25 34 26 35 90 36 27 37 89 38 28 39 29 40 30 41 83 42 31 43
REMARK SMILES IDX 88 44 82 45 84 46 32 47 87 48 81 49 80 50 33 52 67 53 46 54
REMARK SMILES IDX 66 55 47 56 50 57 65 58 85 59 48 60 49 61 64 63 86 64 51 65
REMARK SMILES IDX 34 66 35 67 44 68 36 69 37 70 43 71 45 72 38 73 39 74 40 75
REMARK SMILES IDX 41 76 42 77 68 78 69 79 78 80 70 81 71 82 77 83 79 84 72 85
REMARK SMILES IDX 73 86 74 87 75 88 76 89 52 90 53 91 62 92 54 93 55 94 61 95
REMARK SMILES IDX 63 96 56 97 57 98 58 99 59 100 60 101
REMARK H PARENT 6 14 84 51 50 62
REMARK Flexibility Score: inf
ROOT
ATOM      1  C   UNL A   1      42.706  35.760  28.836  1.00  0.00     0.188 C 
ENDROOT
BRANCH   1   2
ATOM      2  O   UNL A   1      43.363  36.996  28.626  1.00  0.00    -0.377 OA
BRANCH   2   3
ATOM      3  C   UNL A   1      44.690  37.004  28.129  1.00  0.00     0.188 C 
BRANCH   3   4
ATOM      4  C   UNL A   1      45.027  37.523  26.719  1.00  0.00     0.188 C 
BRANCH   4   5
ATOM      5  O   UNL A   1      45.166  38.926  26.645  1.00  0.00    -0.376 OA
BRANCH   5   6
ATOM      6  C   UNL A   1      43.994  39.714  26.570  1.00  0.00     0.202 C 
BRANCH   6   7
ATOM      7  C   UNL A   1      43.755  40.880  27.548  1.00  0.00     0.261 C 
BRANCH   7   8
ATOM      8  O   UNL A   1      43.301  40.559  28.870  1.00  0.00    -0.459 OA
BRANCH   8   9
ATOM      9  C   UNL A   1      44.205  40.574  29.872  1.00  0.00     0.364 C 
ATOM     10  O   UNL A   1      45.197  39.845  29.887  1.00  0.00    -0.245 OA
BRANCH   9  11
ATOM     11  C   UNL A   1      43.986  41.664  30.942  1.00  0.00     0.295 C 
ATOM     12  N   UNL A   1      44.346  41.378  32.379  1.00  0.00    -0.320 N 
ATOM     13  C   UNL A   1      44.332  42.655  33.134  1.00  0.00     0.187 C 
ATOM     14  H   UNL A   1      45.276  40.959  32.349  1.00  0.00     0.349 HD
ATOM     15  C   UNL A   1      42.656  42.433  30.709  1.00  0.00     0.078 C 
ATOM     16  C   UNL A   1      43.604  43.852  32.470  1.00  0.00     0.048 C 
ATOM     17  C   UNL A   1      45.764  43.099  33.453  1.00  0.00     0.065 C 
ATOM     18  C   UNL A   1      42.298  43.373  31.861  1.00  0.00     0.016 C 
ATOM     19  C   UNL A   1      43.447  44.965  33.506  1.00  0.00     0.010 C 
ATOM     20  C   UNL A   1      45.735  44.279  34.427  1.00  0.00     0.006 C 
ATOM     21  C   UNL A   1      44.835  45.429  33.962  1.00  0.00     0.001 C 
BRANCH  12  22
ATOM     22  C   UNL A   1      43.530  40.346  33.077  1.00  0.00     0.269 C 
BRANCH  22  23
ATOM     23  C   UNL A   1      44.145  38.942  33.471  1.00  0.00     0.011 C 
ATOM     24  C   UNL A   1      43.585  38.475  34.824  1.00  0.00     0.017 C 
ATOM     25  C   UNL A   1      45.679  39.123  33.619  1.00  0.00     0.017 C 
ATOM     26  C   UNL A   1      43.950  37.817  32.441  1.00  0.00     0.017 C 
ENDBRANCH  22  23
ENDBRANCH  12  22
ENDBRANCH   9  11
ENDBRANCH   8   9
ENDBRANCH   7   8
ENDBRANCH   6   7
ENDBRANCH   5   6
ENDBRANCH   4   5
ENDBRANCH   3   4
ENDBRANCH   2   3
ENDBRANCH   1   2
BRANCH   1  27
ATOM     27  C   UNL A   1      41.174  35.722  28.688  1.00  0.00     0.188 C 
BRANCH  27  28
ATOM     28  O   UNL A   1      40.527  34.746  29.493  1.00  0.00    -0.376 OA
BRANCH  28  29
ATOM     29  C   UNL A   1      39.115  34.642  29.372  1.00  0.00     0.202 C 
BRANCH  29  30
ATOM     30  C   UNL A   1      38.301  34.250  30.620  1.00  0.00     0.261 C 
BRANCH  30  31
ATOM     31  O   UNL A   1      37.361  33.178  30.466  1.00  0.00    -0.460 OA
BRANCH  31  32
ATOM     32  C   UNL A   1      37.482  32.121  31.294  1.00  0.00     0.338 C 
ATOM     33  O   UNL A   1      36.722  31.802  32.197  1.00  0.00    -0.246 OA
BRANCH  32  34
ATOM     34  C   UNL A   1      38.608  31.300  30.812  1.00  0.00     0.060 A 
ATOM     35  C   UNL A   1      39.552  30.827  31.734  1.00  0.00     0.016 A 
ATOM     36  C   UNL A   1      38.723  30.988  29.455  1.00  0.00     0.016 A 
ATOM     37  C   UNL A   1      40.629  30.058  31.296  1.00  0.00     0.010 A 
ATOM     38  C   UNL A   1      39.821  30.246  29.015  1.00  0.00     0.010 A 
ATOM     39  C   UNL A   1      40.794  29.806  29.929  1.00  0.00    -0.014 A 
BRANCH  39  40
ATOM     40  C   UNL A   1      42.087  29.272  29.438  1.00  0.00     0.031 A 
ATOM     41  C   UNL A   1      43.266  30.205  29.396  1.00  0.00     0.074 A 
ATOM     42  C   UNL A   1      42.219  27.989  29.058  1.00  0.00     0.049 A 
ATOM     43  N   UNL A   1      44.480  29.990  28.963  1.00  0.00    -0.248 NA
ATOM     44  C   UNL A   1      43.043  31.567  29.912  1.00  0.00     0.031 C 
ATOM     45  C   UNL A   1      41.161  26.982  29.096  1.00  0.00     0.029 A 
ATOM     46  N   UNL A   1      43.306  27.319  28.554  1.00  0.00    -0.354 N 
ATOM     47  C   UNL A   1      45.161  31.190  29.140  1.00  0.00     0.074 A 
ATOM     48  C   UNL A   1      44.219  32.135  29.697  1.00  0.00     0.031 C 
ATOM     49  C   UNL A   1      41.648  25.823  28.618  1.00  0.00     0.029 A 
ATOM     50  C   UNL A   1      43.039  26.016  28.209  1.00  0.00     0.049 A 
ATOM     51  H   UNL A   1      44.193  27.733  28.450  1.00  0.00     0.167 HD
ATOM     52  C   UNL A   1      46.454  31.474  28.864  1.00  0.00     0.037 A 
ATOM     53  C   UNL A   1      43.820  25.096  27.606  1.00  0.00     0.037 A 
ATOM     54  C   UNL A   1      47.384  30.526  28.308  1.00  0.00     0.049 A 
ATOM     55  C   UNL A   1      45.242  25.455  27.249  1.00  0.00     0.074 A 
ATOM     56  C   UNL A   1      48.724  30.708  28.017  1.00  0.00     0.029 A 
ATOM     57  N   UNL A   1      47.070  29.224  27.947  1.00  0.00    -0.354 N 
ATOM     58  N   UNL A   1      45.883  26.584  27.443  1.00  0.00    -0.248 NA
ATOM     59  C   UNL A   1      46.048  24.414  26.594  1.00  0.00     0.031 C 
ATOM     60  C   UNL A   1      49.203  29.539  27.419  1.00  0.00     0.029 A 
ATOM     61  C   UNL A   1      48.182  28.602  27.406  1.00  0.00     0.049 A 
ATOM     62  H   UNL A   1      46.186  28.804  28.060  1.00  0.00     0.167 HD
ATOM     63  C   UNL A   1      47.173  26.379  26.962  1.00  0.00     0.074 A 
ATOM     64  C   UNL A   1      47.224  25.015  26.478  1.00  0.00     0.031 C 
ATOM     65  C   UNL A   1      48.221  27.240  26.930  1.00  0.00     0.037 A 
BRANCH  52  66
ATOM     66  C   UNL A   1      46.933  32.877  29.120  1.00  0.00     0.058 A 
ATOM     67  C   UNL A   1      46.965  33.851  28.110  1.00  0.00     0.135 A 
ATOM     68  C   UNL A   1      47.327  33.262  30.412  1.00  0.00     0.135 A 
ATOM     69  F   UNL A   1      46.621  33.533  26.852  1.00  0.00    -0.206 F 
ATOM     70  C   UNL A   1      47.389  35.152  28.367  1.00  0.00     0.059 A 
ATOM     71  C   UNL A   1      47.725  34.564  30.699  1.00  0.00     0.059 A 
ATOM     72  F   UNL A   1      47.323  32.369  31.415  1.00  0.00    -0.206 F 
ATOM     73  C   UNL A   1      47.762  35.499  29.666  1.00  0.00     0.060 A 
BRANCH  73  74
ATOM     74  S   UNL A   1      48.288  37.196  29.987  1.00  0.00     0.124 S 
ATOM     75  O   UNL A   1      49.662  36.997  30.434  1.00  0.00    -0.237 OA
ATOM     76  O   UNL A   1      48.132  37.821  28.677  1.00  0.00    -0.237 OA
ATOM     77  O   UNL A   1      47.355  37.653  31.012  1.00  0.00    -0.744 OA
ENDBRANCH  73  74
ENDBRANCH  52  66
BRANCH  53  78
ATOM     78  C   UNL A   1      43.271  23.749  27.290  1.00  0.00     0.058 A 
ATOM     79  C   UNL A   1      42.712  23.467  26.035  1.00  0.00     0.135 A 
ATOM     80  C   UNL A   1      43.302  22.713  28.237  1.00  0.00     0.135 A 
ATOM     81  F   UNL A   1      42.643  24.428  25.100  1.00  0.00    -0.206 F 
ATOM     82  C   UNL A   1      42.201  22.209  25.730  1.00  0.00     0.059 A 
ATOM     83  C   UNL A   1      42.823  21.439  27.947  1.00  0.00     0.059 A 
ATOM     84  F   UNL A   1      43.828  22.929  29.453  1.00  0.00    -0.206 F 
ATOM     85  C   UNL A   1      42.268  21.199  26.691  1.00  0.00     0.060 A 
BRANCH  85  86
ATOM     86  S   UNL A   1      41.666  19.552  26.258  1.00  0.00     0.124 S 
ATOM     87  O   UNL A   1      42.548  19.196  25.152  1.00  0.00    -0.237 OA
ATOM     88  O   UNL A   1      41.870  18.816  27.501  1.00  0.00    -0.237 OA
ATOM     89  O   UNL A   1      40.270  19.789  25.899  1.00  0.00    -0.744 OA
ENDBRANCH  85  86
ENDBRANCH  53  78
BRANCH  65  90
ATOM     90  C   UNL A   1      49.532  26.730  26.390  1.00  0.00     0.058 A 
ATOM     91  C   UNL A   1      49.873  26.842  25.034  1.00  0.00     0.135 A 
ATOM     92  C   UNL A   1      50.490  26.181  27.261  1.00  0.00     0.135 A 
ATOM     93  F   UNL A   1      48.997  27.357  24.157  1.00  0.00    -0.206 F 
ATOM     94  C   UNL A   1      51.105  26.405  24.555  1.00  0.00     0.059 A 
ATOM     95  C   UNL A   1      51.740  25.768  26.809  1.00  0.00     0.059 A 
ATOM     96  F   UNL A   1      50.223  26.061  28.571  1.00  0.00    -0.206 F 
ATOM     97  C   UNL A   1      52.033  25.872  25.451  1.00  0.00     0.060 A 
BRANCH  97  98
ATOM     98  S   UNL A   1      53.639  25.340  24.821  1.00  0.00     0.124 S 
ATOM     99  O   UNL A   1      54.548  25.924  25.803  1.00  0.00    -0.237 OA
ATOM    100  O   UNL A   1      53.521  23.886  24.853  1.00  0.00    -0.237 OA
ATOM    101  O   UNL A   1      53.696  25.931  23.487  1.00  0.00    -0.744 OA
ENDBRANCH  97  98
ENDBRANCH  65  90
ENDBRANCH  39  40
ENDBRANCH  32  34
ENDBRANCH  31  32
ENDBRANCH  30  31
ENDBRANCH  29  30
ENDBRANCH  28  29
ENDBRANCH  27  28
ENDBRANCH   1  27
TORSDOF 25
ENDMDL
