MODEL 1
REMARK VINA RESULT:      -9.1      0.000      0.000
REMARK SMILES COc1ccc(-c2cc3c(N4CCC[C@@H](C(=O)OCCOCCOCCOCCOC(=O)c5ccc(-c6c7nc(c(-c8c(F)cc(S(=O)(=O)[O-])cc8F)c8ccc([nH]8)c(-c8c(F)cc(S(=O)(=O)[O-])cc8F)c8nc(c(-c9c(F)cc(S(=O)(=O)[O-])cc9F)c9ccc6[nH]9)C=C8)C=C7)cc5)C4)nccn3n2)cc1OC
REMARK SMILES IDX 24 1 23 2 22 3 21 4 20 5 19 6 18 7 16 8 17 9 15 10 11 11
REMARK SMILES IDX 12 12 99 13 13 14 14 15 10 16 7 17 8 18 104 19 9 20 103 21
REMARK SMILES IDX 102 22 100 23 101 24 6 25 3 26 4 27 106 28 5 29 105 30 2 31
REMARK SMILES IDX 1 32 107 33 108 34 25 35 26 36 27 37 28 38 29 39 30 40 31 41
REMARK SMILES IDX 32 42 33 43 34 44 98 45 35 46 97 47 36 48 37 49 38 50 91 51
REMARK SMILES IDX 39 52 96 53 90 54 92 55 40 56 95 57 89 58 88 59 41 61 75 62
REMARK SMILES IDX 54 63 74 64 55 65 58 66 73 67 93 68 56 69 57 70 72 72 94 73
REMARK SMILES IDX 59 74 42 75 43 76 52 77 44 78 45 79 51 80 53 81 46 82 47 83
REMARK SMILES IDX 48 84 49 85 50 86 76 87 77 88 86 89 78 90 79 91 85 92 87 93
REMARK SMILES IDX 80 94 81 95 82 96 83 97 84 98 60 99 61 100 70 101 62 102
REMARK SMILES IDX 63 103 69 104 71 105 64 106 65 107 66 108 67 109 68 110
REMARK H PARENT 92 60 58 71
REMARK Flexibility Score: inf
ROOT
ATOM      1  O   UNL A   1      42.519  19.295  25.099  1.00  0.00    -0.377 OA
ENDROOT
BRANCH   1   2
ATOM      2  C   UNL A   1      41.792  19.356  26.313  1.00  0.00     0.188 C 
BRANCH   2   3
ATOM      3  C   UNL A   1      40.681  20.436  26.351  1.00  0.00     0.188 C 
BRANCH   3   4
ATOM      4  O   UNL A   1      39.309  20.083  26.263  1.00  0.00    -0.376 OA
BRANCH   4   5
ATOM      5  C   UNL A   1      38.682  20.001  24.995  1.00  0.00     0.202 C 
BRANCH   5   6
ATOM      6  C   UNL A   1      37.358  20.740  24.709  1.00  0.00     0.261 C 
BRANCH   6   7
ATOM      7  O   UNL A   1      37.318  22.157  24.960  1.00  0.00    -0.463 OA
BRANCH   7   8
ATOM      8  C   UNL A   1      36.540  22.865  24.105  1.00  0.00     0.310 C 
ATOM      9  O   UNL A   1      36.766  22.959  22.904  1.00  0.00    -0.252 OA
BRANCH   8  10
ATOM     10  C   UNL A   1      35.381  23.569  24.809  1.00  0.00     0.118 C 
ATOM     11  N   UNL A   1      33.011  23.902  24.616  1.00  0.00    -0.354 N 
ATOM     12  C   UNL A   1      32.637  23.516  25.962  1.00  0.00     0.118 C 
ATOM     13  C   UNL A   1      34.124  23.163  24.044  1.00  0.00     0.133 C 
ATOM     14  C   UNL A   1      33.816  23.663  26.913  1.00  0.00     0.022 C 
ATOM     15  C   UNL A   1      35.163  23.262  26.306  1.00  0.00     0.019 C 
BRANCH  11  16
ATOM     16  C   UNL A   1      32.568  25.024  23.950  1.00  0.00     0.154 A 
ATOM     17  C   UNL A   1      33.332  28.324  25.325  1.00  0.00     0.094 A 
ATOM     18  C   UNL A   1      33.484  26.929  25.464  1.00  0.00     0.063 A 
ATOM     19  N   UNL A   1      32.613  28.624  24.234  1.00  0.00    -0.168 NA
ATOM     20  C   UNL A   1      32.797  26.376  24.415  1.00  0.00     0.109 A 
ATOM     21  N   UNL A   1      32.345  27.430  23.653  1.00  0.00    -0.235 N 
ATOM     22  C   UNL A   1      31.724  27.181  22.443  1.00  0.00     0.133 A 
ATOM     23  N   UNL A   1      31.985  24.830  22.787  1.00  0.00    -0.235 NA
ATOM     24  C   UNL A   1      31.570  25.912  22.048  1.00  0.00     0.133 A 
BRANCH  17  25
ATOM     25  C   UNL A   1      33.831  29.340  26.244  1.00  0.00     0.006 A 
ATOM     26  C   UNL A   1      34.869  31.328  27.931  1.00  0.00     0.160 A 
ATOM     27  C   UNL A   1      33.503  31.312  27.612  1.00  0.00     0.051 A 
ATOM     28  C   UNL A   1      35.721  30.340  27.420  1.00  0.00     0.161 A 
ATOM     29  C   UNL A   1      32.987  30.329  26.761  1.00  0.00     0.014 A 
ATOM     30  C   UNL A   1      35.187  29.354  26.581  1.00  0.00     0.060 A 
BRANCH  26  31
ATOM     31  O   UNL A   1      35.302  32.245  28.849  1.00  0.00    -0.493 OA
ATOM     32  C   UNL A   1      34.860  31.935  30.173  1.00  0.00     0.278 C 
ENDBRANCH  26  31
BRANCH  28  33
ATOM     33  O   UNL A   1      37.059  30.166  27.643  1.00  0.00    -0.493 OA
ATOM     34  C   UNL A   1      37.481  28.982  28.299  1.00  0.00     0.278 C 
ENDBRANCH  28  33
ENDBRANCH  17  25
ENDBRANCH  11  16
ENDBRANCH   8  10
ENDBRANCH   7   8
ENDBRANCH   6   7
ENDBRANCH   5   6
ENDBRANCH   4   5
ENDBRANCH   3   4
ENDBRANCH   2   3
ENDBRANCH   1   2
BRANCH   1  35
ATOM     35  C   UNL A   1      43.920  19.468  25.248  1.00  0.00     0.188 C 
BRANCH  35  36
ATOM     36  C   UNL A   1      44.467  20.900  25.019  1.00  0.00     0.188 C 
BRANCH  36  37
ATOM     37  O   UNL A   1      43.894  21.903  25.857  1.00  0.00    -0.376 OA
BRANCH  37  38
ATOM     38  C   UNL A   1      43.123  22.978  25.344  1.00  0.00     0.202 C 
BRANCH  38  39
ATOM     39  C   UNL A   1      42.693  24.059  26.338  1.00  0.00     0.261 C 
BRANCH  39  40
ATOM     40  O   UNL A   1      41.643  24.865  25.846  1.00  0.00    -0.460 OA
BRANCH  40  41
ATOM     41  C   UNL A   1      40.450  24.622  26.407  1.00  0.00     0.338 C 
ATOM     42  O   UNL A   1      39.760  23.613  26.290  1.00  0.00    -0.246 OA
BRANCH  41  43
ATOM     43  C   UNL A   1      40.046  25.806  27.153  1.00  0.00     0.060 A 
ATOM     44  C   UNL A   1      40.681  26.992  26.785  1.00  0.00     0.016 A 
ATOM     45  C   UNL A   1      39.458  25.595  28.406  1.00  0.00     0.016 A 
ATOM     46  C   UNL A   1      41.059  27.828  27.798  1.00  0.00     0.010 A 
ATOM     47  C   UNL A   1      39.878  26.398  29.419  1.00  0.00     0.010 A 
ATOM     48  C   UNL A   1      40.760  27.430  29.100  1.00  0.00    -0.014 A 
BRANCH  48  49
ATOM     49  C   UNL A   1      41.380  28.138  30.185  1.00  0.00     0.031 A 
ATOM     50  C   UNL A   1      40.418  29.013  30.876  1.00  0.00     0.074 A 
ATOM     51  C   UNL A   1      42.644  27.834  30.535  1.00  0.00     0.049 A 
ATOM     52  N   UNL A   1      40.425  30.302  30.922  1.00  0.00    -0.248 NA
ATOM     53  C   UNL A   1      39.159  28.404  31.350  1.00  0.00     0.031 C 
ATOM     54  C   UNL A   1      43.499  26.774  29.987  1.00  0.00     0.029 A 
ATOM     55  N   UNL A   1      43.368  28.300  31.584  1.00  0.00    -0.354 N 
ATOM     56  C   UNL A   1      39.317  30.627  31.692  1.00  0.00     0.074 A 
ATOM     57  C   UNL A   1      38.448  29.485  31.665  1.00  0.00     0.031 C 
ATOM     58  C   UNL A   1      44.500  26.519  30.859  1.00  0.00     0.029 A 
ATOM     59  C   UNL A   1      44.399  27.443  31.971  1.00  0.00     0.049 A 
ATOM     60  H   UNL A   1      43.184  29.159  32.029  1.00  0.00     0.167 HD
ATOM     61  C   UNL A   1      39.372  31.651  32.583  1.00  0.00     0.037 A 
ATOM     62  C   UNL A   1      44.945  27.427  33.216  1.00  0.00     0.037 A 
ATOM     63  C   UNL A   1      40.454  32.552  32.272  1.00  0.00     0.049 A 
ATOM     64  C   UNL A   1      44.636  28.762  33.823  1.00  0.00     0.074 A 
ATOM     65  C   UNL A   1      40.815  33.252  31.136  1.00  0.00     0.029 A 
ATOM     66  N   UNL A   1      41.582  32.500  33.059  1.00  0.00    -0.354 N 
ATOM     67  N   UNL A   1      45.105  29.893  33.358  1.00  0.00    -0.248 NA
ATOM     68  C   UNL A   1      43.405  28.879  34.598  1.00  0.00     0.031 C 
ATOM     69  C   UNL A   1      42.234  33.152  31.075  1.00  0.00     0.029 A 
ATOM     70  C   UNL A   1      42.668  32.478  32.219  1.00  0.00     0.049 A 
ATOM     71  H   UNL A   1      41.606  32.482  34.043  1.00  0.00     0.167 HD
ATOM     72  C   UNL A   1      44.031  30.776  33.409  1.00  0.00     0.074 A 
ATOM     73  C   UNL A   1      43.029  30.111  34.238  1.00  0.00     0.031 C 
ATOM     74  C   UNL A   1      43.919  31.824  32.536  1.00  0.00     0.037 A 
BRANCH  61  75
ATOM     75  C   UNL A   1      38.709  31.590  33.935  1.00  0.00     0.058 A 
ATOM     76  C   UNL A   1      37.925  32.677  34.356  1.00  0.00     0.135 A 
ATOM     77  C   UNL A   1      39.021  30.637  34.936  1.00  0.00     0.135 A 
ATOM     78  F   UNL A   1      37.588  33.649  33.493  1.00  0.00    -0.206 F 
ATOM     79  C   UNL A   1      37.532  32.839  35.684  1.00  0.00     0.059 A 
ATOM     80  C   UNL A   1      38.585  30.745  36.248  1.00  0.00     0.059 A 
ATOM     81  F   UNL A   1      39.846  29.605  34.728  1.00  0.00    -0.206 F 
ATOM     82  C   UNL A   1      37.880  31.871  36.623  1.00  0.00     0.060 A 
BRANCH  82  83
ATOM     83  S   UNL A   1      37.467  32.123  38.354  1.00  0.00     0.124 S 
ATOM     84  O   UNL A   1      36.427  33.140  38.256  1.00  0.00    -0.237 OA
ATOM     85  O   UNL A   1      37.029  30.790  38.754  1.00  0.00    -0.237 OA
ATOM     86  O   UNL A   1      38.730  32.563  38.939  1.00  0.00    -0.744 OA
ENDBRANCH  82  83
ENDBRANCH  61  75
BRANCH  62  87
ATOM     87  C   UNL A   1      45.271  26.207  34.017  1.00  0.00     0.058 A 
ATOM     88  C   UNL A   1      44.275  25.277  34.369  1.00  0.00     0.135 A 
ATOM     89  C   UNL A   1      46.601  25.788  34.248  1.00  0.00     0.135 A 
ATOM     90  F   UNL A   1      42.980  25.569  34.169  1.00  0.00    -0.206 F 
ATOM     91  C   UNL A   1      44.580  24.002  34.870  1.00  0.00     0.059 A 
ATOM     92  C   UNL A   1      46.926  24.538  34.766  1.00  0.00     0.059 A 
ATOM     93  F   UNL A   1      47.650  26.540  33.893  1.00  0.00    -0.206 F 
ATOM     94  C   UNL A   1      45.914  23.635  35.047  1.00  0.00     0.060 A 
BRANCH  94  95
ATOM     95  S   UNL A   1      46.340  21.940  35.512  1.00  0.00     0.124 S 
ATOM     96  O   UNL A   1      45.049  21.268  35.421  1.00  0.00    -0.237 OA
ATOM     97  O   UNL A   1      47.322  21.580  34.495  1.00  0.00    -0.237 OA
ATOM     98  O   UNL A   1      46.873  22.083  36.864  1.00  0.00    -0.744 OA
ENDBRANCH  94  95
ENDBRANCH  62  87
BRANCH  74  99
ATOM     99  C   UNL A   1      45.099  32.191  31.671  1.00  0.00     0.058 A 
ATOM    100  C   UNL A   1      46.169  33.006  32.083  1.00  0.00     0.135 A 
ATOM    101  C   UNL A   1      45.239  31.532  30.438  1.00  0.00     0.135 A 
ATOM    102  F   UNL A   1      46.172  33.576  33.296  1.00  0.00    -0.206 F 
ATOM    103  C   UNL A   1      47.302  33.194  31.287  1.00  0.00     0.059 A 
ATOM    104  C   UNL A   1      46.374  31.674  29.647  1.00  0.00     0.059 A 
ATOM    105  F   UNL A   1      44.287  30.683  30.018  1.00  0.00    -0.206 F 
ATOM    106  C   UNL A   1      47.396  32.520  30.069  1.00  0.00     0.060 A 
BRANCH 106 107
ATOM    107  S   UNL A   1      48.889  32.709  29.070  1.00  0.00     0.124 S 
ATOM    108  O   UNL A   1      49.024  31.386  28.469  1.00  0.00    -0.237 OA
ATOM    109  O   UNL A   1      48.523  33.787  28.155  1.00  0.00    -0.237 OA
ATOM    110  O   UNL A   1      49.914  33.057  30.050  1.00  0.00    -0.744 OA
ENDBRANCH 106 107
ENDBRANCH  74  99
ENDBRANCH  48  49
ENDBRANCH  41  43
ENDBRANCH  40  41
ENDBRANCH  39  40
ENDBRANCH  38  39
ENDBRANCH  37  38
ENDBRANCH  36  37
ENDBRANCH  35  36
ENDBRANCH   1  35
TORSDOF 27
ENDMDL
MODEL 2
REMARK VINA RESULT:      -8.9      2.949      7.223
REMARK SMILES COc1ccc(-c2cc3c(N4CCC[C@@H](C(=O)OCCOCCOCCOCCOC(=O)c5ccc(-c6c7nc(c(-c8c(F)cc(S(=O)(=O)[O-])cc8F)c8ccc([nH]8)c(-c8c(F)cc(S(=O)(=O)[O-])cc8F)c8nc(c(-c9c(F)cc(S(=O)(=O)[O-])cc9F)c9ccc6[nH]9)C=C8)C=C7)cc5)C4)nccn3n2)cc1OC
REMARK SMILES IDX 24 1 23 2 22 3 21 4 20 5 19 6 18 7 16 8 17 9 15 10 11 11
REMARK SMILES IDX 12 12 99 13 13 14 14 15 10 16 7 17 8 18 104 19 9 20 103 21
REMARK SMILES IDX 102 22 100 23 101 24 6 25 3 26 4 27 106 28 5 29 105 30 2 31
REMARK SMILES IDX 1 32 107 33 108 34 25 35 26 36 27 37 28 38 29 39 30 40 31 41
REMARK SMILES IDX 32 42 33 43 34 44 98 45 35 46 97 47 36 48 37 49 38 50 91 51
REMARK SMILES IDX 39 52 96 53 90 54 92 55 40 56 95 57 89 58 88 59 41 61 75 62
REMARK SMILES IDX 54 63 74 64 55 65 58 66 73 67 93 68 56 69 57 70 72 72 94 73
REMARK SMILES IDX 59 74 42 75 43 76 52 77 44 78 45 79 51 80 53 81 46 82 47 83
REMARK SMILES IDX 48 84 49 85 50 86 76 87 77 88 86 89 78 90 79 91 85 92 87 93
REMARK SMILES IDX 80 94 81 95 82 96 83 97 84 98 60 99 61 100 70 101 62 102
REMARK SMILES IDX 63 103 69 104 71 105 64 106 65 107 66 108 67 109 68 110
REMARK H PARENT 92 60 58 71
REMARK Flexibility Score: inf
ROOT
ATOM      1  O   UNL A   1      42.467  19.204  25.273  1.00  0.00    -0.377 OA
ENDROOT
BRANCH   1   2
ATOM      2  C   UNL A   1      41.860  19.456  26.527  1.00  0.00     0.188 C 
BRANCH   2   3
ATOM      3  C   UNL A   1      40.681  20.461  26.488  1.00  0.00     0.188 C 
BRANCH   3   4
ATOM      4  O   UNL A   1      39.340  20.016  26.352  1.00  0.00    -0.376 OA
BRANCH   4   5
ATOM      5  C   UNL A   1      38.726  20.009  25.074  1.00  0.00     0.202 C 
BRANCH   5   6
ATOM      6  C   UNL A   1      37.326  20.619  24.856  1.00  0.00     0.261 C 
BRANCH   6   7
ATOM      7  O   UNL A   1      37.047  21.886  25.480  1.00  0.00    -0.463 OA
BRANCH   7   8
ATOM      8  C   UNL A   1      36.335  22.751  24.716  1.00  0.00     0.310 C 
ATOM      9  O   UNL A   1      36.699  23.136  23.611  1.00  0.00    -0.252 OA
BRANCH   8  10
ATOM     10  C   UNL A   1      35.057  23.229  25.404  1.00  0.00     0.118 C 
ATOM     11  N   UNL A   1      32.671  23.182  25.140  1.00  0.00    -0.354 N 
ATOM     12  C   UNL A   1      32.326  22.685  26.456  1.00  0.00     0.118 C 
ATOM     13  C   UNL A   1      33.906  22.657  24.581  1.00  0.00     0.133 C 
ATOM     14  C   UNL A   1      33.438  22.981  27.454  1.00  0.00     0.022 C 
ATOM     15  C   UNL A   1      34.849  22.829  26.880  1.00  0.00     0.019 C 
BRANCH  11  16
ATOM     16  C   UNL A   1      32.071  24.244  24.500  1.00  0.00     0.154 A 
ATOM     17  C   UNL A   1      32.876  27.647  25.566  1.00  0.00     0.094 A 
ATOM     18  C   UNL A   1      33.119  26.270  25.747  1.00  0.00     0.063 A 
ATOM     19  N   UNL A   1      31.977  27.853  24.593  1.00  0.00    -0.168 NA
ATOM     20  C   UNL A   1      32.301  25.629  24.853  1.00  0.00     0.109 A 
ATOM     21  N   UNL A   1      31.680  26.617  24.123  1.00  0.00    -0.235 N 
ATOM     22  C   UNL A   1      30.888  26.273  23.044  1.00  0.00     0.133 A 
ATOM     23  N   UNL A   1      31.319  23.959  23.458  1.00  0.00    -0.235 NA
ATOM     24  C   UNL A   1      30.737  24.978  22.743  1.00  0.00     0.133 A 
BRANCH  17  25
ATOM     25  C   UNL A   1      33.462  28.734  26.340  1.00  0.00     0.006 A 
ATOM     26  C   UNL A   1      34.493  30.829  27.896  1.00  0.00     0.160 A 
ATOM     27  C   UNL A   1      35.212  29.633  27.753  1.00  0.00     0.051 A 
ATOM     28  C   UNL A   1      33.261  30.990  27.248  1.00  0.00     0.161 A 
ATOM     29  C   UNL A   1      34.693  28.584  26.988  1.00  0.00     0.014 A 
ATOM     30  C   UNL A   1      32.761  29.936  26.474  1.00  0.00     0.060 A 
BRANCH  26  31
ATOM     31  O   UNL A   1      35.093  31.860  28.566  1.00  0.00    -0.493 OA
ATOM     32  C   UNL A   1      35.641  32.837  27.677  1.00  0.00     0.278 C 
ENDBRANCH  26  31
BRANCH  28  33
ATOM     33  O   UNL A   1      32.438  32.083  27.235  1.00  0.00    -0.493 OA
ATOM     34  C   UNL A   1      31.155  31.948  26.647  1.00  0.00     0.278 C 
ENDBRANCH  28  33
ENDBRANCH  17  25
ENDBRANCH  11  16
ENDBRANCH   8  10
ENDBRANCH   7   8
ENDBRANCH   6   7
ENDBRANCH   5   6
ENDBRANCH   4   5
ENDBRANCH   3   4
ENDBRANCH   2   3
ENDBRANCH   1   2
BRANCH   1  35
ATOM     35  C   UNL A   1      43.882  19.313  25.277  1.00  0.00     0.188 C 
BRANCH  35  36
ATOM     36  C   UNL A   1      44.476  20.621  24.696  1.00  0.00     0.188 C 
BRANCH  36  37
ATOM     37  O   UNL A   1      44.449  21.739  25.583  1.00  0.00    -0.376 OA
BRANCH  37  38
ATOM     38  C   UNL A   1      43.381  22.673  25.603  1.00  0.00     0.202 C 
BRANCH  38  39
ATOM     39  C   UNL A   1      43.644  24.013  26.294  1.00  0.00     0.261 C 
BRANCH  39  40
ATOM     40  O   UNL A   1      43.250  25.117  25.508  1.00  0.00    -0.460 OA
BRANCH  40  41
ATOM     41  C   UNL A   1      42.136  25.730  25.934  1.00  0.00     0.338 C 
ATOM     42  O   UNL A   1      41.038  25.221  26.146  1.00  0.00    -0.246 OA
BRANCH  41  43
ATOM     43  C   UNL A   1      42.413  27.154  26.049  1.00  0.00     0.060 A 
ATOM     44  C   UNL A   1      43.693  27.484  26.494  1.00  0.00     0.016 A 
ATOM     45  C   UNL A   1      41.307  28.007  26.162  1.00  0.00     0.016 A 
ATOM     46  C   UNL A   1      43.789  28.510  27.390  1.00  0.00     0.010 A 
ATOM     47  C   UNL A   1      41.392  28.994  27.093  1.00  0.00     0.010 A 
ATOM     48  C   UNL A   1      42.605  29.145  27.763  1.00  0.00    -0.014 A 
BRANCH  48  49
ATOM     49  C   UNL A   1      42.636  30.028  28.896  1.00  0.00     0.031 A 
ATOM     50  C   UNL A   1      43.581  31.138  28.686  1.00  0.00     0.074 A 
ATOM     51  C   UNL A   1      41.750  29.853  29.894  1.00  0.00     0.049 A 
ATOM     52  N   UNL A   1      44.675  31.367  29.330  1.00  0.00    -0.248 NA
ATOM     53  C   UNL A   1      43.434  31.937  27.453  1.00  0.00     0.031 C 
ATOM     54  C   UNL A   1      40.648  28.885  29.959  1.00  0.00     0.029 A 
ATOM     55  N   UNL A   1      41.541  30.629  30.988  1.00  0.00    -0.354 N 
ATOM     56  C   UNL A   1      45.182  32.522  28.751  1.00  0.00     0.074 A 
ATOM     57  C   UNL A   1      44.564  32.640  27.461  1.00  0.00     0.031 C 
ATOM     58  C   UNL A   1      39.757  29.293  30.890  1.00  0.00     0.029 A 
ATOM     59  C   UNL A   1      40.264  30.491  31.531  1.00  0.00     0.049 A 
ATOM     60  H   UNL A   1      42.225  31.232  31.362  1.00  0.00     0.167 HD
ATOM     61  C   UNL A   1      45.776  33.475  29.516  1.00  0.00     0.037 A 
ATOM     62  C   UNL A   1      39.654  31.440  32.289  1.00  0.00     0.037 A 
ATOM     63  C   UNL A   1      46.199  32.933  30.784  1.00  0.00     0.049 A 
ATOM     64  C   UNL A   1      40.751  32.308  32.829  1.00  0.00     0.074 A 
ATOM     65  C   UNL A   1      46.991  31.859  31.145  1.00  0.00     0.029 A 
ATOM     66  N   UNL A   1      45.455  33.247  31.899  1.00  0.00    -0.354 N 
ATOM     67  N   UNL A   1      41.670  31.877  33.658  1.00  0.00    -0.248 NA
ATOM     68  C   UNL A   1      41.129  33.480  32.047  1.00  0.00     0.031 C 
ATOM     69  C   UNL A   1      46.338  31.280  32.270  1.00  0.00     0.029 A 
ATOM     70  C   UNL A   1      45.239  32.080  32.589  1.00  0.00     0.049 A 
ATOM     71  H   UNL A   1      45.137  34.143  32.154  1.00  0.00     0.167 HD
ATOM     72  C   UNL A   1      42.858  32.438  33.200  1.00  0.00     0.074 A 
ATOM     73  C   UNL A   1      42.451  33.464  32.242  1.00  0.00     0.031 C 
ATOM     74  C   UNL A   1      44.066  31.829  33.398  1.00  0.00     0.037 A 
BRANCH  61  75
ATOM     75  C   UNL A   1      45.594  34.950  29.266  1.00  0.00     0.058 A 
ATOM     76  C   UNL A   1      46.729  35.777  29.234  1.00  0.00     0.135 A 
ATOM     77  C   UNL A   1      44.348  35.623  29.320  1.00  0.00     0.135 A 
ATOM     78  F   UNL A   1      47.961  35.244  29.202  1.00  0.00    -0.206 F 
ATOM     79  C   UNL A   1      46.637  37.166  29.312  1.00  0.00     0.059 A 
ATOM     80  C   UNL A   1      44.232  37.003  29.333  1.00  0.00     0.059 A 
ATOM     81  F   UNL A   1      43.181  34.984  29.467  1.00  0.00    -0.206 F 
ATOM     82  C   UNL A   1      45.382  37.767  29.374  1.00  0.00     0.060 A 
BRANCH  82  83
ATOM     83  S   UNL A   1      45.258  39.548  29.578  1.00  0.00     0.124 S 
ATOM     84  O   UNL A   1      45.275  39.999  28.193  1.00  0.00    -0.237 OA
ATOM     85  O   UNL A   1      43.987  39.680  30.283  1.00  0.00    -0.237 OA
ATOM     86  O   UNL A   1      46.442  39.878  30.367  1.00  0.00    -0.744 OA
ENDBRANCH  82  83
ENDBRANCH  61  75
BRANCH  62  87
ATOM     87  C   UNL A   1      38.231  31.882  32.167  1.00  0.00     0.058 A 
ATOM     88  C   UNL A   1      37.328  31.740  33.237  1.00  0.00     0.135 A 
ATOM     89  C   UNL A   1      37.778  32.681  31.093  1.00  0.00     0.135 A 
ATOM     90  F   UNL A   1      37.671  31.018  34.316  1.00  0.00    -0.206 F 
ATOM     91  C   UNL A   1      36.081  32.385  33.260  1.00  0.00     0.059 A 
ATOM     92  C   UNL A   1      36.537  33.311  31.083  1.00  0.00     0.059 A 
ATOM     93  F   UNL A   1      38.560  32.963  30.043  1.00  0.00    -0.206 F 
ATOM     94  C   UNL A   1      35.703  33.186  32.183  1.00  0.00     0.060 A 
BRANCH  94  95
ATOM     95  S   UNL A   1      34.191  34.174  32.268  1.00  0.00     0.124 S 
ATOM     96  O   UNL A   1      33.738  34.154  30.882  1.00  0.00    -0.237 OA
ATOM     97  O   UNL A   1      33.381  33.416  33.217  1.00  0.00    -0.237 OA
ATOM     98  O   UNL A   1      34.659  35.470  32.751  1.00  0.00    -0.744 OA
ENDBRANCH  94  95
ENDBRANCH  62  87
BRANCH  74  99
ATOM     99  C   UNL A   1      44.154  30.662  34.352  1.00  0.00     0.058 A 
ATOM    100  C   UNL A   1      44.333  30.778  35.742  1.00  0.00     0.135 A 
ATOM    101  C   UNL A   1      43.853  29.383  33.853  1.00  0.00     0.135 A 
ATOM    102  F   UNL A   1      44.505  31.977  36.316  1.00  0.00    -0.206 F 
ATOM    103  C   UNL A   1      44.264  29.669  36.589  1.00  0.00     0.059 A 
ATOM    104  C   UNL A   1      43.741  28.272  34.683  1.00  0.00     0.059 A 
ATOM    105  F   UNL A   1      43.599  29.214  32.545  1.00  0.00    -0.206 F 
ATOM    106  C   UNL A   1      43.964  28.419  36.049  1.00  0.00     0.060 A 
BRANCH 106 107
ATOM    107  S   UNL A   1      43.808  26.996  37.151  1.00  0.00     0.124 S 
ATOM    108  O   UNL A   1      44.426  27.490  38.377  1.00  0.00    -0.237 OA
ATOM    109  O   UNL A   1      42.363  26.795  37.206  1.00  0.00    -0.237 OA
ATOM    110  O   UNL A   1      44.549  25.945  36.458  1.00  0.00    -0.744 OA
ENDBRANCH 106 107
ENDBRANCH  74  99
ENDBRANCH  48  49
ENDBRANCH  41  43
ENDBRANCH  40  41
ENDBRANCH  39  40
ENDBRANCH  38  39
ENDBRANCH  37  38
ENDBRANCH  36  37
ENDBRANCH  35  36
ENDBRANCH   1  35
TORSDOF 27
ENDMDL
MODEL 3
REMARK VINA RESULT:      -8.8      3.393      7.354
REMARK SMILES COc1ccc(-c2cc3c(N4CCC[C@@H](C(=O)OCCOCCOCCOCCOC(=O)c5ccc(-c6c7nc(c(-c8c(F)cc(S(=O)(=O)[O-])cc8F)c8ccc([nH]8)c(-c8c(F)cc(S(=O)(=O)[O-])cc8F)c8nc(c(-c9c(F)cc(S(=O)(=O)[O-])cc9F)c9ccc6[nH]9)C=C8)C=C7)cc5)C4)nccn3n2)cc1OC
REMARK SMILES IDX 24 1 23 2 22 3 21 4 20 5 19 6 18 7 16 8 17 9 15 10 11 11
REMARK SMILES IDX 12 12 99 13 13 14 14 15 10 16 7 17 8 18 104 19 9 20 103 21
REMARK SMILES IDX 102 22 100 23 101 24 6 25 3 26 4 27 106 28 5 29 105 30 2 31
REMARK SMILES IDX 1 32 107 33 108 34 25 35 26 36 27 37 28 38 29 39 30 40 31 41
REMARK SMILES IDX 32 42 33 43 34 44 98 45 35 46 97 47 36 48 37 49 38 50 91 51
REMARK SMILES IDX 39 52 96 53 90 54 92 55 40 56 95 57 89 58 88 59 41 61 75 62
REMARK SMILES IDX 54 63 74 64 55 65 58 66 73 67 93 68 56 69 57 70 72 72 94 73
REMARK SMILES IDX 59 74 42 75 43 76 52 77 44 78 45 79 51 80 53 81 46 82 47 83
REMARK SMILES IDX 48 84 49 85 50 86 76 87 77 88 86 89 78 90 79 91 85 92 87 93
REMARK SMILES IDX 80 94 81 95 82 96 83 97 84 98 60 99 61 100 70 101 62 102
REMARK SMILES IDX 63 103 69 104 71 105 64 106 65 107 66 108 67 109 68 110
REMARK H PARENT 92 60 58 71
REMARK Flexibility Score: inf
ROOT
ATOM      1  O   UNL A   1      42.405  19.239  25.280  1.00  0.00    -0.377 OA
ENDROOT
BRANCH   1   2
ATOM      2  C   UNL A   1      41.893  19.538  26.566  1.00  0.00     0.188 C 
BRANCH   2   3
ATOM      3  C   UNL A   1      40.744  20.579  26.581  1.00  0.00     0.188 C 
BRANCH   3   4
ATOM      4  O   UNL A   1      39.387  20.178  26.467  1.00  0.00    -0.376 OA
BRANCH   4   5
ATOM      5  C   UNL A   1      38.752  20.196  25.200  1.00  0.00     0.202 C 
BRANCH   5   6
ATOM      6  C   UNL A   1      37.356  20.827  25.015  1.00  0.00     0.261 C 
BRANCH   6   7
ATOM      7  O   UNL A   1      37.094  22.074  25.684  1.00  0.00    -0.463 OA
BRANCH   7   8
ATOM      8  C   UNL A   1      36.437  22.994  24.935  1.00  0.00     0.310 C 
ATOM      9  O   UNL A   1      36.881  23.459  23.891  1.00  0.00    -0.252 OA
BRANCH   8  10
ATOM     10  C   UNL A   1      35.109  23.421  25.558  1.00  0.00     0.118 C 
ATOM     11  N   UNL A   1      32.746  23.350  25.137  1.00  0.00    -0.354 N 
ATOM     12  C   UNL A   1      32.326  22.789  26.405  1.00  0.00     0.118 C 
ATOM     13  C   UNL A   1      34.024  22.869  24.637  1.00  0.00     0.133 C 
ATOM     14  C   UNL A   1      33.365  23.057  27.484  1.00  0.00     0.022 C 
ATOM     15  C   UNL A   1      34.814  22.952  26.998  1.00  0.00     0.019 C 
BRANCH  11  16
ATOM     16  C   UNL A   1      32.170  24.430  24.506  1.00  0.00     0.154 A 
ATOM     17  C   UNL A   1      32.990  27.803  25.654  1.00  0.00     0.094 A 
ATOM     18  C   UNL A   1      33.215  26.421  25.813  1.00  0.00     0.063 A 
ATOM     19  N   UNL A   1      32.112  28.038  24.668  1.00  0.00    -0.168 NA
ATOM     20  C   UNL A   1      32.408  25.806  24.891  1.00  0.00     0.109 A 
ATOM     21  N   UNL A   1      31.811  26.815  24.169  1.00  0.00    -0.235 N 
ATOM     22  C   UNL A   1      31.036  26.500  23.068  1.00  0.00     0.133 A 
ATOM     23  N   UNL A   1      31.436  24.174  23.445  1.00  0.00    -0.235 NA
ATOM     24  C   UNL A   1      30.878  25.213  22.739  1.00  0.00     0.133 A 
BRANCH  17  25
ATOM     25  C   UNL A   1      33.572  28.869  26.460  1.00  0.00     0.006 A 
ATOM     26  C   UNL A   1      34.590  30.934  28.064  1.00  0.00     0.160 A 
ATOM     27  C   UNL A   1      35.205  29.674  28.057  1.00  0.00     0.051 A 
ATOM     28  C   UNL A   1      33.470  31.173  27.256  1.00  0.00     0.161 A 
ATOM     29  C   UNL A   1      34.691  28.640  27.268  1.00  0.00     0.014 A 
ATOM     30  C   UNL A   1      32.976  30.133  26.460  1.00  0.00     0.060 A 
BRANCH  26  31
ATOM     31  O   UNL A   1      35.193  31.938  28.771  1.00  0.00    -0.493 OA
ATOM     32  C   UNL A   1      35.848  32.882  27.919  1.00  0.00     0.278 C 
ENDBRANCH  26  31
BRANCH  28  33
ATOM     33  O   UNL A   1      32.762  32.333  27.098  1.00  0.00    -0.493 OA
ATOM     34  C   UNL A   1      31.528  32.274  26.403  1.00  0.00     0.278 C 
ENDBRANCH  28  33
ENDBRANCH  17  25
ENDBRANCH  11  16
ENDBRANCH   8  10
ENDBRANCH   7   8
ENDBRANCH   6   7
ENDBRANCH   5   6
ENDBRANCH   4   5
ENDBRANCH   3   4
ENDBRANCH   2   3
ENDBRANCH   1   2
BRANCH   1  35
ATOM     35  C   UNL A   1      43.820  19.311  25.185  1.00  0.00     0.188 C 
BRANCH  35  36
ATOM     36  C   UNL A   1      44.404  20.584  24.522  1.00  0.00     0.188 C 
BRANCH  36  37
ATOM     37  O   UNL A   1      44.504  21.717  25.383  1.00  0.00    -0.376 OA
BRANCH  37  38
ATOM     38  C   UNL A   1      43.487  22.704  25.470  1.00  0.00     0.202 C 
BRANCH  38  39
ATOM     39  C   UNL A   1      43.894  24.073  26.018  1.00  0.00     0.261 C 
BRANCH  39  40
ATOM     40  O   UNL A   1      43.602  25.126  25.125  1.00  0.00    -0.460 OA
BRANCH  40  41
ATOM     41  C   UNL A   1      42.570  25.896  25.496  1.00  0.00     0.338 C 
ATOM     42  O   UNL A   1      41.439  25.532  25.807  1.00  0.00    -0.246 OA
BRANCH  41  43
ATOM     43  C   UNL A   1      42.984  27.289  25.409  1.00  0.00     0.060 A 
ATOM     44  C   UNL A   1      44.298  27.551  25.797  1.00  0.00     0.016 A 
ATOM     45  C   UNL A   1      41.967  28.253  25.406  1.00  0.00     0.016 A 
ATOM     46  C   UNL A   1      44.508  28.677  26.541  1.00  0.00     0.010 A 
ATOM     47  C   UNL A   1      42.164  29.347  26.189  1.00  0.00     0.010 A 
ATOM     48  C   UNL A   1      43.398  29.471  26.826  1.00  0.00    -0.014 A 
BRANCH  48  49
ATOM     49  C   UNL A   1      43.534  30.495  27.824  1.00  0.00     0.031 A 
ATOM     50  C   UNL A   1      44.258  31.664  27.298  1.00  0.00     0.074 A 
ATOM     51  C   UNL A   1      42.897  30.358  29.002  1.00  0.00     0.049 A 
ATOM     52  N   UNL A   1      45.417  32.098  27.664  1.00  0.00    -0.248 NA
ATOM     53  C   UNL A   1      43.760  32.270  26.047  1.00  0.00     0.031 C 
ATOM     54  C   UNL A   1      41.972  29.292  29.406  1.00  0.00     0.029 A 
ATOM     55  N   UNL A   1      42.806  31.246  30.025  1.00  0.00    -0.354 N 
ATOM     56  C   UNL A   1      45.636  33.213  26.868  1.00  0.00     0.074 A 
ATOM     57  C   UNL A   1      44.763  33.089  25.736  1.00  0.00     0.031 C 
ATOM     58  C   UNL A   1      41.238  29.720  30.457  1.00  0.00     0.029 A 
ATOM     59  C   UNL A   1      41.694  31.042  30.841  1.00  0.00     0.049 A 
ATOM     60  H   UNL A   1      43.463  31.965  30.176  1.00  0.00     0.167 HD
ATOM     61  C   UNL A   1      46.236  34.319  27.380  1.00  0.00     0.037 A 
ATOM     62  C   UNL A   1      41.125  32.010  31.606  1.00  0.00     0.037 A 
ATOM     63  C   UNL A   1      46.973  34.003  28.578  1.00  0.00     0.049 A 
ATOM     64  C   UNL A   1      42.179  33.058  31.801  1.00  0.00     0.074 A 
ATOM     65  C   UNL A   1      47.959  33.080  28.875  1.00  0.00     0.029 A 
ATOM     66  N   UNL A   1      46.431  34.379  29.786  1.00  0.00    -0.354 N 
ATOM     67  N   UNL A   1      43.295  32.847  32.454  1.00  0.00    -0.248 NA
ATOM     68  C   UNL A   1      42.230  34.150  30.834  1.00  0.00     0.031 C 
ATOM     69  C   UNL A   1      47.630  32.589  30.170  1.00  0.00     0.029 A 
ATOM     70  C   UNL A   1      46.518  33.298  30.629  1.00  0.00     0.049 A 
ATOM     71  H   UNL A   1      46.051  35.260  30.006  1.00  0.00     0.167 HD
ATOM     72  C   UNL A   1      44.280  33.469  31.694  1.00  0.00     0.074 A 
ATOM     73  C   UNL A   1      43.554  34.306  30.741  1.00  0.00     0.031 C 
ATOM     74  C   UNL A   1      45.575  33.029  31.693  1.00  0.00     0.037 A 
BRANCH  61  75
ATOM     75  C   UNL A   1      45.809  35.718  27.018  1.00  0.00     0.058 A 
ATOM     76  C   UNL A   1      46.789  36.648  26.632  1.00  0.00     0.135 A 
ATOM     77  C   UNL A   1      44.525  36.257  27.284  1.00  0.00     0.135 A 
ATOM     78  F   UNL A   1      48.045  36.248  26.375  1.00  0.00    -0.206 F 
ATOM     79  C   UNL A   1      46.531  38.017  26.575  1.00  0.00     0.059 A 
ATOM     80  C   UNL A   1      44.232  37.607  27.170  1.00  0.00     0.059 A 
ATOM     81  F   UNL A   1      43.514  35.526  27.766  1.00  0.00    -0.206 F 
ATOM     82  C   UNL A   1      45.251  38.485  26.859  1.00  0.00     0.060 A 
BRANCH  82  83
ATOM     83  S   UNL A   1      44.937  40.255  26.888  1.00  0.00     0.124 S 
ATOM     84  O   UNL A   1      44.592  40.509  25.496  1.00  0.00    -0.237 OA
ATOM     85  O   UNL A   1      43.845  40.349  27.850  1.00  0.00    -0.237 OA
ATOM     86  O   UNL A   1      46.210  40.813  27.338  1.00  0.00    -0.744 OA
ENDBRANCH  82  83
ENDBRANCH  61  75
BRANCH  62  87
ATOM     87  C   UNL A   1      39.659  32.273  31.745  1.00  0.00     0.058 A 
ATOM     88  C   UNL A   1      39.018  32.188  32.995  1.00  0.00     0.135 A 
ATOM     89  C   UNL A   1      38.894  32.854  30.709  1.00  0.00     0.135 A 
ATOM     90  F   UNL A   1      39.667  31.671  34.051  1.00  0.00    -0.206 F 
ATOM     91  C   UNL A   1      37.725  32.689  33.213  1.00  0.00     0.059 A 
ATOM     92  C   UNL A   1      37.602  33.337  30.895  1.00  0.00     0.059 A 
ATOM     93  F   UNL A   1      39.403  33.065  29.489  1.00  0.00    -0.206 F 
ATOM     94  C   UNL A   1      37.032  33.281  32.157  1.00  0.00     0.060 A 
BRANCH  94  95
ATOM     95  S   UNL A   1      35.447  34.100  32.452  1.00  0.00     0.124 S 
ATOM     96  O   UNL A   1      34.972  34.338  31.094  1.00  0.00    -0.237 OA
ATOM     97  O   UNL A   1      34.718  33.093  33.217  1.00  0.00    -0.237 OA
ATOM     98  O   UNL A   1      35.818  35.297  33.202  1.00  0.00    -0.744 OA
ENDBRANCH  94  95
ENDBRANCH  62  87
BRANCH  74  99
ATOM     99  C   UNL A   1      46.009  32.017  32.726  1.00  0.00     0.058 A 
ATOM    100  C   UNL A   1      45.905  30.623  32.570  1.00  0.00     0.135 A 
ATOM    101  C   UNL A   1      46.735  32.482  33.835  1.00  0.00     0.135 A 
ATOM    102  F   UNL A   1      45.335  30.092  31.479  1.00  0.00    -0.206 F 
ATOM    103  C   UNL A   1      46.454  29.735  33.499  1.00  0.00     0.059 A 
ATOM    104  C   UNL A   1      47.322  31.615  34.752  1.00  0.00     0.059 A 
ATOM    105  F   UNL A   1      46.933  33.799  34.005  1.00  0.00    -0.206 F 
ATOM    106  C   UNL A   1      47.165  30.242  34.587  1.00  0.00     0.060 A 
BRANCH 106 107
ATOM    107  S   UNL A   1      47.932  29.095  35.752  1.00  0.00     0.124 S 
ATOM    108  O   UNL A   1      47.307  27.827  35.388  1.00  0.00    -0.237 OA
ATOM    109  O   UNL A   1      49.351  29.218  35.430  1.00  0.00    -0.237 OA
ATOM    110  O   UNL A   1      47.550  29.627  37.057  1.00  0.00    -0.744 OA
ENDBRANCH 106 107
ENDBRANCH  74  99
ENDBRANCH  48  49
ENDBRANCH  41  43
ENDBRANCH  40  41
ENDBRANCH  39  40
ENDBRANCH  38  39
ENDBRANCH  37  38
ENDBRANCH  36  37
ENDBRANCH  35  36
ENDBRANCH   1  35
TORSDOF 27
ENDMDL
