MODEL 1
REMARK VINA RESULT:      -9.1      0.000      0.000
REMARK SMILES CN1C(=O)C[C@@H](C(=O)OCCOCCOCCOCCOC(=O)c2ccc(-c3c4nc(c(-c5c(F)cc(S(=O)(=O)[O-])cc5F)c5ccc([nH]5)c(-c5c(F)cc(S(=O)(=O)[O-])cc5F)c5nc(c(-c6c(F)cc(S(=O)(=O)[O-])cc6F)c6ccc3[nH]6)C=C5)C=C4)cc2)C12CCN(C(=O)c1ccccc1-n1cccn1)CC2
REMARK SMILES IDX 16 1 15 2 14 3 13 4 12 5 11 6 10 7 9 8 7 9 8 10 6 11 1 12
REMARK SMILES IDX 2 13 3 14 90 15 4 16 5 17 91 18 108 19 92 20 107 21 93 22
REMARK SMILES IDX 94 23 95 24 96 25 97 26 101 27 98 28 100 29 99 30 102 31
REMARK SMILES IDX 103 32 106 33 104 34 105 35 17 36 18 37 19 38 20 39 21 40
REMARK SMILES IDX 22 41 23 42 24 43 25 44 89 45 26 46 88 47 27 48 28 49 29 50
REMARK SMILES IDX 82 51 30 52 87 53 81 54 83 55 31 56 86 57 80 58 79 59 32 61
REMARK SMILES IDX 66 62 45 63 65 64 46 65 49 66 64 67 84 68 47 69 48 70 63 72
REMARK SMILES IDX 85 73 50 74 33 75 34 76 43 77 35 78 36 79 42 80 44 81 37 82
REMARK SMILES IDX 38 83 39 84 40 85 41 86 67 87 68 88 77 89 69 90 70 91 76 92
REMARK SMILES IDX 78 93 71 94 72 95 73 96 74 97 75 98 51 99 52 100 61 101
REMARK SMILES IDX 53 102 54 103 60 104 62 105 55 106 56 107 57 108 58 109
REMARK SMILES IDX 59 110
REMARK H PARENT 83 60 49 71
REMARK Flexibility Score: inf
ROOT
ATOM      1  C   UNL A   1      38.580  31.886  29.461  1.00  0.00     0.188 C 
ENDROOT
BRANCH   1   2
ATOM      2  O   UNL A   1      38.472  31.209  30.706  1.00  0.00    -0.377 OA
BRANCH   2   3
ATOM      3  C   UNL A   1      37.761  29.999  30.847  1.00  0.00     0.188 C 
BRANCH   3   4
ATOM      4  C   UNL A   1      36.443  29.887  30.090  1.00  0.00     0.188 C 
BRANCH   4   5
ATOM      5  O   UNL A   1      36.450  29.416  28.762  1.00  0.00    -0.376 OA
BRANCH   5   6
ATOM      6  C   UNL A   1      35.428  29.831  27.859  1.00  0.00     0.202 C 
BRANCH   6   7
ATOM      7  C   UNL A   1      34.144  28.994  27.639  1.00  0.00     0.261 C 
BRANCH   7   8
ATOM      8  O   UNL A   1      33.869  28.484  26.298  1.00  0.00    -0.463 OA
BRANCH   8   9
ATOM      9  C   UNL A   1      32.659  28.791  25.789  1.00  0.00     0.311 C 
ATOM     10  O   UNL A   1      31.787  29.374  26.437  1.00  0.00    -0.252 OA
BRANCH   9  11
ATOM     11  C   UNL A   1      32.298  28.299  24.388  1.00  0.00     0.134 C 
ATOM     12  C   UNL A   1      28.860  26.986  23.555  1.00  0.00     0.147 C 
ATOM     13  N   UNL A   1      30.091  27.704  23.844  1.00  0.00    -0.339 N 
ATOM     14  C   UNL A   1      30.136  29.084  23.722  1.00  0.00     0.223 C 
ATOM     15  C   UNL A   1      31.434  27.085  23.919  1.00  0.00     0.060 C 
ATOM     16  O   UNL A   1      29.195  29.832  23.513  1.00  0.00    -0.275 OA
ATOM     17  C   UNL A   1      31.572  29.514  23.772  1.00  0.00     0.118 C 
ATOM     18  C   UNL A   1      31.421  25.801  24.766  1.00  0.00     0.051 C 
ATOM     19  C   UNL A   1      31.860  26.679  22.462  1.00  0.00     0.051 C 
ATOM     20  C   UNL A   1      32.601  24.844  24.596  1.00  0.00     0.122 C 
ATOM     21  C   UNL A   1      33.075  25.754  22.377  1.00  0.00     0.122 C 
ATOM     22  N   UNL A   1      32.929  24.566  23.209  1.00  0.00    -0.338 N 
ATOM     23  C   UNL A   1      33.429  23.349  22.721  1.00  0.00     0.256 C 
ATOM     24  O   UNL A   1      33.927  23.240  21.600  1.00  0.00    -0.269 OA
BRANCH  23  25
ATOM     25  C   UNL A   1      33.430  22.110  23.544  1.00  0.00     0.065 A 
ATOM     26  C   UNL A   1      32.385  21.201  23.285  1.00  0.00     0.016 A 
ATOM     27  C   UNL A   1      34.346  21.804  24.563  1.00  0.00     0.077 A 
ATOM     28  C   UNL A   1      32.246  20.023  24.030  1.00  0.00     0.001 A 
ATOM     29  C   UNL A   1      34.201  20.617  25.310  1.00  0.00     0.029 A 
ATOM     30  C   UNL A   1      33.137  19.747  25.061  1.00  0.00     0.002 A 
BRANCH  27  31
ATOM     31  N   UNL A   1      35.466  22.614  24.850  1.00  0.00    -0.240 N 
ATOM     32  C   UNL A   1      36.601  22.817  24.103  1.00  0.00     0.115 A 
ATOM     33  N   UNL A   1      35.533  23.257  26.045  1.00  0.00    -0.177 NA
ATOM     34  C   UNL A   1      37.471  23.533  24.891  1.00  0.00     0.042 A 
ATOM     35  C   UNL A   1      36.774  23.742  26.090  1.00  0.00     0.135 A 
ENDBRANCH  27  31
ENDBRANCH  23  25
ENDBRANCH   9  11
ENDBRANCH   8   9
ENDBRANCH   7   8
ENDBRANCH   6   7
ENDBRANCH   5   6
ENDBRANCH   4   5
ENDBRANCH   3   4
ENDBRANCH   2   3
ENDBRANCH   1   2
BRANCH   1  36
ATOM     36  C   UNL A   1      38.164  33.357  29.391  1.00  0.00     0.188 C 
BRANCH  36  37
ATOM     37  O   UNL A   1      36.965  33.710  30.087  1.00  0.00    -0.376 OA
BRANCH  37  38
ATOM     38  C   UNL A   1      35.734  33.523  29.388  1.00  0.00     0.202 C 
BRANCH  38  39
ATOM     39  C   UNL A   1      34.553  33.251  30.294  1.00  0.00     0.261 C 
BRANCH  39  40
ATOM     40  O   UNL A   1      34.573  34.149  31.405  1.00  0.00    -0.460 OA
BRANCH  40  41
ATOM     41  C   UNL A   1      34.422  33.553  32.596  1.00  0.00     0.338 C 
ATOM     42  O   UNL A   1      33.404  33.036  33.054  1.00  0.00    -0.246 OA
BRANCH  41  43
ATOM     43  C   UNL A   1      35.733  33.431  33.222  1.00  0.00     0.060 A 
ATOM     44  C   UNL A   1      36.237  32.139  33.394  1.00  0.00     0.016 A 
ATOM     45  C   UNL A   1      36.396  34.551  33.733  1.00  0.00     0.016 A 
ATOM     46  C   UNL A   1      37.368  31.950  34.171  1.00  0.00     0.010 A 
ATOM     47  C   UNL A   1      37.531  34.357  34.519  1.00  0.00     0.010 A 
ATOM     48  C   UNL A   1      37.977  33.051  34.788  1.00  0.00    -0.014 A 
BRANCH  48  49
ATOM     49  C   UNL A   1      38.929  32.782  35.886  1.00  0.00     0.031 A 
ATOM     50  C   UNL A   1      40.386  32.623  35.543  1.00  0.00     0.074 A 
ATOM     51  C   UNL A   1      38.510  32.793  37.161  1.00  0.00     0.049 A 
ATOM     52  N   UNL A   1      41.409  32.453  36.337  1.00  0.00    -0.248 NA
ATOM     53  C   UNL A   1      40.737  32.670  34.113  1.00  0.00     0.031 C 
ATOM     54  C   UNL A   1      37.125  32.992  37.589  1.00  0.00     0.029 A 
ATOM     55  N   UNL A   1      39.209  32.648  38.329  1.00  0.00    -0.354 N 
ATOM     56  C   UNL A   1      42.521  32.369  35.506  1.00  0.00     0.074 A 
ATOM     57  C   UNL A   1      42.046  32.474  34.145  1.00  0.00     0.031 C 
ATOM     58  C   UNL A   1      37.075  32.950  38.931  1.00  0.00     0.029 A 
ATOM     59  C   UNL A   1      38.417  32.694  39.450  1.00  0.00     0.049 A 
ATOM     60  H   UNL A   1      40.184  32.521  38.362  1.00  0.00     0.167 HD
ATOM     61  C   UNL A   1      43.822  32.228  35.852  1.00  0.00     0.037 A 
ATOM     62  C   UNL A   1      38.744  32.530  40.746  1.00  0.00     0.037 A 
ATOM     63  C   UNL A   1      44.271  32.126  37.216  1.00  0.00     0.049 A 
ATOM     64  C   UNL A   1      40.190  32.314  41.105  1.00  0.00     0.074 A 
ATOM     65  C   UNL A   1      45.564  31.993  37.688  1.00  0.00     0.029 A 
ATOM     66  N   UNL A   1      43.437  32.134  38.325  1.00  0.00    -0.354 N 
ATOM     67  N   UNL A   1      41.237  32.260  40.314  1.00  0.00    -0.248 NA
ATOM     68  C   UNL A   1      40.503  32.143  42.529  1.00  0.00     0.031 C 
ATOM     69  C   UNL A   1      45.505  31.860  39.079  1.00  0.00     0.029 A 
ATOM     70  C   UNL A   1      44.182  31.977  39.480  1.00  0.00     0.049 A 
ATOM     71  H   UNL A   1      42.458  32.238  38.295  1.00  0.00     0.167 HD
ATOM     72  C   UNL A   1      42.336  32.074  41.144  1.00  0.00     0.074 A 
ATOM     73  C   UNL A   1      41.825  32.039  42.502  1.00  0.00     0.031 C 
ATOM     74  C   UNL A   1      43.647  31.945  40.820  1.00  0.00     0.037 A 
BRANCH  61  75
ATOM     75  C   UNL A   1      44.835  32.131  34.744  1.00  0.00     0.058 A 
ATOM     76  C   UNL A   1      45.491  33.262  34.230  1.00  0.00     0.135 A 
ATOM     77  C   UNL A   1      45.166  30.881  34.196  1.00  0.00     0.135 A 
ATOM     78  F   UNL A   1      45.198  34.485  34.700  1.00  0.00    -0.206 F 
ATOM     79  C   UNL A   1      46.417  33.160  33.196  1.00  0.00     0.059 A 
ATOM     80  C   UNL A   1      46.111  30.752  33.182  1.00  0.00     0.059 A 
ATOM     81  F   UNL A   1      44.566  29.767  34.643  1.00  0.00    -0.206 F 
ATOM     82  C   UNL A   1      46.721  31.900  32.678  1.00  0.00     0.060 A 
BRANCH  82  83
ATOM     83  S   UNL A   1      47.923  31.782  31.336  1.00  0.00     0.124 S 
ATOM     84  O   UNL A   1      48.484  33.129  31.327  1.00  0.00    -0.237 OA
ATOM     85  O   UNL A   1      48.815  30.727  31.810  1.00  0.00    -0.237 OA
ATOM     86  O   UNL A   1      47.107  31.435  30.177  1.00  0.00    -0.744 OA
ENDBRANCH  82  83
ENDBRANCH  61  75
BRANCH  62  87
ATOM     87  C   UNL A   1      37.677  32.546  41.782  1.00  0.00     0.058 A 
ATOM     88  C   UNL A   1      37.129  31.360  42.291  1.00  0.00     0.135 A 
ATOM     89  C   UNL A   1      37.202  33.761  42.302  1.00  0.00     0.135 A 
ATOM     90  F   UNL A   1      37.545  30.174  41.822  1.00  0.00    -0.206 F 
ATOM     91  C   UNL A   1      36.141  31.377  43.270  1.00  0.00     0.059 A 
ATOM     92  C   UNL A   1      36.235  33.803  43.301  1.00  0.00     0.059 A 
ATOM     93  F   UNL A   1      37.703  34.925  41.860  1.00  0.00    -0.206 F 
ATOM     94  C   UNL A   1      35.704  32.604  43.773  1.00  0.00     0.060 A 
BRANCH  94  95
ATOM     95  S   UNL A   1      34.461  32.611  45.082  1.00  0.00     0.124 S 
ATOM     96  O   UNL A   1      34.073  31.206  45.127  1.00  0.00    -0.237 OA
ATOM     97  O   UNL A   1      35.225  33.101  46.225  1.00  0.00    -0.237 OA
ATOM     98  O   UNL A   1      33.446  33.531  44.575  1.00  0.00    -0.744 OA
ENDBRANCH  94  95
ENDBRANCH  62  87
BRANCH  74  99
ATOM     99  C   UNL A   1      44.625  31.783  41.951  1.00  0.00     0.058 A 
ATOM    100  C   UNL A   1      45.217  32.888  42.581  1.00  0.00     0.135 A 
ATOM    101  C   UNL A   1      44.925  30.504  42.449  1.00  0.00     0.135 A 
ATOM    102  F   UNL A   1      44.967  34.132  42.140  1.00  0.00    -0.206 F 
ATOM    103  C   UNL A   1      46.095  32.730  43.648  1.00  0.00     0.059 A 
ATOM    104  C   UNL A   1      45.775  30.325  43.535  1.00  0.00     0.059 A 
ATOM    105  F   UNL A   1      44.375  29.414  41.891  1.00  0.00    -0.206 F 
ATOM    106  C   UNL A   1      46.365  31.444  44.120  1.00  0.00     0.060 A 
BRANCH 106 107
ATOM    107  S   UNL A   1      47.479  31.257  45.527  1.00  0.00     0.124 S 
ATOM    108  O   UNL A   1      47.168  32.450  46.309  1.00  0.00    -0.237 OA
ATOM    109  O   UNL A   1      47.041  29.990  46.104  1.00  0.00    -0.237 OA
ATOM    110  O   UNL A   1      48.803  31.237  44.914  1.00  0.00    -0.744 OA
ENDBRANCH 106 107
ENDBRANCH  74  99
ENDBRANCH  48  49
ENDBRANCH  41  43
ENDBRANCH  40  41
ENDBRANCH  39  40
ENDBRANCH  38  39
ENDBRANCH  37  38
ENDBRANCH  36  37
ENDBRANCH   1  36
TORSDOF 25
ENDMDL
MODEL 2
REMARK VINA RESULT:      -9.0      0.802      7.663
REMARK SMILES CN1C(=O)C[C@@H](C(=O)OCCOCCOCCOCCOC(=O)c2ccc(-c3c4nc(c(-c5c(F)cc(S(=O)(=O)[O-])cc5F)c5ccc([nH]5)c(-c5c(F)cc(S(=O)(=O)[O-])cc5F)c5nc(c(-c6c(F)cc(S(=O)(=O)[O-])cc6F)c6ccc3[nH]6)C=C5)C=C4)cc2)C12CCN(C(=O)c1ccccc1-n1cccn1)CC2
REMARK SMILES IDX 16 1 15 2 14 3 13 4 12 5 11 6 10 7 9 8 7 9 8 10 6 11 1 12
REMARK SMILES IDX 2 13 3 14 90 15 4 16 5 17 91 18 108 19 92 20 107 21 93 22
REMARK SMILES IDX 94 23 95 24 96 25 97 26 101 27 98 28 100 29 99 30 102 31
REMARK SMILES IDX 103 32 106 33 104 34 105 35 17 36 18 37 19 38 20 39 21 40
REMARK SMILES IDX 22 41 23 42 24 43 25 44 89 45 26 46 88 47 27 48 28 49 29 50
REMARK SMILES IDX 82 51 30 52 87 53 81 54 83 55 31 56 86 57 80 58 79 59 32 61
REMARK SMILES IDX 66 62 45 63 65 64 46 65 49 66 64 67 84 68 47 69 48 70 63 72
REMARK SMILES IDX 85 73 50 74 33 75 34 76 43 77 35 78 36 79 42 80 44 81 37 82
REMARK SMILES IDX 38 83 39 84 40 85 41 86 67 87 68 88 77 89 69 90 70 91 76 92
REMARK SMILES IDX 78 93 71 94 72 95 73 96 74 97 75 98 51 99 52 100 61 101
REMARK SMILES IDX 53 102 54 103 60 104 62 105 55 106 56 107 57 108 58 109
REMARK SMILES IDX 59 110
REMARK H PARENT 83 60 49 71
REMARK Flexibility Score: inf
ROOT
ATOM      1  C   UNL A   1      38.827  31.604  29.540  1.00  0.00     0.188 C 
ENDROOT
BRANCH   1   2
ATOM      2  O   UNL A   1      38.812  30.788  30.704  1.00  0.00    -0.377 OA
BRANCH   2   3
ATOM      3  C   UNL A   1      37.696  30.002  31.059  1.00  0.00     0.188 C 
BRANCH   3   4
ATOM      4  C   UNL A   1      36.481  30.085  30.143  1.00  0.00     0.188 C 
BRANCH   4   5
ATOM      5  O   UNL A   1      36.448  29.302  28.971  1.00  0.00    -0.376 OA
BRANCH   5   6
ATOM      6  C   UNL A   1      35.747  29.775  27.823  1.00  0.00     0.202 C 
BRANCH   6   7
ATOM      7  C   UNL A   1      34.295  29.336  27.517  1.00  0.00     0.261 C 
BRANCH   7   8
ATOM      8  O   UNL A   1      34.021  28.688  26.236  1.00  0.00    -0.463 OA
BRANCH   8   9
ATOM      9  C   UNL A   1      32.722  28.606  25.883  1.00  0.00     0.311 C 
ATOM     10  O   UNL A   1      31.798  28.795  26.678  1.00  0.00    -0.252 OA
BRANCH   9  11
ATOM     11  C   UNL A   1      32.366  28.147  24.470  1.00  0.00     0.134 C 
ATOM     12  C   UNL A   1      28.912  26.916  23.580  1.00  0.00     0.147 C 
ATOM     13  N   UNL A   1      30.153  27.604  23.895  1.00  0.00    -0.339 N 
ATOM     14  C   UNL A   1      30.226  28.986  23.799  1.00  0.00     0.223 C 
ATOM     15  C   UNL A   1      31.484  26.959  23.970  1.00  0.00     0.060 C 
ATOM     16  O   UNL A   1      29.301  29.755  23.596  1.00  0.00    -0.275 OA
ATOM     17  C   UNL A   1      31.669  29.387  23.870  1.00  0.00     0.118 C 
ATOM     18  C   UNL A   1      31.438  25.660  24.793  1.00  0.00     0.051 C 
ATOM     19  C   UNL A   1      31.916  26.572  22.509  1.00  0.00     0.051 C 
ATOM     20  C   UNL A   1      32.602  24.684  24.616  1.00  0.00     0.122 C 
ATOM     21  C   UNL A   1      33.114  25.626  22.418  1.00  0.00     0.122 C 
ATOM     22  N   UNL A   1      32.937  24.425  23.226  1.00  0.00    -0.338 N 
ATOM     23  C   UNL A   1      33.419  23.209  22.720  1.00  0.00     0.256 C 
ATOM     24  O   UNL A   1      33.925  23.112  21.602  1.00  0.00    -0.269 OA
BRANCH  23  25
ATOM     25  C   UNL A   1      33.389  21.954  23.520  1.00  0.00     0.065 A 
ATOM     26  C   UNL A   1      32.314  21.083  23.252  1.00  0.00     0.016 A 
ATOM     27  C   UNL A   1      34.304  21.601  24.524  1.00  0.00     0.077 A 
ATOM     28  C   UNL A   1      32.145  19.896  23.976  1.00  0.00     0.001 A 
ATOM     29  C   UNL A   1      34.127  20.406  25.250  1.00  0.00     0.029 A 
ATOM     30  C   UNL A   1      33.036  19.573  24.994  1.00  0.00     0.002 A 
BRANCH  27  31
ATOM     31  N   UNL A   1      35.449  22.370  24.817  1.00  0.00    -0.240 N 
ATOM     32  C   UNL A   1      35.685  23.199  25.888  1.00  0.00     0.115 A 
ATOM     33  N   UNL A   1      36.475  22.402  23.927  1.00  0.00    -0.177 NA
ATOM     34  C   UNL A   1      36.859  23.863  25.624  1.00  0.00     0.042 A 
ATOM     35  C   UNL A   1      37.281  23.361  24.385  1.00  0.00     0.135 A 
ENDBRANCH  27  31
ENDBRANCH  23  25
ENDBRANCH   9  11
ENDBRANCH   8   9
ENDBRANCH   7   8
ENDBRANCH   6   7
ENDBRANCH   5   6
ENDBRANCH   4   5
ENDBRANCH   3   4
ENDBRANCH   2   3
ENDBRANCH   1   2
BRANCH   1  36
ATOM     36  C   UNL A   1      38.612  33.110  29.701  1.00  0.00     0.188 C 
BRANCH  36  37
ATOM     37  O   UNL A   1      37.418  33.510  30.381  1.00  0.00    -0.376 OA
BRANCH  37  38
ATOM     38  C   UNL A   1      36.263  33.742  29.574  1.00  0.00     0.202 C 
BRANCH  38  39
ATOM     39  C   UNL A   1      34.955  33.496  30.296  1.00  0.00     0.261 C 
BRANCH  39  40
ATOM     40  O   UNL A   1      34.906  34.274  31.494  1.00  0.00    -0.460 OA
BRANCH  40  41
ATOM     41  C   UNL A   1      34.757  33.549  32.613  1.00  0.00     0.338 C 
ATOM     42  O   UNL A   1      33.755  32.941  32.986  1.00  0.00    -0.246 OA
BRANCH  41  43
ATOM     43  C   UNL A   1      36.058  33.423  33.258  1.00  0.00     0.060 A 
ATOM     44  C   UNL A   1      36.482  32.133  33.586  1.00  0.00     0.016 A 
ATOM     45  C   UNL A   1      36.788  34.554  33.638  1.00  0.00     0.016 A 
ATOM     46  C   UNL A   1      37.599  31.969  34.388  1.00  0.00     0.010 A 
ATOM     47  C   UNL A   1      37.909  34.385  34.451  1.00  0.00     0.010 A 
ATOM     48  C   UNL A   1      38.274  33.096  34.875  1.00  0.00    -0.014 A 
BRANCH  48  49
ATOM     49  C   UNL A   1      39.208  32.902  36.005  1.00  0.00     0.031 A 
ATOM     50  C   UNL A   1      38.643  32.873  37.399  1.00  0.00     0.074 A 
ATOM     51  C   UNL A   1      40.505  32.647  35.772  1.00  0.00     0.049 A 
ATOM     52  N   UNL A   1      39.251  32.648  38.534  1.00  0.00    -0.248 NA
ATOM     53  C   UNL A   1      37.197  33.123  37.532  1.00  0.00     0.031 C 
ATOM     54  C   UNL A   1      41.129  32.604  34.449  1.00  0.00     0.029 A 
ATOM     55  N   UNL A   1      41.526  32.364  36.638  1.00  0.00    -0.354 N 
ATOM     56  C   UNL A   1      38.266  32.734  39.512  1.00  0.00     0.074 A 
ATOM     57  C   UNL A   1      37.028  33.063  38.844  1.00  0.00     0.031 C 
ATOM     58  C   UNL A   1      42.433  32.316  34.594  1.00  0.00     0.029 A 
ATOM     59  C   UNL A   1      42.737  32.183  36.017  1.00  0.00     0.049 A 
ATOM     60  H   UNL A   1      41.404  32.299  37.613  1.00  0.00     0.167 HD
ATOM     61  C   UNL A   1      38.387  32.543  40.846  1.00  0.00     0.037 A 
ATOM     62  C   UNL A   1      43.954  31.955  36.547  1.00  0.00     0.037 A 
ATOM     63  C   UNL A   1      39.633  32.215  41.489  1.00  0.00     0.049 A 
ATOM     64  C   UNL A   1      44.077  31.806  38.039  1.00  0.00     0.074 A 
ATOM     65  C   UNL A   1      39.874  31.987  42.832  1.00  0.00     0.029 A 
ATOM     66  N   UNL A   1      40.849  32.081  40.834  1.00  0.00    -0.354 N 
ATOM     67  N   UNL A   1      43.136  31.864  38.954  1.00  0.00    -0.248 NA
ATOM     68  C   UNL A   1      45.420  31.553  38.575  1.00  0.00     0.031 C 
ATOM     69  C   UNL A   1      41.247  31.776  42.995  1.00  0.00     0.029 A 
ATOM     70  C   UNL A   1      41.851  31.805  41.746  1.00  0.00     0.049 A 
ATOM     71  H   UNL A   1      40.979  32.169  39.862  1.00  0.00     0.167 HD
ATOM     72  C   UNL A   1      43.768  31.632  40.170  1.00  0.00     0.074 A 
ATOM     73  C   UNL A   1      45.171  31.418  39.870  1.00  0.00     0.031 C 
ATOM     74  C   UNL A   1      43.242  31.597  41.420  1.00  0.00     0.037 A 
BRANCH  61  75
ATOM     75  C   UNL A   1      37.159  32.728  41.694  1.00  0.00     0.058 A 
ATOM     76  C   UNL A   1      36.917  33.910  42.413  1.00  0.00     0.135 A 
ATOM     77  C   UNL A   1      36.196  31.708  41.777  1.00  0.00     0.135 A 
ATOM     78  F   UNL A   1      37.812  34.911  42.389  1.00  0.00    -0.206 F 
ATOM     79  C   UNL A   1      35.782  34.064  43.205  1.00  0.00     0.059 A 
ATOM     80  C   UNL A   1      35.040  31.850  42.539  1.00  0.00     0.059 A 
ATOM     81  F   UNL A   1      36.378  30.553  41.117  1.00  0.00    -0.206 F 
ATOM     82  C   UNL A   1      34.849  33.027  43.260  1.00  0.00     0.060 A 
BRANCH  82  83
ATOM     83  S   UNL A   1      33.381  33.239  44.291  1.00  0.00     0.124 S 
ATOM     84  O   UNL A   1      32.320  33.257  43.289  1.00  0.00    -0.237 OA
ATOM     85  O   UNL A   1      33.428  32.055  45.144  1.00  0.00    -0.237 OA
ATOM     86  O   UNL A   1      33.623  34.507  44.971  1.00  0.00    -0.744 OA
ENDBRANCH  82  83
ENDBRANCH  61  75
BRANCH  62  87
ATOM     87  C   UNL A   1      45.142  31.874  35.655  1.00  0.00     0.058 A 
ATOM     88  C   UNL A   1      45.913  33.005  35.354  1.00  0.00     0.135 A 
ATOM     89  C   UNL A   1      45.541  30.646  35.103  1.00  0.00     0.135 A 
ATOM     90  F   UNL A   1      45.569  34.203  35.852  1.00  0.00    -0.206 F 
ATOM     91  C   UNL A   1      47.032  32.926  34.530  1.00  0.00     0.059 A 
ATOM     92  C   UNL A   1      46.671  30.536  34.300  1.00  0.00     0.059 A 
ATOM     93  F   UNL A   1      44.845  29.529  35.370  1.00  0.00    -0.206 F 
ATOM     94  C   UNL A   1      47.406  31.685  34.012  1.00  0.00     0.060 A 
BRANCH  94  95
ATOM     95  S   UNL A   1      48.890  31.584  32.990  1.00  0.00     0.124 S 
ATOM     96  O   UNL A   1      48.341  31.785  31.654  1.00  0.00    -0.237 OA
ATOM     97  O   UNL A   1      49.700  32.678  33.520  1.00  0.00    -0.237 OA
ATOM     98  O   UNL A   1      49.400  30.245  33.269  1.00  0.00    -0.744 OA
ENDBRANCH  94  95
ENDBRANCH  62  87
BRANCH  74  99
ATOM     99  C   UNL A   1      44.179  31.288  42.555  1.00  0.00     0.058 A 
ATOM    100  C   UNL A   1      44.445  29.971  42.957  1.00  0.00     0.135 A 
ATOM    101  C   UNL A   1      44.866  32.325  43.207  1.00  0.00     0.135 A 
ATOM    102  F   UNL A   1      43.812  28.943  42.369  1.00  0.00    -0.206 F 
ATOM    103  C   UNL A   1      45.339  29.693  43.985  1.00  0.00     0.059 A 
ATOM    104  C   UNL A   1      45.788  32.069  44.216  1.00  0.00     0.059 A 
ATOM    105  F   UNL A   1      44.658  33.604  42.852  1.00  0.00    -0.206 F 
ATOM    106  C   UNL A   1      46.008  30.749  44.607  1.00  0.00     0.060 A 
BRANCH 106 107
ATOM    107  S   UNL A   1      47.191  30.372  45.916  1.00  0.00     0.124 S 
ATOM    108  O   UNL A   1      47.448  28.954  45.680  1.00  0.00    -0.237 OA
ATOM    109  O   UNL A   1      48.294  31.276  45.610  1.00  0.00    -0.237 OA
ATOM    110  O   UNL A   1      46.455  30.679  47.139  1.00  0.00    -0.744 OA
ENDBRANCH 106 107
ENDBRANCH  74  99
ENDBRANCH  48  49
ENDBRANCH  41  43
ENDBRANCH  40  41
ENDBRANCH  39  40
ENDBRANCH  38  39
ENDBRANCH  37  38
ENDBRANCH  36  37
ENDBRANCH   1  36
TORSDOF 25
ENDMDL
MODEL 3
REMARK VINA RESULT:      -9.0      6.338     13.807
REMARK SMILES CN1C(=O)C[C@@H](C(=O)OCCOCCOCCOCCOC(=O)c2ccc(-c3c4nc(c(-c5c(F)cc(S(=O)(=O)[O-])cc5F)c5ccc([nH]5)c(-c5c(F)cc(S(=O)(=O)[O-])cc5F)c5nc(c(-c6c(F)cc(S(=O)(=O)[O-])cc6F)c6ccc3[nH]6)C=C5)C=C4)cc2)C12CCN(C(=O)c1ccccc1-n1cccn1)CC2
REMARK SMILES IDX 16 1 15 2 14 3 13 4 12 5 11 6 10 7 9 8 7 9 8 10 6 11 1 12
REMARK SMILES IDX 2 13 3 14 90 15 4 16 5 17 91 18 108 19 92 20 107 21 93 22
REMARK SMILES IDX 94 23 95 24 96 25 97 26 101 27 98 28 100 29 99 30 102 31
REMARK SMILES IDX 103 32 106 33 104 34 105 35 17 36 18 37 19 38 20 39 21 40
REMARK SMILES IDX 22 41 23 42 24 43 25 44 89 45 26 46 88 47 27 48 28 49 29 50
REMARK SMILES IDX 82 51 30 52 87 53 81 54 83 55 31 56 86 57 80 58 79 59 32 61
REMARK SMILES IDX 66 62 45 63 65 64 46 65 49 66 64 67 84 68 47 69 48 70 63 72
REMARK SMILES IDX 85 73 50 74 33 75 34 76 43 77 35 78 36 79 42 80 44 81 37 82
REMARK SMILES IDX 38 83 39 84 40 85 41 86 67 87 68 88 77 89 69 90 70 91 76 92
REMARK SMILES IDX 78 93 71 94 72 95 73 96 74 97 75 98 51 99 52 100 61 101
REMARK SMILES IDX 53 102 54 103 60 104 62 105 55 106 56 107 57 108 58 109
REMARK SMILES IDX 59 110
REMARK H PARENT 83 60 49 71
REMARK Flexibility Score: inf
ROOT
ATOM      1  C   UNL A   1      35.294  32.953  32.351  1.00  0.00     0.188 C 
ENDROOT
BRANCH   1   2
ATOM      2  O   UNL A   1      35.539  34.168  33.045  1.00  0.00    -0.377 OA
BRANCH   2   3
ATOM      3  C   UNL A   1      36.811  34.775  33.077  1.00  0.00     0.188 C 
BRANCH   3   4
ATOM      4  C   UNL A   1      37.888  34.155  32.193  1.00  0.00     0.188 C 
BRANCH   4   5
ATOM      5  O   UNL A   1      38.526  34.953  31.222  1.00  0.00    -0.376 OA
BRANCH   5   6
ATOM      6  C   UNL A   1      39.477  34.366  30.338  1.00  0.00     0.202 C 
BRANCH   6   7
ATOM      7  C   UNL A   1      40.858  33.872  30.837  1.00  0.00     0.261 C 
BRANCH   7   8
ATOM      8  O   UNL A   1      41.754  33.232  29.876  1.00  0.00    -0.463 OA
BRANCH   8   9
ATOM      9  C   UNL A   1      42.935  33.851  29.672  1.00  0.00     0.311 C 
ATOM     10  O   UNL A   1      43.836  33.871  30.514  1.00  0.00    -0.252 OA
BRANCH   9  11
ATOM     11  C   UNL A   1      43.134  34.663  28.393  1.00  0.00     0.134 C 
ATOM     12  C   UNL A   1      46.545  35.831  27.279  1.00  0.00     0.147 C 
ATOM     13  N   UNL A   1      45.289  35.178  27.609  1.00  0.00    -0.339 N 
ATOM     14  C   UNL A   1      45.036  33.890  27.162  1.00  0.00     0.223 C 
ATOM     15  C   UNL A   1      44.071  35.874  28.084  1.00  0.00     0.060 C 
ATOM     16  O   UNL A   1      45.822  33.142  26.603  1.00  0.00    -0.275 OA
ATOM     17  C   UNL A   1      43.581  33.595  27.372  1.00  0.00     0.118 C 
ATOM     18  C   UNL A   1      44.393  36.880  29.203  1.00  0.00     0.051 C 
ATOM     19  C   UNL A   1      43.480  36.690  26.878  1.00  0.00     0.051 C 
ATOM     20  C   UNL A   1      43.342  37.951  29.498  1.00  0.00     0.122 C 
ATOM     21  C   UNL A   1      42.405  37.711  27.252  1.00  0.00     0.122 C 
ATOM     22  N   UNL A   1      42.842  38.617  28.308  1.00  0.00    -0.338 N 
ATOM     23  C   UNL A   1      42.442  39.959  28.238  1.00  0.00     0.256 C 
ATOM     24  O   UNL A   1      41.793  40.408  27.292  1.00  0.00    -0.269 OA
BRANCH  23  25
ATOM     25  C   UNL A   1      42.739  40.930  29.326  1.00  0.00     0.065 A 
ATOM     26  C   UNL A   1      41.766  41.032  30.340  1.00  0.00     0.016 A 
ATOM     27  C   UNL A   1      43.868  41.762  29.394  1.00  0.00     0.077 A 
ATOM     28  C   UNL A   1      41.905  41.949  31.389  1.00  0.00     0.001 A 
ATOM     29  C   UNL A   1      44.002  42.683  30.453  1.00  0.00     0.029 A 
ATOM     30  C   UNL A   1      43.009  42.795  31.429  1.00  0.00     0.002 A 
BRANCH  27  31
ATOM     31  N   UNL A   1      44.929  41.685  28.468  1.00  0.00    -0.240 N 
ATOM     32  C   UNL A   1      45.365  42.631  27.571  1.00  0.00     0.115 A 
ATOM     33  N   UNL A   1      45.617  40.521  28.338  1.00  0.00    -0.177 NA
ATOM     34  C   UNL A   1      46.296  42.017  26.768  1.00  0.00     0.042 A 
ATOM     35  C   UNL A   1      46.382  40.707  27.262  1.00  0.00     0.135 A 
ENDBRANCH  27  31
ENDBRANCH  23  25
ENDBRANCH   9  11
ENDBRANCH   8   9
ENDBRANCH   7   8
ENDBRANCH   6   7
ENDBRANCH   5   6
ENDBRANCH   4   5
ENDBRANCH   3   4
ENDBRANCH   2   3
ENDBRANCH   1   2
BRANCH   1  36
ATOM     36  C   UNL A   1      34.622  33.018  30.978  1.00  0.00     0.188 C 
BRANCH  36  37
ATOM     37  O   UNL A   1      35.007  34.108  30.136  1.00  0.00    -0.376 OA
BRANCH  37  38
ATOM     38  C   UNL A   1      34.032  34.579  29.204  1.00  0.00     0.202 C 
BRANCH  38  39
ATOM     39  C   UNL A   1      33.523  33.510  28.261  1.00  0.00     0.261 C 
BRANCH  39  40
ATOM     40  O   UNL A   1      34.623  32.860  27.621  1.00  0.00    -0.460 OA
BRANCH  40  41
ATOM     41  C   UNL A   1      34.592  31.522  27.699  1.00  0.00     0.338 C 
ATOM     42  O   UNL A   1      33.644  30.778  27.452  1.00  0.00    -0.246 OA
BRANCH  41  43
ATOM     43  C   UNL A   1      35.945  31.041  27.947  1.00  0.00     0.060 A 
ATOM     44  C   UNL A   1      36.129  29.657  27.991  1.00  0.00     0.016 A 
ATOM     45  C   UNL A   1      36.983  31.929  28.247  1.00  0.00     0.016 A 
ATOM     46  C   UNL A   1      37.338  29.147  28.434  1.00  0.00     0.010 A 
ATOM     47  C   UNL A   1      38.197  31.412  28.698  1.00  0.00     0.010 A 
ATOM     48  C   UNL A   1      38.349  30.023  28.850  1.00  0.00    -0.014 A 
BRANCH  48  49
ATOM     49  C   UNL A   1      39.457  29.461  29.652  1.00  0.00     0.031 A 
ATOM     50  C   UNL A   1      39.577  29.879  31.092  1.00  0.00     0.074 A 
ATOM     51  C   UNL A   1      40.259  28.520  29.129  1.00  0.00     0.049 A 
ATOM     52  N   UNL A   1      40.418  29.471  32.005  1.00  0.00    -0.248 NA
ATOM     53  C   UNL A   1      38.616  30.889  31.570  1.00  0.00     0.031 C 
ATOM     54  C   UNL A   1      40.180  28.016  27.758  1.00  0.00     0.029 A 
ATOM     55  N   UNL A   1      41.284  27.811  29.693  1.00  0.00    -0.354 N 
ATOM     56  C   UNL A   1      40.090  30.173  33.160  1.00  0.00     0.074 A 
ATOM     57  C   UNL A   1      38.997  31.057  32.827  1.00  0.00     0.031 C 
ATOM     58  C   UNL A   1      41.128  27.080  27.585  1.00  0.00     0.029 A 
ATOM     59  C   UNL A   1      41.892  26.941  28.822  1.00  0.00     0.049 A 
ATOM     60  H   UNL A   1      41.561  27.917  30.632  1.00  0.00     0.167 HD
ATOM     61  C   UNL A   1      40.648  30.077  34.389  1.00  0.00     0.037 A 
ATOM     62  C   UNL A   1      42.958  26.138  29.007  1.00  0.00     0.037 A 
ATOM     63  C   UNL A   1      41.737  29.187  34.698  1.00  0.00     0.049 A 
ATOM     64  C   UNL A   1      43.602  26.091  30.367  1.00  0.00     0.074 A 
ATOM     65  C   UNL A   1      42.374  28.995  35.910  1.00  0.00     0.029 A 
ATOM     66  N   UNL A   1      42.356  28.349  33.781  1.00  0.00    -0.354 N 
ATOM     67  N   UNL A   1      43.270  26.741  31.459  1.00  0.00    -0.248 NA
ATOM     68  C   UNL A   1      44.757  25.200  30.525  1.00  0.00     0.031 C 
ATOM     69  C   UNL A   1      43.419  28.086  35.710  1.00  0.00     0.029 A 
ATOM     70  C   UNL A   1      43.390  27.661  34.389  1.00  0.00     0.049 A 
ATOM     71  H   UNL A   1      42.097  28.257  32.835  1.00  0.00     0.167 HD
ATOM     72  C   UNL A   1      44.159  26.320  32.440  1.00  0.00     0.074 A 
ATOM     73  C   UNL A   1      45.035  25.348  31.814  1.00  0.00     0.031 C 
ATOM     74  C   UNL A   1      44.247  26.698  33.741  1.00  0.00     0.037 A 
BRANCH  61  75
ATOM     75  C   UNL A   1      40.122  30.982  35.469  1.00  0.00     0.058 A 
ATOM     76  C   UNL A   1      38.867  30.781  36.068  1.00  0.00     0.135 A 
ATOM     77  C   UNL A   1      40.895  32.063  35.925  1.00  0.00     0.135 A 
ATOM     78  F   UNL A   1      38.075  29.778  35.658  1.00  0.00    -0.206 F 
ATOM     79  C   UNL A   1      38.386  31.635  37.057  1.00  0.00     0.059 A 
ATOM     80  C   UNL A   1      40.447  32.912  36.933  1.00  0.00     0.059 A 
ATOM     81  F   UNL A   1      42.099  32.307  35.384  1.00  0.00    -0.206 F 
ATOM     82  C   UNL A   1      39.185  32.698  37.484  1.00  0.00     0.060 A 
BRANCH  82  83
ATOM     83  S   UNL A   1      38.549  33.797  38.768  1.00  0.00     0.124 S 
ATOM     84  O   UNL A   1      37.125  33.482  38.743  1.00  0.00    -0.237 OA
ATOM     85  O   UNL A   1      39.278  33.347  39.950  1.00  0.00    -0.237 OA
ATOM     86  O   UNL A   1      38.906  35.127  38.285  1.00  0.00    -0.744 OA
ENDBRANCH  82  83
ENDBRANCH  61  75
BRANCH  62  87
ATOM     87  C   UNL A   1      43.482  25.337  27.868  1.00  0.00     0.058 A 
ATOM     88  C   UNL A   1      44.457  25.847  26.999  1.00  0.00     0.135 A 
ATOM     89  C   UNL A   1      43.027  24.028  27.643  1.00  0.00     0.135 A 
ATOM     90  F   UNL A   1      44.920  27.095  27.168  1.00  0.00    -0.206 F 
ATOM     91  C   UNL A   1      44.956  25.092  25.942  1.00  0.00     0.059 A 
ATOM     92  C   UNL A   1      43.531  23.244  26.611  1.00  0.00     0.059 A 
ATOM     93  F   UNL A   1      42.104  23.487  28.454  1.00  0.00    -0.206 F 
ATOM     94  C   UNL A   1      44.491  23.788  25.760  1.00  0.00     0.060 A 
BRANCH  94  95
ATOM     95  S   UNL A   1      45.186  22.799  24.419  1.00  0.00     0.124 S 
ATOM     96  O   UNL A   1      44.014  22.578  23.580  1.00  0.00    -0.237 OA
ATOM     97  O   UNL A   1      46.202  23.695  23.876  1.00  0.00    -0.237 OA
ATOM     98  O   UNL A   1      45.703  21.619  25.106  1.00  0.00    -0.744 OA
ENDBRANCH  94  95
ENDBRANCH  62  87
BRANCH  74  99
ATOM     99  C   UNL A   1      45.307  26.039  34.581  1.00  0.00     0.058 A 
ATOM    100  C   UNL A   1      46.576  26.611  34.751  1.00  0.00     0.135 A 
ATOM    101  C   UNL A   1      45.023  24.851  35.273  1.00  0.00     0.135 A 
ATOM    102  F   UNL A   1      46.900  27.745  34.108  1.00  0.00    -0.206 F 
ATOM    103  C   UNL A   1      47.539  26.013  35.557  1.00  0.00     0.059 A 
ATOM    104  C   UNL A   1      45.959  24.252  36.109  1.00  0.00     0.059 A 
ATOM    105  F   UNL A   1      43.819  24.269  35.155  1.00  0.00    -0.206 F 
ATOM    106  C   UNL A   1      47.219  24.835  36.235  1.00  0.00     0.060 A 
BRANCH 106 107
ATOM    107  S   UNL A   1      48.466  24.088  37.304  1.00  0.00     0.124 S 
ATOM    108  O   UNL A   1      48.102  22.675  37.237  1.00  0.00    -0.237 OA
ATOM    109  O   UNL A   1      49.710  24.454  36.636  1.00  0.00    -0.237 OA
ATOM    110  O   UNL A   1      48.240  24.733  38.594  1.00  0.00    -0.744 OA
ENDBRANCH 106 107
ENDBRANCH  74  99
ENDBRANCH  48  49
ENDBRANCH  41  43
ENDBRANCH  40  41
ENDBRANCH  39  40
ENDBRANCH  38  39
ENDBRANCH  37  38
ENDBRANCH  36  37
ENDBRANCH   1  36
TORSDOF 25
ENDMDL
