MODEL 1
REMARK VINA RESULT:     -11.5      0.000      0.000
REMARK SMILES C[C@H]1CCc2sc3ncn4nc(/C=C\C(=O)OCCOCCOCCOCCOC(=O)c5ccc(-c6c7nc(c(-c8c(F)cc(S(=O)(=O)[O-])cc8F)c8ccc([nH]8)c(-c8c(F)cc(S(=O)(=O)[O-])cc8F)c8nc(c(-c9c(F)cc(S(=O)(=O)[O-])cc9F)c9ccc6[nH]9)C=C8)C=C7)cc5)nc4c3c2C1
REMARK SMILES IDX 24 1 23 2 22 3 21 4 20 5 19 6 18 7 17 8 15 9 16 10 14 11
REMARK SMILES IDX 13 12 12 13 1 14 2 15 3 16 102 17 4 18 101 19 5 20 100 21
REMARK SMILES IDX 6 22 7 23 99 24 8 25 10 26 98 27 9 28 11 29 25 30 26 31
REMARK SMILES IDX 27 32 28 33 29 34 30 35 31 36 32 37 33 38 97 39 34 40 96 41
REMARK SMILES IDX 35 42 36 43 37 44 90 45 38 46 95 47 89 48 91 49 39 50 94 51
REMARK SMILES IDX 88 52 87 53 40 55 74 56 53 57 73 58 54 59 57 60 72 61 92 62
REMARK SMILES IDX 55 63 56 64 71 66 93 67 58 68 41 69 42 70 51 71 43 72 44 73
REMARK SMILES IDX 50 74 52 75 45 76 46 77 47 78 48 79 49 80 75 81 76 82 85 83
REMARK SMILES IDX 77 84 78 85 84 86 86 87 79 88 80 89 81 90 82 91 83 92 59 93
REMARK SMILES IDX 60 94 69 95 61 96 62 97 68 98 70 99 63 100 64 101 65 102
REMARK SMILES IDX 66 103 67 104
REMARK H PARENT 91 54 57 65
REMARK Flexibility Score: inf
ROOT
ATOM      1  C   UNL A   1      41.145  19.480  26.657  1.00  0.00     0.188 C 
ENDROOT
BRANCH   1   2
ATOM      2  O   UNL A   1      40.967  20.336  27.762  1.00  0.00    -0.377 OA
BRANCH   2   3
ATOM      3  C   UNL A   1      40.637  21.698  27.526  1.00  0.00     0.188 C 
BRANCH   3   4
ATOM      4  C   UNL A   1      39.774  22.149  26.319  1.00  0.00     0.188 C 
BRANCH   4   5
ATOM      5  O   UNL A   1      38.568  21.430  26.155  1.00  0.00    -0.376 OA
BRANCH   5   6
ATOM      6  C   UNL A   1      37.745  21.746  25.048  1.00  0.00     0.202 C 
BRANCH   6   7
ATOM      7  C   UNL A   1      36.733  20.670  24.689  1.00  0.00     0.261 C 
BRANCH   7   8
ATOM      8  O   UNL A   1      35.491  20.735  25.376  1.00  0.00    -0.460 OA
BRANCH   8   9
ATOM      9  C   UNL A   1      34.494  19.898  25.069  1.00  0.00     0.330 C 
ATOM     10  O   UNL A   1      34.589  18.842  24.487  1.00  0.00    -0.247 OA
BRANCH   9  11
ATOM     11  C   UNL A   1      33.261  20.356  25.759  1.00  0.00     0.097 C 
ATOM     12  C   UNL A   1      32.566  21.502  25.650  1.00  0.00     0.058 C 
BRANCH  12  13
ATOM     13  C   UNL A   1      32.710  22.658  24.811  1.00  0.00     0.175 A 
ATOM     14  C   UNL A   1      33.834  28.737  27.610  1.00  0.00     0.008 C 
ATOM     15  C   UNL A   1      32.422  28.483  27.080  1.00  0.00    -0.009 C 
ATOM     16  C   UNL A   1      31.882  29.644  26.220  1.00  0.00     0.009 C 
ATOM     17  C   UNL A   1      32.346  27.153  26.319  1.00  0.00     0.041 C 
ATOM     18  C   UNL A   1      32.569  29.775  24.843  1.00  0.00     0.047 C 
ATOM     19  C   UNL A   1      32.656  27.231  24.875  1.00  0.00    -0.020 A 
ATOM     20  C   UNL A   1      32.748  28.429  24.203  1.00  0.00     0.011 A 
ATOM     21  C   UNL A   1      32.845  26.140  23.999  1.00  0.00     0.060 A 
ATOM     22  S   UNL A   1      33.132  28.215  22.550  1.00  0.00    -0.120 S 
ATOM     23  C   UNL A   1      33.132  26.502  22.694  1.00  0.00     0.129 A 
ATOM     24  C   UNL A   1      32.801  24.682  24.225  1.00  0.00     0.168 A 
ATOM     25  N   UNL A   1      33.390  25.665  21.632  1.00  0.00    -0.225 NA
ATOM     26  N   UNL A   1      33.024  23.881  23.150  1.00  0.00    -0.201 N 
ATOM     27  N   UNL A   1      32.611  23.947  25.292  1.00  0.00    -0.207 NA
ATOM     28  C   UNL A   1      33.324  24.379  21.882  1.00  0.00     0.227 A 
ATOM     29  N   UNL A   1      32.969  22.578  23.491  1.00  0.00    -0.145 NA
ENDBRANCH  12  13
ENDBRANCH   9  11
ENDBRANCH   8   9
ENDBRANCH   7   8
ENDBRANCH   6   7
ENDBRANCH   5   6
ENDBRANCH   4   5
ENDBRANCH   3   4
ENDBRANCH   2   3
ENDBRANCH   1   2
BRANCH   1  30
ATOM     30  C   UNL A   1      42.614  19.200  26.269  1.00  0.00     0.188 C 
BRANCH  30  31
ATOM     31  O   UNL A   1      43.132  19.303  24.946  1.00  0.00    -0.376 OA
BRANCH  31  32
ATOM     32  C   UNL A   1      44.431  18.911  24.533  1.00  0.00     0.202 C 
BRANCH  32  33
ATOM     33  C   UNL A   1      45.606  19.856  24.314  1.00  0.00     0.261 C 
BRANCH  33  34
ATOM     34  O   UNL A   1      45.704  20.888  25.260  1.00  0.00    -0.460 OA
BRANCH  34  35
ATOM     35  C   UNL A   1      45.215  22.054  24.810  1.00  0.00     0.338 C 
ATOM     36  O   UNL A   1      45.669  22.749  23.917  1.00  0.00    -0.246 OA
BRANCH  35  37
ATOM     37  C   UNL A   1      44.093  22.439  25.676  1.00  0.00     0.060 A 
ATOM     38  C   UNL A   1      43.151  23.221  25.018  1.00  0.00     0.016 A 
ATOM     39  C   UNL A   1      44.331  22.533  27.057  1.00  0.00     0.016 A 
ATOM     40  C   UNL A   1      42.785  24.381  25.644  1.00  0.00     0.010 A 
ATOM     41  C   UNL A   1      43.956  23.692  27.683  1.00  0.00     0.010 A 
ATOM     42  C   UNL A   1      43.303  24.650  26.920  1.00  0.00    -0.014 A 
BRANCH  42  43
ATOM     43  C   UNL A   1      42.994  25.938  27.492  1.00  0.00     0.031 A 
ATOM     44  C   UNL A   1      44.070  26.890  27.164  1.00  0.00     0.074 A 
ATOM     45  C   UNL A   1      41.876  26.199  28.193  1.00  0.00     0.049 A 
ATOM     46  N   UNL A   1      45.053  27.227  27.928  1.00  0.00    -0.248 NA
ATOM     47  C   UNL A   1      44.253  27.255  25.749  1.00  0.00     0.031 C 
ATOM     48  C   UNL A   1      40.676  25.371  28.355  1.00  0.00     0.029 A 
ATOM     49  N   UNL A   1      41.553  27.331  28.872  1.00  0.00    -0.354 N 
ATOM     50  C   UNL A   1      45.818  28.092  27.159  1.00  0.00     0.074 A 
ATOM     51  C   UNL A   1      45.442  27.860  25.792  1.00  0.00     0.031 C 
ATOM     52  C   UNL A   1      39.677  26.126  28.879  1.00  0.00     0.029 A 
ATOM     53  C   UNL A   1      40.210  27.430  29.234  1.00  0.00     0.049 A 
ATOM     54  H   UNL A   1      42.214  28.027  29.091  1.00  0.00     0.167 HD
ATOM     55  C   UNL A   1      46.416  29.164  27.743  1.00  0.00     0.037 A 
ATOM     56  C   UNL A   1      39.618  28.541  29.747  1.00  0.00     0.037 A 
ATOM     57  C   UNL A   1      46.444  29.010  29.177  1.00  0.00     0.049 A 
ATOM     58  C   UNL A   1      40.710  29.362  30.331  1.00  0.00     0.074 A 
ATOM     59  C   UNL A   1      47.116  28.218  30.083  1.00  0.00     0.029 A 
ATOM     60  N   UNL A   1      45.320  29.484  29.805  1.00  0.00    -0.354 N 
ATOM     61  N   UNL A   1      41.402  29.000  31.375  1.00  0.00    -0.248 NA
ATOM     62  C   UNL A   1      41.303  30.420  29.523  1.00  0.00     0.031 C 
ATOM     63  C   UNL A   1      46.235  28.054  31.193  1.00  0.00     0.029 A 
ATOM     64  C   UNL A   1      45.076  28.795  30.961  1.00  0.00     0.049 A 
ATOM     65  H   UNL A   1      44.764  30.223  29.468  1.00  0.00     0.167 HD
ATOM     66  C   UNL A   1      42.680  29.467  31.124  1.00  0.00     0.074 A 
ATOM     67  C   UNL A   1      42.523  30.457  30.065  1.00  0.00     0.031 C 
ATOM     68  C   UNL A   1      43.767  28.779  31.580  1.00  0.00     0.037 A 
BRANCH  55  69
ATOM     69  C   UNL A   1      46.473  30.530  27.096  1.00  0.00     0.058 A 
ATOM     70  C   UNL A   1      47.697  31.225  27.077  1.00  0.00     0.135 A 
ATOM     71  C   UNL A   1      45.332  31.297  26.759  1.00  0.00     0.135 A 
ATOM     72  F   UNL A   1      48.839  30.605  27.414  1.00  0.00    -0.206 F 
ATOM     73  C   UNL A   1      47.775  32.588  26.782  1.00  0.00     0.059 A 
ATOM     74  C   UNL A   1      45.395  32.638  26.407  1.00  0.00     0.059 A 
ATOM     75  F   UNL A   1      44.086  30.822  26.852  1.00  0.00    -0.206 F 
ATOM     76  C   UNL A   1      46.616  33.285  26.451  1.00  0.00     0.060 A 
BRANCH  76  77
ATOM     77  S   UNL A   1      46.701  35.050  26.116  1.00  0.00     0.124 S 
ATOM     78  O   UNL A   1      45.397  35.298  25.514  1.00  0.00    -0.237 OA
ATOM     79  O   UNL A   1      46.906  35.597  27.453  1.00  0.00    -0.237 OA
ATOM     80  O   UNL A   1      47.846  35.168  25.217  1.00  0.00    -0.744 OA
ENDBRANCH  76  77
ENDBRANCH  55  69
BRANCH  56  81
ATOM     81  C   UNL A   1      38.287  29.145  29.464  1.00  0.00     0.058 A 
ATOM     82  C   UNL A   1      37.394  29.416  30.522  1.00  0.00     0.135 A 
ATOM     83  C   UNL A   1      38.024  29.800  28.247  1.00  0.00     0.135 A 
ATOM     84  F   UNL A   1      37.565  28.828  31.715  1.00  0.00    -0.206 F 
ATOM     85  C   UNL A   1      36.375  30.367  30.416  1.00  0.00     0.059 A 
ATOM     86  C   UNL A   1      37.007  30.750  28.116  1.00  0.00     0.059 A 
ATOM     87  F   UNL A   1      38.818  29.616  27.182  1.00  0.00    -0.206 F 
ATOM     88  C   UNL A   1      36.215  31.059  29.219  1.00  0.00     0.060 A 
BRANCH  88  89
ATOM     89  S   UNL A   1      35.066  32.458  29.157  1.00  0.00     0.124 S 
ATOM     90  O   UNL A   1      34.214  32.101  28.028  1.00  0.00    -0.237 OA
ATOM     91  O   UNL A   1      34.439  32.397  30.473  1.00  0.00    -0.237 OA
ATOM     92  O   UNL A   1      35.942  33.606  28.940  1.00  0.00    -0.744 OA
ENDBRANCH  88  89
ENDBRANCH  56  81
BRANCH  68  93
ATOM     93  C   UNL A   1      43.556  27.863  32.752  1.00  0.00     0.058 A 
ATOM     94  C   UNL A   1      43.587  26.458  32.710  1.00  0.00     0.135 A 
ATOM     95  C   UNL A   1      43.381  28.467  34.006  1.00  0.00     0.135 A 
ATOM     96  F   UNL A   1      43.827  25.807  31.563  1.00  0.00    -0.206 F 
ATOM     97  C   UNL A   1      43.408  25.691  33.866  1.00  0.00     0.059 A 
ATOM     98  C   UNL A   1      43.234  27.726  35.170  1.00  0.00     0.059 A 
ATOM     99  F   UNL A   1      43.388  29.807  34.111  1.00  0.00    -0.206 F 
ATOM    100  C   UNL A   1      43.230  26.337  35.092  1.00  0.00     0.060 A 
BRANCH 100 101
ATOM    101  S   UNL A   1      43.027  25.357  36.594  1.00  0.00     0.124 S 
ATOM    102  O   UNL A   1      42.845  26.386  37.613  1.00  0.00    -0.237 OA
ATOM    103  O   UNL A   1      41.848  24.551  36.289  1.00  0.00    -0.237 OA
ATOM    104  O   UNL A   1      44.277  24.606  36.686  1.00  0.00    -0.744 OA
ENDBRANCH 100 101
ENDBRANCH  68  93
ENDBRANCH  42  43
ENDBRANCH  35  37
ENDBRANCH  34  35
ENDBRANCH  33  34
ENDBRANCH  32  33
ENDBRANCH  31  32
ENDBRANCH  30  31
ENDBRANCH   1  30
TORSDOF 24
ENDMDL
MODEL 2
REMARK VINA RESULT:     -10.9      2.664      4.231
REMARK SMILES C[C@H]1CCc2sc3ncn4nc(/C=C\C(=O)OCCOCCOCCOCCOC(=O)c5ccc(-c6c7nc(c(-c8c(F)cc(S(=O)(=O)[O-])cc8F)c8ccc([nH]8)c(-c8c(F)cc(S(=O)(=O)[O-])cc8F)c8nc(c(-c9c(F)cc(S(=O)(=O)[O-])cc9F)c9ccc6[nH]9)C=C8)C=C7)cc5)nc4c3c2C1
REMARK SMILES IDX 24 1 23 2 22 3 21 4 20 5 19 6 18 7 17 8 15 9 16 10 14 11
REMARK SMILES IDX 13 12 12 13 1 14 2 15 3 16 102 17 4 18 101 19 5 20 100 21
REMARK SMILES IDX 6 22 7 23 99 24 8 25 10 26 98 27 9 28 11 29 25 30 26 31
REMARK SMILES IDX 27 32 28 33 29 34 30 35 31 36 32 37 33 38 97 39 34 40 96 41
REMARK SMILES IDX 35 42 36 43 37 44 90 45 38 46 95 47 89 48 91 49 39 50 94 51
REMARK SMILES IDX 88 52 87 53 40 55 74 56 53 57 73 58 54 59 57 60 72 61 92 62
REMARK SMILES IDX 55 63 56 64 71 66 93 67 58 68 41 69 42 70 51 71 43 72 44 73
REMARK SMILES IDX 50 74 52 75 45 76 46 77 47 78 48 79 49 80 75 81 76 82 85 83
REMARK SMILES IDX 77 84 78 85 84 86 86 87 79 88 80 89 81 90 82 91 83 92 59 93
REMARK SMILES IDX 60 94 69 95 61 96 62 97 68 98 70 99 63 100 64 101 65 102
REMARK SMILES IDX 66 103 67 104
REMARK H PARENT 91 54 57 65
REMARK Flexibility Score: inf
ROOT
ATOM      1  C   UNL A   1      35.673  21.606  25.775  1.00  0.00     0.188 C 
ENDROOT
BRANCH   1   2
ATOM      2  O   UNL A   1      34.774  21.596  26.861  1.00  0.00    -0.377 OA
BRANCH   2   3
ATOM      3  C   UNL A   1      33.578  20.837  26.752  1.00  0.00     0.188 C 
BRANCH   3   4
ATOM      4  C   UNL A   1      33.131  20.172  25.424  1.00  0.00     0.188 C 
BRANCH   4   5
ATOM      5  O   UNL A   1      31.893  20.634  24.921  1.00  0.00    -0.376 OA
BRANCH   5   6
ATOM      6  C   UNL A   1      31.901  21.454  23.768  1.00  0.00     0.202 C 
BRANCH   6   7
ATOM      7  C   UNL A   1      32.174  22.924  24.041  1.00  0.00     0.261 C 
BRANCH   7   8
ATOM      8  O   UNL A   1      31.357  23.529  25.034  1.00  0.00    -0.460 OA
BRANCH   8   9
ATOM      9  C   UNL A   1      31.900  24.065  26.133  1.00  0.00     0.330 C 
ATOM     10  O   UNL A   1      31.420  24.081  27.243  1.00  0.00    -0.247 OA
BRANCH   9  11
ATOM     11  C   UNL A   1      33.303  24.446  25.832  1.00  0.00     0.097 C 
ATOM     12  C   UNL A   1      33.875  25.654  25.687  1.00  0.00     0.058 C 
BRANCH  12  13
ATOM     13  C   UNL A   1      33.379  26.995  25.823  1.00  0.00     0.175 A 
ATOM     14  C   UNL A   1      27.354  28.646  23.174  1.00  0.00     0.008 C 
ATOM     15  C   UNL A   1      28.588  29.142  22.417  1.00  0.00    -0.009 C 
ATOM     16  C   UNL A   1      28.499  30.629  22.023  1.00  0.00     0.009 C 
ATOM     17  C   UNL A   1      29.873  28.857  23.206  1.00  0.00     0.041 C 
ATOM     18  C   UNL A   1      28.618  31.601  23.217  1.00  0.00     0.047 C 
ATOM     19  C   UNL A   1      30.280  29.915  24.156  1.00  0.00    -0.020 A 
ATOM     20  C   UNL A   1      29.711  31.170  24.152  1.00  0.00     0.011 A 
ATOM     21  C   UNL A   1      31.298  29.821  25.129  1.00  0.00     0.060 A 
ATOM     22  S   UNL A   1      30.366  32.179  25.367  1.00  0.00    -0.120 S 
ATOM     23  C   UNL A   1      31.464  30.965  25.891  1.00  0.00     0.129 A 
ATOM     24  C   UNL A   1      32.213  28.720  25.488  1.00  0.00     0.168 A 
ATOM     25  N   UNL A   1      32.353  31.159  26.925  1.00  0.00    -0.225 NA
ATOM     26  N   UNL A   1      33.103  28.954  26.488  1.00  0.00    -0.201 N 
ATOM     27  N   UNL A   1      32.349  27.492  25.053  1.00  0.00    -0.207 NA
ATOM     28  C   UNL A   1      33.153  30.156  27.194  1.00  0.00     0.227 A 
ATOM     29  N   UNL A   1      33.868  27.870  26.725  1.00  0.00    -0.145 NA
ENDBRANCH  12  13
ENDBRANCH   9  11
ENDBRANCH   8   9
ENDBRANCH   7   8
ENDBRANCH   6   7
ENDBRANCH   5   6
ENDBRANCH   4   5
ENDBRANCH   3   4
ENDBRANCH   2   3
ENDBRANCH   1   2
BRANCH   1  30
ATOM     30  C   UNL A   1      36.671  22.785  25.754  1.00  0.00     0.188 C 
BRANCH  30  31
ATOM     31  O   UNL A   1      38.086  22.642  25.670  1.00  0.00    -0.376 OA
BRANCH  31  32
ATOM     32  C   UNL A   1      38.805  21.428  25.816  1.00  0.00     0.202 C 
BRANCH  32  33
ATOM     33  C   UNL A   1      40.163  21.287  26.494  1.00  0.00     0.261 C 
BRANCH  33  34
ATOM     34  O   UNL A   1      41.069  22.315  26.195  1.00  0.00    -0.460 OA
BRANCH  34  35
ATOM     35  C   UNL A   1      41.429  23.022  27.278  1.00  0.00     0.338 C 
ATOM     36  O   UNL A   1      41.445  22.641  28.437  1.00  0.00    -0.246 OA
BRANCH  35  37
ATOM     37  C   UNL A   1      41.680  24.405  26.854  1.00  0.00     0.060 A 
ATOM     38  C   UNL A   1      42.816  24.950  27.442  1.00  0.00     0.016 A 
ATOM     39  C   UNL A   1      40.578  25.183  26.460  1.00  0.00     0.016 A 
ATOM     40  C   UNL A   1      42.661  26.171  28.036  1.00  0.00     0.010 A 
ATOM     41  C   UNL A   1      40.430  26.409  27.051  1.00  0.00     0.010 A 
ATOM     42  C   UNL A   1      41.420  26.819  27.934  1.00  0.00    -0.014 A 
BRANCH  42  43
ATOM     43  C   UNL A   1      41.259  28.044  28.678  1.00  0.00     0.031 A 
ATOM     44  C   UNL A   1      42.317  28.994  28.292  1.00  0.00     0.074 A 
ATOM     45  C   UNL A   1      40.271  28.257  29.567  1.00  0.00     0.049 A 
ATOM     46  N   UNL A   1      43.417  29.216  28.927  1.00  0.00    -0.248 NA
ATOM     47  C   UNL A   1      42.303  29.510  26.912  1.00  0.00     0.031 C 
ATOM     48  C   UNL A   1      39.073  27.453  29.823  1.00  0.00     0.029 A 
ATOM     49  N   UNL A   1      40.106  29.317  30.403  1.00  0.00    -0.354 N 
ATOM     50  C   UNL A   1      44.098  30.138  28.146  1.00  0.00     0.074 A 
ATOM     51  C   UNL A   1      43.511  30.071  26.836  1.00  0.00     0.031 C 
ATOM     52  C   UNL A   1      38.199  28.174  30.570  1.00  0.00     0.029 A 
ATOM     53  C   UNL A   1      38.838  29.414  30.975  1.00  0.00     0.049 A 
ATOM     54  H   UNL A   1      40.824  29.963  30.590  1.00  0.00     0.167 HD
ATOM     55  C   UNL A   1      44.825  31.121  28.741  1.00  0.00     0.037 A 
ATOM     56  C   UNL A   1      38.381  30.478  31.688  1.00  0.00     0.037 A 
ATOM     57  C   UNL A   1      45.059  30.807  30.129  1.00  0.00     0.049 A 
ATOM     58  C   UNL A   1      39.584  31.196  32.180  1.00  0.00     0.074 A 
ATOM     59  C   UNL A   1      45.823  29.900  30.832  1.00  0.00     0.029 A 
ATOM     60  N   UNL A   1      44.065  31.241  30.969  1.00  0.00    -0.354 N 
ATOM     61  N   UNL A   1      40.407  30.699  33.061  1.00  0.00    -0.248 NA
ATOM     62  C   UNL A   1      40.098  32.319  31.407  1.00  0.00     0.031 C 
ATOM     63  C   UNL A   1      45.110  29.639  32.041  1.00  0.00     0.029 A 
ATOM     64  C   UNL A   1      43.965  30.434  32.069  1.00  0.00     0.049 A 
ATOM     65  H   UNL A   1      43.499  32.028  30.801  1.00  0.00     0.167 HD
ATOM     66  C   UNL A   1      41.654  31.154  32.668  1.00  0.00     0.074 A 
ATOM     67  C   UNL A   1      41.386  32.261  31.756  1.00  0.00     0.031 C 
ATOM     68  C   UNL A   1      42.763  30.388  32.877  1.00  0.00     0.037 A 
BRANCH  55  69
ATOM     69  C   UNL A   1      44.847  32.548  28.240  1.00  0.00     0.058 A 
ATOM     70  C   UNL A   1      46.073  33.111  27.839  1.00  0.00     0.135 A 
ATOM     71  C   UNL A   1      43.783  33.465  28.411  1.00  0.00     0.135 A 
ATOM     72  F   UNL A   1      47.160  32.338  27.681  1.00  0.00    -0.206 F 
ATOM     73  C   UNL A   1      46.237  34.485  27.657  1.00  0.00     0.059 A 
ATOM     74  C   UNL A   1      43.911  34.828  28.180  1.00  0.00     0.059 A 
ATOM     75  F   UNL A   1      42.594  33.112  28.908  1.00  0.00    -0.206 F 
ATOM     76  C   UNL A   1      45.149  35.335  27.833  1.00  0.00     0.060 A 
BRANCH  76  77
ATOM     77  S   UNL A   1      45.364  37.111  27.648  1.00  0.00     0.124 S 
ATOM     78  O   UNL A   1      44.005  37.541  27.341  1.00  0.00    -0.237 OA
ATOM     79  O   UNL A   1      45.876  37.488  28.961  1.00  0.00    -0.237 OA
ATOM     80  O   UNL A   1      46.325  37.222  26.553  1.00  0.00    -0.744 OA
ENDBRANCH  76  77
ENDBRANCH  55  69
BRANCH  56  81
ATOM     81  C   UNL A   1      37.052  31.148  31.677  1.00  0.00     0.058 A 
ATOM     82  C   UNL A   1      36.479  31.602  32.884  1.00  0.00     0.135 A 
ATOM     83  C   UNL A   1      36.511  31.683  30.495  1.00  0.00     0.135 A 
ATOM     84  F   UNL A   1      36.929  31.138  34.059  1.00  0.00    -0.206 F 
ATOM     85  C   UNL A   1      35.514  32.612  32.921  1.00  0.00     0.059 A 
ATOM     86  C   UNL A   1      35.540  32.689  30.507  1.00  0.00     0.059 A 
ATOM     87  F   UNL A   1      36.990  31.323  29.295  1.00  0.00    -0.206 F 
ATOM     88  C   UNL A   1      35.079  33.178  31.726  1.00  0.00     0.060 A 
BRANCH  88  89
ATOM     89  S   UNL A   1      34.020  34.647  31.782  1.00  0.00     0.124 S 
ATOM     90  O   UNL A   1      34.971  35.691  32.151  1.00  0.00    -0.237 OA
ATOM     91  O   UNL A   1      33.507  34.707  30.417  1.00  0.00    -0.237 OA
ATOM     92  O   UNL A   1      33.032  34.313  32.803  1.00  0.00    -0.744 OA
ENDBRANCH  88  89
ENDBRANCH  56  81
BRANCH  68  93
ATOM     93  C   UNL A   1      42.689  29.354  33.963  1.00  0.00     0.058 A 
ATOM     94  C   UNL A   1      42.997  29.563  35.318  1.00  0.00     0.135 A 
ATOM     95  C   UNL A   1      42.204  28.088  33.601  1.00  0.00     0.135 A 
ATOM     96  F   UNL A   1      43.392  30.768  35.758  1.00  0.00    -0.206 F 
ATOM     97  C   UNL A   1      42.867  28.540  36.262  1.00  0.00     0.059 A 
ATOM     98  C   UNL A   1      42.036  27.067  34.526  1.00  0.00     0.059 A 
ATOM     99  F   UNL A   1      41.852  27.845  32.327  1.00  0.00    -0.206 F 
ATOM    100  C   UNL A   1      42.387  27.293  35.853  1.00  0.00     0.060 A 
BRANCH 100 101
ATOM    101  S   UNL A   1      42.187  25.972  37.068  1.00  0.00     0.124 S 
ATOM    102  O   UNL A   1      40.738  25.921  37.234  1.00  0.00    -0.237 OA
ATOM    103  O   UNL A   1      42.790  24.827  36.392  1.00  0.00    -0.237 OA
ATOM    104  O   UNL A   1      42.929  26.460  38.229  1.00  0.00    -0.744 OA
ENDBRANCH 100 101
ENDBRANCH  68  93
ENDBRANCH  42  43
ENDBRANCH  35  37
ENDBRANCH  34  35
ENDBRANCH  33  34
ENDBRANCH  32  33
ENDBRANCH  31  32
ENDBRANCH  30  31
ENDBRANCH   1  30
TORSDOF 24
ENDMDL
MODEL 3
REMARK VINA RESULT:     -10.9      2.757     10.111
REMARK SMILES C[C@H]1CCc2sc3ncn4nc(/C=C\C(=O)OCCOCCOCCOCCOC(=O)c5ccc(-c6c7nc(c(-c8c(F)cc(S(=O)(=O)[O-])cc8F)c8ccc([nH]8)c(-c8c(F)cc(S(=O)(=O)[O-])cc8F)c8nc(c(-c9c(F)cc(S(=O)(=O)[O-])cc9F)c9ccc6[nH]9)C=C8)C=C7)cc5)nc4c3c2C1
REMARK SMILES IDX 24 1 23 2 22 3 21 4 20 5 19 6 18 7 17 8 15 9 16 10 14 11
REMARK SMILES IDX 13 12 12 13 1 14 2 15 3 16 102 17 4 18 101 19 5 20 100 21
REMARK SMILES IDX 6 22 7 23 99 24 8 25 10 26 98 27 9 28 11 29 25 30 26 31
REMARK SMILES IDX 27 32 28 33 29 34 30 35 31 36 32 37 33 38 97 39 34 40 96 41
REMARK SMILES IDX 35 42 36 43 37 44 90 45 38 46 95 47 89 48 91 49 39 50 94 51
REMARK SMILES IDX 88 52 87 53 40 55 74 56 53 57 73 58 54 59 57 60 72 61 92 62
REMARK SMILES IDX 55 63 56 64 71 66 93 67 58 68 41 69 42 70 51 71 43 72 44 73
REMARK SMILES IDX 50 74 52 75 45 76 46 77 47 78 48 79 49 80 75 81 76 82 85 83
REMARK SMILES IDX 77 84 78 85 84 86 86 87 79 88 80 89 81 90 82 91 83 92 59 93
REMARK SMILES IDX 60 94 69 95 61 96 62 97 68 98 70 99 63 100 64 101 65 102
REMARK SMILES IDX 66 103 67 104
REMARK H PARENT 91 54 57 65
REMARK Flexibility Score: inf
ROOT
ATOM      1  C   UNL A   1      34.564  34.593  28.620  1.00  0.00     0.188 C 
ENDROOT
BRANCH   1   2
ATOM      2  O   UNL A   1      34.535  33.591  27.629  1.00  0.00    -0.377 OA
BRANCH   2   3
ATOM      3  C   UNL A   1      35.255  32.387  27.852  1.00  0.00     0.188 C 
BRANCH   3   4
ATOM      4  C   UNL A   1      34.568  30.997  27.878  1.00  0.00     0.188 C 
BRANCH   4   5
ATOM      5  O   UNL A   1      33.590  30.804  26.876  1.00  0.00    -0.376 OA
BRANCH   5   6
ATOM      6  C   UNL A   1      32.348  30.238  27.250  1.00  0.00     0.202 C 
BRANCH   6   7
ATOM      7  C   UNL A   1      31.789  29.231  26.258  1.00  0.00     0.261 C 
BRANCH   7   8
ATOM      8  O   UNL A   1      32.198  29.403  24.908  1.00  0.00    -0.460 OA
BRANCH   8   9
ATOM      9  C   UNL A   1      31.313  29.315  23.909  1.00  0.00     0.330 C 
ATOM     10  O   UNL A   1      30.181  29.742  23.905  1.00  0.00    -0.247 OA
BRANCH   9  11
ATOM     11  C   UNL A   1      32.010  28.806  22.701  1.00  0.00     0.097 C 
ATOM     12  C   UNL A   1      32.425  27.568  22.380  1.00  0.00     0.058 C 
BRANCH  12  13
ATOM     13  C   UNL A   1      32.303  26.295  23.033  1.00  0.00     0.175 A 
ATOM     14  C   UNL A   1      37.778  23.377  25.782  1.00  0.00     0.008 C 
ATOM     15  C   UNL A   1      37.284  22.786  24.460  1.00  0.00    -0.009 C 
ATOM     16  C   UNL A   1      37.190  21.248  24.483  1.00  0.00     0.009 C 
ATOM     17  C   UNL A   1      35.950  23.413  24.037  1.00  0.00     0.041 C 
ATOM     18  C   UNL A   1      36.043  20.704  25.363  1.00  0.00     0.047 C 
ATOM     19  C   UNL A   1      34.741  22.738  24.558  1.00  0.00    -0.020 A 
ATOM     20  C   UNL A   1      34.786  21.497  25.154  1.00  0.00     0.011 A 
ATOM     21  C   UNL A   1      33.415  23.217  24.480  1.00  0.00     0.060 A 
ATOM     22  S   UNL A   1      33.243  20.973  25.671  1.00  0.00    -0.120 S 
ATOM     23  C   UNL A   1      32.474  22.382  25.057  1.00  0.00     0.129 A 
ATOM     24  C   UNL A   1      32.851  24.453  23.902  1.00  0.00     0.168 A 
ATOM     25  N   UNL A   1      31.117  22.595  25.159  1.00  0.00    -0.225 NA
ATOM     26  N   UNL A   1      31.504  24.618  23.985  1.00  0.00    -0.201 N 
ATOM     27  N   UNL A   1      33.389  25.495  23.320  1.00  0.00    -0.207 NA
ATOM     28  C   UNL A   1      30.664  23.701  24.616  1.00  0.00     0.227 A 
ATOM     29  N   UNL A   1      31.120  25.787  23.434  1.00  0.00    -0.145 NA
ENDBRANCH  12  13
ENDBRANCH   9  11
ENDBRANCH   8   9
ENDBRANCH   7   8
ENDBRANCH   6   7
ENDBRANCH   5   6
ENDBRANCH   4   5
ENDBRANCH   3   4
ENDBRANCH   2   3
ENDBRANCH   1   2
BRANCH   1  30
ATOM     30  C   UNL A   1      33.282  34.712  29.475  1.00  0.00     0.188 C 
BRANCH  30  31
ATOM     31  O   UNL A   1      33.266  34.773  30.898  1.00  0.00    -0.376 OA
BRANCH  31  32
ATOM     32  C   UNL A   1      34.403  34.706  31.742  1.00  0.00     0.202 C 
BRANCH  32  33
ATOM     33  C   UNL A   1      34.855  33.470  32.511  1.00  0.00     0.261 C 
BRANCH  33  34
ATOM     34  O   UNL A   1      34.991  32.316  31.726  1.00  0.00    -0.460 OA
BRANCH  34  35
ATOM     35  C   UNL A   1      36.044  31.564  32.083  1.00  0.00     0.338 C 
ATOM     36  O   UNL A   1      36.461  31.368  33.213  1.00  0.00    -0.246 OA
BRANCH  35  37
ATOM     37  C   UNL A   1      36.714  31.110  30.858  1.00  0.00     0.060 A 
ATOM     38  C   UNL A   1      36.652  29.732  30.691  1.00  0.00     0.016 A 
ATOM     39  C   UNL A   1      37.769  31.892  30.358  1.00  0.00     0.016 A 
ATOM     40  C   UNL A   1      37.837  29.100  30.431  1.00  0.00     0.010 A 
ATOM     41  C   UNL A   1      38.952  31.256  30.091  1.00  0.00     0.010 A 
ATOM     42  C   UNL A   1      38.992  29.879  30.263  1.00  0.00    -0.014 A 
BRANCH  42  43
ATOM     43  C   UNL A   1      40.241  29.171  30.116  1.00  0.00     0.031 A 
ATOM     44  C   UNL A   1      40.842  28.958  31.445  1.00  0.00     0.074 A 
ATOM     45  C   UNL A   1      40.738  28.764  28.934  1.00  0.00     0.049 A 
ATOM     46  N   UNL A   1      41.766  29.673  31.991  1.00  0.00    -0.248 NA
ATOM     47  C   UNL A   1      40.133  28.072  32.383  1.00  0.00     0.031 C 
ATOM     48  C   UNL A   1      40.089  28.741  27.620  1.00  0.00     0.029 A 
ATOM     49  N   UNL A   1      41.952  28.208  28.679  1.00  0.00    -0.354 N 
ATOM     50  C   UNL A   1      41.949  29.117  33.248  1.00  0.00     0.074 A 
ATOM     51  C   UNL A   1      40.770  28.342  33.524  1.00  0.00     0.031 C 
ATOM     52  C   UNL A   1      40.824  27.983  26.768  1.00  0.00     0.029 A 
ATOM     53  C   UNL A   1      42.064  27.606  27.426  1.00  0.00     0.049 A 
ATOM     54  H   UNL A   1      42.693  28.227  29.326  1.00  0.00     0.167 HD
ATOM     55  C   UNL A   1      43.198  29.048  33.780  1.00  0.00     0.037 A 
ATOM     56  C   UNL A   1      43.104  26.830  27.021  1.00  0.00     0.037 A 
ATOM     57  C   UNL A   1      44.100  29.920  33.070  1.00  0.00     0.049 A 
ATOM     58  C   UNL A   1      44.255  27.193  27.887  1.00  0.00     0.074 A 
ATOM     59  C   UNL A   1      44.289  31.281  32.956  1.00  0.00     0.029 A 
ATOM     60  N   UNL A   1      44.694  29.333  31.982  1.00  0.00    -0.354 N 
ATOM     61  N   UNL A   1      44.843  28.356  27.850  1.00  0.00    -0.248 NA
ATOM     62  C   UNL A   1      44.518  26.396  29.078  1.00  0.00     0.031 C 
ATOM     63  C   UNL A   1      44.815  31.497  31.647  1.00  0.00     0.029 A 
ATOM     64  C   UNL A   1      44.986  30.262  31.021  1.00  0.00     0.049 A 
ATOM     65  H   UNL A   1      44.885  28.371  31.903  1.00  0.00     0.167 HD
ATOM     66  C   UNL A   1      45.193  28.611  29.164  1.00  0.00     0.074 A 
ATOM     67  C   UNL A   1      45.115  27.319  29.837  1.00  0.00     0.031 C 
ATOM     68  C   UNL A   1      45.205  29.890  29.638  1.00  0.00     0.037 A 
BRANCH  55  69
ATOM     69  C   UNL A   1      43.703  27.844  34.543  1.00  0.00     0.058 A 
ATOM     70  C   UNL A   1      44.255  28.031  35.825  1.00  0.00     0.135 A 
ATOM     71  C   UNL A   1      43.933  26.574  33.962  1.00  0.00     0.135 A 
ATOM     72  F   UNL A   1      44.128  29.209  36.457  1.00  0.00    -0.206 F 
ATOM     73  C   UNL A   1      45.009  27.044  36.462  1.00  0.00     0.059 A 
ATOM     74  C   UNL A   1      44.631  25.560  34.602  1.00  0.00     0.059 A 
ATOM     75  F   UNL A   1      43.587  26.280  32.704  1.00  0.00    -0.206 F 
ATOM     76  C   UNL A   1      45.192  25.812  35.840  1.00  0.00     0.060 A 
BRANCH  76  77
ATOM     77  S   UNL A   1      46.202  24.552  36.633  1.00  0.00     0.124 S 
ATOM     78  O   UNL A   1      46.614  23.744  35.491  1.00  0.00    -0.237 OA
ATOM     79  O   UNL A   1      47.244  25.357  37.260  1.00  0.00    -0.237 OA
ATOM     80  O   UNL A   1      45.274  23.910  37.560  1.00  0.00    -0.744 OA
ENDBRANCH  76  77
ENDBRANCH  55  69
BRANCH  56  81
ATOM     81  C   UNL A   1      43.117  25.564  26.237  1.00  0.00     0.058 A 
ATOM     82  C   UNL A   1      44.106  25.351  25.254  1.00  0.00     0.135 A 
ATOM     83  C   UNL A   1      42.427  24.421  26.680  1.00  0.00     0.135 A 
ATOM     84  F   UNL A   1      44.807  26.386  24.768  1.00  0.00    -0.206 F 
ATOM     85  C   UNL A   1      44.472  24.072  24.825  1.00  0.00     0.059 A 
ATOM     86  C   UNL A   1      42.770  23.133  26.260  1.00  0.00     0.059 A 
ATOM     87  F   UNL A   1      41.473  24.515  27.619  1.00  0.00    -0.206 F 
ATOM     88  C   UNL A   1      43.823  22.964  25.365  1.00  0.00     0.060 A 
BRANCH  88  89
ATOM     89  S   UNL A   1      44.459  21.308  24.999  1.00  0.00     0.124 S 
ATOM     90  O   UNL A   1      44.528  21.325  23.542  1.00  0.00    -0.237 OA
ATOM     91  O   UNL A   1      45.739  21.310  25.698  1.00  0.00    -0.237 OA
ATOM     92  O   UNL A   1      43.444  20.424  25.565  1.00  0.00    -0.744 OA
ENDBRANCH  88  89
ENDBRANCH  56  81
BRANCH  68  93
ATOM     93  C   UNL A   1      45.355  30.994  28.631  1.00  0.00     0.058 A 
ATOM     94  C   UNL A   1      44.304  31.634  27.953  1.00  0.00     0.135 A 
ATOM     95  C   UNL A   1      46.655  31.468  28.400  1.00  0.00     0.135 A 
ATOM     96  F   UNL A   1      43.027  31.291  28.177  1.00  0.00    -0.206 F 
ATOM     97  C   UNL A   1      44.546  32.676  27.051  1.00  0.00     0.059 A 
ATOM     98  C   UNL A   1      46.916  32.521  27.535  1.00  0.00     0.059 A 
ATOM     99  F   UNL A   1      47.694  30.922  29.055  1.00  0.00    -0.206 F 
ATOM    100  C   UNL A   1      45.858  33.110  26.849  1.00  0.00     0.060 A 
BRANCH 100 101
ATOM    101  S   UNL A   1      46.180  34.473  25.709  1.00  0.00     0.124 S 
ATOM    102  O   UNL A   1      47.594  34.289  25.398  1.00  0.00    -0.237 OA
ATOM    103  O   UNL A   1      45.249  34.199  24.618  1.00  0.00    -0.237 OA
ATOM    104  O   UNL A   1      45.867  35.662  26.499  1.00  0.00    -0.744 OA
ENDBRANCH 100 101
ENDBRANCH  68  93
ENDBRANCH  42  43
ENDBRANCH  35  37
ENDBRANCH  34  35
ENDBRANCH  33  34
ENDBRANCH  32  33
ENDBRANCH  31  32
ENDBRANCH  30  31
ENDBRANCH   1  30
TORSDOF 24
ENDMDL
