MODEL 1
REMARK VINA RESULT:      -9.4      0.000      0.000
REMARK SMILES O=C(OCCOCCOCCOCCOC(=O)c1nn(-c2ccc(Br)cc2F)cc1CCCO)c1ccc(-c2c3nc(c(-c4c(F)cc(S(=O)(=O)[O-])cc4F)c4ccc([nH]4)c(-c4c(F)cc(S(=O)(=O)[O-])cc4F)c4nc(c(-c5c(F)cc(S(=O)(=O)[O-])cc5F)c5ccc2[nH]5)C=C4)C=C3)cc1
REMARK SMILES IDX 10 1 9 2 8 3 7 4 6 5 5 6 4 7 3 8 2 9 1 10 35 11 36 12 100 13
REMARK SMILES IDX 37 14 99 15 38 16 39 17 40 18 93 19 41 20 98 21 92 22 94 23
REMARK SMILES IDX 42 24 97 25 91 26 90 27 43 29 77 30 56 31 76 32 57 33 60 34
REMARK SMILES IDX 75 35 95 36 58 37 59 38 74 40 96 41 61 42 44 43 45 44 54 45
REMARK SMILES IDX 46 46 47 47 53 48 55 49 48 50 49 51 50 52 51 53 52 54 78 55
REMARK SMILES IDX 79 56 88 57 80 58 81 59 87 60 89 61 82 62 83 63 84 64 85 65
REMARK SMILES IDX 86 66 62 67 63 68 72 69 64 70 65 71 71 72 73 73 66 74 67 75
REMARK SMILES IDX 68 76 69 77 70 78 11 79 12 80 13 81 14 82 15 83 16 84 17 85
REMARK SMILES IDX 18 86 19 87 30 88 20 89 29 90 31 91 32 92 33 93 34 94 21 96
REMARK SMILES IDX 22 97 27 98 23 99 26 100 28 101 24 102 25 103
REMARK H PARENT 94 28 60 39 34 95
REMARK Flexibility Score: inf
ROOT
ATOM      1  C   UNL A   1      31.504  28.651  23.048  1.00  0.00     0.188 C 
ENDROOT
BRANCH   1   2
ATOM      2  O   UNL A   1      31.684  29.435  24.204  1.00  0.00    -0.377 OA
BRANCH   2   3
ATOM      3  C   UNL A   1      32.817  29.042  24.966  1.00  0.00     0.188 C 
BRANCH   3   4
ATOM      4  C   UNL A   1      32.886  29.402  26.469  1.00  0.00     0.188 C 
BRANCH   4   5
ATOM      5  O   UNL A   1      32.592  30.650  27.102  1.00  0.00    -0.376 OA
BRANCH   5   6
ATOM      6  C   UNL A   1      31.566  31.591  26.859  1.00  0.00     0.202 C 
BRANCH   6   7
ATOM      7  C   UNL A   1      31.888  33.055  26.585  1.00  0.00     0.261 C 
BRANCH   7   8
ATOM      8  O   UNL A   1      31.886  33.845  27.766  1.00  0.00    -0.460 OA
BRANCH   8   9
ATOM      9  C   UNL A   1      32.942  34.209  28.520  1.00  0.00     0.338 C 
ATOM     10  O   UNL A   1      32.910  35.326  29.040  1.00  0.00    -0.246 OA
BRANCH   9  11
ATOM     11  C   UNL A   1      34.161  33.380  28.740  1.00  0.00     0.060 A 
ATOM     12  C   UNL A   1      34.464  32.608  29.866  1.00  0.00     0.016 A 
ATOM     13  C   UNL A   1      35.105  33.444  27.699  1.00  0.00     0.016 A 
ATOM     14  C   UNL A   1      35.752  32.172  30.082  1.00  0.00     0.010 A 
ATOM     15  C   UNL A   1      36.380  32.953  27.877  1.00  0.00     0.010 A 
ATOM     16  C   UNL A   1      36.715  32.432  29.119  1.00  0.00    -0.014 A 
BRANCH  16  17
ATOM     17  C   UNL A   1      38.086  32.132  29.468  1.00  0.00     0.031 A 
ATOM     18  C   UNL A   1      38.493  30.737  29.183  1.00  0.00     0.074 A 
ATOM     19  C   UNL A   1      38.884  33.103  29.953  1.00  0.00     0.049 A 
ATOM     20  N   UNL A   1      38.893  29.833  30.014  1.00  0.00    -0.248 NA
ATOM     21  C   UNL A   1      38.265  30.236  27.817  1.00  0.00     0.031 C 
ATOM     22  C   UNL A   1      38.586  34.539  30.028  1.00  0.00     0.029 A 
ATOM     23  N   UNL A   1      40.176  33.041  30.362  1.00  0.00    -0.354 N 
ATOM     24  C   UNL A   1      39.225  28.735  29.228  1.00  0.00     0.074 A 
ATOM     25  C   UNL A   1      38.623  28.958  27.941  1.00  0.00     0.031 C 
ATOM     26  C   UNL A   1      39.738  35.219  30.194  1.00  0.00     0.029 A 
ATOM     27  C   UNL A   1      40.825  34.270  30.354  1.00  0.00     0.049 A 
ATOM     28  H   UNL A   1      40.613  32.203  30.638  1.00  0.00     0.167 HD
ATOM     29  C   UNL A   1      40.231  27.896  29.596  1.00  0.00     0.037 A 
ATOM     30  C   UNL A   1      42.166  34.474  30.365  1.00  0.00     0.037 A 
ATOM     31  C   UNL A   1      40.456  27.947  31.021  1.00  0.00     0.049 A 
ATOM     32  C   UNL A   1      42.796  33.218  30.858  1.00  0.00     0.074 A 
ATOM     33  C   UNL A   1      39.653  27.767  32.132  1.00  0.00     0.029 A 
ATOM     34  N   UNL A   1      41.585  28.583  31.478  1.00  0.00    -0.354 N 
ATOM     35  N   UNL A   1      42.669  32.766  32.076  1.00  0.00    -0.248 NA
ATOM     36  C   UNL A   1      43.196  32.225  29.870  1.00  0.00     0.031 C 
ATOM     37  C   UNL A   1      40.116  28.720  33.085  1.00  0.00     0.029 A 
ATOM     38  C   UNL A   1      41.213  29.380  32.530  1.00  0.00     0.049 A 
ATOM     39  H   UNL A   1      42.496  28.485  31.116  1.00  0.00     0.167 HD
ATOM     40  C   UNL A   1      42.546  31.391  31.936  1.00  0.00     0.074 A 
ATOM     41  C   UNL A   1      42.979  31.109  30.570  1.00  0.00     0.031 C 
ATOM     42  C   UNL A   1      41.835  30.649  32.837  1.00  0.00     0.037 A 
BRANCH  29  43
ATOM     43  C   UNL A   1      41.272  27.389  28.618  1.00  0.00     0.058 A 
ATOM     44  C   UNL A   1      41.442  25.999  28.458  1.00  0.00     0.135 A 
ATOM     45  C   UNL A   1      42.302  28.191  28.069  1.00  0.00     0.135 A 
ATOM     46  F   UNL A   1      40.528  25.140  28.936  1.00  0.00    -0.206 F 
ATOM     47  C   UNL A   1      42.592  25.447  27.891  1.00  0.00     0.059 A 
ATOM     48  C   UNL A   1      43.428  27.663  27.452  1.00  0.00     0.059 A 
ATOM     49  F   UNL A   1      42.329  29.522  28.183  1.00  0.00    -0.206 F 
ATOM     50  C   UNL A   1      43.589  26.291  27.412  1.00  0.00     0.060 A 
BRANCH  50  51
ATOM     51  S   UNL A   1      45.129  25.594  26.796  1.00  0.00     0.124 S 
ATOM     52  O   UNL A   1      45.262  26.284  25.518  1.00  0.00    -0.237 OA
ATOM     53  O   UNL A   1      46.073  25.981  27.837  1.00  0.00    -0.237 OA
ATOM     54  O   UNL A   1      44.841  24.164  26.718  1.00  0.00    -0.744 OA
ENDBRANCH  50  51
ENDBRANCH  29  43
BRANCH  30  55
ATOM     55  C   UNL A   1      42.925  35.535  29.648  1.00  0.00     0.058 A 
ATOM     56  C   UNL A   1      42.622  35.864  28.315  1.00  0.00     0.135 A 
ATOM     57  C   UNL A   1      43.784  36.429  30.323  1.00  0.00     0.135 A 
ATOM     58  F   UNL A   1      41.796  35.086  27.599  1.00  0.00    -0.206 F 
ATOM     59  C   UNL A   1      43.100  37.030  27.706  1.00  0.00     0.059 A 
ATOM     60  C   UNL A   1      44.289  37.584  29.731  1.00  0.00     0.059 A 
ATOM     61  F   UNL A   1      44.092  36.262  31.617  1.00  0.00    -0.206 F 
ATOM     62  C   UNL A   1      43.920  37.895  28.429  1.00  0.00     0.060 A 
BRANCH  62  63
ATOM     63  S   UNL A   1      44.397  39.486  27.714  1.00  0.00     0.124 S 
ATOM     64  O   UNL A   1      45.835  39.318  27.538  1.00  0.00    -0.237 OA
ATOM     65  O   UNL A   1      43.605  39.525  26.491  1.00  0.00    -0.237 OA
ATOM     66  O   UNL A   1      44.003  40.450  28.739  1.00  0.00    -0.744 OA
ENDBRANCH  62  63
ENDBRANCH  30  55
BRANCH  42  67
ATOM     67  C   UNL A   1      41.476  31.279  34.158  1.00  0.00     0.058 A 
ATOM     68  C   UNL A   1      42.315  31.306  35.286  1.00  0.00     0.135 A 
ATOM     69  C   UNL A   1      40.278  32.006  34.235  1.00  0.00     0.135 A 
ATOM     70  F   UNL A   1      43.528  30.737  35.260  1.00  0.00    -0.206 F 
ATOM     71  C   UNL A   1      41.952  31.978  36.456  1.00  0.00     0.059 A 
ATOM     72  C   UNL A   1      39.912  32.712  35.377  1.00  0.00     0.059 A 
ATOM     73  F   UNL A   1      39.465  32.077  33.168  1.00  0.00    -0.206 F 
ATOM     74  C   UNL A   1      40.746  32.678  36.492  1.00  0.00     0.060 A 
BRANCH  74  75
ATOM     75  S   UNL A   1      40.306  33.598  37.982  1.00  0.00     0.124 S 
ATOM     76  O   UNL A   1      39.675  32.570  38.802  1.00  0.00    -0.237 OA
ATOM     77  O   UNL A   1      41.603  34.080  38.453  1.00  0.00    -0.237 OA
ATOM     78  O   UNL A   1      39.409  34.640  37.487  1.00  0.00    -0.744 OA
ENDBRANCH  74  75
ENDBRANCH  42  67
ENDBRANCH  16  17
ENDBRANCH   9  11
ENDBRANCH   8   9
ENDBRANCH   7   8
ENDBRANCH   6   7
ENDBRANCH   5   6
ENDBRANCH   4   5
ENDBRANCH   3   4
ENDBRANCH   2   3
ENDBRANCH   1   2
BRANCH   1  79
ATOM     79  C   UNL A   1      30.023  28.327  22.878  1.00  0.00     0.188 C 
BRANCH  79  80
ATOM     80  O   UNL A   1      29.565  27.084  23.360  1.00  0.00    -0.376 OA
BRANCH  80  81
ATOM     81  C   UNL A   1      30.029  26.559  24.588  1.00  0.00     0.202 C 
BRANCH  81  82
ATOM     82  C   UNL A   1      30.577  25.134  24.778  1.00  0.00     0.261 C 
BRANCH  82  83
ATOM     83  O   UNL A   1      31.822  24.967  25.463  1.00  0.00    -0.458 OA
BRANCH  83  84
ATOM     84  C   UNL A   1      32.219  23.753  25.925  1.00  0.00     0.359 C 
ATOM     85  O   UNL A   1      31.628  23.096  26.776  1.00  0.00    -0.244 OA
BRANCH  84  86
ATOM     86  C   UNL A   1      33.429  23.320  25.201  1.00  0.00     0.173 A 
ATOM     87  N   UNL A   1      34.557  23.154  25.914  1.00  0.00    -0.160 NA
ATOM     88  C   UNL A   1      33.685  23.137  23.793  1.00  0.00     0.006 A 
ATOM     89  N   UNL A   1      35.548  23.042  25.010  1.00  0.00    -0.237 N 
ATOM     90  C   UNL A   1      35.069  23.082  23.729  1.00  0.00     0.119 A 
BRANCH  88  91
ATOM     91  C   UNL A   1      32.817  23.094  22.561  1.00  0.00     0.042 C 
BRANCH  91  92
ATOM     92  C   UNL A   1      33.269  23.959  21.379  1.00  0.00     0.033 C 
BRANCH  92  93
ATOM     93  C   UNL A   1      32.713  25.378  21.353  1.00  0.00     0.156 C 
BRANCH  93  94
ATOM     94  O   UNL A   1      33.765  26.303  21.587  1.00  0.00    -0.396 OA
ATOM     95  H   UNL A   1      33.781  26.543  22.527  1.00  0.00     0.210 HD
ENDBRANCH  93  94
ENDBRANCH  92  93
ENDBRANCH  91  92
ENDBRANCH  88  91
BRANCH  89  96
ATOM     96  C   UNL A   1      36.873  22.814  25.436  1.00  0.00     0.100 A 
ATOM     97  C   UNL A   1      37.579  23.879  26.018  1.00  0.00     0.032 A 
ATOM     98  C   UNL A   1      37.474  21.560  25.334  1.00  0.00     0.149 A 
ATOM     99  C   UNL A   1      38.855  23.665  26.540  1.00  0.00     0.018 A 
ATOM    100  C   UNL A   1      38.765  21.355  25.816  1.00  0.00     0.057 A 
ATOM    101  F   UNL A   1      36.859  20.536  24.726  1.00  0.00    -0.205 F 
ATOM    102  C   UNL A   1      39.442  22.406  26.434  1.00  0.00     0.021 A 
ATOM    103  Br  UNL A   1      41.170  22.123  27.145  1.00  0.00    -0.051 Br
ENDBRANCH  89  96
ENDBRANCH  84  86
ENDBRANCH  83  84
ENDBRANCH  82  83
ENDBRANCH  81  82
ENDBRANCH  80  81
ENDBRANCH  79  80
ENDBRANCH   1  79
TORSDOF 28
ENDMDL
MODEL 2
REMARK VINA RESULT:      -8.3      4.408     10.615
REMARK SMILES O=C(OCCOCCOCCOCCOC(=O)c1nn(-c2ccc(Br)cc2F)cc1CCCO)c1ccc(-c2c3nc(c(-c4c(F)cc(S(=O)(=O)[O-])cc4F)c4ccc([nH]4)c(-c4c(F)cc(S(=O)(=O)[O-])cc4F)c4nc(c(-c5c(F)cc(S(=O)(=O)[O-])cc5F)c5ccc2[nH]5)C=C4)C=C3)cc1
REMARK SMILES IDX 10 1 9 2 8 3 7 4 6 5 5 6 4 7 3 8 2 9 1 10 35 11 36 12 100 13
REMARK SMILES IDX 37 14 99 15 38 16 39 17 40 18 93 19 41 20 98 21 92 22 94 23
REMARK SMILES IDX 42 24 97 25 91 26 90 27 43 29 77 30 56 31 76 32 57 33 60 34
REMARK SMILES IDX 75 35 95 36 58 37 59 38 74 40 96 41 61 42 44 43 45 44 54 45
REMARK SMILES IDX 46 46 47 47 53 48 55 49 48 50 49 51 50 52 51 53 52 54 78 55
REMARK SMILES IDX 79 56 88 57 80 58 81 59 87 60 89 61 82 62 83 63 84 64 85 65
REMARK SMILES IDX 86 66 62 67 63 68 72 69 64 70 65 71 71 72 73 73 66 74 67 75
REMARK SMILES IDX 68 76 69 77 70 78 11 79 12 80 13 81 14 82 15 83 16 84 17 85
REMARK SMILES IDX 18 86 19 87 30 88 20 89 29 90 31 91 32 92 33 93 34 94 21 96
REMARK SMILES IDX 22 97 27 98 23 99 26 100 28 101 24 102 25 103
REMARK H PARENT 94 28 60 39 34 95
REMARK Flexibility Score: inf
ROOT
ATOM      1  C   UNL A   1      32.600  25.957  23.893  1.00  0.00     0.188 C 
ENDROOT
BRANCH   1   2
ATOM      2  O   UNL A   1      33.934  25.544  24.065  1.00  0.00    -0.377 OA
BRANCH   2   3
ATOM      3  C   UNL A   1      34.125  24.770  25.241  1.00  0.00     0.188 C 
BRANCH   3   4
ATOM      4  C   UNL A   1      33.970  23.232  25.175  1.00  0.00     0.188 C 
BRANCH   4   5
ATOM      5  O   UNL A   1      34.884  22.265  24.651  1.00  0.00    -0.376 OA
BRANCH   5   6
ATOM      6  C   UNL A   1      36.209  22.405  24.179  1.00  0.00     0.202 C 
BRANCH   6   7
ATOM      7  C   UNL A   1      37.377  21.744  24.901  1.00  0.00     0.261 C 
BRANCH   7   8
ATOM      8  O   UNL A   1      37.995  22.609  25.845  1.00  0.00    -0.460 OA
BRANCH   8   9
ATOM      9  C   UNL A   1      39.264  22.568  26.297  1.00  0.00     0.338 C 
ATOM     10  O   UNL A   1      39.797  21.461  26.391  1.00  0.00    -0.246 OA
BRANCH   9  11
ATOM     11  C   UNL A   1      40.055  23.755  26.730  1.00  0.00     0.060 A 
ATOM     12  C   UNL A   1      41.278  24.188  26.208  1.00  0.00     0.016 A 
ATOM     13  C   UNL A   1      39.500  24.462  27.812  1.00  0.00     0.016 A 
ATOM     14  C   UNL A   1      42.054  25.083  26.911  1.00  0.00     0.010 A 
ATOM     15  C   UNL A   1      40.242  25.409  28.486  1.00  0.00     0.010 A 
ATOM     16  C   UNL A   1      41.557  25.612  28.093  1.00  0.00    -0.014 A 
BRANCH  16  17
ATOM     17  C   UNL A   1      42.474  26.391  28.896  1.00  0.00     0.031 A 
ATOM     18  C   UNL A   1      42.166  27.839  28.936  1.00  0.00     0.074 A 
ATOM     19  C   UNL A   1      43.465  25.777  29.569  1.00  0.00     0.049 A 
ATOM     20  N   UNL A   1      42.895  28.825  28.529  1.00  0.00    -0.248 NA
ATOM     21  C   UNL A   1      40.799  28.225  29.325  1.00  0.00     0.031 C 
ATOM     22  C   UNL A   1      43.657  24.332  29.740  1.00  0.00     0.029 A 
ATOM     23  N   UNL A   1      44.440  26.306  30.352  1.00  0.00    -0.354 N 
ATOM     24  C   UNL A   1      42.181  29.970  28.867  1.00  0.00     0.074 A 
ATOM     25  C   UNL A   1      40.836  29.546  29.144  1.00  0.00     0.031 C 
ATOM     26  C   UNL A   1      44.498  24.119  30.772  1.00  0.00     0.029 A 
ATOM     27  C   UNL A   1      44.990  25.399  31.250  1.00  0.00     0.049 A 
ATOM     28  H   UNL A   1      44.729  27.245  30.291  1.00  0.00     0.167 HD
ATOM     29  C   UNL A   1      42.830  31.118  29.204  1.00  0.00     0.037 A 
ATOM     30  C   UNL A   1      45.702  25.699  32.365  1.00  0.00     0.037 A 
ATOM     31  C   UNL A   1      44.159  31.149  28.642  1.00  0.00     0.049 A 
ATOM     32  C   UNL A   1      46.190  27.096  32.210  1.00  0.00     0.074 A 
ATOM     33  C   UNL A   1      44.670  31.021  27.363  1.00  0.00     0.029 A 
ATOM     34  N   UNL A   1      45.227  30.968  29.487  1.00  0.00    -0.354 N 
ATOM     35  N   UNL A   1      47.073  27.468  31.324  1.00  0.00    -0.248 NA
ATOM     36  C   UNL A   1      45.360  28.169  32.742  1.00  0.00     0.031 C 
ATOM     37  C   UNL A   1      45.889  30.301  27.519  1.00  0.00     0.029 A 
ATOM     38  C   UNL A   1      46.088  30.088  28.883  1.00  0.00     0.049 A 
ATOM     39  H   UNL A   1      45.352  31.393  30.367  1.00  0.00     0.167 HD
ATOM     40  C   UNL A   1      46.630  28.703  30.874  1.00  0.00     0.074 A 
ATOM     41  C   UNL A   1      45.632  29.127  31.852  1.00  0.00     0.031 C 
ATOM     42  C   UNL A   1      46.900  29.133  29.605  1.00  0.00     0.037 A 
BRANCH  29  43
ATOM     43  C   UNL A   1      42.419  31.972  30.387  1.00  0.00     0.058 A 
ATOM     44  C   UNL A   1      42.327  31.377  31.662  1.00  0.00     0.135 A 
ATOM     45  C   UNL A   1      41.824  33.251  30.274  1.00  0.00     0.135 A 
ATOM     46  F   UNL A   1      42.857  30.164  31.889  1.00  0.00    -0.206 F 
ATOM     47  C   UNL A   1      41.613  31.960  32.710  1.00  0.00     0.059 A 
ATOM     48  C   UNL A   1      41.156  33.874  31.320  1.00  0.00     0.059 A 
ATOM     49  F   UNL A   1      41.768  33.930  29.124  1.00  0.00    -0.206 F 
ATOM     50  C   UNL A   1      41.012  33.201  32.518  1.00  0.00     0.060 A 
BRANCH  50  51
ATOM     51  S   UNL A   1      39.984  33.905  33.816  1.00  0.00     0.124 S 
ATOM     52  O   UNL A   1      40.988  34.546  34.657  1.00  0.00    -0.237 OA
ATOM     53  O   UNL A   1      39.114  34.798  33.059  1.00  0.00    -0.237 OA
ATOM     54  O   UNL A   1      39.326  32.736  34.392  1.00  0.00    -0.744 OA
ENDBRANCH  50  51
ENDBRANCH  29  43
BRANCH  30  55
ATOM     55  C   UNL A   1      45.673  24.989  33.674  1.00  0.00     0.058 A 
ATOM     56  C   UNL A   1      46.860  24.537  34.276  1.00  0.00     0.135 A 
ATOM     57  C   UNL A   1      44.520  24.966  34.489  1.00  0.00     0.135 A 
ATOM     58  F   UNL A   1      48.011  24.542  33.587  1.00  0.00    -0.206 F 
ATOM     59  C   UNL A   1      46.911  24.133  35.617  1.00  0.00     0.059 A 
ATOM     60  C   UNL A   1      44.543  24.549  35.818  1.00  0.00     0.059 A 
ATOM     61  F   UNL A   1      43.343  25.436  34.052  1.00  0.00    -0.206 F 
ATOM     62  C   UNL A   1      45.749  24.160  36.385  1.00  0.00     0.060 A 
BRANCH  62  63
ATOM     63  S   UNL A   1      45.838  23.813  38.157  1.00  0.00     0.124 S 
ATOM     64  O   UNL A   1      47.165  24.314  38.496  1.00  0.00    -0.237 OA
ATOM     65  O   UNL A   1      44.714  24.581  38.680  1.00  0.00    -0.237 OA
ATOM     66  O   UNL A   1      45.683  22.362  38.227  1.00  0.00    -0.744 OA
ENDBRANCH  62  63
ENDBRANCH  30  55
BRANCH  42  67
ATOM     67  C   UNL A   1      47.963  28.412  28.817  1.00  0.00     0.058 A 
ATOM     68  C   UNL A   1      49.328  28.747  28.821  1.00  0.00     0.135 A 
ATOM     69  C   UNL A   1      47.593  27.244  28.132  1.00  0.00     0.135 A 
ATOM     70  F   UNL A   1      49.784  29.779  29.545  1.00  0.00    -0.206 F 
ATOM     71  C   UNL A   1      50.274  27.987  28.129  1.00  0.00     0.059 A 
ATOM     72  C   UNL A   1      48.523  26.451  27.465  1.00  0.00     0.059 A 
ATOM     73  F   UNL A   1      46.315  26.831  28.146  1.00  0.00    -0.206 F 
ATOM     74  C   UNL A   1      49.861  26.840  27.452  1.00  0.00     0.060 A 
BRANCH  74  75
ATOM     75  S   UNL A   1      51.092  25.822  26.611  1.00  0.00     0.124 S 
ATOM     76  O   UNL A   1      50.685  24.473  26.988  1.00  0.00    -0.237 OA
ATOM     77  O   UNL A   1      50.892  26.177  25.208  1.00  0.00    -0.237 OA
ATOM     78  O   UNL A   1      52.358  26.275  27.182  1.00  0.00    -0.744 OA
ENDBRANCH  74  75
ENDBRANCH  42  67
ENDBRANCH  16  17
ENDBRANCH   9  11
ENDBRANCH   8   9
ENDBRANCH   7   8
ENDBRANCH   6   7
ENDBRANCH   5   6
ENDBRANCH   4   5
ENDBRANCH   3   4
ENDBRANCH   2   3
ENDBRANCH   1   2
BRANCH   1  79
ATOM     79  C   UNL A   1      32.028  26.404  25.235  1.00  0.00     0.188 C 
BRANCH  79  80
ATOM     80  O   UNL A   1      31.298  27.610  25.267  1.00  0.00    -0.376 OA
BRANCH  80  81
ATOM     81  C   UNL A   1      31.859  28.818  24.794  1.00  0.00     0.202 C 
BRANCH  81  82
ATOM     82  C   UNL A   1      33.210  29.394  25.253  1.00  0.00     0.261 C 
BRANCH  82  83
ATOM     83  O   UNL A   1      33.348  29.808  26.616  1.00  0.00    -0.458 OA
BRANCH  83  84
ATOM     84  C   UNL A   1      32.996  31.057  27.016  1.00  0.00     0.359 C 
ATOM     85  O   UNL A   1      31.947  31.621  26.719  1.00  0.00    -0.244 OA
BRANCH  84  86
ATOM     86  C   UNL A   1      34.034  31.601  27.911  1.00  0.00     0.173 A 
ATOM     87  N   UNL A   1      34.847  30.724  28.529  1.00  0.00    -0.160 NA
ATOM     88  C   UNL A   1      34.296  32.944  28.366  1.00  0.00     0.006 A 
ATOM     89  N   UNL A   1      35.492  31.430  29.477  1.00  0.00    -0.237 N 
ATOM     90  C   UNL A   1      35.146  32.753  29.445  1.00  0.00     0.119 A 
BRANCH  88  91
ATOM     91  C   UNL A   1      33.791  34.309  27.968  1.00  0.00     0.042 C 
BRANCH  91  92
ATOM     92  C   UNL A   1      34.028  35.442  28.972  1.00  0.00     0.033 C 
BRANCH  92  93
ATOM     93  C   UNL A   1      33.959  36.853  28.400  1.00  0.00     0.156 C 
BRANCH  93  94
ATOM     94  O   UNL A   1      33.397  37.729  29.366  1.00  0.00    -0.396 OA
ATOM     95  H   UNL A   1      33.726  37.492  30.247  1.00  0.00     0.210 HD
ENDBRANCH  93  94
ENDBRANCH  92  93
ENDBRANCH  91  92
ENDBRANCH  88  91
BRANCH  89  96
ATOM     96  C   UNL A   1      36.462  30.803  30.288  1.00  0.00     0.100 A 
ATOM     97  C   UNL A   1      36.462  29.402  30.367  1.00  0.00     0.032 A 
ATOM     98  C   UNL A   1      37.435  31.534  30.969  1.00  0.00     0.149 A 
ATOM     99  C   UNL A   1      37.465  28.745  31.079  1.00  0.00     0.018 A 
ATOM    100  C   UNL A   1      38.412  30.881  31.717  1.00  0.00     0.057 A 
ATOM    101  F   UNL A   1      37.429  32.874  30.973  1.00  0.00    -0.205 F 
ATOM    102  C   UNL A   1      38.432  29.488  31.753  1.00  0.00     0.021 A 
ATOM    103  Br  UNL A   1      39.789  28.591  32.715  1.00  0.00    -0.051 Br
ENDBRANCH  89  96
ENDBRANCH  84  86
ENDBRANCH  83  84
ENDBRANCH  82  83
ENDBRANCH  81  82
ENDBRANCH  80  81
ENDBRANCH  79  80
ENDBRANCH   1  79
TORSDOF 28
ENDMDL
MODEL 3
REMARK VINA RESULT:      -8.0      5.134     10.491
REMARK SMILES O=C(OCCOCCOCCOCCOC(=O)c1nn(-c2ccc(Br)cc2F)cc1CCCO)c1ccc(-c2c3nc(c(-c4c(F)cc(S(=O)(=O)[O-])cc4F)c4ccc([nH]4)c(-c4c(F)cc(S(=O)(=O)[O-])cc4F)c4nc(c(-c5c(F)cc(S(=O)(=O)[O-])cc5F)c5ccc2[nH]5)C=C4)C=C3)cc1
REMARK SMILES IDX 10 1 9 2 8 3 7 4 6 5 5 6 4 7 3 8 2 9 1 10 35 11 36 12 100 13
REMARK SMILES IDX 37 14 99 15 38 16 39 17 40 18 93 19 41 20 98 21 92 22 94 23
REMARK SMILES IDX 42 24 97 25 91 26 90 27 43 29 77 30 56 31 76 32 57 33 60 34
REMARK SMILES IDX 75 35 95 36 58 37 59 38 74 40 96 41 61 42 44 43 45 44 54 45
REMARK SMILES IDX 46 46 47 47 53 48 55 49 48 50 49 51 50 52 51 53 52 54 78 55
REMARK SMILES IDX 79 56 88 57 80 58 81 59 87 60 89 61 82 62 83 63 84 64 85 65
REMARK SMILES IDX 86 66 62 67 63 68 72 69 64 70 65 71 71 72 73 73 66 74 67 75
REMARK SMILES IDX 68 76 69 77 70 78 11 79 12 80 13 81 14 82 15 83 16 84 17 85
REMARK SMILES IDX 18 86 19 87 30 88 20 89 29 90 31 91 32 92 33 93 34 94 21 96
REMARK SMILES IDX 22 97 27 98 23 99 26 100 28 101 24 102 25 103
REMARK H PARENT 94 28 60 39 34 95
REMARK Flexibility Score: inf
ROOT
ATOM      1  C   UNL A   1      32.291  25.619  24.651  1.00  0.00     0.188 C 
ENDROOT
BRANCH   1   2
ATOM      2  O   UNL A   1      32.977  24.393  24.740  1.00  0.00    -0.377 OA
BRANCH   2   3
ATOM      3  C   UNL A   1      34.215  24.502  25.428  1.00  0.00     0.188 C 
BRANCH   3   4
ATOM      4  C   UNL A   1      35.341  23.480  25.137  1.00  0.00     0.188 C 
BRANCH   4   5
ATOM      5  O   UNL A   1      36.688  23.729  24.728  1.00  0.00    -0.376 OA
BRANCH   5   6
ATOM      6  C   UNL A   1      37.917  23.316  25.291  1.00  0.00     0.202 C 
BRANCH   6   7
ATOM      7  C   UNL A   1      38.163  21.860  25.666  1.00  0.00     0.261 C 
BRANCH   7   8
ATOM      8  O   UNL A   1      39.234  21.707  26.587  1.00  0.00    -0.460 OA
BRANCH   8   9
ATOM      9  C   UNL A   1      40.523  21.423  26.317  1.00  0.00     0.338 C 
ATOM     10  O   UNL A   1      40.789  20.273  25.964  1.00  0.00    -0.246 OA
BRANCH   9  11
ATOM     11  C   UNL A   1      41.656  22.384  26.452  1.00  0.00     0.060 A 
ATOM     12  C   UNL A   1      43.022  22.088  26.404  1.00  0.00     0.016 A 
ATOM     13  C   UNL A   1      41.267  23.712  26.698  1.00  0.00     0.016 A 
ATOM     14  C   UNL A   1      43.945  22.995  26.874  1.00  0.00     0.010 A 
ATOM     15  C   UNL A   1      42.191  24.650  27.106  1.00  0.00     0.010 A 
ATOM     16  C   UNL A   1      43.500  24.236  27.305  1.00  0.00    -0.014 A 
BRANCH  16  17
ATOM     17  C   UNL A   1      44.467  25.083  27.968  1.00  0.00     0.031 A 
ATOM     18  C   UNL A   1      44.373  25.070  29.446  1.00  0.00     0.074 A 
ATOM     19  C   UNL A   1      45.383  25.753  27.242  1.00  0.00     0.049 A 
ATOM     20  N   UNL A   1      44.114  26.054  30.241  1.00  0.00    -0.248 NA
ATOM     21  C   UNL A   1      44.407  23.756  30.110  1.00  0.00     0.031 C 
ATOM     22  C   UNL A   1      45.654  25.608  25.806  1.00  0.00     0.029 A 
ATOM     23  N   UNL A   1      46.355  26.609  27.647  1.00  0.00    -0.354 N 
ATOM     24  C   UNL A   1      44.223  25.526  31.523  1.00  0.00     0.074 A 
ATOM     25  C   UNL A   1      44.187  24.096  31.380  1.00  0.00     0.031 C 
ATOM     26  C   UNL A   1      46.865  26.132  25.532  1.00  0.00     0.029 A 
ATOM     27  C   UNL A   1      47.394  26.748  26.736  1.00  0.00     0.049 A 
ATOM     28  H   UNL A   1      46.326  27.087  28.508  1.00  0.00     0.167 HD
ATOM     29  C   UNL A   1      44.660  26.298  32.556  1.00  0.00     0.037 A 
ATOM     30  C   UNL A   1      48.634  27.233  26.994  1.00  0.00     0.037 A 
ATOM     31  C   UNL A   1      44.431  27.698  32.292  1.00  0.00     0.049 A 
ATOM     32  C   UNL A   1      48.544  28.013  28.259  1.00  0.00     0.074 A 
ATOM     33  C   UNL A   1      43.318  28.450  31.962  1.00  0.00     0.029 A 
ATOM     34  N   UNL A   1      45.515  28.488  31.991  1.00  0.00    -0.354 N 
ATOM     35  N   UNL A   1      47.881  29.130  28.383  1.00  0.00    -0.248 NA
ATOM     36  C   UNL A   1      48.818  27.316  29.509  1.00  0.00     0.031 C 
ATOM     37  C   UNL A   1      43.791  29.433  31.045  1.00  0.00     0.029 A 
ATOM     38  C   UNL A   1      45.171  29.269  30.919  1.00  0.00     0.049 A 
ATOM     39  H   UNL A   1      46.381  28.492  32.460  1.00  0.00     0.167 HD
ATOM     40  C   UNL A   1      47.288  29.057  29.636  1.00  0.00     0.074 A 
ATOM     41  C   UNL A   1      47.981  27.969  30.320  1.00  0.00     0.031 C 
ATOM     42  C   UNL A   1      46.104  29.689  29.896  1.00  0.00     0.037 A 
BRANCH  29  43
ATOM     43  C   UNL A   1      45.674  25.807  33.570  1.00  0.00     0.058 A 
ATOM     44  C   UNL A   1      45.386  25.937  34.944  1.00  0.00     0.135 A 
ATOM     45  C   UNL A   1      47.022  25.504  33.262  1.00  0.00     0.135 A 
ATOM     46  F   UNL A   1      44.140  26.221  35.357  1.00  0.00    -0.206 F 
ATOM     47  C   UNL A   1      46.377  25.873  35.925  1.00  0.00     0.059 A 
ATOM     48  C   UNL A   1      48.012  25.382  34.227  1.00  0.00     0.059 A 
ATOM     49  F   UNL A   1      47.480  25.406  32.010  1.00  0.00    -0.206 F 
ATOM     50  C   UNL A   1      47.692  25.617  35.551  1.00  0.00     0.060 A 
BRANCH  50  51
ATOM     51  S   UNL A   1      48.997  25.657  36.788  1.00  0.00     0.124 S 
ATOM     52  O   UNL A   1      50.181  25.459  35.960  1.00  0.00    -0.237 OA
ATOM     53  O   UNL A   1      48.828  26.988  37.361  1.00  0.00    -0.237 OA
ATOM     54  O   UNL A   1      48.650  24.550  37.675  1.00  0.00    -0.744 OA
ENDBRANCH  50  51
ENDBRANCH  29  43
BRANCH  30  55
ATOM     55  C   UNL A   1      49.926  26.766  26.418  1.00  0.00     0.058 A 
ATOM     56  C   UNL A   1      50.776  27.655  25.737  1.00  0.00     0.135 A 
ATOM     57  C   UNL A   1      50.480  25.510  26.743  1.00  0.00     0.135 A 
ATOM     58  F   UNL A   1      50.344  28.882  25.406  1.00  0.00    -0.206 F 
ATOM     59  C   UNL A   1      52.107  27.337  25.440  1.00  0.00     0.059 A 
ATOM     60  C   UNL A   1      51.795  25.163  26.438  1.00  0.00     0.059 A 
ATOM     61  F   UNL A   1      49.794  24.602  27.452  1.00  0.00    -0.206 F 
ATOM     62  C   UNL A   1      52.613  26.093  25.812  1.00  0.00     0.060 A 
BRANCH  62  63
ATOM     63  S   UNL A   1      54.373  25.739  25.593  1.00  0.00     0.124 S 
ATOM     64  O   UNL A   1      54.989  26.969  26.080  1.00  0.00    -0.237 OA
ATOM     65  O   UNL A   1      54.557  24.559  26.429  1.00  0.00    -0.237 OA
ATOM     66  O   UNL A   1      54.496  25.507  24.156  1.00  0.00    -0.744 OA
ENDBRANCH  62  63
ENDBRANCH  30  55
BRANCH  42  67
ATOM     67  C   UNL A   1      45.624  30.737  28.926  1.00  0.00     0.058 A 
ATOM     68  C   UNL A   1      45.899  32.111  29.032  1.00  0.00     0.135 A 
ATOM     69  C   UNL A   1      44.968  30.304  27.763  1.00  0.00     0.135 A 
ATOM     70  F   UNL A   1      46.622  32.596  30.051  1.00  0.00    -0.206 F 
ATOM     71  C   UNL A   1      45.489  33.020  28.053  1.00  0.00     0.059 A 
ATOM     72  C   UNL A   1      44.583  31.186  26.758  1.00  0.00     0.059 A 
ATOM     73  F   UNL A   1      44.736  28.995  27.569  1.00  0.00    -0.206 F 
ATOM     74  C   UNL A   1      44.830  32.547  26.919  1.00  0.00     0.060 A 
BRANCH  74  75
ATOM     75  S   UNL A   1      44.357  33.714  25.624  1.00  0.00     0.124 S 
ATOM     76  O   UNL A   1      45.646  34.269  25.226  1.00  0.00    -0.237 OA
ATOM     77  O   UNL A   1      43.706  32.851  24.642  1.00  0.00    -0.237 OA
ATOM     78  O   UNL A   1      43.463  34.643  26.311  1.00  0.00    -0.744 OA
ENDBRANCH  74  75
ENDBRANCH  42  67
ENDBRANCH  16  17
ENDBRANCH   9  11
ENDBRANCH   8   9
ENDBRANCH   7   8
ENDBRANCH   6   7
ENDBRANCH   5   6
ENDBRANCH   4   5
ENDBRANCH   3   4
ENDBRANCH   2   3
ENDBRANCH   1   2
BRANCH   1  79
ATOM     79  C   UNL A   1      33.243  26.761  24.993  1.00  0.00     0.188 C 
BRANCH  79  80
ATOM     80  O   UNL A   1      33.122  27.358  26.264  1.00  0.00    -0.376 OA
BRANCH  80  81
ATOM     81  C   UNL A   1      32.362  28.534  26.452  1.00  0.00     0.202 C 
BRANCH  81  82
ATOM     82  C   UNL A   1      32.878  29.960  26.186  1.00  0.00     0.261 C 
BRANCH  82  83
ATOM     83  O   UNL A   1      33.564  30.644  27.238  1.00  0.00    -0.458 OA
BRANCH  83  84
ATOM     84  C   UNL A   1      33.261  31.928  27.564  1.00  0.00     0.359 C 
ATOM     85  O   UNL A   1      32.222  32.505  27.257  1.00  0.00    -0.244 OA
BRANCH  84  86
ATOM     86  C   UNL A   1      34.338  32.494  28.397  1.00  0.00     0.173 A 
ATOM     87  N   UNL A   1      35.144  31.634  29.044  1.00  0.00    -0.160 NA
ATOM     88  C   UNL A   1      34.647  33.855  28.763  1.00  0.00     0.006 A 
ATOM     89  N   UNL A   1      35.835  32.376  29.930  1.00  0.00    -0.237 N 
ATOM     90  C   UNL A   1      35.522  33.704  29.828  1.00  0.00     0.119 A 
BRANCH  88  91
ATOM     91  C   UNL A   1      34.168  35.207  28.297  1.00  0.00     0.042 C 
BRANCH  91  92
ATOM     92  C   UNL A   1      32.987  35.812  29.064  1.00  0.00     0.033 C 
BRANCH  92  93
ATOM     93  C   UNL A   1      33.333  36.460  30.400  1.00  0.00     0.156 C 
BRANCH  93  94
ATOM     94  O   UNL A   1      33.348  37.872  30.252  1.00  0.00    -0.396 OA
ATOM     95  H   UNL A   1      33.455  38.286  31.123  1.00  0.00     0.210 HD
ENDBRANCH  93  94
ENDBRANCH  92  93
ENDBRANCH  91  92
ENDBRANCH  88  91
BRANCH  89  96
ATOM     96  C   UNL A   1      36.810  31.772  30.751  1.00  0.00     0.100 A 
ATOM     97  C   UNL A   1      36.405  31.228  31.979  1.00  0.00     0.032 A 
ATOM     98  C   UNL A   1      38.143  31.667  30.354  1.00  0.00     0.149 A 
ATOM     99  C   UNL A   1      37.322  30.537  32.771  1.00  0.00     0.018 A 
ATOM    100  C   UNL A   1      39.070  31.015  31.164  1.00  0.00     0.057 A 
ATOM    101  F   UNL A   1      38.584  32.232  29.221  1.00  0.00    -0.205 F 
ATOM    102  C   UNL A   1      38.650  30.437  32.361  1.00  0.00     0.021 A 
ATOM    103  Br  UNL A   1      39.886  29.499  33.438  1.00  0.00    -0.051 Br
ENDBRANCH  89  96
ENDBRANCH  84  86
ENDBRANCH  83  84
ENDBRANCH  82  83
ENDBRANCH  81  82
ENDBRANCH  80  81
ENDBRANCH  79  80
ENDBRANCH   1  79
TORSDOF 28
ENDMDL
