MODEL 1
REMARK VINA RESULT:      -7.6      0.000      0.000
REMARK SMILES O=C(/C=C/c1ccc(C(=O)NC2CC2)cc1)NC1(C(=O)OCCOCCOCCOCCOC(=O)c2ccc(-c3c4nc(c(-c5c(F)cc(S(=O)(=O)[O-])cc5F)c5ccc([nH]5)c(-c5c(F)cc(S(=O)(=O)[O-])cc5F)c5nc(c(-c6c(F)cc(S(=O)(=O)[O-])cc6F)c6ccc3[nH]6)C=C5)C=C4)cc2)CCCC1
REMARK SMILES IDX 26 1 25 2 24 3 23 4 22 5 21 6 19 7 20 8 18 9 102 10 105 11
REMARK SMILES IDX 103 12 104 13 17 14 1 15 2 16 3 18 4 19 5 20 6 21 16 22 7 23
REMARK SMILES IDX 15 24 8 25 9 26 10 27 11 28 12 30 13 31 14 32 27 33 28 34
REMARK SMILES IDX 29 35 30 36 31 37 32 38 33 39 34 40 35 41 36 42 37 43 101 44
REMARK SMILES IDX 38 45 100 46 39 47 40 48 41 49 94 50 42 51 99 52 93 53 95 54
REMARK SMILES IDX 43 55 98 56 92 57 91 58 44 60 78 61 57 62 77 63 58 64 61 65
REMARK SMILES IDX 76 66 96 67 59 68 60 69 75 71 97 72 62 73 45 74 46 75 55 76
REMARK SMILES IDX 47 77 48 78 54 79 56 80 49 81 50 82 51 83 52 84 53 85 79 86
REMARK SMILES IDX 80 87 89 88 81 89 82 90 88 91 90 92 83 93 84 94 85 95 86 96
REMARK SMILES IDX 87 97 63 98 64 99 73 100 65 101 66 102 72 103 74 104 67 105
REMARK SMILES IDX 68 106 69 107 70 108 71 109
REMARK H PARENT 17 17 11 29 95 59 61 70
REMARK Flexibility Score: inf
ROOT
ATOM      1  C   UNL A   1      34.012  33.631  28.214  1.00  0.00     0.188 C 
ENDROOT
BRANCH   1   2
ATOM      2  C   UNL A   1      35.224  33.004  28.920  1.00  0.00     0.188 C 
BRANCH   2   3
ATOM      3  O   UNL A   1      36.226  32.281  28.230  1.00  0.00    -0.376 OA
BRANCH   3   4
ATOM      4  C   UNL A   1      37.511  31.960  28.723  1.00  0.00     0.202 C 
BRANCH   4   5
ATOM      5  C   UNL A   1      38.019  30.542  29.037  1.00  0.00     0.261 C 
BRANCH   5   6
ATOM      6  O   UNL A   1      39.409  30.271  28.825  1.00  0.00    -0.461 OA
BRANCH   6   7
ATOM      7  C   UNL A   1      39.677  29.255  27.973  1.00  0.00     0.331 C 
ATOM      8  O   UNL A   1      39.386  29.276  26.775  1.00  0.00    -0.249 OA
BRANCH   7   9
ATOM      9  C   UNL A   1      40.356  28.007  28.612  1.00  0.00     0.138 C 
ATOM     10  C   UNL A   1      39.274  26.916  28.635  1.00  0.00     0.040 C 
ATOM     11  C   UNL A   1      40.788  27.944  30.087  1.00  0.00     0.040 C 
ATOM     12  C   UNL A   1      38.522  27.156  29.954  1.00  0.00     0.003 C 
ATOM     13  C   UNL A   1      39.518  27.810  30.902  1.00  0.00     0.003 C 
BRANCH   9  14
ATOM     14  N   UNL A   1      41.441  27.712  27.643  1.00  0.00    -0.337 N 
ATOM     15  O   UNL A   1      41.578  25.419  27.830  1.00  0.00    -0.270 OA
ATOM     16  C   UNL A   1      42.025  26.492  27.447  1.00  0.00     0.244 C 
ATOM     17  H   UNL A   1      41.769  28.460  27.093  1.00  0.00     0.164 HD
BRANCH  16  18
ATOM     18  C   UNL A   1      43.257  26.463  26.628  1.00  0.00     0.072 C 
ATOM     19  C   UNL A   1      44.489  26.897  26.943  1.00  0.00     0.014 C 
BRANCH  19  20
ATOM     20  C   UNL A   1      45.575  26.837  25.950  1.00  0.00    -0.025 A 
ATOM     21  C   UNL A   1      46.350  25.691  25.769  1.00  0.00     0.009 A 
ATOM     22  C   UNL A   1      45.890  27.968  25.190  1.00  0.00     0.009 A 
ATOM     23  C   UNL A   1      47.408  25.686  24.838  1.00  0.00     0.014 A 
ATOM     24  C   UNL A   1      46.922  27.952  24.250  1.00  0.00     0.014 A 
ATOM     25  C   UNL A   1      47.718  26.823  24.069  1.00  0.00     0.039 A 
BRANCH  25  26
ATOM     26  C   UNL A   1      48.883  26.740  23.128  1.00  0.00     0.251 C 
ATOM     27  O   UNL A   1      48.691  26.344  21.975  1.00  0.00    -0.269 OA
ATOM     28  N   UNL A   1      50.182  27.062  23.474  1.00  0.00    -0.349 N 
ATOM     29  H   UNL A   1      50.839  26.922  22.754  1.00  0.00     0.164 HD
BRANCH  28  30
ATOM     30  C   UNL A   1      50.736  27.560  24.683  1.00  0.00     0.082 C 
ATOM     31  C   UNL A   1      50.972  26.643  25.857  1.00  0.00     0.027 C 
ATOM     32  C   UNL A   1      52.137  27.210  25.108  1.00  0.00     0.027 C 
ENDBRANCH  28  30
ENDBRANCH  25  26
ENDBRANCH  19  20
ENDBRANCH  16  18
ENDBRANCH   9  14
ENDBRANCH   7   9
ENDBRANCH   6   7
ENDBRANCH   5   6
ENDBRANCH   4   5
ENDBRANCH   3   4
ENDBRANCH   2   3
ENDBRANCH   1   2
BRANCH   1  33
ATOM     33  O   UNL A   1      32.983  34.315  28.886  1.00  0.00    -0.377 OA
BRANCH  33  34
ATOM     34  C   UNL A   1      33.109  35.719  28.908  1.00  0.00     0.188 C 
BRANCH  34  35
ATOM     35  C   UNL A   1      32.841  36.237  30.318  1.00  0.00     0.188 C 
BRANCH  35  36
ATOM     36  O   UNL A   1      32.886  35.221  31.305  1.00  0.00    -0.376 OA
BRANCH  36  37
ATOM     37  C   UNL A   1      33.491  35.460  32.574  1.00  0.00     0.202 C 
BRANCH  37  38
ATOM     38  C   UNL A   1      34.985  35.779  32.846  1.00  0.00     0.261 C 
BRANCH  38  39
ATOM     39  O   UNL A   1      35.691  35.063  33.867  1.00  0.00    -0.460 OA
BRANCH  39  40
ATOM     40  C   UNL A   1      35.591  33.722  33.890  1.00  0.00     0.338 C 
ATOM     41  O   UNL A   1      34.569  33.067  34.025  1.00  0.00    -0.246 OA
BRANCH  40  42
ATOM     42  C   UNL A   1      36.912  33.175  33.502  1.00  0.00     0.060 A 
ATOM     43  C   UNL A   1      38.061  33.823  33.971  1.00  0.00     0.016 A 
ATOM     44  C   UNL A   1      37.027  32.023  32.715  1.00  0.00     0.016 A 
ATOM     45  C   UNL A   1      39.324  33.354  33.618  1.00  0.00     0.010 A 
ATOM     46  C   UNL A   1      38.297  31.569  32.337  1.00  0.00     0.010 A 
ATOM     47  C   UNL A   1      39.448  32.261  32.751  1.00  0.00    -0.014 A 
BRANCH  47  48
ATOM     48  C   UNL A   1      40.769  32.011  32.121  1.00  0.00     0.031 A 
ATOM     49  C   UNL A   1      41.340  33.079  31.225  1.00  0.00     0.074 A 
ATOM     50  C   UNL A   1      41.488  30.913  32.412  1.00  0.00     0.049 A 
ATOM     51  N   UNL A   1      42.498  33.126  30.621  1.00  0.00    -0.248 NA
ATOM     52  C   UNL A   1      40.489  34.256  30.983  1.00  0.00     0.031 C 
ATOM     53  C   UNL A   1      41.060  29.831  33.297  1.00  0.00     0.029 A 
ATOM     54  N   UNL A   1      42.742  30.533  31.999  1.00  0.00    -0.354 N 
ATOM     55  C   UNL A   1      42.516  34.333  29.932  1.00  0.00     0.074 A 
ATOM     56  C   UNL A   1      41.239  34.971  30.158  1.00  0.00     0.031 C 
ATOM     57  C   UNL A   1      42.035  28.907  33.360  1.00  0.00     0.029 A 
ATOM     58  C   UNL A   1      43.146  29.321  32.502  1.00  0.00     0.049 A 
ATOM     59  H   UNL A   1      43.298  31.080  31.397  1.00  0.00     0.167 HD
ATOM     60  C   UNL A   1      43.512  34.870  29.187  1.00  0.00     0.037 A 
ATOM     61  C   UNL A   1      44.278  28.621  32.284  1.00  0.00     0.037 A 
ATOM     62  C   UNL A   1      44.781  34.226  28.960  1.00  0.00     0.049 A 
ATOM     63  C   UNL A   1      45.349  29.210  31.400  1.00  0.00     0.074 A 
ATOM     64  C   UNL A   1      45.861  34.690  28.230  1.00  0.00     0.029 A 
ATOM     65  N   UNL A   1      45.137  32.977  29.450  1.00  0.00    -0.354 N 
ATOM     66  N   UNL A   1      45.364  30.364  30.775  1.00  0.00    -0.248 NA
ATOM     67  C   UNL A   1      46.563  28.406  31.202  1.00  0.00     0.031 C 
ATOM     68  C   UNL A   1      46.846  33.696  28.227  1.00  0.00     0.029 A 
ATOM     69  C   UNL A   1      46.408  32.642  29.014  1.00  0.00     0.049 A 
ATOM     70  H   UNL A   1      44.568  32.413  30.022  1.00  0.00     0.167 HD
ATOM     71  C   UNL A   1      46.598  30.437  30.136  1.00  0.00     0.074 A 
ATOM     72  C   UNL A   1      47.308  29.218  30.466  1.00  0.00     0.031 C 
ATOM     73  C   UNL A   1      47.102  31.421  29.348  1.00  0.00     0.037 A 
BRANCH  60  74
ATOM     74  C   UNL A   1      43.255  36.201  28.536  1.00  0.00     0.058 A 
ATOM     75  C   UNL A   1      42.859  36.310  27.192  1.00  0.00     0.135 A 
ATOM     76  C   UNL A   1      43.378  37.388  29.277  1.00  0.00     0.135 A 
ATOM     77  F   UNL A   1      42.747  35.210  26.429  1.00  0.00    -0.206 F 
ATOM     78  C   UNL A   1      42.620  37.547  26.601  1.00  0.00     0.059 A 
ATOM     79  C   UNL A   1      43.113  38.634  28.716  1.00  0.00     0.059 A 
ATOM     80  F   UNL A   1      43.758  37.345  30.564  1.00  0.00    -0.206 F 
ATOM     81  C   UNL A   1      42.748  38.704  27.373  1.00  0.00     0.060 A 
BRANCH  81  82
ATOM     82  S   UNL A   1      42.420  40.299  26.595  1.00  0.00     0.124 S 
ATOM     83  O   UNL A   1      43.266  40.224  25.408  1.00  0.00    -0.237 OA
ATOM     84  O   UNL A   1      40.983  40.240  26.354  1.00  0.00    -0.237 OA
ATOM     85  O   UNL A   1      42.845  41.264  27.605  1.00  0.00    -0.744 OA
ENDBRANCH  81  82
ENDBRANCH  60  74
BRANCH  61  86
ATOM     86  C   UNL A   1      44.459  27.282  32.909  1.00  0.00     0.058 A 
ATOM     87  C   UNL A   1      44.958  27.142  34.213  1.00  0.00     0.135 A 
ATOM     88  C   UNL A   1      44.141  26.109  32.206  1.00  0.00     0.135 A 
ATOM     89  F   UNL A   1      45.289  28.230  34.925  1.00  0.00    -0.206 F 
ATOM     90  C   UNL A   1      45.150  25.891  34.792  1.00  0.00     0.059 A 
ATOM     91  C   UNL A   1      44.296  24.848  32.773  1.00  0.00     0.059 A 
ATOM     92  F   UNL A   1      43.654  26.185  30.957  1.00  0.00    -0.206 F 
ATOM     93  C   UNL A   1      44.810  24.749  34.064  1.00  0.00     0.060 A 
BRANCH  93  94
ATOM     94  S   UNL A   1      45.008  23.132  34.845  1.00  0.00     0.124 S 
ATOM     95  O   UNL A   1      46.394  22.815  34.521  1.00  0.00    -0.237 OA
ATOM     96  O   UNL A   1      44.731  23.436  36.246  1.00  0.00    -0.237 OA
ATOM     97  O   UNL A   1      44.000  22.313  34.179  1.00  0.00    -0.744 OA
ENDBRANCH  93  94
ENDBRANCH  61  86
BRANCH  73  98
ATOM     98  C   UNL A   1      48.502  31.239  28.821  1.00  0.00     0.058 A 
ATOM     99  C   UNL A   1      49.628  31.695  29.527  1.00  0.00     0.135 A 
ATOM    100  C   UNL A   1      48.721  30.581  27.599  1.00  0.00     0.135 A 
ATOM    101  F   UNL A   1      49.480  32.328  30.701  1.00  0.00    -0.206 F 
ATOM    102  C   UNL A   1      50.914  31.553  29.014  1.00  0.00     0.059 A 
ATOM    103  C   UNL A   1      50.001  30.396  27.085  1.00  0.00     0.059 A 
ATOM    104  F   UNL A   1      47.684  30.108  26.890  1.00  0.00    -0.206 F 
ATOM    105  C   UNL A   1      51.090  30.907  27.789  1.00  0.00     0.060 A 
BRANCH 105 106
ATOM    106  S   UNL A   1      52.761  30.741  27.128  1.00  0.00     0.124 S 
ATOM    107  O   UNL A   1      52.501  30.629  25.697  1.00  0.00    -0.237 OA
ATOM    108  O   UNL A   1      53.393  31.984  27.563  1.00  0.00    -0.237 OA
ATOM    109  O   UNL A   1      53.264  29.531  27.771  1.00  0.00    -0.744 OA
ENDBRANCH 105 106
ENDBRANCH  73  98
ENDBRANCH  47  48
ENDBRANCH  40  42
ENDBRANCH  39  40
ENDBRANCH  38  39
ENDBRANCH  37  38
ENDBRANCH  36  37
ENDBRANCH  35  36
ENDBRANCH  34  35
ENDBRANCH  33  34
ENDBRANCH   1  33
TORSDOF 28
ENDMDL
MODEL 2
REMARK VINA RESULT:      -7.4      6.103     10.678
REMARK SMILES O=C(/C=C/c1ccc(C(=O)NC2CC2)cc1)NC1(C(=O)OCCOCCOCCOCCOC(=O)c2ccc(-c3c4nc(c(-c5c(F)cc(S(=O)(=O)[O-])cc5F)c5ccc([nH]5)c(-c5c(F)cc(S(=O)(=O)[O-])cc5F)c5nc(c(-c6c(F)cc(S(=O)(=O)[O-])cc6F)c6ccc3[nH]6)C=C5)C=C4)cc2)CCCC1
REMARK SMILES IDX 26 1 25 2 24 3 23 4 22 5 21 6 19 7 20 8 18 9 102 10 105 11
REMARK SMILES IDX 103 12 104 13 17 14 1 15 2 16 3 18 4 19 5 20 6 21 16 22 7 23
REMARK SMILES IDX 15 24 8 25 9 26 10 27 11 28 12 30 13 31 14 32 27 33 28 34
REMARK SMILES IDX 29 35 30 36 31 37 32 38 33 39 34 40 35 41 36 42 37 43 101 44
REMARK SMILES IDX 38 45 100 46 39 47 40 48 41 49 94 50 42 51 99 52 93 53 95 54
REMARK SMILES IDX 43 55 98 56 92 57 91 58 44 60 78 61 57 62 77 63 58 64 61 65
REMARK SMILES IDX 76 66 96 67 59 68 60 69 75 71 97 72 62 73 45 74 46 75 55 76
REMARK SMILES IDX 47 77 48 78 54 79 56 80 49 81 50 82 51 83 52 84 53 85 79 86
REMARK SMILES IDX 80 87 89 88 81 89 82 90 88 91 90 92 83 93 84 94 85 95 86 96
REMARK SMILES IDX 87 97 63 98 64 99 73 100 65 101 66 102 72 103 74 104 67 105
REMARK SMILES IDX 68 106 69 107 70 108 71 109
REMARK H PARENT 17 17 11 29 95 59 61 70
REMARK Flexibility Score: inf
ROOT
ATOM      1  C   UNL A   1      35.443  32.061  28.345  1.00  0.00     0.188 C 
ENDROOT
BRANCH   1   2
ATOM      2  C   UNL A   1      34.255  31.150  28.000  1.00  0.00     0.188 C 
BRANCH   2   3
ATOM      3  O   UNL A   1      34.166  30.430  26.784  1.00  0.00    -0.376 OA
BRANCH   3   4
ATOM      4  C   UNL A   1      33.153  29.511  26.432  1.00  0.00     0.202 C 
BRANCH   4   5
ATOM      5  C   UNL A   1      31.759  29.881  25.895  1.00  0.00     0.261 C 
BRANCH   5   6
ATOM      6  O   UNL A   1      31.378  29.360  24.616  1.00  0.00    -0.461 OA
BRANCH   6   7
ATOM      7  C   UNL A   1      30.291  29.938  24.056  1.00  0.00     0.331 C 
ATOM      8  O   UNL A   1      29.836  31.025  24.418  1.00  0.00    -0.249 OA
BRANCH   7   9
ATOM      9  C   UNL A   1      29.605  29.116  22.924  1.00  0.00     0.138 C 
ATOM     10  C   UNL A   1      29.950  29.848  21.618  1.00  0.00     0.040 C 
ATOM     11  C   UNL A   1      28.079  29.028  22.752  1.00  0.00     0.040 C 
ATOM     12  C   UNL A   1      28.852  30.915  21.480  1.00  0.00     0.003 C 
ATOM     13  C   UNL A   1      27.629  30.368  22.206  1.00  0.00     0.003 C 
BRANCH   9  14
ATOM     14  N   UNL A   1      30.284  27.801  23.037  1.00  0.00    -0.337 N 
ATOM     15  O   UNL A   1      28.585  26.509  23.905  1.00  0.00    -0.270 OA
ATOM     16  C   UNL A   1      29.764  26.683  23.626  1.00  0.00     0.244 C 
ATOM     17  H   UNL A   1      31.188  27.728  22.654  1.00  0.00     0.164 HD
BRANCH  16  18
ATOM     18  C   UNL A   1      30.694  25.557  23.865  1.00  0.00     0.072 C 
ATOM     19  C   UNL A   1      30.613  24.576  24.778  1.00  0.00     0.014 C 
BRANCH  19  20
ATOM     20  C   UNL A   1      31.690  23.579  24.896  1.00  0.00    -0.025 A 
ATOM     21  C   UNL A   1      31.870  22.817  26.052  1.00  0.00     0.009 A 
ATOM     22  C   UNL A   1      32.603  23.410  23.851  1.00  0.00     0.009 A 
ATOM     23  C   UNL A   1      32.939  21.903  26.143  1.00  0.00     0.014 A 
ATOM     24  C   UNL A   1      33.646  22.485  23.935  1.00  0.00     0.014 A 
ATOM     25  C   UNL A   1      33.852  21.730  25.086  1.00  0.00     0.039 A 
BRANCH  25  26
ATOM     26  C   UNL A   1      34.980  20.761  25.282  1.00  0.00     0.251 C 
ATOM     27  O   UNL A   1      36.051  21.175  25.735  1.00  0.00    -0.269 OA
ATOM     28  N   UNL A   1      34.910  19.417  24.967  1.00  0.00    -0.349 N 
ATOM     29  H   UNL A   1      35.746  18.920  25.122  1.00  0.00     0.164 HD
BRANCH  28  30
ATOM     30  C   UNL A   1      33.845  18.625  24.461  1.00  0.00     0.082 C 
ATOM     31  C   UNL A   1      33.489  17.310  25.106  1.00  0.00     0.027 C 
ATOM     32  C   UNL A   1      32.552  18.472  25.217  1.00  0.00     0.027 C 
ENDBRANCH  28  30
ENDBRANCH  25  26
ENDBRANCH  19  20
ENDBRANCH  16  18
ENDBRANCH   9  14
ENDBRANCH   7   9
ENDBRANCH   6   7
ENDBRANCH   5   6
ENDBRANCH   4   5
ENDBRANCH   3   4
ENDBRANCH   2   3
ENDBRANCH   1   2
BRANCH   1  33
ATOM     33  O   UNL A   1      36.029  32.132  29.621  1.00  0.00    -0.377 OA
BRANCH  33  34
ATOM     34  C   UNL A   1      37.353  31.656  29.703  1.00  0.00     0.188 C 
BRANCH  34  35
ATOM     35  C   UNL A   1      37.961  32.051  31.045  1.00  0.00     0.188 C 
BRANCH  35  36
ATOM     36  O   UNL A   1      38.616  33.308  31.014  1.00  0.00    -0.376 OA
BRANCH  36  37
ATOM     37  C   UNL A   1      37.959  34.488  31.473  1.00  0.00     0.202 C 
BRANCH  37  38
ATOM     38  C   UNL A   1      37.014  34.608  32.697  1.00  0.00     0.261 C 
BRANCH  38  39
ATOM     39  O   UNL A   1      37.553  34.529  34.023  1.00  0.00    -0.460 OA
BRANCH  39  40
ATOM     40  C   UNL A   1      37.267  33.446  34.764  1.00  0.00     0.338 C 
ATOM     41  O   UNL A   1      36.159  33.075  35.121  1.00  0.00    -0.246 OA
BRANCH  40  42
ATOM     42  C   UNL A   1      38.513  32.655  34.888  1.00  0.00     0.060 A 
ATOM     43  C   UNL A   1      39.715  33.244  34.477  1.00  0.00     0.016 A 
ATOM     44  C   UNL A   1      38.514  31.364  35.431  1.00  0.00     0.016 A 
ATOM     45  C   UNL A   1      40.909  32.533  34.559  1.00  0.00     0.010 A 
ATOM     46  C   UNL A   1      39.711  30.638  35.486  1.00  0.00     0.010 A 
ATOM     47  C   UNL A   1      40.905  31.206  35.008  1.00  0.00    -0.014 A 
BRANCH  47  48
ATOM     48  C   UNL A   1      42.108  30.374  34.754  1.00  0.00     0.031 A 
ATOM     49  C   UNL A   1      43.067  30.148  35.894  1.00  0.00     0.074 A 
ATOM     50  C   UNL A   1      42.296  29.755  33.575  1.00  0.00     0.049 A 
ATOM     51  N   UNL A   1      44.143  29.407  35.939  1.00  0.00    -0.248 NA
ATOM     52  C   UNL A   1      42.767  30.848  37.153  1.00  0.00     0.031 C 
ATOM     53  C   UNL A   1      41.416  29.864  32.413  1.00  0.00     0.029 A 
ATOM     54  N   UNL A   1      43.289  28.900  33.166  1.00  0.00    -0.354 N 
ATOM     55  C   UNL A   1      44.646  29.550  37.227  1.00  0.00     0.074 A 
ATOM     56  C   UNL A   1      43.781  30.479  37.920  1.00  0.00     0.031 C 
ATOM     57  C   UNL A   1      41.909  29.103  31.420  1.00  0.00     0.029 A 
ATOM     58  C   UNL A   1      43.151  28.473  31.867  1.00  0.00     0.049 A 
ATOM     59  H   UNL A   1      44.031  28.618  33.750  1.00  0.00     0.167 HD
ATOM     60  C   UNL A   1      45.723  28.951  37.789  1.00  0.00     0.037 A 
ATOM     61  C   UNL A   1      43.944  27.675  31.123  1.00  0.00     0.037 A 
ATOM     62  C   UNL A   1      46.584  28.031  37.092  1.00  0.00     0.049 A 
ATOM     63  C   UNL A   1      45.175  27.069  31.751  1.00  0.00     0.074 A 
ATOM     64  C   UNL A   1      47.695  27.362  37.574  1.00  0.00     0.029 A 
ATOM     65  N   UNL A   1      46.438  27.658  35.764  1.00  0.00    -0.354 N 
ATOM     66  N   UNL A   1      45.624  27.192  32.979  1.00  0.00    -0.248 NA
ATOM     67  C   UNL A   1      45.999  26.204  30.896  1.00  0.00     0.031 C 
ATOM     68  C   UNL A   1      48.257  26.633  36.520  1.00  0.00     0.029 A 
ATOM     69  C   UNL A   1      47.456  26.791  35.400  1.00  0.00     0.049 A 
ATOM     70  H   UNL A   1      45.717  27.966  35.167  1.00  0.00     0.167 HD
ATOM     71  C   UNL A   1      46.765  26.398  33.049  1.00  0.00     0.074 A 
ATOM     72  C   UNL A   1      46.924  25.785  31.746  1.00  0.00     0.031 C 
ATOM     73  C   UNL A   1      47.605  26.191  34.096  1.00  0.00     0.037 A 
BRANCH  60  74
ATOM     74  C   UNL A   1      46.049  29.302  39.216  1.00  0.00     0.058 A 
ATOM     75  C   UNL A   1      46.763  30.464  39.554  1.00  0.00     0.135 A 
ATOM     76  C   UNL A   1      45.615  28.475  40.265  1.00  0.00     0.135 A 
ATOM     77  F   UNL A   1      47.221  31.280  38.590  1.00  0.00    -0.206 F 
ATOM     78  C   UNL A   1      47.056  30.780  40.876  1.00  0.00     0.059 A 
ATOM     79  C   UNL A   1      45.870  28.788  41.598  1.00  0.00     0.059 A 
ATOM     80  F   UNL A   1      44.934  27.349  40.001  1.00  0.00    -0.206 F 
ATOM     81  C   UNL A   1      46.602  29.935  41.892  1.00  0.00     0.060 A 
BRANCH  81  82
ATOM     82  S   UNL A   1      46.979  30.367  43.604  1.00  0.00     0.124 S 
ATOM     83  O   UNL A   1      46.964  29.057  44.245  1.00  0.00    -0.237 OA
ATOM     84  O   UNL A   1      48.288  31.001  43.485  1.00  0.00    -0.237 OA
ATOM     85  O   UNL A   1      45.885  31.260  43.979  1.00  0.00    -0.744 OA
ENDBRANCH  81  82
ENDBRANCH  60  74
BRANCH  61  86
ATOM     86  C   UNL A   1      43.605  27.406  29.699  1.00  0.00     0.058 A 
ATOM     87  C   UNL A   1      43.732  28.397  28.715  1.00  0.00     0.135 A 
ATOM     88  C   UNL A   1      43.135  26.145  29.295  1.00  0.00     0.135 A 
ATOM     89  F   UNL A   1      44.163  29.623  29.049  1.00  0.00    -0.206 F 
ATOM     90  C   UNL A   1      43.393  28.156  27.386  1.00  0.00     0.059 A 
ATOM     91  C   UNL A   1      42.819  25.871  27.969  1.00  0.00     0.059 A 
ATOM     92  F   UNL A   1      43.001  25.158  30.195  1.00  0.00    -0.206 F 
ATOM     93  C   UNL A   1      42.942  26.886  27.023  1.00  0.00     0.060 A 
BRANCH  93  94
ATOM     94  S   UNL A   1      42.560  26.564  25.286  1.00  0.00     0.124 S 
ATOM     95  O   UNL A   1      41.144  26.224  25.354  1.00  0.00    -0.237 OA
ATOM     96  O   UNL A   1      42.882  27.845  24.664  1.00  0.00    -0.237 OA
ATOM     97  O   UNL A   1      43.459  25.467  24.944  1.00  0.00    -0.744 OA
ENDBRANCH  93  94
ENDBRANCH  61  86
BRANCH  73  98
ATOM     98  C   UNL A   1      48.749  25.233  33.887  1.00  0.00     0.058 A 
ATOM     99  C   UNL A   1      48.592  23.844  34.028  1.00  0.00     0.135 A 
ATOM    100  C   UNL A   1      50.019  25.712  33.522  1.00  0.00     0.135 A 
ATOM    101  F   UNL A   1      47.402  23.330  34.373  1.00  0.00    -0.206 F 
ATOM    102  C   UNL A   1      49.665  22.971  33.868  1.00  0.00     0.059 A 
ATOM    103  C   UNL A   1      51.096  24.854  33.321  1.00  0.00     0.059 A 
ATOM    104  F   UNL A   1      50.223  27.028  33.355  1.00  0.00    -0.206 F 
ATOM    105  C   UNL A   1      50.914  23.487  33.519  1.00  0.00     0.060 A 
BRANCH 105 106
ATOM    106  S   UNL A   1      52.300  22.346  33.328  1.00  0.00     0.124 S 
ATOM    107  O   UNL A   1      51.682  21.257  32.578  1.00  0.00    -0.237 OA
ATOM    108  O   UNL A   1      53.268  23.153  32.591  1.00  0.00    -0.237 OA
ATOM    109  O   UNL A   1      52.673  22.029  34.702  1.00  0.00    -0.744 OA
ENDBRANCH 105 106
ENDBRANCH  73  98
ENDBRANCH  47  48
ENDBRANCH  40  42
ENDBRANCH  39  40
ENDBRANCH  38  39
ENDBRANCH  37  38
ENDBRANCH  36  37
ENDBRANCH  35  36
ENDBRANCH  34  35
ENDBRANCH  33  34
ENDBRANCH   1  33
TORSDOF 28
ENDMDL
MODEL 3
REMARK VINA RESULT:      -7.3      3.783      7.124
REMARK SMILES O=C(/C=C/c1ccc(C(=O)NC2CC2)cc1)NC1(C(=O)OCCOCCOCCOCCOC(=O)c2ccc(-c3c4nc(c(-c5c(F)cc(S(=O)(=O)[O-])cc5F)c5ccc([nH]5)c(-c5c(F)cc(S(=O)(=O)[O-])cc5F)c5nc(c(-c6c(F)cc(S(=O)(=O)[O-])cc6F)c6ccc3[nH]6)C=C5)C=C4)cc2)CCCC1
REMARK SMILES IDX 26 1 25 2 24 3 23 4 22 5 21 6 19 7 20 8 18 9 102 10 105 11
REMARK SMILES IDX 103 12 104 13 17 14 1 15 2 16 3 18 4 19 5 20 6 21 16 22 7 23
REMARK SMILES IDX 15 24 8 25 9 26 10 27 11 28 12 30 13 31 14 32 27 33 28 34
REMARK SMILES IDX 29 35 30 36 31 37 32 38 33 39 34 40 35 41 36 42 37 43 101 44
REMARK SMILES IDX 38 45 100 46 39 47 40 48 41 49 94 50 42 51 99 52 93 53 95 54
REMARK SMILES IDX 43 55 98 56 92 57 91 58 44 60 78 61 57 62 77 63 58 64 61 65
REMARK SMILES IDX 76 66 96 67 59 68 60 69 75 71 97 72 62 73 45 74 46 75 55 76
REMARK SMILES IDX 47 77 48 78 54 79 56 80 49 81 50 82 51 83 52 84 53 85 79 86
REMARK SMILES IDX 80 87 89 88 81 89 82 90 88 91 90 92 83 93 84 94 85 95 86 96
REMARK SMILES IDX 87 97 63 98 64 99 73 100 65 101 66 102 72 103 74 104 67 105
REMARK SMILES IDX 68 106 69 107 70 108 71 109
REMARK H PARENT 17 17 11 29 95 59 61 70
REMARK Flexibility Score: inf
ROOT
ATOM      1  C   UNL A   1      38.829  34.627  33.109  1.00  0.00     0.188 C 
ENDROOT
BRANCH   1   2
ATOM      2  C   UNL A   1      39.786  34.517  34.305  1.00  0.00     0.188 C 
BRANCH   2   3
ATOM      3  O   UNL A   1      41.027  35.195  34.362  1.00  0.00    -0.376 OA
BRANCH   3   4
ATOM      4  C   UNL A   1      42.132  34.845  35.170  1.00  0.00     0.202 C 
BRANCH   4   5
ATOM      5  C   UNL A   1      42.312  33.505  35.905  1.00  0.00     0.261 C 
BRANCH   5   6
ATOM      6  O   UNL A   1      43.083  32.488  35.257  1.00  0.00    -0.461 OA
BRANCH   6   7
ATOM      7  C   UNL A   1      42.551  31.245  35.295  1.00  0.00     0.331 C 
ATOM      8  O   UNL A   1      42.210  30.682  36.338  1.00  0.00    -0.249 OA
BRANCH   7   9
ATOM      9  C   UNL A   1      42.423  30.529  33.918  1.00  0.00     0.138 C 
ATOM     10  C   UNL A   1      43.119  31.453  32.907  1.00  0.00     0.040 C 
ATOM     11  C   UNL A   1      41.083  30.342  33.185  1.00  0.00     0.040 C 
ATOM     12  C   UNL A   1      42.020  32.437  32.474  1.00  0.00     0.003 C 
ATOM     13  C   UNL A   1      40.697  31.702  32.641  1.00  0.00     0.003 C 
BRANCH   9  14
ATOM     14  N   UNL A   1      43.174  29.270  34.150  1.00  0.00    -0.337 N 
ATOM     15  O   UNL A   1      43.318  28.449  32.001  1.00  0.00    -0.270 OA
ATOM     16  C   UNL A   1      43.428  28.309  33.212  1.00  0.00     0.244 C 
ATOM     17  H   UNL A   1      43.521  29.114  35.058  1.00  0.00     0.164 HD
BRANCH  16  18
ATOM     18  C   UNL A   1      43.963  27.019  33.702  1.00  0.00     0.072 C 
ATOM     19  C   UNL A   1      43.927  25.813  33.112  1.00  0.00     0.014 C 
BRANCH  19  20
ATOM     20  C   UNL A   1      44.464  24.630  33.806  1.00  0.00    -0.025 A 
ATOM     21  C   UNL A   1      45.266  24.741  34.944  1.00  0.00     0.009 A 
ATOM     22  C   UNL A   1      44.219  23.350  33.299  1.00  0.00     0.009 A 
ATOM     23  C   UNL A   1      45.797  23.588  35.555  1.00  0.00     0.014 A 
ATOM     24  C   UNL A   1      44.725  22.209  33.923  1.00  0.00     0.014 A 
ATOM     25  C   UNL A   1      45.542  22.300  35.047  1.00  0.00     0.039 A 
BRANCH  25  26
ATOM     26  C   UNL A   1      46.176  21.131  35.741  1.00  0.00     0.251 C 
ATOM     27  O   UNL A   1      45.714  20.756  36.821  1.00  0.00    -0.269 OA
ATOM     28  N   UNL A   1      47.273  20.445  35.256  1.00  0.00    -0.349 N 
ATOM     29  H   UNL A   1      47.593  19.723  35.844  1.00  0.00     0.164 HD
BRANCH  28  30
ATOM     30  C   UNL A   1      48.021  20.596  34.057  1.00  0.00     0.082 C 
ATOM     31  C   UNL A   1      49.502  20.309  34.032  1.00  0.00     0.027 C 
ATOM     32  C   UNL A   1      48.555  19.404  33.308  1.00  0.00     0.027 C 
ENDBRANCH  28  30
ENDBRANCH  25  26
ENDBRANCH  19  20
ENDBRANCH  16  18
ENDBRANCH   9  14
ENDBRANCH   7   9
ENDBRANCH   6   7
ENDBRANCH   5   6
ENDBRANCH   4   5
ENDBRANCH   3   4
ENDBRANCH   2   3
ENDBRANCH   1   2
BRANCH   1  33
ATOM     33  O   UNL A   1      37.449  34.870  33.230  1.00  0.00    -0.377 OA
BRANCH  33  34
ATOM     34  C   UNL A   1      36.658  34.394  32.166  1.00  0.00     0.188 C 
BRANCH  34  35
ATOM     35  C   UNL A   1      35.347  33.834  32.709  1.00  0.00     0.188 C 
BRANCH  35  36
ATOM     36  O   UNL A   1      34.435  33.456  31.691  1.00  0.00    -0.376 OA
BRANCH  36  37
ATOM     37  C   UNL A   1      34.777  33.595  30.314  1.00  0.00     0.202 C 
BRANCH  37  38
ATOM     38  C   UNL A   1      35.744  32.695  29.501  1.00  0.00     0.261 C 
BRANCH  38  39
ATOM     39  O   UNL A   1      35.665  31.270  29.629  1.00  0.00    -0.460 OA
BRANCH  39  40
ATOM     40  C   UNL A   1      36.305  30.685  30.656  1.00  0.00     0.338 C 
ATOM     41  O   UNL A   1      35.896  30.565  31.800  1.00  0.00    -0.246 OA
BRANCH  40  42
ATOM     42  C   UNL A   1      37.505  30.015  30.103  1.00  0.00     0.060 A 
ATOM     43  C   UNL A   1      38.389  29.396  30.996  1.00  0.00     0.016 A 
ATOM     44  C   UNL A   1      37.748  29.962  28.725  1.00  0.00     0.016 A 
ATOM     45  C   UNL A   1      39.538  28.769  30.523  1.00  0.00     0.010 A 
ATOM     46  C   UNL A   1      38.920  29.356  28.253  1.00  0.00     0.010 A 
ATOM     47  C   UNL A   1      39.840  28.796  29.156  1.00  0.00    -0.014 A 
BRANCH  47  48
ATOM     48  C   UNL A   1      41.218  28.439  28.733  1.00  0.00     0.031 A 
ATOM     49  C   UNL A   1      42.274  29.513  28.782  1.00  0.00     0.074 A 
ATOM     50  C   UNL A   1      41.547  27.176  28.410  1.00  0.00     0.049 A 
ATOM     51  N   UNL A   1      43.555  29.430  28.532  1.00  0.00    -0.248 NA
ATOM     52  C   UNL A   1      41.823  30.859  29.169  1.00  0.00     0.031 C 
ATOM     53  C   UNL A   1      40.622  26.045  28.367  1.00  0.00     0.029 A 
ATOM     54  N   UNL A   1      42.760  26.632  28.065  1.00  0.00    -0.354 N 
ATOM     55  C   UNL A   1      44.062  30.708  28.734  1.00  0.00     0.074 A 
ATOM     56  C   UNL A   1      42.946  31.557  29.088  1.00  0.00     0.031 C 
ATOM     57  C   UNL A   1      41.301  24.939  28.015  1.00  0.00     0.029 A 
ATOM     58  C   UNL A   1      42.703  25.288  27.785  1.00  0.00     0.049 A 
ATOM     59  H   UNL A   1      43.592  27.157  28.022  1.00  0.00     0.167 HD
ATOM     60  C   UNL A   1      45.344  31.136  28.648  1.00  0.00     0.037 A 
ATOM     61  C   UNL A   1      43.671  24.442  27.377  1.00  0.00     0.037 A 
ATOM     62  C   UNL A   1      46.451  30.286  28.290  1.00  0.00     0.049 A 
ATOM     63  C   UNL A   1      45.082  24.954  27.226  1.00  0.00     0.074 A 
ATOM     64  C   UNL A   1      47.789  30.619  28.184  1.00  0.00     0.029 A 
ATOM     65  N   UNL A   1      46.347  28.940  27.969  1.00  0.00    -0.354 N 
ATOM     66  N   UNL A   1      45.552  26.160  27.446  1.00  0.00    -0.248 NA
ATOM     67  C   UNL A   1      46.095  23.987  26.784  1.00  0.00     0.031 C 
ATOM     68  C   UNL A   1      48.486  29.490  27.740  1.00  0.00     0.029 A 
ATOM     69  C   UNL A   1      47.594  28.435  27.637  1.00  0.00     0.049 A 
ATOM     70  H   UNL A   1      45.510  28.422  27.976  1.00  0.00     0.167 HD
ATOM     71  C   UNL A   1      46.920  26.088  27.197  1.00  0.00     0.074 A 
ATOM     72  C   UNL A   1      47.201  24.715  26.830  1.00  0.00     0.031 C 
ATOM     73  C   UNL A   1      47.859  27.065  27.268  1.00  0.00     0.037 A 
BRANCH  60  74
ATOM     74  C   UNL A   1      45.612  32.594  28.910  1.00  0.00     0.058 A 
ATOM     75  C   UNL A   1      45.791  33.097  30.209  1.00  0.00     0.135 A 
ATOM     76  C   UNL A   1      45.719  33.497  27.840  1.00  0.00     0.135 A 
ATOM     77  F   UNL A   1      45.677  32.282  31.271  1.00  0.00    -0.206 F 
ATOM     78  C   UNL A   1      46.042  34.446  30.440  1.00  0.00     0.059 A 
ATOM     79  C   UNL A   1      46.000  34.845  28.045  1.00  0.00     0.059 A 
ATOM     80  F   UNL A   1      45.551  33.073  26.577  1.00  0.00    -0.206 F 
ATOM     81  C   UNL A   1      46.146  35.312  29.349  1.00  0.00     0.060 A 
BRANCH  81  82
ATOM     82  S   UNL A   1      46.485  37.057  29.665  1.00  0.00     0.124 S 
ATOM     83  O   UNL A   1      45.671  37.702  28.639  1.00  0.00    -0.237 OA
ATOM     84  O   UNL A   1      46.022  37.221  31.038  1.00  0.00    -0.237 OA
ATOM     85  O   UNL A   1      47.929  37.163  29.476  1.00  0.00    -0.744 OA
ENDBRANCH  81  82
ENDBRANCH  60  74
BRANCH  61  86
ATOM     86  C   UNL A   1      43.341  23.021  27.077  1.00  0.00     0.058 A 
ATOM     87  C   UNL A   1      43.163  22.572  25.760  1.00  0.00     0.135 A 
ATOM     88  C   UNL A   1      43.187  22.083  28.110  1.00  0.00     0.135 A 
ATOM     89  F   UNL A   1      43.284  23.431  24.736  1.00  0.00    -0.206 F 
ATOM     90  C   UNL A   1      42.831  21.250  25.477  1.00  0.00     0.059 A 
ATOM     91  C   UNL A   1      42.885  20.750  27.852  1.00  0.00     0.059 A 
ATOM     92  F   UNL A   1      43.353  22.457  29.389  1.00  0.00    -0.206 F 
ATOM     93  C   UNL A   1      42.699  20.345  26.532  1.00  0.00     0.060 A 
BRANCH  93  94
ATOM     94  S   UNL A   1      42.326  18.619  26.152  1.00  0.00     0.124 S 
ATOM     95  O   UNL A   1      43.379  18.292  25.197  1.00  0.00    -0.237 OA
ATOM     96  O   UNL A   1      42.435  17.989  27.464  1.00  0.00    -0.237 OA
ATOM     97  O   UNL A   1      40.974  18.681  25.606  1.00  0.00    -0.744 OA
ENDBRANCH  93  94
ENDBRANCH  61  86
BRANCH  73  98
ATOM     98  C   UNL A   1      49.286  26.676  26.980  1.00  0.00     0.058 A 
ATOM     99  C   UNL A   1      50.152  26.220  27.988  1.00  0.00     0.135 A 
ATOM    100  C   UNL A   1      49.791  26.745  25.670  1.00  0.00     0.135 A 
ATOM    101  F   UNL A   1      49.724  26.131  29.257  1.00  0.00    -0.206 F 
ATOM    102  C   UNL A   1      51.478  25.897  27.716  1.00  0.00     0.059 A 
ATOM    103  C   UNL A   1      51.103  26.393  25.370  1.00  0.00     0.059 A 
ATOM    104  F   UNL A   1      49.004  27.157  24.663  1.00  0.00    -0.206 F 
ATOM    105  C   UNL A   1      51.946  25.993  26.405  1.00  0.00     0.060 A 
BRANCH 105 106
ATOM    106  S   UNL A   1      53.672  25.585  26.068  1.00  0.00     0.124 S 
ATOM    107  O   UNL A   1      54.269  25.722  27.392  1.00  0.00    -0.237 OA
ATOM    108  O   UNL A   1      53.576  24.222  25.554  1.00  0.00    -0.237 OA
ATOM    109  O   UNL A   1      54.075  26.591  25.090  1.00  0.00    -0.744 OA
ENDBRANCH 105 106
ENDBRANCH  73  98
ENDBRANCH  47  48
ENDBRANCH  40  42
ENDBRANCH  39  40
ENDBRANCH  38  39
ENDBRANCH  37  38
ENDBRANCH  36  37
ENDBRANCH  35  36
ENDBRANCH  34  35
ENDBRANCH  33  34
ENDBRANCH   1  33
TORSDOF 28
ENDMDL
