MODEL 1
REMARK VINA RESULT:      -9.3      0.000      0.000
REMARK SMILES CCCCOc1ccc(NC(=O)[C@]2(C)CC[C@](C)(C(=O)OCCOCCOCCOCCOC(=O)c3ccc(-c4c5nc(c(-c6c(F)cc(S(=O)(=O)[O-])cc6F)c6ccc([nH]6)c(-c6c(F)cc(S(=O)(=O)[O-])cc6F)c6nc(c(-c7c(F)cc(S(=O)(=O)[O-])cc7F)c7ccc4[nH]7)C=C6)C=C5)cc3)C2(C)C)cc1
REMARK SMILES IDX 25 1 24 2 23 3 22 4 21 5 19 6 20 7 17 8 13 9 15 10 102 11
REMARK SMILES IDX 14 12 16 13 103 14 104 15 18 16 11 17 10 18 12 20 9 21 6 22
REMARK SMILES IDX 7 23 106 24 8 25 105 26 5 27 4 28 3 29 2 30 1 31 26 32 27 33
REMARK SMILES IDX 28 34 29 35 30 36 31 37 32 38 33 39 34 40 35 41 36 42 37 43
REMARK SMILES IDX 101 44 38 45 100 46 39 47 40 48 41 49 94 50 42 51 99 52
REMARK SMILES IDX 93 53 95 54 43 55 98 56 92 57 91 58 44 60 78 61 57 62 77 63
REMARK SMILES IDX 58 64 61 65 76 66 96 67 59 68 60 69 75 71 97 72 62 73 45 74
REMARK SMILES IDX 46 75 55 76 47 77 48 78 54 79 56 80 49 81 50 82 51 83 52 84
REMARK SMILES IDX 53 85 79 86 80 87 89 88 81 89 82 90 88 91 90 92 83 93 84 94
REMARK SMILES IDX 85 95 86 96 87 97 63 98 64 99 73 100 65 101 66 102 72 103
REMARK SMILES IDX 74 104 67 105 68 106 69 107 70 108 71 109
REMARK H PARENT 10 19 95 59 61 70
REMARK Flexibility Score: inf
ROOT
ATOM      1  C   UNL A   1      33.116  33.021  27.663  1.00  0.00     0.188 C 
ENDROOT
BRANCH   1   2
ATOM      2  O   UNL A   1      32.939  31.628  27.431  1.00  0.00    -0.376 OA
BRANCH   2   3
ATOM      3  C   UNL A   1      31.915  31.205  26.528  1.00  0.00     0.202 C 
BRANCH   3   4
ATOM      4  C   UNL A   1      32.192  30.080  25.501  1.00  0.00     0.261 C 
BRANCH   4   5
ATOM      5  O   UNL A   1      31.060  29.534  24.765  1.00  0.00    -0.463 OA
BRANCH   5   6
ATOM      6  C   UNL A   1      31.367  28.563  23.883  1.00  0.00     0.312 C 
ATOM      7  O   UNL A   1      32.087  28.775  22.901  1.00  0.00    -0.252 OA
BRANCH   6   8
ATOM      8  C   UNL A   1      30.772  27.145  24.091  1.00  0.00     0.071 C 
ATOM      9  C   UNL A   1      31.482  24.754  24.916  1.00  0.00     0.053 C 
ATOM     10  C   UNL A   1      31.180  24.847  23.412  1.00  0.00     0.018 C 
ATOM     11  C   UNL A   1      30.840  26.201  25.412  1.00  0.00    -0.005 C 
ATOM     12  C   UNL A   1      30.817  23.557  25.636  1.00  0.00     0.022 C 
ATOM     13  C   UNL A   1      31.511  26.280  23.055  1.00  0.00     0.020 C 
ATOM     14  C   UNL A   1      29.397  25.972  25.974  1.00  0.00     0.013 C 
ATOM     15  C   UNL A   1      31.575  26.804  26.608  1.00  0.00     0.013 C 
ATOM     16  C   UNL A   1      29.313  27.344  23.573  1.00  0.00     0.024 C 
BRANCH   9  17
ATOM     17  C   UNL A   1      33.001  24.489  25.167  1.00  0.00     0.230 C 
ATOM     18  N   UNL A   1      33.648  23.303  24.937  1.00  0.00    -0.326 N 
ATOM     19  H   UNL A   1      34.625  23.419  24.919  1.00  0.00     0.169 HD
ATOM     20  O   UNL A   1      33.716  25.342  25.704  1.00  0.00    -0.274 OA
BRANCH  18  21
ATOM     21  C   UNL A   1      33.277  21.964  24.722  1.00  0.00     0.041 A 
ATOM     22  C   UNL A   1      32.499  19.343  24.096  1.00  0.00     0.119 A 
ATOM     23  C   UNL A   1      32.914  19.648  25.383  1.00  0.00     0.048 A 
ATOM     24  C   UNL A   1      32.421  20.340  23.130  1.00  0.00     0.048 A 
ATOM     25  C   UNL A   1      33.316  20.951  25.683  1.00  0.00     0.030 A 
ATOM     26  C   UNL A   1      32.856  21.632  23.427  1.00  0.00     0.030 A 
BRANCH  22  27
ATOM     27  O   UNL A   1      32.138  18.077  23.741  1.00  0.00    -0.494 OA
BRANCH  27  28
ATOM     28  C   UNL A   1      33.117  17.451  22.900  1.00  0.00     0.229 C 
BRANCH  28  29
ATOM     29  C   UNL A   1      33.909  16.382  23.661  1.00  0.00     0.041 C 
BRANCH  29  30
ATOM     30  C   UNL A   1      34.939  16.883  24.681  1.00  0.00     0.000 C 
ATOM     31  C   UNL A   1      35.697  15.786  25.410  1.00  0.00     0.004 C 
ENDBRANCH  29  30
ENDBRANCH  28  29
ENDBRANCH  27  28
ENDBRANCH  22  27
ENDBRANCH  18  21
ENDBRANCH   9  17
ENDBRANCH   6   8
ENDBRANCH   5   6
ENDBRANCH   4   5
ENDBRANCH   3   4
ENDBRANCH   2   3
ENDBRANCH   1   2
BRANCH   1  32
ATOM     32  C   UNL A   1      34.225  33.438  28.631  1.00  0.00     0.188 C 
BRANCH  32  33
ATOM     33  O   UNL A   1      33.682  33.864  29.862  1.00  0.00    -0.377 OA
BRANCH  33  34
ATOM     34  C   UNL A   1      34.478  34.515  30.843  1.00  0.00     0.188 C 
BRANCH  34  35
ATOM     35  C   UNL A   1      35.461  33.650  31.628  1.00  0.00     0.188 C 
BRANCH  35  36
ATOM     36  O   UNL A   1      35.021  32.342  32.012  1.00  0.00    -0.376 OA
BRANCH  36  37
ATOM     37  C   UNL A   1      35.936  31.258  31.852  1.00  0.00     0.202 C 
BRANCH  37  38
ATOM     38  C   UNL A   1      35.985  30.638  30.456  1.00  0.00     0.261 C 
BRANCH  38  39
ATOM     39  O   UNL A   1      37.206  29.917  30.231  1.00  0.00    -0.460 OA
BRANCH  39  40
ATOM     40  C   UNL A   1      37.921  30.305  29.149  1.00  0.00     0.338 C 
ATOM     41  O   UNL A   1      37.750  29.980  27.991  1.00  0.00    -0.246 OA
BRANCH  40  42
ATOM     42  C   UNL A   1      38.874  31.346  29.573  1.00  0.00     0.060 A 
ATOM     43  C   UNL A   1      40.151  30.955  29.999  1.00  0.00     0.016 A 
ATOM     44  C   UNL A   1      38.494  32.689  29.596  1.00  0.00     0.016 A 
ATOM     45  C   UNL A   1      41.047  31.907  30.475  1.00  0.00     0.010 A 
ATOM     46  C   UNL A   1      39.384  33.639  30.092  1.00  0.00     0.010 A 
ATOM     47  C   UNL A   1      40.650  33.246  30.559  1.00  0.00    -0.014 A 
BRANCH  47  48
ATOM     48  C   UNL A   1      41.489  34.223  31.284  1.00  0.00     0.031 A 
ATOM     49  C   UNL A   1      41.423  34.243  32.783  1.00  0.00     0.074 A 
ATOM     50  C   UNL A   1      42.271  35.084  30.611  1.00  0.00     0.049 A 
ATOM     51  N   UNL A   1      41.955  35.089  33.625  1.00  0.00    -0.248 NA
ATOM     52  C   UNL A   1      40.644  33.167  33.419  1.00  0.00     0.031 C 
ATOM     53  C   UNL A   1      42.440  35.111  29.159  1.00  0.00     0.029 A 
ATOM     54  N   UNL A   1      43.048  36.118  31.063  1.00  0.00    -0.354 N 
ATOM     55  C   UNL A   1      41.563  34.660  34.887  1.00  0.00     0.074 A 
ATOM     56  C   UNL A   1      40.731  33.492  34.701  1.00  0.00     0.031 C 
ATOM     57  C   UNL A   1      43.250  36.134  28.836  1.00  0.00     0.029 A 
ATOM     58  C   UNL A   1      43.617  36.856  30.053  1.00  0.00     0.049 A 
ATOM     59  H   UNL A   1      43.187  36.312  32.018  1.00  0.00     0.167 HD
ATOM     60  C   UNL A   1      41.873  35.197  36.089  1.00  0.00     0.037 A 
ATOM     61  C   UNL A   1      44.314  38.006  30.108  1.00  0.00     0.037 A 
ATOM     62  C   UNL A   1      42.698  36.367  36.250  1.00  0.00     0.049 A 
ATOM     63  C   UNL A   1      44.578  38.634  31.454  1.00  0.00     0.074 A 
ATOM     64  C   UNL A   1      43.094  36.985  37.421  1.00  0.00     0.029 A 
ATOM     65  N   UNL A   1      43.242  37.100  35.204  1.00  0.00    -0.354 N 
ATOM     66  N   UNL A   1      44.224  38.211  32.645  1.00  0.00    -0.248 NA
ATOM     67  C   UNL A   1      45.330  39.895  31.463  1.00  0.00     0.031 C 
ATOM     68  C   UNL A   1      43.824  38.129  37.081  1.00  0.00     0.029 A 
ATOM     69  C   UNL A   1      43.940  38.188  35.701  1.00  0.00     0.049 A 
ATOM     70  H   UNL A   1      43.145  36.880  34.249  1.00  0.00     0.167 HD
ATOM     71  C   UNL A   1      44.732  39.140  33.547  1.00  0.00     0.074 A 
ATOM     72  C   UNL A   1      45.430  40.139  32.763  1.00  0.00     0.031 C 
ATOM     73  C   UNL A   1      44.630  39.170  34.900  1.00  0.00     0.037 A 
BRANCH  60  74
ATOM     74  C   UNL A   1      41.290  34.552  37.317  1.00  0.00     0.058 A 
ATOM     75  C   UNL A   1      41.968  33.543  38.020  1.00  0.00     0.135 A 
ATOM     76  C   UNL A   1      40.048  34.975  37.817  1.00  0.00     0.135 A 
ATOM     77  F   UNL A   1      43.148  33.085  37.576  1.00  0.00    -0.206 F 
ATOM     78  C   UNL A   1      41.424  32.962  39.162  1.00  0.00     0.059 A 
ATOM     79  C   UNL A   1      39.499  34.430  38.973  1.00  0.00     0.059 A 
ATOM     80  F   UNL A   1      39.353  35.931  37.180  1.00  0.00    -0.206 F 
ATOM     81  C   UNL A   1      40.190  33.415  39.633  1.00  0.00     0.060 A 
BRANCH  81  82
ATOM     82  S   UNL A   1      39.508  32.661  41.125  1.00  0.00     0.124 S 
ATOM     83  O   UNL A   1      40.436  31.555  41.344  1.00  0.00    -0.237 OA
ATOM     84  O   UNL A   1      39.588  33.755  42.089  1.00  0.00    -0.237 OA
ATOM     85  O   UNL A   1      38.158  32.277  40.727  1.00  0.00    -0.744 OA
ENDBRANCH  81  82
ENDBRANCH  60  74
BRANCH  61  86
ATOM     86  C   UNL A   1      44.785  38.654  28.854  1.00  0.00     0.058 A 
ATOM     87  C   UNL A   1      43.980  39.573  28.166  1.00  0.00     0.135 A 
ATOM     88  C   UNL A   1      46.052  38.370  28.319  1.00  0.00     0.135 A 
ATOM     89  F   UNL A   1      42.756  39.871  28.630  1.00  0.00    -0.206 F 
ATOM     90  C   UNL A   1      44.406  40.178  26.988  1.00  0.00     0.059 A 
ATOM     91  C   UNL A   1      46.512  38.983  27.158  1.00  0.00     0.059 A 
ATOM     92  F   UNL A   1      46.867  37.504  28.942  1.00  0.00    -0.206 F 
ATOM     93  C   UNL A   1      45.677  39.879  26.494  1.00  0.00     0.060 A 
BRANCH  93  94
ATOM     94  S   UNL A   1      46.236  40.707  24.990  1.00  0.00     0.124 S 
ATOM     95  O   UNL A   1      47.231  41.634  25.516  1.00  0.00    -0.237 OA
ATOM     96  O   UNL A   1      46.753  39.592  24.203  1.00  0.00    -0.237 OA
ATOM     97  O   UNL A   1      45.015  41.318  24.471  1.00  0.00    -0.744 OA
ENDBRANCH  93  94
ENDBRANCH  61  86
BRANCH  73  98
ATOM     98  C   UNL A   1      45.310  40.301  35.623  1.00  0.00     0.058 A 
ATOM     99  C   UNL A   1      46.618  40.181  36.118  1.00  0.00     0.135 A 
ATOM    100  C   UNL A   1      44.667  41.541  35.766  1.00  0.00     0.135 A 
ATOM    101  F   UNL A   1      47.275  39.015  36.015  1.00  0.00    -0.206 F 
ATOM    102  C   UNL A   1      47.256  41.244  36.748  1.00  0.00     0.059 A 
ATOM    103  C   UNL A   1      45.298  42.628  36.362  1.00  0.00     0.059 A 
ATOM    104  F   UNL A   1      43.420  41.715  35.300  1.00  0.00    -0.206 F 
ATOM    105  C   UNL A   1      46.590  42.466  36.860  1.00  0.00     0.060 A 
BRANCH 105 106
ATOM    106  S   UNL A   1      47.447  43.848  37.642  1.00  0.00     0.124 S 
ATOM    107  O   UNL A   1      48.672  43.919  36.853  1.00  0.00    -0.237 OA
ATOM    108  O   UNL A   1      46.504  44.946  37.451  1.00  0.00    -0.237 OA
ATOM    109  O   UNL A   1      47.615  43.408  39.024  1.00  0.00    -0.744 OA
ENDBRANCH 105 106
ENDBRANCH  73  98
ENDBRANCH  47  48
ENDBRANCH  40  42
ENDBRANCH  39  40
ENDBRANCH  38  39
ENDBRANCH  37  38
ENDBRANCH  36  37
ENDBRANCH  35  36
ENDBRANCH  34  35
ENDBRANCH  33  34
ENDBRANCH  32  33
ENDBRANCH   1  32
TORSDOF 29
ENDMDL
MODEL 2
REMARK VINA RESULT:      -8.8      8.355     11.689
REMARK SMILES CCCCOc1ccc(NC(=O)[C@]2(C)CC[C@](C)(C(=O)OCCOCCOCCOCCOC(=O)c3ccc(-c4c5nc(c(-c6c(F)cc(S(=O)(=O)[O-])cc6F)c6ccc([nH]6)c(-c6c(F)cc(S(=O)(=O)[O-])cc6F)c6nc(c(-c7c(F)cc(S(=O)(=O)[O-])cc7F)c7ccc4[nH]7)C=C6)C=C5)cc3)C2(C)C)cc1
REMARK SMILES IDX 25 1 24 2 23 3 22 4 21 5 19 6 20 7 17 8 13 9 15 10 102 11
REMARK SMILES IDX 14 12 16 13 103 14 104 15 18 16 11 17 10 18 12 20 9 21 6 22
REMARK SMILES IDX 7 23 106 24 8 25 105 26 5 27 4 28 3 29 2 30 1 31 26 32 27 33
REMARK SMILES IDX 28 34 29 35 30 36 31 37 32 38 33 39 34 40 35 41 36 42 37 43
REMARK SMILES IDX 101 44 38 45 100 46 39 47 40 48 41 49 94 50 42 51 99 52
REMARK SMILES IDX 93 53 95 54 43 55 98 56 92 57 91 58 44 60 78 61 57 62 77 63
REMARK SMILES IDX 58 64 61 65 76 66 96 67 59 68 60 69 75 71 97 72 62 73 45 74
REMARK SMILES IDX 46 75 55 76 47 77 48 78 54 79 56 80 49 81 50 82 51 83 52 84
REMARK SMILES IDX 53 85 79 86 80 87 89 88 81 89 82 90 88 91 90 92 83 93 84 94
REMARK SMILES IDX 85 95 86 96 87 97 63 98 64 99 73 100 65 101 66 102 72 103
REMARK SMILES IDX 74 104 67 105 68 106 69 107 70 108 71 109
REMARK H PARENT 10 19 95 59 61 70
REMARK Flexibility Score: inf
ROOT
ATOM      1  C   UNL A   1      32.402  27.688  23.254  1.00  0.00     0.188 C 
ENDROOT
BRANCH   1   2
ATOM      2  O   UNL A   1      31.198  27.910  22.528  1.00  0.00    -0.376 OA
BRANCH   2   3
ATOM      3  C   UNL A   1      29.948  27.708  23.190  1.00  0.00     0.202 C 
BRANCH   3   4
ATOM      4  C   UNL A   1      29.657  26.380  23.929  1.00  0.00     0.261 C 
BRANCH   4   5
ATOM      5  O   UNL A   1      30.792  25.585  24.377  1.00  0.00    -0.463 OA
BRANCH   5   6
ATOM      6  C   UNL A   1      30.637  24.995  25.579  1.00  0.00     0.312 C 
ATOM      7  O   UNL A   1      30.028  25.543  26.503  1.00  0.00    -0.252 OA
BRANCH   6   8
ATOM      8  C   UNL A   1      31.270  23.598  25.815  1.00  0.00     0.071 C 
ATOM      9  C   UNL A   1      33.249  22.100  24.952  1.00  0.00     0.053 C 
ATOM     10  C   UNL A   1      31.850  21.592  24.569  1.00  0.00     0.018 C 
ATOM     11  C   UNL A   1      32.825  23.224  26.097  1.00  0.00    -0.005 C 
ATOM     12  C   UNL A   1      34.193  21.021  25.532  1.00  0.00     0.022 C 
ATOM     13  C   UNL A   1      31.007  22.847  24.497  1.00  0.00     0.020 C 
ATOM     14  C   UNL A   1      32.970  22.600  27.525  1.00  0.00     0.013 C 
ATOM     15  C   UNL A   1      33.783  24.414  26.152  1.00  0.00     0.013 C 
ATOM     16  C   UNL A   1      30.307  23.001  26.889  1.00  0.00     0.024 C 
BRANCH   9  17
ATOM     17  C   UNL A   1      34.034  22.584  23.690  1.00  0.00     0.230 C 
ATOM     18  N   UNL A   1      35.398  22.616  23.570  1.00  0.00    -0.326 N 
ATOM     19  H   UNL A   1      35.679  22.708  22.632  1.00  0.00     0.169 HD
ATOM     20  O   UNL A   1      33.445  23.078  22.724  1.00  0.00    -0.274 OA
BRANCH  18  21
ATOM     21  C   UNL A   1      36.501  22.553  24.441  1.00  0.00     0.041 A 
ATOM     22  C   UNL A   1      38.737  22.237  26.105  1.00  0.00     0.119 A 
ATOM     23  C   UNL A   1      38.015  23.420  26.141  1.00  0.00     0.048 A 
ATOM     24  C   UNL A   1      38.329  21.192  25.285  1.00  0.00     0.048 A 
ATOM     25  C   UNL A   1      36.913  23.577  25.298  1.00  0.00     0.030 A 
ATOM     26  C   UNL A   1      37.247  21.367  24.420  1.00  0.00     0.030 A 
BRANCH  22  27
ATOM     27  O   UNL A   1      39.846  22.051  26.876  1.00  0.00    -0.494 OA
BRANCH  27  28
ATOM     28  C   UNL A   1      40.712  23.195  26.862  1.00  0.00     0.229 C 
BRANCH  28  29
ATOM     29  C   UNL A   1      40.902  23.771  28.269  1.00  0.00     0.041 C 
BRANCH  29  30
ATOM     30  C   UNL A   1      40.911  25.301  28.392  1.00  0.00     0.000 C 
ATOM     31  C   UNL A   1      39.549  25.958  28.239  1.00  0.00     0.004 C 
ENDBRANCH  29  30
ENDBRANCH  28  29
ENDBRANCH  27  28
ENDBRANCH  22  27
ENDBRANCH  18  21
ENDBRANCH   9  17
ENDBRANCH   6   8
ENDBRANCH   5   6
ENDBRANCH   4   5
ENDBRANCH   3   4
ENDBRANCH   2   3
ENDBRANCH   1   2
BRANCH   1  32
ATOM     32  C   UNL A   1      33.109  28.915  23.835  1.00  0.00     0.188 C 
BRANCH  32  33
ATOM     33  O   UNL A   1      32.606  29.224  25.117  1.00  0.00    -0.377 OA
BRANCH  33  34
ATOM     34  C   UNL A   1      32.678  28.295  26.190  1.00  0.00     0.188 C 
BRANCH  34  35
ATOM     35  C   UNL A   1      33.707  28.576  27.284  1.00  0.00     0.188 C 
BRANCH  35  36
ATOM     36  O   UNL A   1      34.808  29.427  26.945  1.00  0.00    -0.376 OA
BRANCH  36  37
ATOM     37  C   UNL A   1      35.683  29.834  27.998  1.00  0.00     0.202 C 
BRANCH  37  38
ATOM     38  C   UNL A   1      37.128  29.356  27.876  1.00  0.00     0.261 C 
BRANCH  38  39
ATOM     39  O   UNL A   1      37.980  29.961  28.860  1.00  0.00    -0.460 OA
BRANCH  39  40
ATOM     40  C   UNL A   1      38.568  29.105  29.729  1.00  0.00     0.338 C 
ATOM     41  O   UNL A   1      38.029  28.270  30.427  1.00  0.00    -0.246 OA
BRANCH  40  42
ATOM     42  C   UNL A   1      40.029  29.226  29.579  1.00  0.00     0.060 A 
ATOM     43  C   UNL A   1      40.543  29.689  28.360  1.00  0.00     0.016 A 
ATOM     44  C   UNL A   1      40.882  28.841  30.614  1.00  0.00     0.016 A 
ATOM     45  C   UNL A   1      41.920  29.746  28.163  1.00  0.00     0.010 A 
ATOM     46  C   UNL A   1      42.259  28.876  30.408  1.00  0.00     0.010 A 
ATOM     47  C   UNL A   1      42.780  29.301  29.174  1.00  0.00    -0.014 A 
BRANCH  47  48
ATOM     48  C   UNL A   1      44.219  29.122  28.895  1.00  0.00     0.031 A 
ATOM     49  C   UNL A   1      44.662  27.856  28.222  1.00  0.00     0.074 A 
ATOM     50  C   UNL A   1      45.108  30.062  29.259  1.00  0.00     0.049 A 
ATOM     51  N   UNL A   1      45.871  27.414  27.999  1.00  0.00    -0.248 NA
ATOM     52  C   UNL A   1      43.594  26.961  27.743  1.00  0.00     0.031 C 
ATOM     53  C   UNL A   1      44.772  31.347  29.873  1.00  0.00     0.029 A 
ATOM     54  N   UNL A   1      46.476  30.068  29.186  1.00  0.00    -0.354 N 
ATOM     55  C   UNL A   1      45.712  26.185  27.370  1.00  0.00     0.074 A 
ATOM     56  C   UNL A   1      44.291  25.940  27.265  1.00  0.00     0.031 C 
ATOM     57  C   UNL A   1      45.911  32.006  30.148  1.00  0.00     0.029 A 
ATOM     58  C   UNL A   1      47.050  31.171  29.771  1.00  0.00     0.049 A 
ATOM     59  H   UNL A   1      46.997  29.352  28.755  1.00  0.00     0.167 HD
ATOM     60  C   UNL A   1      46.671  25.343  26.921  1.00  0.00     0.037 A 
ATOM     61  C   UNL A   1      48.345  31.447  30.012  1.00  0.00     0.037 A 
ATOM     62  C   UNL A   1      48.081  25.605  27.043  1.00  0.00     0.049 A 
ATOM     63  C   UNL A   1      49.394  30.455  29.578  1.00  0.00     0.074 A 
ATOM     64  C   UNL A   1      49.140  24.831  26.606  1.00  0.00     0.029 A 
ATOM     65  N   UNL A   1      48.627  26.723  27.658  1.00  0.00    -0.354 N 
ATOM     66  N   UNL A   1      49.239  29.306  28.963  1.00  0.00    -0.248 NA
ATOM     67  C   UNL A   1      50.793  30.794  29.874  1.00  0.00     0.031 C 
ATOM     68  C   UNL A   1      50.327  25.450  27.013  1.00  0.00     0.029 A 
ATOM     69  C   UNL A   1      50.010  26.643  27.645  1.00  0.00     0.049 A 
ATOM     70  H   UNL A   1      48.109  27.464  28.047  1.00  0.00     0.167 HD
ATOM     71  C   UNL A   1      50.520  28.796  28.776  1.00  0.00     0.074 A 
ATOM     72  C   UNL A   1      51.438  29.770  29.330  1.00  0.00     0.031 C 
ATOM     73  C   UNL A   1      50.905  27.628  28.202  1.00  0.00     0.037 A 
BRANCH  60  74
ATOM     74  C   UNL A   1      46.230  24.047  26.296  1.00  0.00     0.058 A 
ATOM     75  C   UNL A   1      45.621  23.029  27.047  1.00  0.00     0.135 A 
ATOM     76  C   UNL A   1      46.390  23.836  24.917  1.00  0.00     0.135 A 
ATOM     77  F   UNL A   1      45.462  23.166  28.372  1.00  0.00    -0.206 F 
ATOM     78  C   UNL A   1      45.206  21.838  26.455  1.00  0.00     0.059 A 
ATOM     79  C   UNL A   1      45.955  22.668  24.300  1.00  0.00     0.059 A 
ATOM     80  F   UNL A   1      46.973  24.773  24.153  1.00  0.00    -0.206 F 
ATOM     81  C   UNL A   1      45.375  21.669  25.079  1.00  0.00     0.060 A 
BRANCH  81  82
ATOM     82  S   UNL A   1      44.816  20.127  24.327  1.00  0.00     0.124 S 
ATOM     83  O   UNL A   1      44.709  20.508  22.922  1.00  0.00    -0.237 OA
ATOM     84  O   UNL A   1      45.904  19.210  24.653  1.00  0.00    -0.237 OA
ATOM     85  O   UNL A   1      43.550  19.857  25.000  1.00  0.00    -0.744 OA
ENDBRANCH  81  82
ENDBRANCH  60  74
BRANCH  61  86
ATOM     86  C   UNL A   1      48.721  32.701  30.721  1.00  0.00     0.058 A 
ATOM     87  C   UNL A   1      48.841  32.735  32.117  1.00  0.00     0.135 A 
ATOM     88  C   UNL A   1      48.972  33.889  30.016  1.00  0.00     0.135 A 
ATOM     89  F   UNL A   1      48.601  31.628  32.838  1.00  0.00    -0.206 F 
ATOM     90  C   UNL A   1      49.182  33.903  32.792  1.00  0.00     0.059 A 
ATOM     91  C   UNL A   1      49.343  35.063  30.665  1.00  0.00     0.059 A 
ATOM     92  F   UNL A   1      48.880  33.910  28.677  1.00  0.00    -0.206 F 
ATOM     93  C   UNL A   1      49.436  35.061  32.055  1.00  0.00     0.060 A 
BRANCH  93  94
ATOM     94  S   UNL A   1      49.924  36.558  32.940  1.00  0.00     0.124 S 
ATOM     95  O   UNL A   1      48.658  36.980  33.526  1.00  0.00    -0.237 OA
ATOM     96  O   UNL A   1      50.922  36.046  33.874  1.00  0.00    -0.237 OA
ATOM     97  O   UNL A   1      50.448  37.416  31.882  1.00  0.00    -0.744 OA
ENDBRANCH  93  94
ENDBRANCH  61  86
BRANCH  73  98
ATOM     98  C   UNL A   1      52.382  27.350  28.118  1.00  0.00     0.058 A 
ATOM     99  C   UNL A   1      53.160  27.811  27.045  1.00  0.00     0.135 A 
ATOM    100  C   UNL A   1      53.036  26.667  29.157  1.00  0.00     0.135 A 
ATOM    101  F   UNL A   1      52.584  28.463  26.023  1.00  0.00    -0.206 F 
ATOM    102  C   UNL A   1      54.532  27.587  26.995  1.00  0.00     0.059 A 
ATOM    103  C   UNL A   1      54.412  26.460  29.143  1.00  0.00     0.059 A 
ATOM    104  F   UNL A   1      52.341  26.214  30.212  1.00  0.00    -0.206 F 
ATOM    105  C   UNL A   1      55.150  26.916  28.051  1.00  0.00     0.060 A 
BRANCH 105 106
ATOM    106  S   UNL A   1      56.937  26.670  27.991  1.00  0.00     0.124 S 
ATOM    107  O   UNL A   1      57.028  25.261  27.621  1.00  0.00    -0.237 OA
ATOM    108  O   UNL A   1      57.347  27.623  26.964  1.00  0.00    -0.237 OA
ATOM    109  O   UNL A   1      57.372  26.992  29.347  1.00  0.00    -0.744 OA
ENDBRANCH 105 106
ENDBRANCH  73  98
ENDBRANCH  47  48
ENDBRANCH  40  42
ENDBRANCH  39  40
ENDBRANCH  38  39
ENDBRANCH  37  38
ENDBRANCH  36  37
ENDBRANCH  35  36
ENDBRANCH  34  35
ENDBRANCH  33  34
ENDBRANCH  32  33
ENDBRANCH   1  32
TORSDOF 29
ENDMDL
MODEL 3
REMARK VINA RESULT:      -8.7      2.797      8.559
REMARK SMILES CCCCOc1ccc(NC(=O)[C@]2(C)CC[C@](C)(C(=O)OCCOCCOCCOCCOC(=O)c3ccc(-c4c5nc(c(-c6c(F)cc(S(=O)(=O)[O-])cc6F)c6ccc([nH]6)c(-c6c(F)cc(S(=O)(=O)[O-])cc6F)c6nc(c(-c7c(F)cc(S(=O)(=O)[O-])cc7F)c7ccc4[nH]7)C=C6)C=C5)cc3)C2(C)C)cc1
REMARK SMILES IDX 25 1 24 2 23 3 22 4 21 5 19 6 20 7 17 8 13 9 15 10 102 11
REMARK SMILES IDX 14 12 16 13 103 14 104 15 18 16 11 17 10 18 12 20 9 21 6 22
REMARK SMILES IDX 7 23 106 24 8 25 105 26 5 27 4 28 3 29 2 30 1 31 26 32 27 33
REMARK SMILES IDX 28 34 29 35 30 36 31 37 32 38 33 39 34 40 35 41 36 42 37 43
REMARK SMILES IDX 101 44 38 45 100 46 39 47 40 48 41 49 94 50 42 51 99 52
REMARK SMILES IDX 93 53 95 54 43 55 98 56 92 57 91 58 44 60 78 61 57 62 77 63
REMARK SMILES IDX 58 64 61 65 76 66 96 67 59 68 60 69 75 71 97 72 62 73 45 74
REMARK SMILES IDX 46 75 55 76 47 77 48 78 54 79 56 80 49 81 50 82 51 83 52 84
REMARK SMILES IDX 53 85 79 86 80 87 89 88 81 89 82 90 88 91 90 92 83 93 84 94
REMARK SMILES IDX 85 95 86 96 87 97 63 98 64 99 73 100 65 101 66 102 72 103
REMARK SMILES IDX 74 104 67 105 68 106 69 107 70 108 71 109
REMARK H PARENT 10 19 95 59 61 70
REMARK Flexibility Score: inf
ROOT
ATOM      1  C   UNL A   1      32.713  27.833  23.085  1.00  0.00     0.188 C 
ENDROOT
BRANCH   1   2
ATOM      2  O   UNL A   1      31.411  28.191  22.636  1.00  0.00    -0.376 OA
BRANCH   2   3
ATOM      3  C   UNL A   1      30.299  27.977  23.507  1.00  0.00     0.202 C 
BRANCH   3   4
ATOM      4  C   UNL A   1      29.964  26.554  24.016  1.00  0.00     0.261 C 
BRANCH   4   5
ATOM      5  O   UNL A   1      31.049  25.749  24.559  1.00  0.00    -0.463 OA
BRANCH   5   6
ATOM      6  C   UNL A   1      30.689  24.882  25.525  1.00  0.00     0.312 C 
ATOM      7  O   UNL A   1      29.872  25.183  26.403  1.00  0.00    -0.252 OA
BRANCH   6   8
ATOM      8  C   UNL A   1      31.344  23.476  25.553  1.00  0.00     0.071 C 
ATOM      9  C   UNL A   1      33.406  22.184  24.562  1.00  0.00     0.053 C 
ATOM     10  C   UNL A   1      32.044  21.728  24.015  1.00  0.00     0.018 C 
ATOM     11  C   UNL A   1      32.891  23.084  25.857  1.00  0.00    -0.005 C 
ATOM     12  C   UNL A   1      34.345  21.036  25.000  1.00  0.00     0.022 C 
ATOM     13  C   UNL A   1      31.174  22.962  24.112  1.00  0.00     0.020 C 
ATOM     14  C   UNL A   1      32.973  22.223  27.162  1.00  0.00     0.013 C 
ATOM     15  C   UNL A   1      33.813  24.261  26.173  1.00  0.00     0.013 C 
ATOM     16  C   UNL A   1      30.340  22.685  26.449  1.00  0.00     0.024 C 
BRANCH   9  17
ATOM     17  C   UNL A   1      34.247  22.893  23.451  1.00  0.00     0.230 C 
ATOM     18  N   UNL A   1      35.610  23.036  23.459  1.00  0.00    -0.326 N 
ATOM     19  H   UNL A   1      35.955  23.278  22.570  1.00  0.00     0.169 HD
ATOM     20  O   UNL A   1      33.698  23.476  22.511  1.00  0.00    -0.274 OA
BRANCH  18  21
ATOM     21  C   UNL A   1      36.642  22.927  24.409  1.00  0.00     0.041 A 
ATOM     22  C   UNL A   1      38.737  22.522  26.228  1.00  0.00     0.119 A 
ATOM     23  C   UNL A   1      38.047  23.724  26.232  1.00  0.00     0.048 A 
ATOM     24  C   UNL A   1      38.363  21.502  25.362  1.00  0.00     0.048 A 
ATOM     25  C   UNL A   1      37.016  23.926  25.311  1.00  0.00     0.030 A 
ATOM     26  C   UNL A   1      37.355  21.722  24.422  1.00  0.00     0.030 A 
BRANCH  22  27
ATOM     27  O   UNL A   1      39.779  22.293  27.077  1.00  0.00    -0.494 OA
BRANCH  27  28
ATOM     28  C   UNL A   1      41.039  22.658  26.496  1.00  0.00     0.229 C 
BRANCH  28  29
ATOM     29  C   UNL A   1      41.525  24.014  27.020  1.00  0.00     0.041 C 
BRANCH  29  30
ATOM     30  C   UNL A   1      41.565  25.169  26.010  1.00  0.00     0.000 C 
ATOM     31  C   UNL A   1      40.741  26.384  26.402  1.00  0.00     0.004 C 
ENDBRANCH  29  30
ENDBRANCH  28  29
ENDBRANCH  27  28
ENDBRANCH  22  27
ENDBRANCH  18  21
ENDBRANCH   9  17
ENDBRANCH   6   8
ENDBRANCH   5   6
ENDBRANCH   4   5
ENDBRANCH   3   4
ENDBRANCH   2   3
ENDBRANCH   1   2
BRANCH   1  32
ATOM     32  C   UNL A   1      33.483  28.869  23.908  1.00  0.00     0.188 C 
BRANCH  32  33
ATOM     33  O   UNL A   1      32.714  29.308  25.006  1.00  0.00    -0.377 OA
BRANCH  33  34
ATOM     34  C   UNL A   1      32.585  28.527  26.186  1.00  0.00     0.188 C 
BRANCH  34  35
ATOM     35  C   UNL A   1      33.663  28.699  27.255  1.00  0.00     0.188 C 
BRANCH  35  36
ATOM     36  O   UNL A   1      34.576  29.791  27.096  1.00  0.00    -0.376 OA
BRANCH  36  37
ATOM     37  C   UNL A   1      35.919  29.606  27.540  1.00  0.00     0.202 C 
BRANCH  37  38
ATOM     38  C   UNL A   1      36.520  30.769  28.326  1.00  0.00     0.261 C 
BRANCH  38  39
ATOM     39  O   UNL A   1      35.846  30.979  29.576  1.00  0.00    -0.460 OA
BRANCH  39  40
ATOM     40  C   UNL A   1      36.457  30.453  30.664  1.00  0.00     0.338 C 
ATOM     41  O   UNL A   1      36.320  29.338  31.126  1.00  0.00    -0.246 OA
BRANCH  40  42
ATOM     42  C   UNL A   1      37.475  31.411  31.131  1.00  0.00     0.060 A 
ATOM     43  C   UNL A   1      38.682  30.914  31.642  1.00  0.00     0.016 A 
ATOM     44  C   UNL A   1      37.219  32.783  31.111  1.00  0.00     0.016 A 
ATOM     45  C   UNL A   1      39.632  31.790  32.157  1.00  0.00     0.010 A 
ATOM     46  C   UNL A   1      38.161  33.658  31.648  1.00  0.00     0.010 A 
ATOM     47  C   UNL A   1      39.355  33.161  32.198  1.00  0.00    -0.014 A 
BRANCH  47  48
ATOM     48  C   UNL A   1      40.235  34.072  32.959  1.00  0.00     0.031 A 
ATOM     49  C   UNL A   1      41.419  34.670  32.256  1.00  0.00     0.074 A 
ATOM     50  C   UNL A   1      39.990  34.335  34.253  1.00  0.00     0.049 A 
ATOM     51  N   UNL A   1      42.400  35.381  32.744  1.00  0.00    -0.248 NA
ATOM     52  C   UNL A   1      41.512  34.426  30.806  1.00  0.00     0.031 C 
ATOM     53  C   UNL A   1      38.840  33.841  35.011  1.00  0.00     0.029 A 
ATOM     54  N   UNL A   1      40.710  35.062  35.165  1.00  0.00    -0.354 N 
ATOM     55  C   UNL A   1      43.236  35.656  31.668  1.00  0.00     0.074 A 
ATOM     56  C   UNL A   1      42.659  35.018  30.506  1.00  0.00     0.031 C 
ATOM     57  C   UNL A   1      38.949  34.259  36.284  1.00  0.00     0.029 A 
ATOM     58  C   UNL A   1      40.195  35.007  36.438  1.00  0.00     0.049 A 
ATOM     59  H   UNL A   1      41.517  35.575  34.930  1.00  0.00     0.167 HD
ATOM     60  C   UNL A   1      44.381  36.377  31.659  1.00  0.00     0.037 A 
ATOM     61  C   UNL A   1      40.700  35.471  37.596  1.00  0.00     0.037 A 
ATOM     62  C   UNL A   1      44.941  36.997  32.831  1.00  0.00     0.049 A 
ATOM     63  C   UNL A   1      42.019  36.201  37.575  1.00  0.00     0.074 A 
ATOM     64  C   UNL A   1      46.084  37.768  32.933  1.00  0.00     0.029 A 
ATOM     65  N   UNL A   1      44.403  36.905  34.108  1.00  0.00    -0.354 N 
ATOM     66  N   UNL A   1      42.793  36.477  36.552  1.00  0.00    -0.248 NA
ATOM     67  C   UNL A   1      42.536  36.676  38.865  1.00  0.00     0.031 C 
ATOM     68  C   UNL A   1      46.272  38.088  34.282  1.00  0.00     0.029 A 
ATOM     69  C   UNL A   1      45.210  37.574  35.012  1.00  0.00     0.049 A 
ATOM     70  H   UNL A   1      43.570  36.433  34.337  1.00  0.00     0.167 HD
ATOM     71  C   UNL A   1      43.876  37.181  37.070  1.00  0.00     0.074 A 
ATOM     72  C   UNL A   1      43.648  37.300  38.496  1.00  0.00     0.031 C 
ATOM     73  C   UNL A   1      44.962  37.682  36.429  1.00  0.00     0.037 A 
BRANCH  60  74
ATOM     74  C   UNL A   1      45.120  36.501  30.355  1.00  0.00     0.058 A 
ATOM     75  C   UNL A   1      46.129  35.597  29.982  1.00  0.00     0.135 A 
ATOM     76  C   UNL A   1      44.791  37.522  29.448  1.00  0.00     0.135 A 
ATOM     77  F   UNL A   1      46.500  34.616  30.818  1.00  0.00    -0.206 F 
ATOM     78  C   UNL A   1      46.799  35.715  28.768  1.00  0.00     0.059 A 
ATOM     79  C   UNL A   1      45.426  37.641  28.216  1.00  0.00     0.059 A 
ATOM     80  F   UNL A   1      43.841  38.419  29.756  1.00  0.00    -0.206 F 
ATOM     81  C   UNL A   1      46.437  36.739  27.890  1.00  0.00     0.060 A 
BRANCH  81  82
ATOM     82  S   UNL A   1      47.305  36.867  26.312  1.00  0.00     0.124 S 
ATOM     83  O   UNL A   1      48.700  36.854  26.743  1.00  0.00    -0.237 OA
ATOM     84  O   UNL A   1      46.849  35.671  25.610  1.00  0.00    -0.237 OA
ATOM     85  O   UNL A   1      46.830  38.132  25.762  1.00  0.00    -0.744 OA
ENDBRANCH  81  82
ENDBRANCH  60  74
BRANCH  61  86
ATOM     86  C   UNL A   1      39.973  35.236  38.873  1.00  0.00     0.058 A 
ATOM     87  C   UNL A   1      39.157  36.227  39.436  1.00  0.00     0.135 A 
ATOM     88  C   UNL A   1      40.077  34.013  39.556  1.00  0.00     0.135 A 
ATOM     89  F   UNL A   1      39.033  37.418  38.829  1.00  0.00    -0.206 F 
ATOM     90  C   UNL A   1      38.480  36.022  40.634  1.00  0.00     0.059 A 
ATOM     91  C   UNL A   1      39.387  33.773  40.740  1.00  0.00     0.059 A 
ATOM     92  F   UNL A   1      40.837  33.026  39.056  1.00  0.00    -0.206 F 
ATOM     93  C   UNL A   1      38.599  34.788  41.277  1.00  0.00     0.060 A 
BRANCH  93  94
ATOM     94  S   UNL A   1      37.677  34.519  42.806  1.00  0.00     0.124 S 
ATOM     95  O   UNL A   1      36.304  34.473  42.318  1.00  0.00    -0.237 OA
ATOM     96  O   UNL A   1      38.232  33.254  43.276  1.00  0.00    -0.237 OA
ATOM     97  O   UNL A   1      38.022  35.685  43.614  1.00  0.00    -0.744 OA
ENDBRANCH  93  94
ENDBRANCH  61  86
BRANCH  73  98
ATOM     98  C   UNL A   1      45.974  38.427  37.256  1.00  0.00     0.058 A 
ATOM     99  C   UNL A   1      47.066  37.777  37.850  1.00  0.00     0.135 A 
ATOM    100  C   UNL A   1      45.882  39.821  37.404  1.00  0.00     0.135 A 
ATOM    101  F   UNL A   1      47.198  36.445  37.746  1.00  0.00    -0.206 F 
ATOM    102  C   UNL A   1      48.021  38.479  38.578  1.00  0.00     0.059 A 
ATOM    103  C   UNL A   1      46.843  40.548  38.100  1.00  0.00     0.059 A 
ATOM    104  F   UNL A   1      44.863  40.495  36.847  1.00  0.00    -0.206 F 
ATOM    105  C   UNL A   1      47.904  39.865  38.692  1.00  0.00     0.060 A 
BRANCH 105 106
ATOM    106  S   UNL A   1      49.173  40.767  39.605  1.00  0.00     0.124 S 
ATOM    107  O   UNL A   1      49.129  40.104  40.904  1.00  0.00    -0.237 OA
ATOM    108  O   UNL A   1      50.369  40.515  38.805  1.00  0.00    -0.237 OA
ATOM    109  O   UNL A   1      48.693  42.146  39.586  1.00  0.00    -0.744 OA
ENDBRANCH 105 106
ENDBRANCH  73  98
ENDBRANCH  47  48
ENDBRANCH  40  42
ENDBRANCH  39  40
ENDBRANCH  38  39
ENDBRANCH  37  38
ENDBRANCH  36  37
ENDBRANCH  35  36
ENDBRANCH  34  35
ENDBRANCH  33  34
ENDBRANCH  32  33
ENDBRANCH   1  32
TORSDOF 29
ENDMDL
