MODEL 1
REMARK VINA RESULT:      -6.8      0.000      0.000
REMARK SMILES C[C@@H](C(=O)OCCOCCOCCOCCOC(=O)c1ccc(-c2c3nc(c(-c4c(F)cc(S(=O)(=O)[O-])cc4F)c4ccc([nH]4)c(-c4c(F)cc(S(=O)(=O)[O-])cc4F)c4nc(c(-c5c(F)cc(S(=O)(=O)[O-])cc5F)c5ccc2[nH]5)C=C4)C=C3)cc1)c1ccc(C[C@H]2CCCC2=O)cc1
REMARK SMILES IDX 11 1 10 2 9 3 8 4 7 5 6 6 5 7 3 8 4 9 2 10 1 11 86 12 87 13
REMARK SMILES IDX 98 14 88 15 97 16 89 17 90 18 91 19 92 20 95 21 93 22 94 23
REMARK SMILES IDX 96 24 12 25 13 26 14 27 15 28 16 29 17 30 18 31 19 32 20 33
REMARK SMILES IDX 21 34 85 35 22 36 84 37 23 38 24 39 25 40 78 41 26 42 83 43
REMARK SMILES IDX 77 44 79 45 27 46 82 47 76 48 75 49 28 51 62 52 41 53 61 54
REMARK SMILES IDX 42 55 45 56 60 57 80 58 43 59 44 60 59 62 81 63 46 64 29 65
REMARK SMILES IDX 30 66 39 67 31 68 32 69 38 70 40 71 33 72 34 73 35 74 36 75
REMARK SMILES IDX 37 76 63 77 64 78 73 79 65 80 66 81 72 82 74 83 67 84 68 85
REMARK SMILES IDX 69 86 70 87 71 88 47 89 48 90 57 91 49 92 50 93 56 94 58 95
REMARK SMILES IDX 51 96 52 97 53 98 54 99 55 100
REMARK H PARENT 79 50 45 61
REMARK Flexibility Score: inf
ROOT
ATOM      1  O   UNL A   1      39.418  32.534  39.665  1.00  0.00    -0.377 OA
ENDROOT
BRANCH   1   2
ATOM      2  C   UNL A   1      38.314  32.922  38.873  1.00  0.00     0.188 C 
BRANCH   2   3
ATOM      3  C   UNL A   1      38.576  32.923  37.363  1.00  0.00     0.188 C 
BRANCH   3   4
ATOM      4  O   UNL A   1      37.665  32.235  36.534  1.00  0.00    -0.376 OA
BRANCH   4   5
ATOM      5  C   UNL A   1      37.914  32.079  35.144  1.00  0.00     0.202 C 
BRANCH   5   6
ATOM      6  C   UNL A   1      36.938  32.408  33.991  1.00  0.00     0.261 C 
BRANCH   6   7
ATOM      7  O   UNL A   1      37.502  32.706  32.711  1.00  0.00    -0.463 OA
BRANCH   7   8
ATOM      8  C   UNL A   1      38.051  31.691  32.001  1.00  0.00     0.313 C 
ATOM      9  O   UNL A   1      37.905  30.503  32.272  1.00  0.00    -0.252 OA
BRANCH   8  10
ATOM     10  C   UNL A   1      38.775  32.171  30.734  1.00  0.00     0.126 C 
ATOM     11  C   UNL A   1      38.056  33.313  29.992  1.00  0.00     0.025 C 
BRANCH  10  12
ATOM     12  C   UNL A   1      39.248  31.035  29.816  1.00  0.00    -0.034 A 
ATOM     13  C   UNL A   1      40.575  30.582  29.820  1.00  0.00     0.005 A 
ATOM     14  C   UNL A   1      38.377  30.454  28.881  1.00  0.00     0.005 A 
ATOM     15  C   UNL A   1      41.013  29.577  28.962  1.00  0.00     0.004 A 
ATOM     16  C   UNL A   1      38.839  29.514  27.948  1.00  0.00     0.004 A 
ATOM     17  C   UNL A   1      40.176  29.102  27.954  1.00  0.00    -0.047 A 
BRANCH  17  18
ATOM     18  C   UNL A   1      40.751  28.263  26.839  1.00  0.00     0.047 C 
BRANCH  18  19
ATOM     19  C   UNL A   1      41.161  26.834  27.245  1.00  0.00     0.060 C 
ATOM     20  C   UNL A   1      40.307  26.156  28.324  1.00  0.00     0.012 C 
ATOM     21  C   UNL A   1      41.061  25.842  26.107  1.00  0.00     0.136 C 
ATOM     22  C   UNL A   1      39.303  25.267  27.599  1.00  0.00     0.009 C 
ATOM     23  C   UNL A   1      40.002  24.791  26.333  1.00  0.00     0.076 C 
ATOM     24  O   UNL A   1      41.769  25.883  25.107  1.00  0.00    -0.299 OA
ENDBRANCH  18  19
ENDBRANCH  17  18
ENDBRANCH  10  12
ENDBRANCH   8  10
ENDBRANCH   7   8
ENDBRANCH   6   7
ENDBRANCH   5   6
ENDBRANCH   4   5
ENDBRANCH   3   4
ENDBRANCH   2   3
ENDBRANCH   1   2
BRANCH   1  25
ATOM     25  C   UNL A   1      40.612  33.304  39.577  1.00  0.00     0.188 C 
BRANCH  25  26
ATOM     26  C   UNL A   1      41.482  33.587  40.823  1.00  0.00     0.188 C 
BRANCH  26  27
ATOM     27  O   UNL A   1      40.873  34.397  41.820  1.00  0.00    -0.376 OA
BRANCH  27  28
ATOM     28  C   UNL A   1      40.085  35.503  41.410  1.00  0.00     0.202 C 
BRANCH  28  29
ATOM     29  C   UNL A   1      40.821  36.800  41.037  1.00  0.00     0.261 C 
BRANCH  29  30
ATOM     30  O   UNL A   1      41.286  36.900  39.682  1.00  0.00    -0.460 OA
BRANCH  30  31
ATOM     31  C   UNL A   1      40.363  37.034  38.707  1.00  0.00     0.338 C 
ATOM     32  O   UNL A   1      39.282  37.591  38.792  1.00  0.00    -0.246 OA
BRANCH  31  33
ATOM     33  C   UNL A   1      40.972  36.566  37.443  1.00  0.00     0.060 A 
ATOM     34  C   UNL A   1      40.141  36.291  36.349  1.00  0.00     0.016 A 
ATOM     35  C   UNL A   1      42.356  36.413  37.336  1.00  0.00     0.016 A 
ATOM     36  C   UNL A   1      40.689  35.822  35.156  1.00  0.00     0.010 A 
ATOM     37  C   UNL A   1      42.901  35.919  36.148  1.00  0.00     0.010 A 
ATOM     38  C   UNL A   1      42.066  35.586  35.066  1.00  0.00    -0.014 A 
BRANCH  38  39
ATOM     39  C   UNL A   1      42.604  34.794  33.933  1.00  0.00     0.031 A 
ATOM     40  C   UNL A   1      42.591  33.292  34.050  1.00  0.00     0.074 A 
ATOM     41  C   UNL A   1      43.069  35.383  32.817  1.00  0.00     0.049 A 
ATOM     42  N   UNL A   1      43.058  32.390  33.229  1.00  0.00    -0.248 NA
ATOM     43  C   UNL A   1      41.968  32.736  35.263  1.00  0.00     0.031 C 
ATOM     44  C   UNL A   1      43.090  36.823  32.566  1.00  0.00     0.029 A 
ATOM     45  N   UNL A   1      43.626  34.836  31.687  1.00  0.00    -0.354 N 
ATOM     46  C   UNL A   1      42.796  31.163  33.827  1.00  0.00     0.074 A 
ATOM     47  C   UNL A   1      42.157  31.437  35.095  1.00  0.00     0.031 C 
ATOM     48  C   UNL A   1      43.650  37.047  31.364  1.00  0.00     0.029 A 
ATOM     49  C   UNL A   1      44.059  35.772  30.777  1.00  0.00     0.049 A 
ATOM     50  H   UNL A   1      43.708  33.865  31.543  1.00  0.00     0.167 HD
ATOM     51  C   UNL A   1      43.053  29.920  33.357  1.00  0.00     0.037 A 
ATOM     52  C   UNL A   1      44.734  35.614  29.620  1.00  0.00     0.037 A 
ATOM     53  C   UNL A   1      43.692  29.656  32.095  1.00  0.00     0.049 A 
ATOM     54  C   UNL A   1      45.081  34.222  29.152  1.00  0.00     0.074 A 
ATOM     55  C   UNL A   1      43.990  28.431  31.522  1.00  0.00     0.029 A 
ATOM     56  N   UNL A   1      44.139  30.629  31.213  1.00  0.00    -0.354 N 
ATOM     57  N   UNL A   1      44.811  33.067  29.717  1.00  0.00    -0.248 NA
ATOM     58  C   UNL A   1      45.821  34.108  27.886  1.00  0.00     0.031 C 
ATOM     59  C   UNL A   1      44.670  28.665  30.324  1.00  0.00     0.029 A 
ATOM     60  C   UNL A   1      44.735  30.034  30.114  1.00  0.00     0.049 A 
ATOM     61  H   UNL A   1      44.045  31.600  31.348  1.00  0.00     0.167 HD
ATOM     62  C   UNL A   1      45.318  32.094  28.861  1.00  0.00     0.074 A 
ATOM     63  C   UNL A   1      45.900  32.793  27.735  1.00  0.00     0.031 C 
ATOM     64  C   UNL A   1      45.302  30.744  28.993  1.00  0.00     0.037 A 
BRANCH  51  65
ATOM     65  C   UNL A   1      42.672  28.752  34.225  1.00  0.00     0.058 A 
ATOM     66  C   UNL A   1      41.480  28.036  34.027  1.00  0.00     0.135 A 
ATOM     67  C   UNL A   1      43.530  28.320  35.250  1.00  0.00     0.135 A 
ATOM     68  F   UNL A   1      40.612  28.419  33.076  1.00  0.00    -0.206 F 
ATOM     69  C   UNL A   1      41.144  26.949  34.826  1.00  0.00     0.059 A 
ATOM     70  C   UNL A   1      43.227  27.215  36.041  1.00  0.00     0.059 A 
ATOM     71  F   UNL A   1      44.680  28.970  35.489  1.00  0.00    -0.206 F 
ATOM     72  C   UNL A   1      42.025  26.543  35.829  1.00  0.00     0.060 A 
BRANCH  72  73
ATOM     73  S   UNL A   1      41.579  25.121  36.846  1.00  0.00     0.124 S 
ATOM     74  O   UNL A   1      40.468  25.658  37.626  1.00  0.00    -0.237 OA
ATOM     75  O   UNL A   1      41.224  24.122  35.843  1.00  0.00    -0.237 OA
ATOM     76  O   UNL A   1      42.797  24.845  37.600  1.00  0.00    -0.744 OA
ENDBRANCH  72  73
ENDBRANCH  51  65
BRANCH  52  77
ATOM     77  C   UNL A   1      45.147  36.806  28.827  1.00  0.00     0.058 A 
ATOM     78  C   UNL A   1      44.384  37.261  27.742  1.00  0.00     0.135 A 
ATOM     79  C   UNL A   1      46.326  37.505  29.133  1.00  0.00     0.135 A 
ATOM     80  F   UNL A   1      43.256  36.620  27.399  1.00  0.00    -0.206 F 
ATOM     81  C   UNL A   1      44.780  38.355  26.978  1.00  0.00     0.059 A 
ATOM     82  C   UNL A   1      46.728  38.620  28.403  1.00  0.00     0.059 A 
ATOM     83  F   UNL A   1      47.091  37.116  30.165  1.00  0.00    -0.206 F 
ATOM     84  C   UNL A   1      45.953  39.031  27.320  1.00  0.00     0.060 A 
BRANCH  84  85
ATOM     85  S   UNL A   1      46.435  40.476  26.349  1.00  0.00     0.124 S 
ATOM     86  O   UNL A   1      45.740  41.548  27.053  1.00  0.00    -0.237 OA
ATOM     87  O   UNL A   1      47.888  40.461  26.482  1.00  0.00    -0.237 OA
ATOM     88  O   UNL A   1      45.931  40.166  25.014  1.00  0.00    -0.744 OA
ENDBRANCH  84  85
ENDBRANCH  52  77
BRANCH  64  89
ATOM     89  C   UNL A   1      45.886  29.923  27.874  1.00  0.00     0.058 A 
ATOM     90  C   UNL A   1      45.132  29.552  26.750  1.00  0.00     0.135 A 
ATOM     91  C   UNL A   1      47.243  29.554  27.900  1.00  0.00     0.135 A 
ATOM     92  F   UNL A   1      43.831  29.873  26.674  1.00  0.00    -0.206 F 
ATOM     93  C   UNL A   1      45.694  28.824  25.705  1.00  0.00     0.059 A 
ATOM     94  C   UNL A   1      47.833  28.856  26.851  1.00  0.00     0.059 A 
ATOM     95  F   UNL A   1      48.015  29.894  28.944  1.00  0.00    -0.206 F 
ATOM     96  C   UNL A   1      47.046  28.484  25.763  1.00  0.00     0.060 A 
BRANCH  96  97
ATOM     97  S   UNL A   1      47.768  27.568  24.385  1.00  0.00     0.124 S 
ATOM     98  O   UNL A   1      47.761  26.204  24.901  1.00  0.00    -0.237 OA
ATOM     99  O   UNL A   1      46.828  27.843  23.303  1.00  0.00    -0.237 OA
ATOM    100  O   UNL A   1      49.088  28.172  24.228  1.00  0.00    -0.744 OA
ENDBRANCH  96  97
ENDBRANCH  64  89
ENDBRANCH  38  39
ENDBRANCH  31  33
ENDBRANCH  30  31
ENDBRANCH  29  30
ENDBRANCH  28  29
ENDBRANCH  27  28
ENDBRANCH  26  27
ENDBRANCH  25  26
ENDBRANCH   1  25
TORSDOF 26
ENDMDL
MODEL 2
REMARK VINA RESULT:      -6.7      5.391      8.221
REMARK SMILES C[C@@H](C(=O)OCCOCCOCCOCCOC(=O)c1ccc(-c2c3nc(c(-c4c(F)cc(S(=O)(=O)[O-])cc4F)c4ccc([nH]4)c(-c4c(F)cc(S(=O)(=O)[O-])cc4F)c4nc(c(-c5c(F)cc(S(=O)(=O)[O-])cc5F)c5ccc2[nH]5)C=C4)C=C3)cc1)c1ccc(C[C@H]2CCCC2=O)cc1
REMARK SMILES IDX 11 1 10 2 9 3 8 4 7 5 6 6 5 7 3 8 4 9 2 10 1 11 86 12 87 13
REMARK SMILES IDX 98 14 88 15 97 16 89 17 90 18 91 19 92 20 95 21 93 22 94 23
REMARK SMILES IDX 96 24 12 25 13 26 14 27 15 28 16 29 17 30 18 31 19 32 20 33
REMARK SMILES IDX 21 34 85 35 22 36 84 37 23 38 24 39 25 40 78 41 26 42 83 43
REMARK SMILES IDX 77 44 79 45 27 46 82 47 76 48 75 49 28 51 62 52 41 53 61 54
REMARK SMILES IDX 42 55 45 56 60 57 80 58 43 59 44 60 59 62 81 63 46 64 29 65
REMARK SMILES IDX 30 66 39 67 31 68 32 69 38 70 40 71 33 72 34 73 35 74 36 75
REMARK SMILES IDX 37 76 63 77 64 78 73 79 65 80 66 81 72 82 74 83 67 84 68 85
REMARK SMILES IDX 69 86 70 87 71 88 47 89 48 90 57 91 49 92 50 93 56 94 58 95
REMARK SMILES IDX 51 96 52 97 53 98 54 99 55 100
REMARK H PARENT 79 50 45 61
REMARK Flexibility Score: inf
ROOT
ATOM      1  O   UNL A   1      34.997  32.435  29.686  1.00  0.00    -0.377 OA
ENDROOT
BRANCH   1   2
ATOM      2  C   UNL A   1      34.387  32.328  28.416  1.00  0.00     0.188 C 
BRANCH   2   3
ATOM      3  C   UNL A   1      34.714  31.039  27.653  1.00  0.00     0.188 C 
BRANCH   3   4
ATOM      4  O   UNL A   1      33.646  30.330  27.066  1.00  0.00    -0.376 OA
BRANCH   4   5
ATOM      5  C   UNL A   1      33.597  28.911  27.109  1.00  0.00     0.202 C 
BRANCH   5   6
ATOM      6  C   UNL A   1      33.731  27.948  25.906  1.00  0.00     0.261 C 
BRANCH   6   7
ATOM      7  O   UNL A   1      33.364  26.580  26.108  1.00  0.00    -0.463 OA
BRANCH   7   8
ATOM      8  C   UNL A   1      32.047  26.270  26.143  1.00  0.00     0.313 C 
ATOM      9  O   UNL A   1      31.349  26.336  27.151  1.00  0.00    -0.252 OA
BRANCH   8  10
ATOM     10  C   UNL A   1      31.471  25.949  24.754  1.00  0.00     0.126 C 
ATOM     11  C   UNL A   1      30.081  26.557  24.493  1.00  0.00     0.025 C 
BRANCH  10  12
ATOM     12  C   UNL A   1      31.589  24.471  24.355  1.00  0.00    -0.034 A 
ATOM     13  C   UNL A   1      31.299  23.435  25.255  1.00  0.00     0.005 A 
ATOM     14  C   UNL A   1      32.065  24.103  23.087  1.00  0.00     0.005 A 
ATOM     15  C   UNL A   1      31.441  22.095  24.904  1.00  0.00     0.004 A 
ATOM     16  C   UNL A   1      32.305  22.759  22.767  1.00  0.00     0.004 A 
ATOM     17  C   UNL A   1      32.036  21.746  23.694  1.00  0.00    -0.047 A 
BRANCH  17  18
ATOM     18  C   UNL A   1      32.480  20.323  23.462  1.00  0.00     0.047 C 
BRANCH  18  19
ATOM     19  C   UNL A   1      33.093  19.624  24.691  1.00  0.00     0.060 C 
ATOM     20  C   UNL A   1      33.107  18.090  24.672  1.00  0.00     0.012 C 
ATOM     21  C   UNL A   1      34.560  19.941  24.883  1.00  0.00     0.136 C 
ATOM     22  C   UNL A   1      34.493  17.666  24.198  1.00  0.00     0.009 C 
ATOM     23  C   UNL A   1      35.452  18.738  24.697  1.00  0.00     0.076 C 
ATOM     24  O   UNL A   1      34.982  21.057  25.166  1.00  0.00    -0.299 OA
ENDBRANCH  18  19
ENDBRANCH  17  18
ENDBRANCH  10  12
ENDBRANCH   8  10
ENDBRANCH   7   8
ENDBRANCH   6   7
ENDBRANCH   5   6
ENDBRANCH   4   5
ENDBRANCH   3   4
ENDBRANCH   2   3
ENDBRANCH   1   2
BRANCH   1  25
ATOM     25  C   UNL A   1      34.563  33.476  30.554  1.00  0.00     0.188 C 
BRANCH  25  26
ATOM     26  C   UNL A   1      35.447  33.973  31.722  1.00  0.00     0.188 C 
BRANCH  26  27
ATOM     27  O   UNL A   1      36.040  32.952  32.513  1.00  0.00    -0.376 OA
BRANCH  27  28
ATOM     28  C   UNL A   1      36.001  33.075  33.926  1.00  0.00     0.202 C 
BRANCH  28  29
ATOM     29  C   UNL A   1      37.265  32.686  34.708  1.00  0.00     0.261 C 
BRANCH  29  30
ATOM     30  O   UNL A   1      38.352  32.153  33.937  1.00  0.00    -0.460 OA
BRANCH  30  31
ATOM     31  C   UNL A   1      39.286  33.016  33.484  1.00  0.00     0.338 C 
ATOM     32  O   UNL A   1      39.396  34.196  33.773  1.00  0.00    -0.246 OA
BRANCH  31  33
ATOM     33  C   UNL A   1      40.290  32.237  32.728  1.00  0.00     0.060 A 
ATOM     34  C   UNL A   1      41.133  31.360  33.424  1.00  0.00     0.016 A 
ATOM     35  C   UNL A   1      40.388  32.362  31.341  1.00  0.00     0.016 A 
ATOM     36  C   UNL A   1      42.108  30.636  32.737  1.00  0.00     0.010 A 
ATOM     37  C   UNL A   1      41.380  31.654  30.658  1.00  0.00     0.010 A 
ATOM     38  C   UNL A   1      42.269  30.817  31.358  1.00  0.00    -0.014 A 
BRANCH  38  39
ATOM     39  C   UNL A   1      43.490  30.308  30.688  1.00  0.00     0.031 A 
ATOM     40  C   UNL A   1      43.415  28.968  30.003  1.00  0.00     0.074 A 
ATOM     41  C   UNL A   1      44.631  31.019  30.663  1.00  0.00     0.049 A 
ATOM     42  N   UNL A   1      44.356  28.285  29.406  1.00  0.00    -0.248 NA
ATOM     43  C   UNL A   1      42.097  28.310  29.994  1.00  0.00     0.031 C 
ATOM     44  C   UNL A   1      44.813  32.346  31.248  1.00  0.00     0.029 A 
ATOM     45  N   UNL A   1      45.859  30.715  30.130  1.00  0.00    -0.354 N 
ATOM     46  C   UNL A   1      43.749  27.117  28.960  1.00  0.00     0.074 A 
ATOM     47  C   UNL A   1      42.367  27.168  29.382  1.00  0.00     0.031 C 
ATOM     48  C   UNL A   1      46.087  32.735  31.058  1.00  0.00     0.029 A 
ATOM     49  C   UNL A   1      46.817  31.671  30.369  1.00  0.00     0.049 A 
ATOM     50  H   UNL A   1      46.036  29.889  29.622  1.00  0.00     0.167 HD
ATOM     51  C   UNL A   1      44.292  26.099  28.253  1.00  0.00     0.037 A 
ATOM     52  C   UNL A   1      48.137  31.670  30.091  1.00  0.00     0.037 A 
ATOM     53  C   UNL A   1      45.670  26.054  27.839  1.00  0.00     0.049 A 
ATOM     54  C   UNL A   1      48.739  30.489  29.370  1.00  0.00     0.074 A 
ATOM     55  C   UNL A   1      46.316  25.071  27.110  1.00  0.00     0.029 A 
ATOM     56  N   UNL A   1      46.615  27.029  28.123  1.00  0.00    -0.354 N 
ATOM     57  N   UNL A   1      48.152  29.397  28.937  1.00  0.00    -0.248 NA
ATOM     58  C   UNL A   1      50.183  30.540  29.096  1.00  0.00     0.031 C 
ATOM     59  C   UNL A   1      47.665  25.423  27.005  1.00  0.00     0.029 A 
ATOM     60  C   UNL A   1      47.846  26.658  27.608  1.00  0.00     0.049 A 
ATOM     61  H   UNL A   1      46.437  27.861  28.617  1.00  0.00     0.167 HD
ATOM     62  C   UNL A   1      49.146  28.650  28.313  1.00  0.00     0.074 A 
ATOM     63  C   UNL A   1      50.369  29.418  28.414  1.00  0.00     0.031 C 
ATOM     64  C   UNL A   1      49.055  27.439  27.708  1.00  0.00     0.037 A 
BRANCH  51  65
ATOM     65  C   UNL A   1      43.402  24.935  27.908  1.00  0.00     0.058 A 
ATOM     66  C   UNL A   1      42.777  24.823  26.656  1.00  0.00     0.135 A 
ATOM     67  C   UNL A   1      43.202  23.898  28.834  1.00  0.00     0.135 A 
ATOM     68  F   UNL A   1      42.916  25.797  25.742  1.00  0.00    -0.206 F 
ATOM     69  C   UNL A   1      41.967  23.737  26.342  1.00  0.00     0.059 A 
ATOM     70  C   UNL A   1      42.421  22.786  28.529  1.00  0.00     0.059 A 
ATOM     71  F   UNL A   1      43.770  23.955  30.048  1.00  0.00    -0.206 F 
ATOM     72  C   UNL A   1      41.797  22.721  27.284  1.00  0.00     0.060 A 
BRANCH  72  73
ATOM     73  S   UNL A   1      40.757  21.311  26.854  1.00  0.00     0.124 S 
ATOM     74  O   UNL A   1      39.472  21.961  26.610  1.00  0.00    -0.237 OA
ATOM     75  O   UNL A   1      41.429  20.777  25.674  1.00  0.00    -0.237 OA
ATOM     76  O   UNL A   1      40.816  20.467  28.043  1.00  0.00    -0.744 OA
ENDBRANCH  72  73
ENDBRANCH  51  65
BRANCH  52  77
ATOM     77  C   UNL A   1      48.990  32.818  30.511  1.00  0.00     0.058 A 
ATOM     78  C   UNL A   1      49.678  32.807  31.733  1.00  0.00     0.135 A 
ATOM     79  C   UNL A   1      49.120  33.958  29.700  1.00  0.00     0.135 A 
ATOM     80  F   UNL A   1      49.576  31.748  32.550  1.00  0.00    -0.206 F 
ATOM     81  C   UNL A   1      50.450  33.889  32.145  1.00  0.00     0.059 A 
ATOM     82  C   UNL A   1      49.911  35.039  30.076  1.00  0.00     0.059 A 
ATOM     83  F   UNL A   1      48.488  34.019  28.518  1.00  0.00    -0.206 F 
ATOM     84  C   UNL A   1      50.564  35.000  31.307  1.00  0.00     0.060 A 
BRANCH  84  85
ATOM     85  S   UNL A   1      51.606  36.379  31.832  1.00  0.00     0.124 S 
ATOM     86  O   UNL A   1      51.324  37.371  30.802  1.00  0.00    -0.237 OA
ATOM     87  O   UNL A   1      51.077  36.670  33.161  1.00  0.00    -0.237 OA
ATOM     88  O   UNL A   1      52.951  35.810  31.811  1.00  0.00    -0.744 OA
ENDBRANCH  84  85
ENDBRANCH  52  77
BRANCH  64  89
ATOM     89  C   UNL A   1      50.297  26.882  27.062  1.00  0.00     0.058 A 
ATOM     90  C   UNL A   1      51.255  26.159  27.791  1.00  0.00     0.135 A 
ATOM     91  C   UNL A   1      50.500  27.023  25.678  1.00  0.00     0.135 A 
ATOM     92  F   UNL A   1      51.114  25.998  29.116  1.00  0.00    -0.206 F 
ATOM     93  C   UNL A   1      52.381  25.620  27.177  1.00  0.00     0.059 A 
ATOM     94  C   UNL A   1      51.601  26.463  25.038  1.00  0.00     0.059 A 
ATOM     95  F   UNL A   1      49.609  27.693  24.929  1.00  0.00    -0.206 F 
ATOM     96  C   UNL A   1      52.543  25.773  25.798  1.00  0.00     0.060 A 
BRANCH  96  97
ATOM     97  S   UNL A   1      53.991  25.038  25.011  1.00  0.00     0.124 S 
ATOM     98  O   UNL A   1      53.561  23.655  24.835  1.00  0.00    -0.237 OA
ATOM     99  O   UNL A   1      54.114  25.824  23.788  1.00  0.00    -0.237 OA
ATOM    100  O   UNL A   1      55.054  25.243  25.991  1.00  0.00    -0.744 OA
ENDBRANCH  96  97
ENDBRANCH  64  89
ENDBRANCH  38  39
ENDBRANCH  31  33
ENDBRANCH  30  31
ENDBRANCH  29  30
ENDBRANCH  28  29
ENDBRANCH  27  28
ENDBRANCH  26  27
ENDBRANCH  25  26
ENDBRANCH   1  25
TORSDOF 26
ENDMDL
MODEL 3
REMARK VINA RESULT:      -6.4      4.270     12.626
REMARK SMILES C[C@@H](C(=O)OCCOCCOCCOCCOC(=O)c1ccc(-c2c3nc(c(-c4c(F)cc(S(=O)(=O)[O-])cc4F)c4ccc([nH]4)c(-c4c(F)cc(S(=O)(=O)[O-])cc4F)c4nc(c(-c5c(F)cc(S(=O)(=O)[O-])cc5F)c5ccc2[nH]5)C=C4)C=C3)cc1)c1ccc(C[C@H]2CCCC2=O)cc1
REMARK SMILES IDX 11 1 10 2 9 3 8 4 7 5 6 6 5 7 3 8 4 9 2 10 1 11 86 12 87 13
REMARK SMILES IDX 98 14 88 15 97 16 89 17 90 18 91 19 92 20 95 21 93 22 94 23
REMARK SMILES IDX 96 24 12 25 13 26 14 27 15 28 16 29 17 30 18 31 19 32 20 33
REMARK SMILES IDX 21 34 85 35 22 36 84 37 23 38 24 39 25 40 78 41 26 42 83 43
REMARK SMILES IDX 77 44 79 45 27 46 82 47 76 48 75 49 28 51 62 52 41 53 61 54
REMARK SMILES IDX 42 55 45 56 60 57 80 58 43 59 44 60 59 62 81 63 46 64 29 65
REMARK SMILES IDX 30 66 39 67 31 68 32 69 38 70 40 71 33 72 34 73 35 74 36 75
REMARK SMILES IDX 37 76 63 77 64 78 73 79 65 80 66 81 72 82 74 83 67 84 68 85
REMARK SMILES IDX 69 86 70 87 71 88 47 89 48 90 57 91 49 92 50 93 56 94 58 95
REMARK SMILES IDX 51 96 52 97 53 98 54 99 55 100
REMARK H PARENT 79 50 45 61
REMARK Flexibility Score: inf
ROOT
ATOM      1  O   UNL A   1      46.678  26.953  28.314  1.00  0.00    -0.377 OA
ENDROOT
BRANCH   1   2
ATOM      2  C   UNL A   1      47.560  26.600  29.360  1.00  0.00     0.188 C 
BRANCH   2   3
ATOM      3  C   UNL A   1      48.378  27.765  29.931  1.00  0.00     0.188 C 
BRANCH   3   4
ATOM      4  O   UNL A   1      47.713  28.987  30.164  1.00  0.00    -0.376 OA
BRANCH   4   5
ATOM      5  C   UNL A   1      46.331  29.137  29.869  1.00  0.00     0.202 C 
BRANCH   5   6
ATOM      6  C   UNL A   1      45.622  30.436  29.418  1.00  0.00     0.261 C 
BRANCH   6   7
ATOM      7  O   UNL A   1      44.588  30.951  30.261  1.00  0.00    -0.463 OA
BRANCH   7   8
ATOM      8  C   UNL A   1      44.157  32.217  30.044  1.00  0.00     0.313 C 
ATOM      9  O   UNL A   1      44.612  32.961  29.179  1.00  0.00    -0.252 OA
BRANCH   8  10
ATOM     10  C   UNL A   1      42.941  32.591  30.906  1.00  0.00     0.126 C 
ATOM     11  C   UNL A   1      41.909  33.479  30.187  1.00  0.00     0.025 C 
BRANCH  10  12
ATOM     12  C   UNL A   1      43.301  33.075  32.317  1.00  0.00    -0.034 A 
ATOM     13  C   UNL A   1      42.602  34.115  32.946  1.00  0.00     0.005 A 
ATOM     14  C   UNL A   1      44.400  32.536  33.005  1.00  0.00     0.005 A 
ATOM     15  C   UNL A   1      42.952  34.578  34.211  1.00  0.00     0.004 A 
ATOM     16  C   UNL A   1      44.816  33.068  34.234  1.00  0.00     0.004 A 
ATOM     17  C   UNL A   1      44.118  34.127  34.825  1.00  0.00    -0.047 A 
BRANCH  17  18
ATOM     18  C   UNL A   1      44.660  34.859  36.029  1.00  0.00     0.047 C 
BRANCH  18  19
ATOM     19  C   UNL A   1      45.273  33.956  37.118  1.00  0.00     0.060 C 
ATOM     20  C   UNL A   1      46.664  33.380  36.827  1.00  0.00     0.012 C 
ATOM     21  C   UNL A   1      45.508  34.680  38.425  1.00  0.00     0.136 C 
ATOM     22  C   UNL A   1      47.673  34.285  37.527  1.00  0.00     0.009 C 
ATOM     23  C   UNL A   1      46.971  34.808  38.772  1.00  0.00     0.076 C 
ATOM     24  O   UNL A   1      44.605  35.113  39.133  1.00  0.00    -0.299 OA
ENDBRANCH  18  19
ENDBRANCH  17  18
ENDBRANCH  10  12
ENDBRANCH   8  10
ENDBRANCH   7   8
ENDBRANCH   6   7
ENDBRANCH   5   6
ENDBRANCH   4   5
ENDBRANCH   3   4
ENDBRANCH   2   3
ENDBRANCH   1   2
BRANCH   1  25
ATOM     25  C   UNL A   1      47.214  27.096  27.002  1.00  0.00     0.188 C 
BRANCH  25  26
ATOM     26  C   UNL A   1      46.333  27.552  25.817  1.00  0.00     0.188 C 
BRANCH  26  27
ATOM     27  O   UNL A   1      46.139  26.585  24.794  1.00  0.00    -0.376 OA
BRANCH  27  28
ATOM     28  C   UNL A   1      45.545  25.342  25.136  1.00  0.00     0.202 C 
BRANCH  28  29
ATOM     29  C   UNL A   1      44.124  25.371  25.719  1.00  0.00     0.261 C 
BRANCH  29  30
ATOM     30  O   UNL A   1      43.234  26.361  25.179  1.00  0.00    -0.460 OA
BRANCH  30  31
ATOM     31  C   UNL A   1      41.971  26.399  25.653  1.00  0.00     0.338 C 
ATOM     32  O   UNL A   1      40.986  25.876  25.160  1.00  0.00    -0.246 OA
BRANCH  31  33
ATOM     33  C   UNL A   1      42.014  27.015  26.997  1.00  0.00     0.060 A 
ATOM     34  C   UNL A   1      41.370  26.368  28.061  1.00  0.00     0.016 A 
ATOM     35  C   UNL A   1      42.697  28.215  27.207  1.00  0.00     0.016 A 
ATOM     36  C   UNL A   1      41.372  26.944  29.332  1.00  0.00     0.010 A 
ATOM     37  C   UNL A   1      42.676  28.802  28.475  1.00  0.00     0.010 A 
ATOM     38  C   UNL A   1      41.982  28.188  29.533  1.00  0.00    -0.014 A 
BRANCH  38  39
ATOM     39  C   UNL A   1      41.712  28.945  30.780  1.00  0.00     0.031 A 
ATOM     40  C   UNL A   1      40.542  29.894  30.791  1.00  0.00     0.074 A 
ATOM     41  C   UNL A   1      42.465  28.783  31.882  1.00  0.00     0.049 A 
ATOM     42  N   UNL A   1      40.141  30.708  31.731  1.00  0.00    -0.248 NA
ATOM     43  C   UNL A   1      39.715  29.928  29.574  1.00  0.00     0.031 C 
ATOM     44  C   UNL A   1      43.592  27.861  32.009  1.00  0.00     0.029 A 
ATOM     45  N   UNL A   1      42.397  29.402  33.106  1.00  0.00    -0.354 N 
ATOM     46  C   UNL A   1      39.025  31.357  31.218  1.00  0.00     0.074 A 
ATOM     47  C   UNL A   1      38.830  30.865  29.872  1.00  0.00     0.031 C 
ATOM     48  C   UNL A   1      44.123  27.989  33.238  1.00  0.00     0.029 A 
ATOM     49  C   UNL A   1      43.396  29.024  33.971  1.00  0.00     0.049 A 
ATOM     50  H   UNL A   1      41.698  30.054  33.341  1.00  0.00     0.167 HD
ATOM     51  C   UNL A   1      38.227  32.271  31.817  1.00  0.00     0.037 A 
ATOM     52  C   UNL A   1      43.704  29.486  35.201  1.00  0.00     0.037 A 
ATOM     53  C   UNL A   1      38.430  32.758  33.156  1.00  0.00     0.049 A 
ATOM     54  C   UNL A   1      42.848  30.563  35.821  1.00  0.00     0.074 A 
ATOM     55  C   UNL A   1      37.672  33.679  33.860  1.00  0.00     0.029 A 
ATOM     56  N   UNL A   1      39.468  32.371  33.992  1.00  0.00    -0.354 N 
ATOM     57  N   UNL A   1      41.783  31.156  35.333  1.00  0.00    -0.248 NA
ATOM     58  C   UNL A   1      43.231  31.032  37.161  1.00  0.00     0.031 C 
ATOM     59  C   UNL A   1      38.286  33.892  35.097  1.00  0.00     0.029 A 
ATOM     60  C   UNL A   1      39.387  33.055  35.193  1.00  0.00     0.049 A 
ATOM     61  H   UNL A   1      40.159  31.709  33.764  1.00  0.00     0.167 HD
ATOM     62  C   UNL A   1      41.352  32.041  36.317  1.00  0.00     0.074 A 
ATOM     63  C   UNL A   1      42.265  31.898  37.432  1.00  0.00     0.031 C 
ATOM     64  C   UNL A   1      40.297  32.894  36.301  1.00  0.00     0.037 A 
BRANCH  51  65
ATOM     65  C   UNL A   1      37.080  32.829  31.019  1.00  0.00     0.058 A 
ATOM     66  C   UNL A   1      37.257  33.867  30.090  1.00  0.00     0.135 A 
ATOM     67  C   UNL A   1      35.790  32.292  31.160  1.00  0.00     0.135 A 
ATOM     68  F   UNL A   1      38.464  34.433  29.930  1.00  0.00    -0.206 F 
ATOM     69  C   UNL A   1      36.193  34.367  29.346  1.00  0.00     0.059 A 
ATOM     70  C   UNL A   1      34.717  32.756  30.404  1.00  0.00     0.059 A 
ATOM     71  F   UNL A   1      35.561  31.302  32.038  1.00  0.00    -0.206 F 
ATOM     72  C   UNL A   1      34.926  33.802  29.509  1.00  0.00     0.060 A 
BRANCH  72  73
ATOM     73  S   UNL A   1      33.560  34.452  28.525  1.00  0.00     0.124 S 
ATOM     74  O   UNL A   1      34.216  35.535  27.796  1.00  0.00    -0.237 OA
ATOM     75  O   UNL A   1      33.175  33.294  27.725  1.00  0.00    -0.237 OA
ATOM     76  O   UNL A   1      32.586  34.872  29.527  1.00  0.00    -0.744 OA
ENDBRANCH  72  73
ENDBRANCH  51  65
BRANCH  52  77
ATOM     77  C   UNL A   1      44.890  28.948  35.926  1.00  0.00     0.058 A 
ATOM     78  C   UNL A   1      44.765  27.906  36.856  1.00  0.00     0.135 A 
ATOM     79  C   UNL A   1      46.172  29.480  35.711  1.00  0.00     0.135 A 
ATOM     80  F   UNL A   1      43.561  27.372  37.109  1.00  0.00    -0.206 F 
ATOM     81  C   UNL A   1      45.864  27.421  37.560  1.00  0.00     0.059 A 
ATOM     82  C   UNL A   1      47.290  28.992  36.380  1.00  0.00     0.059 A 
ATOM     83  F   UNL A   1      46.348  30.475  34.828  1.00  0.00    -0.206 F 
ATOM     84  C   UNL A   1      47.124  27.968  37.311  1.00  0.00     0.060 A 
BRANCH  84  85
ATOM     85  S   UNL A   1      48.549  27.299  38.197  1.00  0.00     0.124 S 
ATOM     86  O   UNL A   1      48.701  25.993  37.568  1.00  0.00    -0.237 OA
ATOM     87  O   UNL A   1      49.585  28.280  37.890  1.00  0.00    -0.237 OA
ATOM     88  O   UNL A   1      48.103  27.283  39.587  1.00  0.00    -0.744 OA
ENDBRANCH  84  85
ENDBRANCH  52  77
BRANCH  64  89
ATOM     89  C   UNL A   1      40.034  33.708  37.541  1.00  0.00     0.058 A 
ATOM     90  C   UNL A   1      39.086  33.318  38.500  1.00  0.00     0.135 A 
ATOM     91  C   UNL A   1      40.790  34.864  37.803  1.00  0.00     0.135 A 
ATOM     92  F   UNL A   1      38.333  32.225  38.300  1.00  0.00    -0.206 F 
ATOM     93  C   UNL A   1      38.878  34.060  39.659  1.00  0.00     0.059 A 
ATOM     94  C   UNL A   1      40.622  35.601  38.971  1.00  0.00     0.059 A 
ATOM     95  F   UNL A   1      41.721  35.275  36.927  1.00  0.00    -0.206 F 
ATOM     96  C   UNL A   1      39.654  35.198  39.888  1.00  0.00     0.060 A 
BRANCH  96  97
ATOM     97  S   UNL A   1      39.395  36.129  41.412  1.00  0.00     0.124 S 
ATOM     98  O   UNL A   1      38.651  37.287  40.928  1.00  0.00    -0.237 OA
ATOM     99  O   UNL A   1      38.641  35.186  42.229  1.00  0.00    -0.237 OA
ATOM    100  O   UNL A   1      40.752  36.407  41.877  1.00  0.00    -0.744 OA
ENDBRANCH  96  97
ENDBRANCH  64  89
ENDBRANCH  38  39
ENDBRANCH  31  33
ENDBRANCH  30  31
ENDBRANCH  29  30
ENDBRANCH  28  29
ENDBRANCH  27  28
ENDBRANCH  26  27
ENDBRANCH  25  26
ENDBRANCH   1  25
TORSDOF 26
ENDMDL
