MODEL 1
REMARK VINA RESULT:      -8.6      0.000      0.000
REMARK SMILES CC(C)[C@H](NC(=O)[C@H](C)NC(=O)C[NH3+])C(=O)OCCOCCOCCOCCOC(=O)c1ccc(-c2c3nc(c(-c4c(F)cc(S(=O)(=O)[O-])cc4F)c4ccc([nH]4)c(-c4c(F)cc(S(=O)(=O)[O-])cc4F)c4nc(c(-c5c(F)cc(S(=O)(=O)[O-])cc5F)c5ccc2[nH]5)C=C4)C=C3)cc1
REMARK SMILES IDX 22 1 21 2 20 3 19 4 18 5 17 6 15 7 16 8 4 9 2 10 1 11 3 12
REMARK SMILES IDX 5 13 6 14 7 16 8 17 9 18 10 19 11 20 12 22 13 23 14 24 23 28
REMARK SMILES IDX 24 29 25 30 26 31 27 32 28 33 29 34 30 35 31 36 32 37 33 38
REMARK SMILES IDX 97 39 34 40 96 41 35 42 36 43 37 44 90 45 38 46 95 47 89 48
REMARK SMILES IDX 91 49 39 50 94 51 88 52 87 53 40 55 74 56 53 57 73 58 54 59
REMARK SMILES IDX 57 60 72 61 92 62 55 63 56 64 71 66 93 67 58 68 41 69 42 70
REMARK SMILES IDX 51 71 43 72 44 73 50 74 52 75 45 76 46 77 47 78 48 79 49 80
REMARK SMILES IDX 75 81 76 82 85 83 77 84 78 85 84 86 86 87 79 88 80 89 81 90
REMARK SMILES IDX 82 91 83 92 59 93 60 94 69 95 61 96 62 97 68 98 70 99 63 100
REMARK SMILES IDX 64 101 65 102 66 103 67 104
REMARK H PARENT 5 15 10 21 14 25 14 26 14 27 91 54 57 65
REMARK Flexibility Score: inf
ROOT
ATOM      1  C   UNL A   1      32.183  21.042  23.926  1.00  0.00     0.188 C 
ENDROOT
BRANCH   1   2
ATOM      2  C   UNL A   1      32.201  21.855  22.610  1.00  0.00     0.188 C 
BRANCH   2   3
ATOM      3  O   UNL A   1      31.992  23.244  22.737  1.00  0.00    -0.376 OA
BRANCH   3   4
ATOM      4  C   UNL A   1      32.944  24.218  22.357  1.00  0.00     0.202 C 
BRANCH   4   5
ATOM      5  C   UNL A   1      32.626  25.683  22.023  1.00  0.00     0.261 C 
BRANCH   5   6
ATOM      6  O   UNL A   1      32.937  26.676  23.005  1.00  0.00    -0.462 OA
BRANCH   6   7
ATOM      7  C   UNL A   1      33.318  27.898  22.567  1.00  0.00     0.328 C 
ATOM      8  O   UNL A   1      34.260  28.090  21.807  1.00  0.00    -0.250 OA
BRANCH   7   9
ATOM      9  C   UNL A   1      32.537  29.042  23.267  1.00  0.00     0.194 C 
BRANCH   9  10
ATOM     10  C   UNL A   1      32.708  28.858  24.815  1.00  0.00     0.017 C 
ATOM     11  C   UNL A   1      34.154  28.592  25.281  1.00  0.00     0.010 C 
ATOM     12  C   UNL A   1      32.155  30.050  25.607  1.00  0.00     0.010 C 
ENDBRANCH   9  10
BRANCH   9  13
ATOM     13  N   UNL A   1      31.101  29.281  22.964  1.00  0.00    -0.341 N 
ATOM     14  C   UNL A   1      29.984  28.512  22.811  1.00  0.00     0.243 C 
ATOM     15  H   UNL A   1      30.906  30.238  22.845  1.00  0.00     0.164 HD
ATOM     16  O   UNL A   1      29.087  29.040  22.136  1.00  0.00    -0.273 OA
BRANCH  14  17
ATOM     17  C   UNL A   1      29.719  27.144  23.508  1.00  0.00     0.168 C 
ATOM     18  C   UNL A   1      28.252  26.814  23.691  1.00  0.00     0.041 C 
BRANCH  17  19
ATOM     19  N   UNL A   1      30.342  27.196  24.850  1.00  0.00    -0.340 N 
ATOM     20  C   UNL A   1      30.648  26.225  25.755  1.00  0.00     0.275 C 
ATOM     21  H   UNL A   1      30.581  28.104  25.144  1.00  0.00     0.164 HD
ATOM     22  O   UNL A   1      31.002  26.569  26.887  1.00  0.00    -0.268 OA
BRANCH  20  23
ATOM     23  C   UNL A   1      30.684  24.753  25.360  1.00  0.00     0.360 C 
BRANCH  23  24
ATOM     24  N   UNL A   1      31.867  24.034  25.850  1.00  0.00    -0.350 N 
ATOM     25  H   UNL A   1      32.038  24.284  26.823  1.00  0.00     0.344 HD
ATOM     26  H   UNL A   1      32.677  24.288  25.285  1.00  0.00     0.344 HD
ATOM     27  H   UNL A   1      31.707  23.028  25.780  1.00  0.00     0.344 HD
ENDBRANCH  23  24
ENDBRANCH  20  23
ENDBRANCH  17  19
ENDBRANCH  14  17
ENDBRANCH   9  13
ENDBRANCH   7   9
ENDBRANCH   6   7
ENDBRANCH   5   6
ENDBRANCH   4   5
ENDBRANCH   3   4
ENDBRANCH   2   3
ENDBRANCH   1   2
BRANCH   1  28
ATOM     28  O   UNL A   1      33.398  20.550  24.443  1.00  0.00    -0.377 OA
BRANCH  28  29
ATOM     29  C   UNL A   1      34.390  21.523  24.647  1.00  0.00     0.188 C 
BRANCH  29  30
ATOM     30  C   UNL A   1      35.472  21.053  25.625  1.00  0.00     0.188 C 
BRANCH  30  31
ATOM     31  O   UNL A   1      36.589  20.269  25.230  1.00  0.00    -0.376 OA
BRANCH  31  32
ATOM     32  C   UNL A   1      37.821  20.811  24.796  1.00  0.00     0.202 C 
BRANCH  32  33
ATOM     33  C   UNL A   1      38.866  21.515  25.679  1.00  0.00     0.261 C 
BRANCH  33  34
ATOM     34  O   UNL A   1      38.394  22.471  26.612  1.00  0.00    -0.460 OA
BRANCH  34  35
ATOM     35  C   UNL A   1      38.126  23.677  26.086  1.00  0.00     0.338 C 
ATOM     36  O   UNL A   1      37.147  24.004  25.432  1.00  0.00    -0.246 OA
BRANCH  35  37
ATOM     37  C   UNL A   1      39.130  24.606  26.617  1.00  0.00     0.060 A 
ATOM     38  C   UNL A   1      39.182  24.770  28.007  1.00  0.00     0.016 A 
ATOM     39  C   UNL A   1      40.017  25.280  25.773  1.00  0.00     0.016 A 
ATOM     40  C   UNL A   1      40.106  25.632  28.562  1.00  0.00     0.010 A 
ATOM     41  C   UNL A   1      40.906  26.197  26.326  1.00  0.00     0.010 A 
ATOM     42  C   UNL A   1      40.908  26.404  27.716  1.00  0.00    -0.014 A 
BRANCH  42  43
ATOM     43  C   UNL A   1      41.467  27.640  28.285  1.00  0.00     0.031 A 
ATOM     44  C   UNL A   1      42.961  27.798  28.225  1.00  0.00     0.074 A 
ATOM     45  C   UNL A   1      40.664  28.620  28.721  1.00  0.00     0.049 A 
ATOM     46  N   UNL A   1      43.705  28.792  28.624  1.00  0.00    -0.248 NA
ATOM     47  C   UNL A   1      43.718  26.683  27.622  1.00  0.00     0.031 C 
ATOM     48  C   UNL A   1      39.202  28.573  28.734  1.00  0.00     0.029 A 
ATOM     49  N   UNL A   1      40.971  29.853  29.227  1.00  0.00    -0.354 N 
ATOM     50  C   UNL A   1      45.011  28.420  28.329  1.00  0.00     0.074 A 
ATOM     51  C   UNL A   1      44.967  27.100  27.747  1.00  0.00     0.031 C 
ATOM     52  C   UNL A   1      38.737  29.729  29.240  1.00  0.00     0.029 A 
ATOM     53  C   UNL A   1      39.869  30.575  29.612  1.00  0.00     0.049 A 
ATOM     54  H   UNL A   1      41.892  30.190  29.307  1.00  0.00     0.167 HD
ATOM     55  C   UNL A   1      46.146  29.126  28.523  1.00  0.00     0.037 A 
ATOM     56  C   UNL A   1      39.801  31.774  30.220  1.00  0.00     0.037 A 
ATOM     57  C   UNL A   1      46.161  30.438  29.110  1.00  0.00     0.049 A 
ATOM     58  C   UNL A   1      41.086  32.509  30.503  1.00  0.00     0.074 A 
ATOM     59  C   UNL A   1      47.246  31.252  29.370  1.00  0.00     0.029 A 
ATOM     60  N   UNL A   1      45.031  31.122  29.535  1.00  0.00    -0.354 N 
ATOM     61  N   UNL A   1      42.320  32.151  30.227  1.00  0.00    -0.248 NA
ATOM     62  C   UNL A   1      40.973  33.811  31.172  1.00  0.00     0.031 C 
ATOM     63  C   UNL A   1      46.777  32.405  30.007  1.00  0.00     0.029 A 
ATOM     64  C   UNL A   1      45.393  32.341  30.079  1.00  0.00     0.049 A 
ATOM     65  H   UNL A   1      44.107  30.789  29.461  1.00  0.00     0.167 HD
ATOM     66  C   UNL A   1      43.128  33.200  30.656  1.00  0.00     0.074 A 
ATOM     67  C   UNL A   1      42.238  34.206  31.202  1.00  0.00     0.031 C 
ATOM     68  C   UNL A   1      44.478  33.326  30.603  1.00  0.00     0.037 A 
BRANCH  55  69
ATOM     69  C   UNL A   1      47.447  28.476  28.144  1.00  0.00     0.058 A 
ATOM     70  C   UNL A   1      47.982  28.572  26.849  1.00  0.00     0.135 A 
ATOM     71  C   UNL A   1      48.178  27.752  29.100  1.00  0.00     0.135 A 
ATOM     72  F   UNL A   1      47.311  29.226  25.887  1.00  0.00    -0.206 F 
ATOM     73  C   UNL A   1      49.183  27.958  26.510  1.00  0.00     0.059 A 
ATOM     74  C   UNL A   1      49.396  27.156  28.792  1.00  0.00     0.059 A 
ATOM     75  F   UNL A   1      47.706  27.614  30.349  1.00  0.00    -0.206 F 
ATOM     76  C   UNL A   1      49.886  27.255  27.491  1.00  0.00     0.060 A 
BRANCH  76  77
ATOM     77  S   UNL A   1      51.455  26.484  27.042  1.00  0.00     0.124 S 
ATOM     78  O   UNL A   1      51.233  25.104  27.463  1.00  0.00    -0.237 OA
ATOM     79  O   UNL A   1      51.509  26.706  25.601  1.00  0.00    -0.237 OA
ATOM     80  O   UNL A   1      52.436  27.228  27.826  1.00  0.00    -0.744 OA
ENDBRANCH  76  77
ENDBRANCH  55  69
BRANCH  56  81
ATOM     81  C   UNL A   1      38.482  32.337  30.612  1.00  0.00     0.058 A 
ATOM     82  C   UNL A   1      37.854  31.961  31.808  1.00  0.00     0.135 A 
ATOM     83  C   UNL A   1      37.824  33.270  29.795  1.00  0.00     0.135 A 
ATOM     84  F   UNL A   1      38.439  31.069  32.622  1.00  0.00    -0.206 F 
ATOM     85  C   UNL A   1      36.612  32.474  32.173  1.00  0.00     0.059 A 
ATOM     86  C   UNL A   1      36.596  33.819  30.151  1.00  0.00     0.059 A 
ATOM     87  F   UNL A   1      38.386  33.675  28.646  1.00  0.00    -0.206 F 
ATOM     88  C   UNL A   1      35.994  33.407  31.337  1.00  0.00     0.060 A 
BRANCH  88  89
ATOM     89  S   UNL A   1      34.405  34.100  31.841  1.00  0.00     0.124 S 
ATOM     90  O   UNL A   1      33.710  34.204  30.563  1.00  0.00    -0.237 OA
ATOM     91  O   UNL A   1      33.906  33.081  32.760  1.00  0.00    -0.237 OA
ATOM     92  O   UNL A   1      34.773  35.368  32.465  1.00  0.00    -0.744 OA
ENDBRANCH  88  89
ENDBRANCH  56  81
BRANCH  68  93
ATOM     93  C   UNL A   1      45.071  34.617  31.096  1.00  0.00     0.058 A 
ATOM     94  C   UNL A   1      45.509  34.776  32.419  1.00  0.00     0.135 A 
ATOM     95  C   UNL A   1      45.257  35.689  30.207  1.00  0.00     0.135 A 
ATOM     96  F   UNL A   1      45.351  33.782  33.308  1.00  0.00    -0.206 F 
ATOM     97  C   UNL A   1      46.083  35.966  32.853  1.00  0.00     0.059 A 
ATOM     98  C   UNL A   1      45.862  36.874  30.610  1.00  0.00     0.059 A 
ATOM     99  F   UNL A   1      44.870  35.582  28.927  1.00  0.00    -0.206 F 
ATOM    100  C   UNL A   1      46.258  37.008  31.939  1.00  0.00     0.060 A 
BRANCH 100 101
ATOM    101  S   UNL A   1      47.030  38.534  32.510  1.00  0.00     0.124 S 
ATOM    102  O   UNL A   1      47.473  38.157  33.848  1.00  0.00    -0.237 OA
ATOM    103  O   UNL A   1      48.088  38.736  31.526  1.00  0.00    -0.237 OA
ATOM    104  O   UNL A   1      45.942  39.506  32.460  1.00  0.00    -0.744 OA
ENDBRANCH 100 101
ENDBRANCH  68  93
ENDBRANCH  42  43
ENDBRANCH  35  37
ENDBRANCH  34  35
ENDBRANCH  33  34
ENDBRANCH  32  33
ENDBRANCH  31  32
ENDBRANCH  30  31
ENDBRANCH  29  30
ENDBRANCH  28  29
ENDBRANCH   1  28
TORSDOF 29
ENDMDL
MODEL 2
REMARK VINA RESULT:      -8.2      1.318      2.210
REMARK SMILES CC(C)[C@H](NC(=O)[C@H](C)NC(=O)C[NH3+])C(=O)OCCOCCOCCOCCOC(=O)c1ccc(-c2c3nc(c(-c4c(F)cc(S(=O)(=O)[O-])cc4F)c4ccc([nH]4)c(-c4c(F)cc(S(=O)(=O)[O-])cc4F)c4nc(c(-c5c(F)cc(S(=O)(=O)[O-])cc5F)c5ccc2[nH]5)C=C4)C=C3)cc1
REMARK SMILES IDX 22 1 21 2 20 3 19 4 18 5 17 6 15 7 16 8 4 9 2 10 1 11 3 12
REMARK SMILES IDX 5 13 6 14 7 16 8 17 9 18 10 19 11 20 12 22 13 23 14 24 23 28
REMARK SMILES IDX 24 29 25 30 26 31 27 32 28 33 29 34 30 35 31 36 32 37 33 38
REMARK SMILES IDX 97 39 34 40 96 41 35 42 36 43 37 44 90 45 38 46 95 47 89 48
REMARK SMILES IDX 91 49 39 50 94 51 88 52 87 53 40 55 74 56 53 57 73 58 54 59
REMARK SMILES IDX 57 60 72 61 92 62 55 63 56 64 71 66 93 67 58 68 41 69 42 70
REMARK SMILES IDX 51 71 43 72 44 73 50 74 52 75 45 76 46 77 47 78 48 79 49 80
REMARK SMILES IDX 75 81 76 82 85 83 77 84 78 85 84 86 86 87 79 88 80 89 81 90
REMARK SMILES IDX 82 91 83 92 59 93 60 94 69 95 61 96 62 97 68 98 70 99 63 100
REMARK SMILES IDX 64 101 65 102 66 103 67 104
REMARK H PARENT 5 15 10 21 14 25 14 26 14 27 91 54 57 65
REMARK Flexibility Score: inf
ROOT
ATOM      1  C   UNL A   1      32.388  21.146  24.260  1.00  0.00     0.188 C 
ENDROOT
BRANCH   1   2
ATOM      2  C   UNL A   1      32.272  21.993  22.971  1.00  0.00     0.188 C 
BRANCH   2   3
ATOM      3  O   UNL A   1      31.775  23.303  23.133  1.00  0.00    -0.376 OA
BRANCH   3   4
ATOM      4  C   UNL A   1      32.517  24.466  22.825  1.00  0.00     0.202 C 
BRANCH   4   5
ATOM      5  C   UNL A   1      31.942  25.738  22.184  1.00  0.00     0.261 C 
BRANCH   5   6
ATOM      6  O   UNL A   1      31.159  26.608  23.006  1.00  0.00    -0.462 OA
BRANCH   6   7
ATOM      7  C   UNL A   1      31.504  27.915  23.050  1.00  0.00     0.328 C 
ATOM      8  O   UNL A   1      32.624  28.336  22.786  1.00  0.00    -0.250 OA
BRANCH   7   9
ATOM      9  C   UNL A   1      30.373  28.802  23.633  1.00  0.00     0.194 C 
BRANCH   9  10
ATOM     10  C   UNL A   1      29.308  29.021  22.502  1.00  0.00     0.017 C 
ATOM     11  C   UNL A   1      27.841  28.907  22.961  1.00  0.00     0.010 C 
ATOM     12  C   UNL A   1      29.490  30.365  21.785  1.00  0.00     0.010 C 
ENDBRANCH   9  10
BRANCH   9  13
ATOM     13  N   UNL A   1      30.679  30.111  24.268  1.00  0.00    -0.341 N 
ATOM     14  C   UNL A   1      31.236  30.532  25.440  1.00  0.00     0.243 C 
ATOM     15  H   UNL A   1      30.414  30.867  23.696  1.00  0.00     0.164 HD
ATOM     16  O   UNL A   1      30.912  31.681  25.779  1.00  0.00    -0.273 OA
BRANCH  14  17
ATOM     17  C   UNL A   1      32.308  29.760  26.268  1.00  0.00     0.168 C 
ATOM     18  C   UNL A   1      31.738  28.692  27.178  1.00  0.00     0.041 C 
BRANCH  17  19
ATOM     19  N   UNL A   1      33.018  30.746  27.113  1.00  0.00    -0.340 N 
ATOM     20  C   UNL A   1      34.197  30.687  27.794  1.00  0.00     0.275 C 
ATOM     21  H   UNL A   1      32.550  31.607  27.201  1.00  0.00     0.164 HD
ATOM     22  O   UNL A   1      34.468  31.602  28.578  1.00  0.00    -0.268 OA
BRANCH  20  23
ATOM     23  C   UNL A   1      35.225  29.597  27.511  1.00  0.00     0.360 C 
BRANCH  23  24
ATOM     24  N   UNL A   1      36.531  30.109  27.077  1.00  0.00    -0.350 N 
ATOM     25  H   UNL A   1      37.043  30.462  27.884  1.00  0.00     0.344 HD
ATOM     26  H   UNL A   1      36.393  30.863  26.404  1.00  0.00     0.344 HD
ATOM     27  H   UNL A   1      37.063  29.356  26.639  1.00  0.00     0.344 HD
ENDBRANCH  23  24
ENDBRANCH  20  23
ENDBRANCH  17  19
ENDBRANCH  14  17
ENDBRANCH   9  13
ENDBRANCH   7   9
ENDBRANCH   6   7
ENDBRANCH   5   6
ENDBRANCH   4   5
ENDBRANCH   3   4
ENDBRANCH   2   3
ENDBRANCH   1   2
BRANCH   1  28
ATOM     28  O   UNL A   1      33.629  20.563  24.586  1.00  0.00    -0.377 OA
BRANCH  28  29
ATOM     29  C   UNL A   1      34.675  21.477  24.795  1.00  0.00     0.188 C 
BRANCH  29  30
ATOM     30  C   UNL A   1      35.905  20.817  25.429  1.00  0.00     0.188 C 
BRANCH  30  31
ATOM     31  O   UNL A   1      37.012  20.349  24.672  1.00  0.00    -0.376 OA
BRANCH  31  32
ATOM     32  C   UNL A   1      38.333  20.831  24.825  1.00  0.00     0.202 C 
BRANCH  32  33
ATOM     33  C   UNL A   1      38.907  21.534  26.067  1.00  0.00     0.261 C 
BRANCH  33  34
ATOM     34  O   UNL A   1      38.103  22.522  26.687  1.00  0.00    -0.460 OA
BRANCH  34  35
ATOM     35  C   UNL A   1      38.039  23.687  26.022  1.00  0.00     0.338 C 
ATOM     36  O   UNL A   1      37.182  24.046  25.229  1.00  0.00    -0.246 OA
BRANCH  35  37
ATOM     37  C   UNL A   1      39.085  24.552  26.576  1.00  0.00     0.060 A 
ATOM     38  C   UNL A   1      39.210  24.597  27.970  1.00  0.00     0.016 A 
ATOM     39  C   UNL A   1      39.942  25.283  25.747  1.00  0.00     0.016 A 
ATOM     40  C   UNL A   1      40.177  25.395  28.548  1.00  0.00     0.010 A 
ATOM     41  C   UNL A   1      40.875  26.136  26.329  1.00  0.00     0.010 A 
ATOM     42  C   UNL A   1      40.950  26.224  27.729  1.00  0.00    -0.014 A 
BRANCH  42  43
ATOM     43  C   UNL A   1      41.560  27.400  28.370  1.00  0.00     0.031 A 
ATOM     44  C   UNL A   1      43.050  27.548  28.237  1.00  0.00     0.074 A 
ATOM     45  C   UNL A   1      40.798  28.345  28.938  1.00  0.00     0.049 A 
ATOM     46  N   UNL A   1      43.831  28.495  28.677  1.00  0.00    -0.248 NA
ATOM     47  C   UNL A   1      43.753  26.483  27.495  1.00  0.00     0.031 C 
ATOM     48  C   UNL A   1      39.339  28.312  29.034  1.00  0.00     0.029 A 
ATOM     49  N   UNL A   1      41.153  29.525  29.531  1.00  0.00    -0.354 N 
ATOM     50  C   UNL A   1      45.112  28.137  28.274  1.00  0.00     0.074 A 
ATOM     51  C   UNL A   1      45.014  26.874  27.581  1.00  0.00     0.031 C 
ATOM     52  C   UNL A   1      38.922  29.423  29.665  1.00  0.00     0.029 A 
ATOM     53  C   UNL A   1      40.086  30.222  30.042  1.00  0.00     0.049 A 
ATOM     54  H   UNL A   1      42.082  29.844  29.586  1.00  0.00     0.167 HD
ATOM     55  C   UNL A   1      46.267  28.812  28.461  1.00  0.00     0.037 A 
ATOM     56  C   UNL A   1      40.071  31.362  30.756  1.00  0.00     0.037 A 
ATOM     57  C   UNL A   1      46.336  30.066  29.159  1.00  0.00     0.049 A 
ATOM     58  C   UNL A   1      41.382  32.057  31.027  1.00  0.00     0.074 A 
ATOM     59  C   UNL A   1      47.446  30.844  29.425  1.00  0.00     0.029 A 
ATOM     60  N   UNL A   1      45.242  30.721  29.709  1.00  0.00    -0.354 N 
ATOM     61  N   UNL A   1      42.593  31.712  30.648  1.00  0.00    -0.248 NA
ATOM     62  C   UNL A   1      41.328  33.295  31.813  1.00  0.00     0.031 C 
ATOM     63  C   UNL A   1      47.032  31.940  30.188  1.00  0.00     0.029 A 
ATOM     64  C   UNL A   1      45.654  31.883  30.336  1.00  0.00     0.049 A 
ATOM     65  H   UNL A   1      44.310  30.406  29.661  1.00  0.00     0.167 HD
ATOM     66  C   UNL A   1      43.440  32.710  31.119  1.00  0.00     0.074 A 
ATOM     67  C   UNL A   1      42.598  33.673  31.803  1.00  0.00     0.031 C 
ATOM     68  C   UNL A   1      44.786  32.828  30.997  1.00  0.00     0.037 A 
BRANCH  55  69
ATOM     69  C   UNL A   1      47.534  28.185  27.951  1.00  0.00     0.058 A 
ATOM     70  C   UNL A   1      48.079  28.514  26.699  1.00  0.00     0.135 A 
ATOM     71  C   UNL A   1      48.220  27.245  28.735  1.00  0.00     0.135 A 
ATOM     72  F   UNL A   1      47.448  29.383  25.894  1.00  0.00    -0.206 F 
ATOM     73  C   UNL A   1      49.248  27.919  26.235  1.00  0.00     0.059 A 
ATOM     74  C   UNL A   1      49.407  26.660  28.305  1.00  0.00     0.059 A 
ATOM     75  F   UNL A   1      47.736  26.880  29.933  1.00  0.00    -0.206 F 
ATOM     76  C   UNL A   1      49.908  26.996  27.049  1.00  0.00     0.060 A 
BRANCH  76  77
ATOM     77  S   UNL A   1      51.436  26.251  26.444  1.00  0.00     0.124 S 
ATOM     78  O   UNL A   1      51.072  25.911  25.072  1.00  0.00    -0.237 OA
ATOM     79  O   UNL A   1      52.393  27.341  26.593  1.00  0.00    -0.237 OA
ATOM     80  O   UNL A   1      51.639  25.115  27.338  1.00  0.00    -0.744 OA
ENDBRANCH  76  77
ENDBRANCH  55  69
BRANCH  56  81
ATOM     81  C   UNL A   1      38.786  31.902  31.274  1.00  0.00     0.058 A 
ATOM     82  C   UNL A   1      38.369  31.658  32.590  1.00  0.00     0.135 A 
ATOM     83  C   UNL A   1      37.949  32.678  30.457  1.00  0.00     0.135 A 
ATOM     84  F   UNL A   1      39.131  30.918  33.410  1.00  0.00    -0.206 F 
ATOM     85  C   UNL A   1      37.160  32.149  33.075  1.00  0.00     0.059 A 
ATOM     86  C   UNL A   1      36.749  33.205  30.927  1.00  0.00     0.059 A 
ATOM     87  F   UNL A   1      38.306  32.954  29.193  1.00  0.00    -0.206 F 
ATOM     88  C   UNL A   1      36.359  32.925  32.234  1.00  0.00     0.060 A 
BRANCH  88  89
ATOM     89  S   UNL A   1      34.814  33.593  32.887  1.00  0.00     0.124 S 
ATOM     90  O   UNL A   1      33.823  32.799  32.169  1.00  0.00    -0.237 OA
ATOM     91  O   UNL A   1      34.942  33.319  34.314  1.00  0.00    -0.237 OA
ATOM     92  O   UNL A   1      34.877  35.005  32.521  1.00  0.00    -0.744 OA
ENDBRANCH  88  89
ENDBRANCH  56  81
BRANCH  68  93
ATOM     93  C   UNL A   1      45.426  34.063  31.566  1.00  0.00     0.058 A 
ATOM     94  C   UNL A   1      45.903  34.114  32.884  1.00  0.00     0.135 A 
ATOM     95  C   UNL A   1      45.618  35.193  30.753  1.00  0.00     0.135 A 
ATOM     96  F   UNL A   1      45.742  33.062  33.703  1.00  0.00    -0.206 F 
ATOM     97  C   UNL A   1      46.520  35.254  33.387  1.00  0.00     0.059 A 
ATOM     98  C   UNL A   1      46.264  36.330  31.224  1.00  0.00     0.059 A 
ATOM     99  F   UNL A   1      45.194  35.190  29.479  1.00  0.00    -0.206 F 
ATOM    100  C   UNL A   1      46.699  36.356  32.547  1.00  0.00     0.060 A 
BRANCH 100 101
ATOM    101  S   UNL A   1      47.527  37.817  33.205  1.00  0.00     0.124 S 
ATOM    102  O   UNL A   1      48.399  38.185  32.096  1.00  0.00    -0.237 OA
ATOM    103  O   UNL A   1      46.409  38.720  33.460  1.00  0.00    -0.237 OA
ATOM    104  O   UNL A   1      48.204  37.316  34.398  1.00  0.00    -0.744 OA
ENDBRANCH 100 101
ENDBRANCH  68  93
ENDBRANCH  42  43
ENDBRANCH  35  37
ENDBRANCH  34  35
ENDBRANCH  33  34
ENDBRANCH  32  33
ENDBRANCH  31  32
ENDBRANCH  30  31
ENDBRANCH  29  30
ENDBRANCH  28  29
ENDBRANCH   1  28
TORSDOF 29
ENDMDL
MODEL 3
REMARK VINA RESULT:      -7.5      4.844     11.439
REMARK SMILES CC(C)[C@H](NC(=O)[C@H](C)NC(=O)C[NH3+])C(=O)OCCOCCOCCOCCOC(=O)c1ccc(-c2c3nc(c(-c4c(F)cc(S(=O)(=O)[O-])cc4F)c4ccc([nH]4)c(-c4c(F)cc(S(=O)(=O)[O-])cc4F)c4nc(c(-c5c(F)cc(S(=O)(=O)[O-])cc5F)c5ccc2[nH]5)C=C4)C=C3)cc1
REMARK SMILES IDX 22 1 21 2 20 3 19 4 18 5 17 6 15 7 16 8 4 9 2 10 1 11 3 12
REMARK SMILES IDX 5 13 6 14 7 16 8 17 9 18 10 19 11 20 12 22 13 23 14 24 23 28
REMARK SMILES IDX 24 29 25 30 26 31 27 32 28 33 29 34 30 35 31 36 32 37 33 38
REMARK SMILES IDX 97 39 34 40 96 41 35 42 36 43 37 44 90 45 38 46 95 47 89 48
REMARK SMILES IDX 91 49 39 50 94 51 88 52 87 53 40 55 74 56 53 57 73 58 54 59
REMARK SMILES IDX 57 60 72 61 92 62 55 63 56 64 71 66 93 67 58 68 41 69 42 70
REMARK SMILES IDX 51 71 43 72 44 73 50 74 52 75 45 76 46 77 47 78 48 79 49 80
REMARK SMILES IDX 75 81 76 82 85 83 77 84 78 85 84 86 86 87 79 88 80 89 81 90
REMARK SMILES IDX 82 91 83 92 59 93 60 94 69 95 61 96 62 97 68 98 70 99 63 100
REMARK SMILES IDX 64 101 65 102 66 103 67 104
REMARK H PARENT 5 15 10 21 14 25 14 26 14 27 91 54 57 65
REMARK Flexibility Score: inf
ROOT
ATOM      1  C   UNL A   1      39.787  31.554  33.578  1.00  0.00     0.188 C 
ENDROOT
BRANCH   1   2
ATOM      2  C   UNL A   1      39.681  30.064  33.977  1.00  0.00     0.188 C 
BRANCH   2   3
ATOM      3  O   UNL A   1      40.453  29.162  33.215  1.00  0.00    -0.376 OA
BRANCH   3   4
ATOM      4  C   UNL A   1      41.742  28.721  33.592  1.00  0.00     0.202 C 
BRANCH   4   5
ATOM      5  C   UNL A   1      42.383  28.937  34.971  1.00  0.00     0.261 C 
BRANCH   5   6
ATOM      6  O   UNL A   1      43.461  28.077  35.350  1.00  0.00    -0.462 OA
BRANCH   6   7
ATOM      7  C   UNL A   1      44.038  27.325  34.384  1.00  0.00     0.328 C 
ATOM      8  O   UNL A   1      44.316  27.744  33.266  1.00  0.00    -0.250 OA
BRANCH   7   9
ATOM      9  C   UNL A   1      44.154  25.833  34.792  1.00  0.00     0.194 C 
BRANCH   9  10
ATOM     10  C   UNL A   1      42.773  25.396  35.394  1.00  0.00     0.017 C 
ATOM     11  C   UNL A   1      42.363  23.942  35.088  1.00  0.00     0.010 C 
ATOM     12  C   UNL A   1      42.708  25.608  36.913  1.00  0.00     0.010 C 
ENDBRANCH   9  10
BRANCH   9  13
ATOM     13  N   UNL A   1      45.243  25.370  35.692  1.00  0.00    -0.341 N 
ATOM     14  C   UNL A   1      46.000  24.243  35.826  1.00  0.00     0.243 C 
ATOM     15  H   UNL A   1      45.479  26.052  36.362  1.00  0.00     0.164 HD
ATOM     16  O   UNL A   1      46.482  24.080  36.958  1.00  0.00    -0.273 OA
BRANCH  14  17
ATOM     17  C   UNL A   1      46.395  23.270  34.674  1.00  0.00     0.168 C 
ATOM     18  C   UNL A   1      45.618  21.970  34.666  1.00  0.00     0.041 C 
BRANCH  17  19
ATOM     19  N   UNL A   1      47.829  22.942  34.837  1.00  0.00    -0.340 N 
ATOM     20  C   UNL A   1      48.486  22.114  35.697  1.00  0.00     0.275 C 
ATOM     21  H   UNL A   1      48.420  23.411  34.206  1.00  0.00     0.164 HD
ATOM     22  O   UNL A   1      49.719  22.167  35.734  1.00  0.00    -0.268 OA
BRANCH  20  23
ATOM     23  C   UNL A   1      47.744  21.052  36.502  1.00  0.00     0.360 C 
BRANCH  23  24
ATOM     24  N   UNL A   1      47.879  19.694  35.962  1.00  0.00    -0.350 N 
ATOM     25  H   UNL A   1      48.433  19.721  35.107  1.00  0.00     0.344 HD
ATOM     26  H   UNL A   1      46.954  19.316  35.758  1.00  0.00     0.344 HD
ATOM     27  H   UNL A   1      48.344  19.099  36.650  1.00  0.00     0.344 HD
ENDBRANCH  23  24
ENDBRANCH  20  23
ENDBRANCH  17  19
ENDBRANCH  14  17
ENDBRANCH   9  13
ENDBRANCH   7   9
ENDBRANCH   6   7
ENDBRANCH   5   6
ENDBRANCH   4   5
ENDBRANCH   3   4
ENDBRANCH   2   3
ENDBRANCH   1   2
BRANCH   1  28
ATOM     28  O   UNL A   1      38.605  32.293  33.370  1.00  0.00    -0.377 OA
BRANCH  28  29
ATOM     29  C   UNL A   1      37.805  31.838  32.309  1.00  0.00     0.188 C 
BRANCH  29  30
ATOM     30  C   UNL A   1      36.308  31.924  32.633  1.00  0.00     0.188 C 
BRANCH  30  31
ATOM     31  O   UNL A   1      35.293  31.805  31.647  1.00  0.00    -0.376 OA
BRANCH  31  32
ATOM     32  C   UNL A   1      34.875  32.867  30.810  1.00  0.00     0.202 C 
BRANCH  32  33
ATOM     33  C   UNL A   1      34.360  32.738  29.366  1.00  0.00     0.261 C 
BRANCH  33  34
ATOM     34  O   UNL A   1      35.207  32.100  28.426  1.00  0.00    -0.460 OA
BRANCH  34  35
ATOM     35  C   UNL A   1      35.001  30.779  28.298  1.00  0.00     0.338 C 
ATOM     36  O   UNL A   1      33.963  30.213  27.991  1.00  0.00    -0.246 OA
BRANCH  35  37
ATOM     37  C   UNL A   1      36.314  30.132  28.390  1.00  0.00     0.060 A 
ATOM     38  C   UNL A   1      36.654  29.539  29.612  1.00  0.00     0.016 A 
ATOM     39  C   UNL A   1      37.182  30.086  27.294  1.00  0.00     0.016 A 
ATOM     40  C   UNL A   1      37.878  28.917  29.756  1.00  0.00     0.010 A 
ATOM     41  C   UNL A   1      38.441  29.515  27.457  1.00  0.00     0.010 A 
ATOM     42  C   UNL A   1      38.799  28.980  28.705  1.00  0.00    -0.014 A 
BRANCH  42  43
ATOM     43  C   UNL A   1      40.216  28.797  29.060  1.00  0.00     0.031 A 
ATOM     44  C   UNL A   1      40.842  27.481  28.689  1.00  0.00     0.074 A 
ATOM     45  C   UNL A   1      40.930  29.806  29.577  1.00  0.00     0.049 A 
ATOM     46  N   UNL A   1      42.068  27.072  28.858  1.00  0.00    -0.248 NA
ATOM     47  C   UNL A   1      39.963  26.496  28.029  1.00  0.00     0.031 C 
ATOM     48  C   UNL A   1      40.412  31.138  29.887  1.00  0.00     0.029 A 
ATOM     49  N   UNL A   1      42.253  29.865  29.920  1.00  0.00    -0.354 N 
ATOM     50  C   UNL A   1      42.105  25.785  28.334  1.00  0.00     0.074 A 
ATOM     51  C   UNL A   1      40.777  25.466  27.869  1.00  0.00     0.031 C 
ATOM     52  C   UNL A   1      41.411  31.884  30.391  1.00  0.00     0.029 A 
ATOM     53  C   UNL A   1      42.622  31.069  30.465  1.00  0.00     0.049 A 
ATOM     54  H   UNL A   1      42.878  29.117  29.789  1.00  0.00     0.167 HD
ATOM     55  C   UNL A   1      43.162  24.948  28.244  1.00  0.00     0.037 A 
ATOM     56  C   UNL A   1      43.804  31.446  30.987  1.00  0.00     0.037 A 
ATOM     57  C   UNL A   1      44.474  25.291  28.719  1.00  0.00     0.049 A 
ATOM     58  C   UNL A   1      44.949  30.466  30.952  1.00  0.00     0.074 A 
ATOM     59  C   UNL A   1      45.625  24.527  28.696  1.00  0.00     0.029 A 
ATOM     60  N   UNL A   1      44.804  26.502  29.313  1.00  0.00    -0.354 N 
ATOM     61  N   UNL A   1      44.979  29.248  30.459  1.00  0.00    -0.248 NA
ATOM     62  C   UNL A   1      46.221  30.910  31.534  1.00  0.00     0.031 C 
ATOM     63  C   UNL A   1      46.638  25.254  29.330  1.00  0.00     0.029 A 
ATOM     64  C   UNL A   1      46.136  26.499  29.683  1.00  0.00     0.049 A 
ATOM     65  H   UNL A   1      44.182  27.253  29.450  1.00  0.00     0.167 HD
ATOM     66  C   UNL A   1      46.281  28.793  30.641  1.00  0.00     0.074 A 
ATOM     67  C   UNL A   1      47.007  29.873  31.280  1.00  0.00     0.031 C 
ATOM     68  C   UNL A   1      46.832  27.598  30.308  1.00  0.00     0.037 A 
BRANCH  55  69
ATOM     69  C   UNL A   1      42.926  23.584  27.659  1.00  0.00     0.058 A 
ATOM     70  C   UNL A   1      43.095  23.318  26.290  1.00  0.00     0.135 A 
ATOM     71  C   UNL A   1      42.532  22.521  28.487  1.00  0.00     0.135 A 
ATOM     72  F   UNL A   1      43.440  24.304  25.447  1.00  0.00    -0.206 F 
ATOM     73  C   UNL A   1      42.865  22.052  25.761  1.00  0.00     0.059 A 
ATOM     74  C   UNL A   1      42.326  21.240  27.986  1.00  0.00     0.059 A 
ATOM     75  F   UNL A   1      42.339  22.722  29.800  1.00  0.00    -0.206 F 
ATOM     76  C   UNL A   1      42.485  21.017  26.619  1.00  0.00     0.060 A 
BRANCH  76  77
ATOM     77  S   UNL A   1      42.213  19.375  25.922  1.00  0.00     0.124 S 
ATOM     78  O   UNL A   1      42.752  18.519  26.973  1.00  0.00    -0.237 OA
ATOM     79  O   UNL A   1      40.763  19.343  25.760  1.00  0.00    -0.237 OA
ATOM     80  O   UNL A   1      42.979  19.402  24.680  1.00  0.00    -0.744 OA
ENDBRANCH  76  77
ENDBRANCH  55  69
BRANCH  56  81
ATOM     81  C   UNL A   1      43.955  32.795  31.595  1.00  0.00     0.058 A 
ATOM     82  C   UNL A   1      44.362  33.898  30.832  1.00  0.00     0.135 A 
ATOM     83  C   UNL A   1      43.687  33.005  32.957  1.00  0.00     0.135 A 
ATOM     84  F   UNL A   1      44.635  33.748  29.527  1.00  0.00    -0.206 F 
ATOM     85  C   UNL A   1      44.519  35.159  31.400  1.00  0.00     0.059 A 
ATOM     86  C   UNL A   1      43.807  34.263  33.541  1.00  0.00     0.059 A 
ATOM     87  F   UNL A   1      43.280  31.987  33.730  1.00  0.00    -0.206 F 
ATOM     88  C   UNL A   1      44.234  35.331  32.757  1.00  0.00     0.060 A 
BRANCH  88  89
ATOM     89  S   UNL A   1      44.397  36.980  33.473  1.00  0.00     0.124 S 
ATOM     90  O   UNL A   1      43.431  36.924  34.565  1.00  0.00    -0.237 OA
ATOM     91  O   UNL A   1      45.803  37.005  33.863  1.00  0.00    -0.237 OA
ATOM     92  O   UNL A   1      44.047  37.864  32.365  1.00  0.00    -0.744 OA
ENDBRANCH  88  89
ENDBRANCH  56  81
BRANCH  68  93
ATOM     93  C   UNL A   1      48.299  27.415  30.577  1.00  0.00     0.058 A 
ATOM     94  C   UNL A   1      48.773  26.873  31.781  1.00  0.00     0.135 A 
ATOM     95  C   UNL A   1      49.241  27.733  29.584  1.00  0.00     0.135 A 
ATOM     96  F   UNL A   1      47.914  26.556  32.764  1.00  0.00    -0.206 F 
ATOM     97  C   UNL A   1      50.131  26.682  32.005  1.00  0.00     0.059 A 
ATOM     98  C   UNL A   1      50.601  27.515  29.771  1.00  0.00     0.059 A 
ATOM     99  F   UNL A   1      48.839  28.239  28.407  1.00  0.00    -0.206 F 
ATOM    100  C   UNL A   1      51.038  27.003  30.991  1.00  0.00     0.060 A 
BRANCH 100 101
ATOM    101  S   UNL A   1      52.795  26.723  31.285  1.00  0.00     0.124 S 
ATOM    102  O   UNL A   1      52.759  25.721  32.345  1.00  0.00    -0.237 OA
ATOM    103  O   UNL A   1      53.257  26.252  29.983  1.00  0.00    -0.237 OA
ATOM    104  O   UNL A   1      53.288  28.039  31.680  1.00  0.00    -0.744 OA
ENDBRANCH 100 101
ENDBRANCH  68  93
ENDBRANCH  42  43
ENDBRANCH  35  37
ENDBRANCH  34  35
ENDBRANCH  33  34
ENDBRANCH  32  33
ENDBRANCH  31  32
ENDBRANCH  30  31
ENDBRANCH  29  30
ENDBRANCH  28  29
ENDBRANCH   1  28
TORSDOF 29
ENDMDL
