MODEL 1
REMARK VINA RESULT:      -9.1      0.000      0.000
REMARK SMILES CCn1cccc1C(=O)N1CC[C@H](C(=O)OCCOCCOCCOCCOC(=O)c2ccc(-c3c4nc(c(-c5c(F)cc(S(=O)(=O)[O-])cc5F)c5ccc([nH]5)c(-c5c(F)cc(S(=O)(=O)[O-])cc5F)c5nc(c(-c6c(F)cc(S(=O)(=O)[O-])cc6F)c6ccc3[nH]6)C=C5)C=C4)cc2)[C@H]1C
REMARK SMILES IDX 22 1 21 2 20 3 19 4 18 5 17 6 16 7 14 8 15 9 13 10 10 11
REMARK SMILES IDX 11 12 97 13 12 14 98 15 8 16 9 17 7 18 3 19 4 20 5 21 6 22
REMARK SMILES IDX 2 23 1 24 23 25 24 26 25 27 26 28 27 29 28 30 29 31 30 32
REMARK SMILES IDX 31 33 32 34 96 35 33 36 95 37 34 38 35 39 36 40 89 41 37 42
REMARK SMILES IDX 94 43 88 44 90 45 38 46 93 47 87 48 86 49 39 51 73 52 52 53
REMARK SMILES IDX 72 54 53 55 56 56 71 57 91 58 54 59 55 60 70 62 92 63 57 64
REMARK SMILES IDX 40 65 41 66 50 67 42 68 43 69 49 70 51 71 44 72 45 73 46 74
REMARK SMILES IDX 47 75 48 76 74 77 75 78 84 79 76 80 77 81 83 82 85 83 78 84
REMARK SMILES IDX 79 85 80 86 81 87 82 88 58 89 59 90 68 91 60 92 61 93 67 94
REMARK SMILES IDX 69 95 62 96 63 97 64 98 65 99 66 100
REMARK H PARENT 90 50 56 61
REMARK Flexibility Score: inf
ROOT
ATOM      1  O   UNL A   1      43.864  18.280  25.115  1.00  0.00    -0.377 OA
ENDROOT
BRANCH   1   2
ATOM      2  C   UNL A   1      42.893  18.361  26.142  1.00  0.00     0.188 C 
BRANCH   2   3
ATOM      3  C   UNL A   1      42.107  19.680  26.179  1.00  0.00     0.188 C 
BRANCH   3   4
ATOM      4  O   UNL A   1      41.085  19.877  27.146  1.00  0.00    -0.376 OA
BRANCH   4   5
ATOM      5  C   UNL A   1      40.350  21.098  27.178  1.00  0.00     0.202 C 
BRANCH   5   6
ATOM      6  C   UNL A   1      39.723  21.623  25.883  1.00  0.00     0.261 C 
BRANCH   6   7
ATOM      7  O   UNL A   1      38.282  21.579  25.872  1.00  0.00    -0.463 OA
BRANCH   7   8
ATOM      8  C   UNL A   1      37.720  20.569  25.173  1.00  0.00     0.311 C 
ATOM      9  O   UNL A   1      38.198  19.444  25.061  1.00  0.00    -0.252 OA
BRANCH   8  10
ATOM     10  C   UNL A   1      36.460  20.950  24.432  1.00  0.00     0.123 C 
ATOM     11  N   UNL A   1      35.197  22.950  24.807  1.00  0.00    -0.334 N 
ATOM     12  C   UNL A   1      34.606  21.899  25.616  1.00  0.00     0.121 C 
ATOM     13  C   UNL A   1      36.484  22.476  24.295  1.00  0.00     0.096 C 
ATOM     14  C   UNL A   1      35.077  20.618  24.983  1.00  0.00     0.039 C 
ATOM     15  C   UNL A   1      36.761  22.867  22.852  1.00  0.00     0.032 C 
BRANCH  11  16
ATOM     16  C   UNL A   1      35.180  24.196  25.417  1.00  0.00     0.270 C 
ATOM     17  O   UNL A   1      36.084  24.498  26.200  1.00  0.00    -0.267 OA
BRANCH  16  18
ATOM     18  C   UNL A   1      34.088  25.104  25.112  1.00  0.00     0.107 A 
ATOM     19  N   UNL A   1      33.268  25.251  24.005  1.00  0.00    -0.344 N 
ATOM     20  C   UNL A   1      32.445  26.349  24.198  1.00  0.00     0.086 A 
ATOM     21  C   UNL A   1      32.658  26.853  25.453  1.00  0.00     0.020 A 
ATOM     22  C   UNL A   1      33.666  26.067  26.030  1.00  0.00     0.033 A 
BRANCH  19  23
ATOM     23  C   UNL A   1      33.228  24.522  22.748  1.00  0.00     0.119 C 
ATOM     24  C   UNL A   1      32.768  25.285  21.519  1.00  0.00     0.027 C 
ENDBRANCH  19  23
ENDBRANCH  16  18
ENDBRANCH  11  16
ENDBRANCH   8  10
ENDBRANCH   7   8
ENDBRANCH   6   7
ENDBRANCH   5   6
ENDBRANCH   4   5
ENDBRANCH   3   4
ENDBRANCH   2   3
ENDBRANCH   1   2
BRANCH   1  25
ATOM     25  C   UNL A   1      44.944  19.211  25.172  1.00  0.00     0.188 C 
BRANCH  25  26
ATOM     26  C   UNL A   1      45.053  20.238  24.030  1.00  0.00     0.188 C 
BRANCH  26  27
ATOM     27  O   UNL A   1      45.880  21.360  24.339  1.00  0.00    -0.376 OA
BRANCH  27  28
ATOM     28  C   UNL A   1      46.005  21.761  25.699  1.00  0.00     0.202 C 
BRANCH  28  29
ATOM     29  C   UNL A   1      45.311  23.075  26.099  1.00  0.00     0.261 C 
BRANCH  29  30
ATOM     30  O   UNL A   1      44.612  23.755  25.057  1.00  0.00    -0.460 OA
BRANCH  30  31
ATOM     31  C   UNL A   1      43.296  23.494  24.988  1.00  0.00     0.338 C 
ATOM     32  O   UNL A   1      42.748  22.517  24.515  1.00  0.00    -0.246 OA
BRANCH  31  33
ATOM     33  C   UNL A   1      42.530  24.594  25.552  1.00  0.00     0.060 A 
ATOM     34  C   UNL A   1      42.939  25.877  25.167  1.00  0.00     0.016 A 
ATOM     35  C   UNL A   1      41.824  24.334  26.727  1.00  0.00     0.016 A 
ATOM     36  C   UNL A   1      42.841  26.889  26.091  1.00  0.00     0.010 A 
ATOM     37  C   UNL A   1      41.761  25.341  27.664  1.00  0.00     0.010 A 
ATOM     38  C   UNL A   1      42.347  26.580  27.362  1.00  0.00    -0.014 A 
BRANCH  38  39
ATOM     39  C   UNL A   1      42.506  27.581  28.421  1.00  0.00     0.031 A 
ATOM     40  C   UNL A   1      43.821  27.424  29.153  1.00  0.00     0.074 A 
ATOM     41  C   UNL A   1      41.453  28.436  28.577  1.00  0.00     0.049 A 
ATOM     42  N   UNL A   1      44.132  27.764  30.363  1.00  0.00    -0.248 NA
ATOM     43  C   UNL A   1      44.932  26.697  28.479  1.00  0.00     0.031 C 
ATOM     44  C   UNL A   1      40.215  28.390  27.767  1.00  0.00     0.029 A 
ATOM     45  N   UNL A   1      41.187  29.497  29.418  1.00  0.00    -0.354 N 
ATOM     46  C   UNL A   1      45.502  27.500  30.513  1.00  0.00     0.074 A 
ATOM     47  C   UNL A   1      45.905  26.713  29.389  1.00  0.00     0.031 C 
ATOM     48  C   UNL A   1      39.331  29.314  28.188  1.00  0.00     0.029 A 
ATOM     49  C   UNL A   1      39.897  30.073  29.284  1.00  0.00     0.049 A 
ATOM     50  H   UNL A   1      41.848  29.833  30.066  1.00  0.00     0.167 HD
ATOM     51  C   UNL A   1      46.273  28.078  31.472  1.00  0.00     0.037 A 
ATOM     52  C   UNL A   1      39.313  31.066  30.025  1.00  0.00     0.037 A 
ATOM     53  C   UNL A   1      45.504  28.961  32.285  1.00  0.00     0.049 A 
ATOM     54  C   UNL A   1      40.373  31.562  30.926  1.00  0.00     0.074 A 
ATOM     55  C   UNL A   1      44.590  28.754  33.284  1.00  0.00     0.029 A 
ATOM     56  N   UNL A   1      45.417  30.269  31.871  1.00  0.00    -0.354 N 
ATOM     57  N   UNL A   1      41.420  32.240  30.553  1.00  0.00    -0.248 NA
ATOM     58  C   UNL A   1      40.318  31.195  32.347  1.00  0.00     0.031 C 
ATOM     59  C   UNL A   1      43.715  29.861  33.204  1.00  0.00     0.029 A 
ATOM     60  C   UNL A   1      44.168  30.738  32.213  1.00  0.00     0.049 A 
ATOM     61  H   UNL A   1      46.122  30.780  31.410  1.00  0.00     0.167 HD
ATOM     62  C   UNL A   1      42.282  32.091  31.615  1.00  0.00     0.074 A 
ATOM     63  C   UNL A   1      41.473  31.713  32.751  1.00  0.00     0.031 C 
ATOM     64  C   UNL A   1      43.586  31.785  31.393  1.00  0.00     0.037 A 
BRANCH  51  65
ATOM     65  C   UNL A   1      47.760  28.106  31.614  1.00  0.00     0.058 A 
ATOM     66  C   UNL A   1      48.331  27.397  32.692  1.00  0.00     0.135 A 
ATOM     67  C   UNL A   1      48.583  29.036  30.962  1.00  0.00     0.135 A 
ATOM     68  F   UNL A   1      47.627  26.451  33.338  1.00  0.00    -0.206 F 
ATOM     69  C   UNL A   1      49.598  27.687  33.180  1.00  0.00     0.059 A 
ATOM     70  C   UNL A   1      49.875  29.314  31.410  1.00  0.00     0.059 A 
ATOM     71  F   UNL A   1      48.126  29.764  29.933  1.00  0.00    -0.206 F 
ATOM     72  C   UNL A   1      50.346  28.679  32.557  1.00  0.00     0.060 A 
BRANCH  72  73
ATOM     73  S   UNL A   1      51.912  29.172  33.302  1.00  0.00     0.124 S 
ATOM     74  O   UNL A   1      52.695  27.948  33.174  1.00  0.00    -0.237 OA
ATOM     75  O   UNL A   1      52.329  30.283  32.451  1.00  0.00    -0.237 OA
ATOM     76  O   UNL A   1      51.532  29.546  34.661  1.00  0.00    -0.744 OA
ENDBRANCH  72  73
ENDBRANCH  51  65
BRANCH  52  77
ATOM     77  C   UNL A   1      37.916  31.635  30.219  1.00  0.00     0.058 A 
ATOM     78  C   UNL A   1      36.866  31.042  30.938  1.00  0.00     0.135 A 
ATOM     79  C   UNL A   1      37.631  32.959  29.779  1.00  0.00     0.135 A 
ATOM     80  F   UNL A   1      36.903  29.760  31.310  1.00  0.00    -0.206 F 
ATOM     81  C   UNL A   1      35.715  31.749  31.327  1.00  0.00     0.059 A 
ATOM     82  C   UNL A   1      36.521  33.696  30.189  1.00  0.00     0.059 A 
ATOM     83  F   UNL A   1      38.456  33.616  28.951  1.00  0.00    -0.206 F 
ATOM     84  C   UNL A   1      35.577  33.093  30.997  1.00  0.00     0.060 A 
BRANCH  84  85
ATOM     85  S   UNL A   1      34.255  34.094  31.708  1.00  0.00     0.124 S 
ATOM     86  O   UNL A   1      33.616  33.150  32.618  1.00  0.00    -0.237 OA
ATOM     87  O   UNL A   1      34.983  35.191  32.339  1.00  0.00    -0.237 OA
ATOM     88  O   UNL A   1      33.472  34.473  30.535  1.00  0.00    -0.744 OA
ENDBRANCH  84  85
ENDBRANCH  52  77
BRANCH  64  89
ATOM     89  C   UNL A   1      44.114  32.250  30.049  1.00  0.00     0.058 A 
ATOM     90  C   UNL A   1      44.350  33.610  29.803  1.00  0.00     0.135 A 
ATOM     91  C   UNL A   1      44.312  31.385  28.961  1.00  0.00     0.135 A 
ATOM     92  F   UNL A   1      44.176  34.507  30.787  1.00  0.00    -0.206 F 
ATOM     93  C   UNL A   1      44.770  34.078  28.552  1.00  0.00     0.059 A 
ATOM     94  C   UNL A   1      44.742  31.818  27.707  1.00  0.00     0.059 A 
ATOM     95  F   UNL A   1      44.080  30.081  29.092  1.00  0.00    -0.206 F 
ATOM     96  C   UNL A   1      44.969  33.173  27.509  1.00  0.00     0.060 A 
BRANCH  96  97
ATOM     97  S   UNL A   1      45.519  33.781  25.899  1.00  0.00     0.124 S 
ATOM     98  O   UNL A   1      46.940  33.447  25.906  1.00  0.00    -0.237 OA
ATOM     99  O   UNL A   1      44.692  33.005  24.981  1.00  0.00    -0.237 OA
ATOM    100  O   UNL A   1      45.221  35.211  25.948  1.00  0.00    -0.744 OA
ENDBRANCH  96  97
ENDBRANCH  64  89
ENDBRANCH  38  39
ENDBRANCH  31  33
ENDBRANCH  30  31
ENDBRANCH  29  30
ENDBRANCH  28  29
ENDBRANCH  27  28
ENDBRANCH  26  27
ENDBRANCH  25  26
ENDBRANCH   1  25
TORSDOF 26
ENDMDL
MODEL 2
REMARK VINA RESULT:      -9.0      1.805      2.645
REMARK SMILES CCn1cccc1C(=O)N1CC[C@H](C(=O)OCCOCCOCCOCCOC(=O)c2ccc(-c3c4nc(c(-c5c(F)cc(S(=O)(=O)[O-])cc5F)c5ccc([nH]5)c(-c5c(F)cc(S(=O)(=O)[O-])cc5F)c5nc(c(-c6c(F)cc(S(=O)(=O)[O-])cc6F)c6ccc3[nH]6)C=C5)C=C4)cc2)[C@H]1C
REMARK SMILES IDX 22 1 21 2 20 3 19 4 18 5 17 6 16 7 14 8 15 9 13 10 10 11
REMARK SMILES IDX 11 12 97 13 12 14 98 15 8 16 9 17 7 18 3 19 4 20 5 21 6 22
REMARK SMILES IDX 2 23 1 24 23 25 24 26 25 27 26 28 27 29 28 30 29 31 30 32
REMARK SMILES IDX 31 33 32 34 96 35 33 36 95 37 34 38 35 39 36 40 89 41 37 42
REMARK SMILES IDX 94 43 88 44 90 45 38 46 93 47 87 48 86 49 39 51 73 52 52 53
REMARK SMILES IDX 72 54 53 55 56 56 71 57 91 58 54 59 55 60 70 62 92 63 57 64
REMARK SMILES IDX 40 65 41 66 50 67 42 68 43 69 49 70 51 71 44 72 45 73 46 74
REMARK SMILES IDX 47 75 48 76 74 77 75 78 84 79 76 80 77 81 83 82 85 83 78 84
REMARK SMILES IDX 79 85 80 86 81 87 82 88 58 89 59 90 68 91 60 92 61 93 67 94
REMARK SMILES IDX 69 95 62 96 63 97 64 98 65 99 66 100
REMARK H PARENT 90 50 56 61
REMARK Flexibility Score: inf
ROOT
ATOM      1  O   UNL A   1      43.864  18.333  25.073  1.00  0.00    -0.377 OA
ENDROOT
BRANCH   1   2
ATOM      2  C   UNL A   1      42.921  18.451  26.122  1.00  0.00     0.188 C 
BRANCH   2   3
ATOM      3  C   UNL A   1      42.223  19.817  26.204  1.00  0.00     0.188 C 
BRANCH   3   4
ATOM      4  O   UNL A   1      41.249  20.063  27.209  1.00  0.00    -0.376 OA
BRANCH   4   5
ATOM      5  C   UNL A   1      40.533  21.296  27.231  1.00  0.00     0.202 C 
BRANCH   5   6
ATOM      6  C   UNL A   1      39.872  21.797  25.943  1.00  0.00     0.261 C 
BRANCH   6   7
ATOM      7  O   UNL A   1      38.441  21.626  25.918  1.00  0.00    -0.463 OA
BRANCH   7   8
ATOM      8  C   UNL A   1      37.979  20.549  25.246  1.00  0.00     0.311 C 
ATOM      9  O   UNL A   1      38.553  19.466  25.179  1.00  0.00    -0.252 OA
BRANCH   8  10
ATOM     10  C   UNL A   1      36.705  20.796  24.475  1.00  0.00     0.123 C 
ATOM     11  N   UNL A   1      34.957  22.289  25.150  1.00  0.00    -0.334 N 
ATOM     12  C   UNL A   1      34.611  20.962  25.629  1.00  0.00     0.121 C 
ATOM     13  C   UNL A   1      36.347  22.270  24.691  1.00  0.00     0.096 C 
ATOM     14  C   UNL A   1      35.424  20.025  24.778  1.00  0.00     0.039 C 
ATOM     15  C   UNL A   1      36.591  23.060  23.414  1.00  0.00     0.032 C 
BRANCH  11  16
ATOM     16  C   UNL A   1      34.593  23.306  26.021  1.00  0.00     0.270 C 
ATOM     17  O   UNL A   1      34.949  23.249  27.200  1.00  0.00    -0.267 OA
BRANCH  16  18
ATOM     18  C   UNL A   1      33.796  24.407  25.509  1.00  0.00     0.107 A 
ATOM     19  N   UNL A   1      32.432  24.576  25.328  1.00  0.00    -0.344 N 
ATOM     20  C   UNL A   1      32.209  25.793  24.705  1.00  0.00     0.086 A 
ATOM     21  C   UNL A   1      33.402  26.452  24.569  1.00  0.00     0.020 A 
ATOM     22  C   UNL A   1      34.387  25.598  25.087  1.00  0.00     0.033 A 
BRANCH  19  23
ATOM     23  C   UNL A   1      31.319  23.683  25.601  1.00  0.00     0.119 C 
ATOM     24  C   UNL A   1      31.359  22.903  26.903  1.00  0.00     0.027 C 
ENDBRANCH  19  23
ENDBRANCH  16  18
ENDBRANCH  11  16
ENDBRANCH   8  10
ENDBRANCH   7   8
ENDBRANCH   6   7
ENDBRANCH   5   6
ENDBRANCH   4   5
ENDBRANCH   3   4
ENDBRANCH   2   3
ENDBRANCH   1   2
BRANCH   1  25
ATOM     25  C   UNL A   1      44.985  19.215  25.109  1.00  0.00     0.188 C 
BRANCH  25  26
ATOM     26  C   UNL A   1      45.107  20.249  23.974  1.00  0.00     0.188 C 
BRANCH  26  27
ATOM     27  O   UNL A   1      45.992  21.329  24.270  1.00  0.00    -0.376 OA
BRANCH  27  28
ATOM     28  C   UNL A   1      46.130  21.747  25.623  1.00  0.00     0.202 C 
BRANCH  28  29
ATOM     29  C   UNL A   1      45.467  23.082  26.006  1.00  0.00     0.261 C 
BRANCH  29  30
ATOM     30  O   UNL A   1      44.915  23.838  24.927  1.00  0.00    -0.460 OA
BRANCH  30  31
ATOM     31  C   UNL A   1      43.596  23.678  24.734  1.00  0.00     0.338 C 
ATOM     32  O   UNL A   1      43.025  22.771  24.159  1.00  0.00    -0.246 OA
BRANCH  31  33
ATOM     33  C   UNL A   1      42.861  24.798  25.300  1.00  0.00     0.060 A 
ATOM     34  C   UNL A   1      43.545  26.019  25.327  1.00  0.00     0.016 A 
ATOM     35  C   UNL A   1      41.805  24.491  26.159  1.00  0.00     0.016 A 
ATOM     36  C   UNL A   1      43.319  26.862  26.389  1.00  0.00     0.010 A 
ATOM     37  C   UNL A   1      41.608  25.318  27.241  1.00  0.00     0.010 A 
ATOM     38  C   UNL A   1      42.428  26.449  27.383  1.00  0.00    -0.014 A 
BRANCH  38  39
ATOM     39  C   UNL A   1      42.403  27.206  28.638  1.00  0.00     0.031 A 
ATOM     40  C   UNL A   1      43.388  26.659  29.648  1.00  0.00     0.074 A 
ATOM     41  C   UNL A   1      41.495  28.226  28.685  1.00  0.00     0.049 A 
ATOM     42  N   UNL A   1      43.357  26.722  30.941  1.00  0.00    -0.248 NA
ATOM     43  C   UNL A   1      44.527  25.834  29.160  1.00  0.00     0.031 C 
ATOM     44  C   UNL A   1      40.577  28.574  27.579  1.00  0.00     0.029 A 
ATOM     45  N   UNL A   1      41.148  29.166  29.633  1.00  0.00    -0.354 N 
ATOM     46  C   UNL A   1      44.558  26.155  31.397  1.00  0.00     0.074 A 
ATOM     47  C   UNL A   1      45.163  25.496  30.281  1.00  0.00     0.031 C 
ATOM     48  C   UNL A   1      39.757  29.583  27.934  1.00  0.00     0.029 A 
ATOM     49  C   UNL A   1      40.066  30.015  29.281  1.00  0.00     0.049 A 
ATOM     50  H   UNL A   1      41.620  29.245  30.493  1.00  0.00     0.167 HD
ATOM     51  C   UNL A   1      45.073  26.392  32.632  1.00  0.00     0.037 A 
ATOM     52  C   UNL A   1      39.440  30.973  30.034  1.00  0.00     0.037 A 
ATOM     53  C   UNL A   1      44.234  27.271  33.378  1.00  0.00     0.049 A 
ATOM     54  C   UNL A   1      40.233  31.081  31.276  1.00  0.00     0.074 A 
ATOM     55  C   UNL A   1      43.036  27.101  34.019  1.00  0.00     0.029 A 
ATOM     56  N   UNL A   1      44.480  28.619  33.253  1.00  0.00    -0.354 N 
ATOM     57  N   UNL A   1      41.434  31.575  31.360  1.00  0.00    -0.248 NA
ATOM     58  C   UNL A   1      39.687  30.505  32.511  1.00  0.00     0.031 C 
ATOM     59  C   UNL A   1      42.408  28.364  33.948  1.00  0.00     0.029 A 
ATOM     60  C   UNL A   1      43.273  29.277  33.335  1.00  0.00     0.049 A 
ATOM     61  H   UNL A   1      45.361  29.039  33.125  1.00  0.00     0.167 HD
ATOM     62  C   UNL A   1      41.893  31.076  32.558  1.00  0.00     0.074 A 
ATOM     63  C   UNL A   1      40.725  30.695  33.319  1.00  0.00     0.031 C 
ATOM     64  C   UNL A   1      43.139  30.543  32.638  1.00  0.00     0.037 A 
BRANCH  51  65
ATOM     65  C   UNL A   1      46.429  26.083  33.177  1.00  0.00     0.058 A 
ATOM     66  C   UNL A   1      47.543  26.678  32.546  1.00  0.00     0.135 A 
ATOM     67  C   UNL A   1      46.691  25.010  34.041  1.00  0.00     0.135 A 
ATOM     68  F   UNL A   1      47.384  27.744  31.743  1.00  0.00    -0.206 F 
ATOM     69  C   UNL A   1      48.824  26.156  32.660  1.00  0.00     0.059 A 
ATOM     70  C   UNL A   1      47.977  24.494  34.203  1.00  0.00     0.059 A 
ATOM     71  F   UNL A   1      45.697  24.376  34.679  1.00  0.00    -0.206 F 
ATOM     72  C   UNL A   1      49.023  25.036  33.459  1.00  0.00     0.060 A 
BRANCH  72  73
ATOM     73  S   UNL A   1      50.650  24.259  33.461  1.00  0.00     0.124 S 
ATOM     74  O   UNL A   1      50.604  23.480  32.228  1.00  0.00    -0.237 OA
ATOM     75  O   UNL A   1      51.548  25.412  33.448  1.00  0.00    -0.237 OA
ATOM     76  O   UNL A   1      50.652  23.491  34.701  1.00  0.00    -0.744 OA
ENDBRANCH  72  73
ENDBRANCH  51  65
BRANCH  52  77
ATOM     77  C   UNL A   1      38.155  31.783  29.959  1.00  0.00     0.058 A 
ATOM     78  C   UNL A   1      38.051  33.161  29.713  1.00  0.00     0.135 A 
ATOM     79  C   UNL A   1      36.900  31.111  29.984  1.00  0.00     0.135 A 
ATOM     80  F   UNL A   1      39.109  33.972  29.789  1.00  0.00    -0.206 F 
ATOM     81  C   UNL A   1      36.840  33.783  29.362  1.00  0.00     0.059 A 
ATOM     82  C   UNL A   1      35.694  31.693  29.594  1.00  0.00     0.059 A 
ATOM     83  F   UNL A   1      36.799  29.826  30.355  1.00  0.00    -0.206 F 
ATOM     84  C   UNL A   1      35.677  33.030  29.249  1.00  0.00     0.060 A 
BRANCH  84  85
ATOM     85  S   UNL A   1      34.177  33.738  28.539  1.00  0.00     0.124 S 
ATOM     86  O   UNL A   1      33.444  34.153  29.729  1.00  0.00    -0.237 OA
ATOM     87  O   UNL A   1      34.692  34.817  27.702  1.00  0.00    -0.237 OA
ATOM     88  O   UNL A   1      33.607  32.612  27.804  1.00  0.00    -0.744 OA
ENDBRANCH  84  85
ENDBRANCH  52  77
BRANCH  64  89
ATOM     89  C   UNL A   1      44.120  31.101  31.624  1.00  0.00     0.058 A 
ATOM     90  C   UNL A   1      44.493  30.351  30.499  1.00  0.00     0.135 A 
ATOM     91  C   UNL A   1      44.772  32.334  31.785  1.00  0.00     0.135 A 
ATOM     92  F   UNL A   1      43.924  29.156  30.274  1.00  0.00    -0.206 F 
ATOM     93  C   UNL A   1      45.447  30.809  29.584  1.00  0.00     0.059 A 
ATOM     94  C   UNL A   1      45.717  32.824  30.884  1.00  0.00     0.059 A 
ATOM     95  F   UNL A   1      44.506  33.098  32.842  1.00  0.00    -0.206 F 
ATOM     96  C   UNL A   1      46.052  32.051  29.781  1.00  0.00     0.060 A 
BRANCH  96  97
ATOM     97  S   UNL A   1      47.278  32.641  28.592  1.00  0.00     0.124 S 
ATOM     98  O   UNL A   1      47.010  31.807  27.425  1.00  0.00    -0.237 OA
ATOM     99  O   UNL A   1      46.920  34.048  28.458  1.00  0.00    -0.237 OA
ATOM    100  O   UNL A   1      48.556  32.384  29.253  1.00  0.00    -0.744 OA
ENDBRANCH  96  97
ENDBRANCH  64  89
ENDBRANCH  38  39
ENDBRANCH  31  33
ENDBRANCH  30  31
ENDBRANCH  29  30
ENDBRANCH  28  29
ENDBRANCH  27  28
ENDBRANCH  26  27
ENDBRANCH  25  26
ENDBRANCH   1  25
TORSDOF 26
ENDMDL
MODEL 3
REMARK VINA RESULT:      -8.1      3.326      4.921
REMARK SMILES CCn1cccc1C(=O)N1CC[C@H](C(=O)OCCOCCOCCOCCOC(=O)c2ccc(-c3c4nc(c(-c5c(F)cc(S(=O)(=O)[O-])cc5F)c5ccc([nH]5)c(-c5c(F)cc(S(=O)(=O)[O-])cc5F)c5nc(c(-c6c(F)cc(S(=O)(=O)[O-])cc6F)c6ccc3[nH]6)C=C5)C=C4)cc2)[C@H]1C
REMARK SMILES IDX 22 1 21 2 20 3 19 4 18 5 17 6 16 7 14 8 15 9 13 10 10 11
REMARK SMILES IDX 11 12 97 13 12 14 98 15 8 16 9 17 7 18 3 19 4 20 5 21 6 22
REMARK SMILES IDX 2 23 1 24 23 25 24 26 25 27 26 28 27 29 28 30 29 31 30 32
REMARK SMILES IDX 31 33 32 34 96 35 33 36 95 37 34 38 35 39 36 40 89 41 37 42
REMARK SMILES IDX 94 43 88 44 90 45 38 46 93 47 87 48 86 49 39 51 73 52 52 53
REMARK SMILES IDX 72 54 53 55 56 56 71 57 91 58 54 59 55 60 70 62 92 63 57 64
REMARK SMILES IDX 40 65 41 66 50 67 42 68 43 69 49 70 51 71 44 72 45 73 46 74
REMARK SMILES IDX 47 75 48 76 74 77 75 78 84 79 76 80 77 81 83 82 85 83 78 84
REMARK SMILES IDX 79 85 80 86 81 87 82 88 58 89 59 90 68 91 60 92 61 93 67 94
REMARK SMILES IDX 69 95 62 96 63 97 64 98 65 99 66 100
REMARK H PARENT 90 50 56 61
REMARK Flexibility Score: inf
ROOT
ATOM      1  O   UNL A   1      39.581  25.583  27.230  1.00  0.00    -0.377 OA
ENDROOT
BRANCH   1   2
ATOM      2  C   UNL A   1      40.013  24.408  27.889  1.00  0.00     0.188 C 
BRANCH   2   3
ATOM      3  C   UNL A   1      39.917  23.128  27.046  1.00  0.00     0.188 C 
BRANCH   3   4
ATOM      4  O   UNL A   1      38.780  22.895  26.224  1.00  0.00    -0.376 OA
BRANCH   4   5
ATOM      5  C   UNL A   1      38.530  21.597  25.692  1.00  0.00     0.202 C 
BRANCH   5   6
ATOM      6  C   UNL A   1      37.243  21.354  24.897  1.00  0.00     0.261 C 
BRANCH   6   7
ATOM      7  O   UNL A   1      36.090  21.091  25.721  1.00  0.00    -0.463 OA
BRANCH   7   8
ATOM      8  C   UNL A   1      35.241  22.125  25.908  1.00  0.00     0.311 C 
ATOM      9  O   UNL A   1      35.554  23.310  25.837  1.00  0.00    -0.252 OA
BRANCH   8  10
ATOM     10  C   UNL A   1      33.844  21.718  26.313  1.00  0.00     0.123 C 
ATOM     11  N   UNL A   1      31.842  22.881  25.699  1.00  0.00    -0.334 N 
ATOM     12  C   UNL A   1      32.257  23.378  26.998  1.00  0.00     0.121 C 
ATOM     13  C   UNL A   1      32.931  22.079  25.137  1.00  0.00     0.096 C 
ATOM     14  C   UNL A   1      33.165  22.310  27.545  1.00  0.00     0.039 C 
ATOM     15  C   UNL A   1      32.469  20.815  24.427  1.00  0.00     0.032 C 
BRANCH  11  16
ATOM     16  C   UNL A   1      31.290  23.856  24.881  1.00  0.00     0.270 C 
ATOM     17  O   UNL A   1      30.602  23.518  23.915  1.00  0.00    -0.267 OA
BRANCH  16  18
ATOM     18  C   UNL A   1      31.549  25.251  25.192  1.00  0.00     0.107 A 
ATOM     19  N   UNL A   1      32.559  26.125  24.824  1.00  0.00    -0.344 N 
ATOM     20  C   UNL A   1      32.377  27.327  25.489  1.00  0.00     0.086 A 
ATOM     21  C   UNL A   1      31.212  27.271  26.205  1.00  0.00     0.020 A 
ATOM     22  C   UNL A   1      30.685  25.987  26.005  1.00  0.00     0.033 A 
BRANCH  19  23
ATOM     23  C   UNL A   1      33.724  25.929  23.978  1.00  0.00     0.119 C 
ATOM     24  C   UNL A   1      33.635  26.429  22.548  1.00  0.00     0.027 C 
ENDBRANCH  19  23
ENDBRANCH  16  18
ENDBRANCH  11  16
ENDBRANCH   8  10
ENDBRANCH   7   8
ENDBRANCH   6   7
ENDBRANCH   5   6
ENDBRANCH   4   5
ENDBRANCH   3   4
ENDBRANCH   2   3
ENDBRANCH   1   2
BRANCH   1  25
ATOM     25  C   UNL A   1      40.592  26.415  26.662  1.00  0.00     0.188 C 
BRANCH  25  26
ATOM     26  C   UNL A   1      41.336  25.881  25.424  1.00  0.00     0.188 C 
BRANCH  26  27
ATOM     27  O   UNL A   1      42.410  26.714  24.991  1.00  0.00    -0.376 OA
BRANCH  27  28
ATOM     28  C   UNL A   1      43.689  26.545  25.590  1.00  0.00     0.202 C 
BRANCH  28  29
ATOM     29  C   UNL A   1      44.146  25.099  25.849  1.00  0.00     0.261 C 
BRANCH  29  30
ATOM     30  O   UNL A   1      45.505  24.936  26.259  1.00  0.00    -0.460 OA
BRANCH  30  31
ATOM     31  C   UNL A   1      45.752  23.839  26.992  1.00  0.00     0.338 C 
ATOM     32  O   UNL A   1      45.890  22.693  26.608  1.00  0.00    -0.246 OA
BRANCH  31  33
ATOM     33  C   UNL A   1      45.815  24.177  28.406  1.00  0.00     0.060 A 
ATOM     34  C   UNL A   1      44.833  23.590  29.212  1.00  0.00     0.016 A 
ATOM     35  C   UNL A   1      46.484  25.354  28.744  1.00  0.00     0.016 A 
ATOM     36  C   UNL A   1      44.347  24.320  30.270  1.00  0.00     0.010 A 
ATOM     37  C   UNL A   1      45.969  26.099  29.780  1.00  0.00     0.010 A 
ATOM     38  C   UNL A   1      44.853  25.607  30.474  1.00  0.00    -0.014 A 
BRANCH  38  39
ATOM     39  C   UNL A   1      44.143  26.481  31.413  1.00  0.00     0.031 A 
ATOM     40  C   UNL A   1      44.587  26.254  32.842  1.00  0.00     0.074 A 
ATOM     41  C   UNL A   1      43.206  27.301  30.851  1.00  0.00     0.049 A 
ATOM     42  N   UNL A   1      43.939  26.455  33.945  1.00  0.00    -0.248 NA
ATOM     43  C   UNL A   1      45.912  25.620  33.086  1.00  0.00     0.031 C 
ATOM     44  C   UNL A   1      42.889  27.335  29.406  1.00  0.00     0.029 A 
ATOM     45  N   UNL A   1      42.339  28.255  31.342  1.00  0.00    -0.354 N 
ATOM     46  C   UNL A   1      44.836  26.190  34.990  1.00  0.00     0.074 A 
ATOM     47  C   UNL A   1      45.974  25.542  34.415  1.00  0.00     0.031 C 
ATOM     48  C   UNL A   1      41.885  28.196  29.155  1.00  0.00     0.029 A 
ATOM     49  C   UNL A   1      41.461  28.829  30.387  1.00  0.00     0.049 A 
ATOM     50  H   UNL A   1      42.332  28.521  32.290  1.00  0.00     0.167 HD
ATOM     51  C   UNL A   1      44.669  26.661  36.254  1.00  0.00     0.037 A 
ATOM     52  C   UNL A   1      40.441  29.724  30.579  1.00  0.00     0.037 A 
ATOM     53  C   UNL A   1      43.477  27.437  36.360  1.00  0.00     0.049 A 
ATOM     54  C   UNL A   1      40.529  30.124  31.998  1.00  0.00     0.074 A 
ATOM     55  C   UNL A   1      42.149  27.107  36.413  1.00  0.00     0.029 A 
ATOM     56  N   UNL A   1      43.588  28.783  36.103  1.00  0.00    -0.354 N 
ATOM     57  N   UNL A   1      41.476  30.851  32.517  1.00  0.00    -0.248 NA
ATOM     58  C   UNL A   1      39.536  29.595  32.941  1.00  0.00     0.031 C 
ATOM     59  C   UNL A   1      41.483  28.206  35.828  1.00  0.00     0.029 A 
ATOM     60  C   UNL A   1      42.418  29.196  35.507  1.00  0.00     0.049 A 
ATOM     61  H   UNL A   1      44.366  29.351  36.308  1.00  0.00     0.167 HD
ATOM     62  C   UNL A   1      41.367  30.590  33.864  1.00  0.00     0.074 A 
ATOM     63  C   UNL A   1      40.034  30.075  34.076  1.00  0.00     0.031 C 
ATOM     64  C   UNL A   1      42.479  30.325  34.596  1.00  0.00     0.037 A 
BRANCH  51  65
ATOM     65  C   UNL A   1      45.630  26.688  37.398  1.00  0.00     0.058 A 
ATOM     66  C   UNL A   1      46.757  27.531  37.292  1.00  0.00     0.135 A 
ATOM     67  C   UNL A   1      45.664  25.711  38.405  1.00  0.00     0.135 A 
ATOM     68  F   UNL A   1      46.783  28.526  36.388  1.00  0.00    -0.206 F 
ATOM     69  C   UNL A   1      47.904  27.332  38.048  1.00  0.00     0.059 A 
ATOM     70  C   UNL A   1      46.791  25.519  39.203  1.00  0.00     0.059 A 
ATOM     71  F   UNL A   1      44.644  24.858  38.577  1.00  0.00    -0.206 F 
ATOM     72  C   UNL A   1      47.926  26.294  38.972  1.00  0.00     0.060 A 
BRANCH  72  73
ATOM     73  S   UNL A   1      49.475  25.931  39.820  1.00  0.00     0.124 S 
ATOM     74  O   UNL A   1      50.344  26.984  39.307  1.00  0.00    -0.237 OA
ATOM     75  O   UNL A   1      49.098  26.051  41.227  1.00  0.00    -0.237 OA
ATOM     76  O   UNL A   1      49.787  24.575  39.380  1.00  0.00    -0.744 OA
ENDBRANCH  72  73
ENDBRANCH  51  65
BRANCH  52  77
ATOM     77  C   UNL A   1      39.259  30.252  29.781  1.00  0.00     0.058 A 
ATOM     78  C   UNL A   1      38.291  29.483  29.117  1.00  0.00     0.135 A 
ATOM     79  C   UNL A   1      38.969  31.646  29.798  1.00  0.00     0.135 A 
ATOM     80  F   UNL A   1      38.464  28.180  28.885  1.00  0.00    -0.206 F 
ATOM     81  C   UNL A   1      37.074  30.019  28.660  1.00  0.00     0.059 A 
ATOM     82  C   UNL A   1      37.752  32.195  29.395  1.00  0.00     0.059 A 
ATOM     83  F   UNL A   1      39.856  32.543  30.254  1.00  0.00    -0.206 F 
ATOM     84  C   UNL A   1      36.789  31.366  28.855  1.00  0.00     0.060 A 
BRANCH  84  85
ATOM     85  S   UNL A   1      35.140  32.023  28.533  1.00  0.00     0.124 S 
ATOM     86  O   UNL A   1      35.419  33.090  27.579  1.00  0.00    -0.237 OA
ATOM     87  O   UNL A   1      34.428  30.866  28.000  1.00  0.00    -0.237 OA
ATOM     88  O   UNL A   1      34.702  32.455  29.857  1.00  0.00    -0.744 OA
ENDBRANCH  84  85
ENDBRANCH  52  77
BRANCH  64  89
ATOM     89  C   UNL A   1      43.748  30.947  34.046  1.00  0.00     0.058 A 
ATOM     90  C   UNL A   1      44.701  30.163  33.379  1.00  0.00     0.135 A 
ATOM     91  C   UNL A   1      44.088  32.296  34.239  1.00  0.00     0.135 A 
ATOM     92  F   UNL A   1      44.460  28.860  33.160  1.00  0.00    -0.206 F 
ATOM     93  C   UNL A   1      45.913  30.694  32.922  1.00  0.00     0.059 A 
ATOM     94  C   UNL A   1      45.281  32.858  33.784  1.00  0.00     0.059 A 
ATOM     95  F   UNL A   1      43.260  33.108  34.891  1.00  0.00    -0.206 F 
ATOM     96  C   UNL A   1      46.193  32.046  33.125  1.00  0.00     0.060 A 
BRANCH  96  97
ATOM     97  S   UNL A   1      47.755  32.728  32.525  1.00  0.00     0.124 S 
ATOM     98  O   UNL A   1      47.549  32.764  31.081  1.00  0.00    -0.237 OA
ATOM     99  O   UNL A   1      47.797  34.026  33.189  1.00  0.00    -0.237 OA
ATOM    100  O   UNL A   1      48.754  31.763  32.982  1.00  0.00    -0.744 OA
ENDBRANCH  96  97
ENDBRANCH  64  89
ENDBRANCH  38  39
ENDBRANCH  31  33
ENDBRANCH  30  31
ENDBRANCH  29  30
ENDBRANCH  28  29
ENDBRANCH  27  28
ENDBRANCH  26  27
ENDBRANCH  25  26
ENDBRANCH   1  25
TORSDOF 26
ENDMDL
