MODEL 1
REMARK VINA RESULT:      -9.6      0.000      0.000
REMARK SMILES COc1ccc(-c2cccc(/C=C\C(=O)OCCOCCOCCOCCOC(=O)c3ccc(-c4c5nc(c(-c6c(F)cc(S(=O)(=O)[O-])cc6F)c6ccc([nH]6)c(-c6c(F)cc(S(=O)(=O)[O-])cc6F)c6nc(c(-c7c(F)cc(S(=O)(=O)[O-])cc7F)c7ccc4[nH]7)C=C6)C=C5)cc3)c2)c(Cl)c1OC
REMARK SMILES IDX 22 1 21 2 20 3 19 4 18 5 17 6 16 7 14 8 15 9 13 10 12 11
REMARK SMILES IDX 11 12 7 13 8 14 97 15 9 16 10 17 6 18 3 19 4 20 100 21 5 22
REMARK SMILES IDX 98 23 99 24 2 25 1 26 101 27 102 28 23 29 24 30 25 31 26 32
REMARK SMILES IDX 27 33 28 34 29 35 30 36 31 37 32 38 96 39 33 40 95 41 34 42
REMARK SMILES IDX 35 43 36 44 89 45 37 46 94 47 88 48 90 49 38 50 93 51 87 52
REMARK SMILES IDX 86 53 39 55 73 56 52 57 72 58 53 59 56 60 71 61 91 62 54 63
REMARK SMILES IDX 55 64 70 66 92 67 57 68 40 69 41 70 50 71 42 72 43 73 49 74
REMARK SMILES IDX 51 75 44 76 45 77 46 78 47 79 48 80 74 81 75 82 84 83 76 84
REMARK SMILES IDX 77 85 83 86 85 87 78 88 79 89 80 90 81 91 82 92 58 93 59 94
REMARK SMILES IDX 68 95 60 96 61 97 67 98 69 99 62 100 63 101 64 102 65 103
REMARK SMILES IDX 66 104
REMARK H PARENT 90 54 56 65
REMARK Flexibility Score: inf
ROOT
ATOM      1  O   UNL A   1      38.112  22.101  25.181  1.00  0.00    -0.377 OA
ENDROOT
BRANCH   1   2
ATOM      2  C   UNL A   1      37.012  22.061  24.272  1.00  0.00     0.188 C 
BRANCH   2   3
ATOM      3  C   UNL A   1      36.001  23.232  24.133  1.00  0.00     0.188 C 
BRANCH   3   4
ATOM      4  O   UNL A   1      35.782  23.903  25.350  1.00  0.00    -0.376 OA
BRANCH   4   5
ATOM      5  C   UNL A   1      34.558  23.916  26.043  1.00  0.00     0.202 C 
BRANCH   5   6
ATOM      6  C   UNL A   1      34.346  23.036  27.282  1.00  0.00     0.261 C 
BRANCH   6   7
ATOM      7  O   UNL A   1      33.167  22.240  27.263  1.00  0.00    -0.460 OA
BRANCH   7   8
ATOM      8  C   UNL A   1      31.981  22.780  26.963  1.00  0.00     0.330 C 
ATOM      9  O   UNL A   1      31.557  23.854  27.358  1.00  0.00    -0.247 OA
BRANCH   8  10
ATOM     10  C   UNL A   1      31.339  22.013  25.863  1.00  0.00     0.094 C 
ATOM     11  C   UNL A   1      31.162  22.272  24.552  1.00  0.00     0.015 C 
BRANCH  11  12
ATOM     12  C   UNL A   1      31.627  23.375  23.687  1.00  0.00    -0.025 A 
ATOM     13  C   UNL A   1      31.463  25.742  23.103  1.00  0.00    -0.016 A 
ATOM     14  C   UNL A   1      32.375  25.558  22.058  1.00  0.00     0.009 A 
ATOM     15  C   UNL A   1      31.059  24.638  23.877  1.00  0.00     0.017 A 
ATOM     16  C   UNL A   1      32.991  24.331  21.895  1.00  0.00     0.001 A 
ATOM     17  C   UNL A   1      32.662  23.282  22.753  1.00  0.00     0.008 A 
BRANCH  13  18
ATOM     18  C   UNL A   1      31.035  27.102  23.441  1.00  0.00     0.004 A 
ATOM     19  C   UNL A   1      30.314  29.756  23.927  1.00  0.00     0.162 A 
ATOM     20  C   UNL A   1      29.928  29.130  22.738  1.00  0.00     0.051 A 
ATOM     21  C   UNL A   1      31.084  29.074  24.903  1.00  0.00     0.180 A 
ATOM     22  C   UNL A   1      30.277  27.809  22.503  1.00  0.00     0.014 A 
ATOM     23  C   UNL A   1      31.446  27.738  24.648  1.00  0.00     0.094 A 
ATOM     24  Cl  UNL A   1      32.424  26.791  25.743  1.00  0.00    -0.079 Cl
BRANCH  19  25
ATOM     25  O   UNL A   1      30.027  31.079  24.186  1.00  0.00    -0.493 OA
ATOM     26  C   UNL A   1      28.750  31.528  23.755  1.00  0.00     0.278 C 
ENDBRANCH  19  25
BRANCH  21  27
ATOM     27  O   UNL A   1      31.358  29.859  25.994  1.00  0.00    -0.491 OA
ATOM     28  C   UNL A   1      32.599  30.511  26.169  1.00  0.00     0.278 C 
ENDBRANCH  21  27
ENDBRANCH  13  18
ENDBRANCH  11  12
ENDBRANCH   8  10
ENDBRANCH   7   8
ENDBRANCH   6   7
ENDBRANCH   5   6
ENDBRANCH   4   5
ENDBRANCH   3   4
ENDBRANCH   2   3
ENDBRANCH   1   2
BRANCH   1  29
ATOM     29  C   UNL A   1      38.624  20.897  25.742  1.00  0.00     0.188 C 
BRANCH  29  30
ATOM     30  C   UNL A   1      40.036  20.936  26.363  1.00  0.00     0.188 C 
BRANCH  30  31
ATOM     31  O   UNL A   1      40.794  22.073  25.975  1.00  0.00    -0.376 OA
BRANCH  31  32
ATOM     32  C   UNL A   1      42.203  21.919  25.908  1.00  0.00     0.202 C 
BRANCH  32  33
ATOM     33  C   UNL A   1      43.079  23.101  25.450  1.00  0.00     0.261 C 
BRANCH  33  34
ATOM     34  O   UNL A   1      42.507  24.416  25.528  1.00  0.00    -0.460 OA
BRANCH  34  35
ATOM     35  C   UNL A   1      43.339  25.446  25.767  1.00  0.00     0.338 C 
ATOM     36  O   UNL A   1      44.347  25.736  25.133  1.00  0.00    -0.246 OA
BRANCH  35  37
ATOM     37  C   UNL A   1      42.728  26.292  26.811  1.00  0.00     0.060 A 
ATOM     38  C   UNL A   1      43.067  27.650  26.869  1.00  0.00     0.016 A 
ATOM     39  C   UNL A   1      41.822  25.751  27.729  1.00  0.00     0.016 A 
ATOM     40  C   UNL A   1      42.532  28.461  27.869  1.00  0.00     0.010 A 
ATOM     41  C   UNL A   1      41.303  26.561  28.744  1.00  0.00     0.010 A 
ATOM     42  C   UNL A   1      41.685  27.912  28.841  1.00  0.00    -0.014 A 
BRANCH  42  43
ATOM     43  C   UNL A   1      41.359  28.705  30.053  1.00  0.00     0.031 A 
ATOM     44  C   UNL A   1      42.195  28.502  31.288  1.00  0.00     0.074 A 
ATOM     45  C   UNL A   1      40.371  29.618  30.045  1.00  0.00     0.049 A 
ATOM     46  N   UNL A   1      42.101  29.077  32.459  1.00  0.00    -0.248 NA
ATOM     47  C   UNL A   1      43.283  27.516  31.189  1.00  0.00     0.031 C 
ATOM     48  C   UNL A   1      39.515  29.925  28.901  1.00  0.00     0.029 A 
ATOM     49  N   UNL A   1      39.921  30.452  31.038  1.00  0.00    -0.354 N 
ATOM     50  C   UNL A   1      43.108  28.516  33.237  1.00  0.00     0.074 A 
ATOM     51  C   UNL A   1      43.781  27.535  32.415  1.00  0.00     0.031 C 
ATOM     52  C   UNL A   1      38.631  30.873  29.262  1.00  0.00     0.029 A 
ATOM     53  C   UNL A   1      38.841  31.216  30.668  1.00  0.00     0.049 A 
ATOM     54  H   UNL A   1      40.333  30.498  31.931  1.00  0.00     0.167 HD
ATOM     55  C   UNL A   1      43.445  28.799  34.518  1.00  0.00     0.037 A 
ATOM     56  C   UNL A   1      38.093  32.076  31.390  1.00  0.00     0.037 A 
ATOM     57  C   UNL A   1      42.767  29.776  35.331  1.00  0.00     0.049 A 
ATOM     58  C   UNL A   1      38.452  32.338  32.832  1.00  0.00     0.074 A 
ATOM     59  C   UNL A   1      43.050  30.159  36.630  1.00  0.00     0.029 A 
ATOM     60  N   UNL A   1      41.662  30.513  34.930  1.00  0.00    -0.354 N 
ATOM     61  N   UNL A   1      39.431  31.831  33.544  1.00  0.00    -0.248 NA
ATOM     62  C   UNL A   1      37.611  33.293  33.564  1.00  0.00     0.031 C 
ATOM     63  C   UNL A   1      42.077  31.078  37.037  1.00  0.00     0.029 A 
ATOM     64  C   UNL A   1      41.229  31.323  35.968  1.00  0.00     0.049 A 
ATOM     65  H   UNL A   1      41.244  30.467  34.039  1.00  0.00     0.167 HD
ATOM     66  C   UNL A   1      39.337  32.425  34.800  1.00  0.00     0.074 A 
ATOM     67  C   UNL A   1      38.218  33.342  34.742  1.00  0.00     0.031 C 
ATOM     68  C   UNL A   1      40.109  32.231  35.900  1.00  0.00     0.037 A 
BRANCH  55  69
ATOM     69  C   UNL A   1      44.570  28.012  35.134  1.00  0.00     0.058 A 
ATOM     70  C   UNL A   1      45.908  28.437  35.058  1.00  0.00     0.135 A 
ATOM     71  C   UNL A   1      44.303  26.824  35.834  1.00  0.00     0.135 A 
ATOM     72  F   UNL A   1      46.225  29.555  34.385  1.00  0.00    -0.206 F 
ATOM     73  C   UNL A   1      46.940  27.697  35.629  1.00  0.00     0.059 A 
ATOM     74  C   UNL A   1      45.316  26.086  36.440  1.00  0.00     0.059 A 
ATOM     75  F   UNL A   1      43.044  26.368  35.936  1.00  0.00    -0.206 F 
ATOM     76  C   UNL A   1      46.633  26.524  36.319  1.00  0.00     0.060 A 
BRANCH  76  77
ATOM     77  S   UNL A   1      47.983  25.579  37.057  1.00  0.00     0.124 S 
ATOM     78  O   UNL A   1      49.123  26.455  36.809  1.00  0.00    -0.237 OA
ATOM     79  O   UNL A   1      47.560  25.469  38.449  1.00  0.00    -0.237 OA
ATOM     80  O   UNL A   1      47.978  24.330  36.303  1.00  0.00    -0.744 OA
ENDBRANCH  76  77
ENDBRANCH  55  69
BRANCH  56  81
ATOM     81  C   UNL A   1      36.915  32.738  30.763  1.00  0.00     0.058 A 
ATOM     82  C   UNL A   1      35.608  32.295  31.010  1.00  0.00     0.135 A 
ATOM     83  C   UNL A   1      37.080  33.839  29.907  1.00  0.00     0.135 A 
ATOM     84  F   UNL A   1      35.397  31.236  31.808  1.00  0.00    -0.206 F 
ATOM     85  C   UNL A   1      34.505  32.915  30.429  1.00  0.00     0.059 A 
ATOM     86  C   UNL A   1      35.992  34.493  29.337  1.00  0.00     0.059 A 
ATOM     87  F   UNL A   1      38.308  34.309  29.643  1.00  0.00    -0.206 F 
ATOM     88  C   UNL A   1      34.708  34.019  29.600  1.00  0.00     0.060 A 
BRANCH  88  89
ATOM     89  S   UNL A   1      33.267  34.862  28.909  1.00  0.00     0.124 S 
ATOM     90  O   UNL A   1      33.879  36.028  28.282  1.00  0.00    -0.237 OA
ATOM     91  O   UNL A   1      32.733  33.853  28.000  1.00  0.00    -0.237 OA
ATOM     92  O   UNL A   1      32.443  35.134  30.083  1.00  0.00    -0.744 OA
ENDBRANCH  88  89
ENDBRANCH  56  81
BRANCH  68  93
ATOM     93  C   UNL A   1      39.792  33.048  37.126  1.00  0.00     0.058 A 
ATOM     94  C   UNL A   1      38.812  32.654  38.051  1.00  0.00     0.135 A 
ATOM     95  C   UNL A   1      40.505  34.229  37.396  1.00  0.00     0.135 A 
ATOM     96  F   UNL A   1      38.098  31.537  37.844  1.00  0.00    -0.206 F 
ATOM     97  C   UNL A   1      38.524  33.418  39.178  1.00  0.00     0.059 A 
ATOM     98  C   UNL A   1      40.258  34.991  38.534  1.00  0.00     0.059 A 
ATOM     99  F   UNL A   1      41.463  34.648  36.554  1.00  0.00    -0.206 F 
ATOM    100  C   UNL A   1      39.253  34.587  39.410  1.00  0.00     0.060 A 
BRANCH 100 101
ATOM    101  S   UNL A   1      38.874  35.566  40.879  1.00  0.00     0.124 S 
ATOM    102  O   UNL A   1      39.832  35.034  41.842  1.00  0.00    -0.237 OA
ATOM    103  O   UNL A   1      39.128  36.929  40.419  1.00  0.00    -0.237 OA
ATOM    104  O   UNL A   1      37.474  35.251  41.148  1.00  0.00    -0.744 OA
ENDBRANCH 100 101
ENDBRANCH  68  93
ENDBRANCH  42  43
ENDBRANCH  35  37
ENDBRANCH  34  35
ENDBRANCH  33  34
ENDBRANCH  32  33
ENDBRANCH  31  32
ENDBRANCH  30  31
ENDBRANCH  29  30
ENDBRANCH   1  29
TORSDOF 27
ENDMDL
MODEL 2
REMARK VINA RESULT:      -7.7      8.490     15.656
REMARK SMILES COc1ccc(-c2cccc(/C=C\C(=O)OCCOCCOCCOCCOC(=O)c3ccc(-c4c5nc(c(-c6c(F)cc(S(=O)(=O)[O-])cc6F)c6ccc([nH]6)c(-c6c(F)cc(S(=O)(=O)[O-])cc6F)c6nc(c(-c7c(F)cc(S(=O)(=O)[O-])cc7F)c7ccc4[nH]7)C=C6)C=C5)cc3)c2)c(Cl)c1OC
REMARK SMILES IDX 22 1 21 2 20 3 19 4 18 5 17 6 16 7 14 8 15 9 13 10 12 11
REMARK SMILES IDX 11 12 7 13 8 14 97 15 9 16 10 17 6 18 3 19 4 20 100 21 5 22
REMARK SMILES IDX 98 23 99 24 2 25 1 26 101 27 102 28 23 29 24 30 25 31 26 32
REMARK SMILES IDX 27 33 28 34 29 35 30 36 31 37 32 38 96 39 33 40 95 41 34 42
REMARK SMILES IDX 35 43 36 44 89 45 37 46 94 47 88 48 90 49 38 50 93 51 87 52
REMARK SMILES IDX 86 53 39 55 73 56 52 57 72 58 53 59 56 60 71 61 91 62 54 63
REMARK SMILES IDX 55 64 70 66 92 67 57 68 40 69 41 70 50 71 42 72 43 73 49 74
REMARK SMILES IDX 51 75 44 76 45 77 46 78 47 79 48 80 74 81 75 82 84 83 76 84
REMARK SMILES IDX 77 85 83 86 85 87 78 88 79 89 80 90 81 91 82 92 58 93 59 94
REMARK SMILES IDX 68 95 60 96 61 97 67 98 69 99 62 100 63 101 64 102 65 103
REMARK SMILES IDX 66 104
REMARK H PARENT 90 54 56 65
REMARK Flexibility Score: inf
ROOT
ATOM      1  O   UNL A   1      42.654  32.954  31.652  1.00  0.00    -0.377 OA
ENDROOT
BRANCH   1   2
ATOM      2  C   UNL A   1      42.856  34.093  30.816  1.00  0.00     0.188 C 
BRANCH   2   3
ATOM      3  C   UNL A   1      43.394  35.444  31.363  1.00  0.00     0.188 C 
BRANCH   3   4
ATOM      4  O   UNL A   1      43.586  36.400  30.348  1.00  0.00    -0.376 OA
BRANCH   4   5
ATOM      5  C   UNL A   1      42.927  36.386  29.106  1.00  0.00     0.202 C 
BRANCH   5   6
ATOM      6  C   UNL A   1      43.037  37.575  28.143  1.00  0.00     0.261 C 
BRANCH   6   7
ATOM      7  O   UNL A   1      43.457  38.797  28.737  1.00  0.00    -0.460 OA
BRANCH   7   8
ATOM      8  C   UNL A   1      42.567  39.739  29.069  1.00  0.00     0.330 C 
ATOM      9  O   UNL A   1      41.509  39.962  28.502  1.00  0.00    -0.247 OA
BRANCH   8  10
ATOM     10  C   UNL A   1      42.913  40.320  30.392  1.00  0.00     0.094 C 
ATOM     11  C   UNL A   1      43.576  41.436  30.754  1.00  0.00     0.015 C 
BRANCH  11  12
ATOM     12  C   UNL A   1      44.127  42.561  29.971  1.00  0.00    -0.025 A 
ATOM     13  C   UNL A   1      45.133  43.310  27.874  1.00  0.00    -0.016 A 
ATOM     14  C   UNL A   1      45.269  44.603  28.390  1.00  0.00     0.009 A 
ATOM     15  C   UNL A   1      44.608  42.288  28.687  1.00  0.00     0.017 A 
ATOM     16  C   UNL A   1      44.743  44.904  29.633  1.00  0.00     0.001 A 
ATOM     17  C   UNL A   1      44.120  43.899  30.372  1.00  0.00     0.008 A 
BRANCH  13  18
ATOM     18  C   UNL A   1      45.433  43.075  26.459  1.00  0.00     0.004 A 
ATOM     19  C   UNL A   1      46.162  42.526  23.819  1.00  0.00     0.162 A 
ATOM     20  C   UNL A   1      45.908  41.478  24.710  1.00  0.00     0.051 A 
ATOM     21  C   UNL A   1      46.070  43.880  24.229  1.00  0.00     0.180 A 
ATOM     22  C   UNL A   1      45.535  41.752  26.017  1.00  0.00     0.014 A 
ATOM     23  C   UNL A   1      45.705  44.148  25.562  1.00  0.00     0.094 A 
ATOM     24  Cl  UNL A   1      45.591  45.764  26.213  1.00  0.00    -0.079 Cl
BRANCH  19  25
ATOM     25  O   UNL A   1      46.576  42.303  22.524  1.00  0.00    -0.493 OA
ATOM     26  C   UNL A   1      47.261  41.079  22.299  1.00  0.00     0.278 C 
ENDBRANCH  19  25
BRANCH  21  27
ATOM     27  O   UNL A   1      46.355  44.754  23.211  1.00  0.00    -0.491 OA
ATOM     28  C   UNL A   1      47.576  45.461  23.136  1.00  0.00     0.278 C 
ENDBRANCH  21  27
ENDBRANCH  13  18
ENDBRANCH  11  12
ENDBRANCH   8  10
ENDBRANCH   7   8
ENDBRANCH   6   7
ENDBRANCH   5   6
ENDBRANCH   4   5
ENDBRANCH   3   4
ENDBRANCH   2   3
ENDBRANCH   1   2
BRANCH   1  29
ATOM     29  C   UNL A   1      41.338  32.471  31.901  1.00  0.00     0.188 C 
BRANCH  29  30
ATOM     30  C   UNL A   1      40.213  33.512  32.086  1.00  0.00     0.188 C 
BRANCH  30  31
ATOM     31  O   UNL A   1      39.198  33.431  31.096  1.00  0.00    -0.376 OA
BRANCH  31  32
ATOM     32  C   UNL A   1      37.913  33.919  31.445  1.00  0.00     0.202 C 
BRANCH  32  33
ATOM     33  C   UNL A   1      36.658  33.117  31.050  1.00  0.00     0.261 C 
BRANCH  33  34
ATOM     34  O   UNL A   1      36.784  31.689  30.976  1.00  0.00    -0.460 OA
BRANCH  34  35
ATOM     35  C   UNL A   1      36.583  31.106  29.779  1.00  0.00     0.338 C 
ATOM     36  O   UNL A   1      35.623  31.270  29.036  1.00  0.00    -0.246 OA
BRANCH  35  37
ATOM     37  C   UNL A   1      37.814  30.375  29.417  1.00  0.00     0.060 A 
ATOM     38  C   UNL A   1      38.725  30.039  30.427  1.00  0.00     0.016 A 
ATOM     39  C   UNL A   1      38.069  30.020  28.089  1.00  0.00     0.016 A 
ATOM     40  C   UNL A   1      39.913  29.382  30.105  1.00  0.00     0.010 A 
ATOM     41  C   UNL A   1      39.271  29.381  27.765  1.00  0.00     0.010 A 
ATOM     42  C   UNL A   1      40.215  29.092  28.767  1.00  0.00    -0.014 A 
BRANCH  42  43
ATOM     43  C   UNL A   1      41.590  28.664  28.410  1.00  0.00     0.031 A 
ATOM     44  C   UNL A   1      42.677  29.704  28.370  1.00  0.00     0.074 A 
ATOM     45  C   UNL A   1      41.879  27.372  28.169  1.00  0.00     0.049 A 
ATOM     46  N   UNL A   1      43.946  29.570  28.086  1.00  0.00    -0.248 NA
ATOM     47  C   UNL A   1      42.277  31.083  28.693  1.00  0.00     0.031 C 
ATOM     48  C   UNL A   1      40.919  26.271  28.208  1.00  0.00     0.029 A 
ATOM     49  N   UNL A   1      43.069  26.772  27.838  1.00  0.00    -0.354 N 
ATOM     50  C   UNL A   1      44.493  30.845  28.185  1.00  0.00     0.074 A 
ATOM     51  C   UNL A   1      43.412  31.743  28.526  1.00  0.00     0.031 C 
ATOM     52  C   UNL A   1      41.556  25.127  27.898  1.00  0.00     0.029 A 
ATOM     53  C   UNL A   1      42.960  25.421  27.611  1.00  0.00     0.049 A 
ATOM     54  H   UNL A   1      43.919  27.263  27.770  1.00  0.00     0.167 HD
ATOM     55  C   UNL A   1      45.780  31.230  28.015  1.00  0.00     0.037 A 
ATOM     56  C   UNL A   1      43.883  24.530  27.196  1.00  0.00     0.037 A 
ATOM     57  C   UNL A   1      46.851  30.329  27.671  1.00  0.00     0.049 A 
ATOM     58  C   UNL A   1      45.301  24.989  26.959  1.00  0.00     0.074 A 
ATOM     59  C   UNL A   1      48.194  30.614  27.506  1.00  0.00     0.029 A 
ATOM     60  N   UNL A   1      46.698  28.973  27.426  1.00  0.00    -0.354 N 
ATOM     61  N   UNL A   1      45.813  26.190  27.096  1.00  0.00    -0.248 NA
ATOM     62  C   UNL A   1      46.265  23.972  26.522  1.00  0.00     0.031 C 
ATOM     63  C   UNL A   1      48.842  29.445  27.096  1.00  0.00     0.029 A 
ATOM     64  C   UNL A   1      47.917  28.413  27.076  1.00  0.00     0.049 A 
ATOM     65  H   UNL A   1      45.848  28.479  27.490  1.00  0.00     0.167 HD
ATOM     66  C   UNL A   1      47.165  26.067  26.784  1.00  0.00     0.074 A 
ATOM     67  C   UNL A   1      47.391  24.671  26.471  1.00  0.00     0.031 C 
ATOM     68  C   UNL A   1      48.130  27.020  26.762  1.00  0.00     0.037 A 
BRANCH  55  69
ATOM     69  C   UNL A   1      46.095  32.696  28.154  1.00  0.00     0.058 A 
ATOM     70  C   UNL A   1      46.401  33.279  29.396  1.00  0.00     0.135 A 
ATOM     71  C   UNL A   1      46.114  33.527  27.022  1.00  0.00     0.135 A 
ATOM     72  F   UNL A   1      46.379  32.538  30.515  1.00  0.00    -0.206 F 
ATOM     73  C   UNL A   1      46.686  34.636  29.511  1.00  0.00     0.059 A 
ATOM     74  C   UNL A   1      46.429  34.880  27.110  1.00  0.00     0.059 A 
ATOM     75  F   UNL A   1      45.826  33.024  25.810  1.00  0.00    -0.206 F 
ATOM     76  C   UNL A   1      46.699  35.428  28.362  1.00  0.00     0.060 A 
BRANCH  76  77
ATOM     77  S   UNL A   1      47.075  37.186  28.529  1.00  0.00     0.124 S 
ATOM     78  O   UNL A   1      48.533  37.181  28.456  1.00  0.00    -0.237 OA
ATOM     79  O   UNL A   1      46.385  37.761  27.380  1.00  0.00    -0.237 OA
ATOM     80  O   UNL A   1      46.514  37.533  29.831  1.00  0.00    -0.744 OA
ENDBRANCH  76  77
ENDBRANCH  55  69
BRANCH  56  81
ATOM     81  C   UNL A   1      43.489  23.114  26.958  1.00  0.00     0.058 A 
ATOM     82  C   UNL A   1      43.171  22.253  28.019  1.00  0.00     0.135 A 
ATOM     83  C   UNL A   1      43.414  22.596  25.655  1.00  0.00     0.135 A 
ATOM     84  F   UNL A   1      43.243  22.694  29.284  1.00  0.00    -0.206 F 
ATOM     85  C   UNL A   1      42.798  20.930  27.799  1.00  0.00     0.059 A 
ATOM     86  C   UNL A   1      43.015  21.286  25.407  1.00  0.00     0.059 A 
ATOM     87  F   UNL A   1      43.699  23.378  24.602  1.00  0.00    -0.206 F 
ATOM     88  C   UNL A   1      42.716  20.459  26.488  1.00  0.00     0.060 A 
BRANCH  88  89
ATOM     89  S   UNL A   1      42.160  18.763  26.209  1.00  0.00     0.124 S 
ATOM     90  O   UNL A   1      42.345  18.170  27.528  1.00  0.00    -0.237 OA
ATOM     91  O   UNL A   1      40.778  18.962  25.785  1.00  0.00    -0.237 OA
ATOM     92  O   UNL A   1      43.062  18.281  25.167  1.00  0.00    -0.744 OA
ENDBRANCH  88  89
ENDBRANCH  56  81
BRANCH  68  93
ATOM     93  C   UNL A   1      49.532  26.585  26.417  1.00  0.00     0.058 A 
ATOM     94  C   UNL A   1      50.395  26.030  27.376  1.00  0.00     0.135 A 
ATOM     95  C   UNL A   1      50.006  26.695  25.099  1.00  0.00     0.135 A 
ATOM     96  F   UNL A   1      49.997  25.903  28.651  1.00  0.00    -0.206 F 
ATOM     97  C   UNL A   1      51.689  25.635  27.049  1.00  0.00     0.059 A 
ATOM     98  C   UNL A   1      51.284  26.275  24.742  1.00  0.00     0.059 A 
ATOM     99  F   UNL A   1      49.220  27.205  24.137  1.00  0.00    -0.206 F 
ATOM    100  C   UNL A   1      52.124  25.763  25.728  1.00  0.00     0.060 A 
BRANCH 100 101
ATOM    101  S   UNL A   1      53.803  25.241  25.316  1.00  0.00     0.124 S 
ATOM    102  O   UNL A   1      53.937  25.735  23.949  1.00  0.00    -0.237 OA
ATOM    103  O   UNL A   1      54.601  25.935  26.322  1.00  0.00    -0.237 OA
ATOM    104  O   UNL A   1      53.753  23.789  25.455  1.00  0.00    -0.744 OA
ENDBRANCH 100 101
ENDBRANCH  68  93
ENDBRANCH  42  43
ENDBRANCH  35  37
ENDBRANCH  34  35
ENDBRANCH  33  34
ENDBRANCH  32  33
ENDBRANCH  31  32
ENDBRANCH  30  31
ENDBRANCH  29  30
ENDBRANCH   1  29
TORSDOF 27
ENDMDL
MODEL 3
REMARK VINA RESULT:      -7.7      6.098     12.124
REMARK SMILES COc1ccc(-c2cccc(/C=C\C(=O)OCCOCCOCCOCCOC(=O)c3ccc(-c4c5nc(c(-c6c(F)cc(S(=O)(=O)[O-])cc6F)c6ccc([nH]6)c(-c6c(F)cc(S(=O)(=O)[O-])cc6F)c6nc(c(-c7c(F)cc(S(=O)(=O)[O-])cc7F)c7ccc4[nH]7)C=C6)C=C5)cc3)c2)c(Cl)c1OC
REMARK SMILES IDX 22 1 21 2 20 3 19 4 18 5 17 6 16 7 14 8 15 9 13 10 12 11
REMARK SMILES IDX 11 12 7 13 8 14 97 15 9 16 10 17 6 18 3 19 4 20 100 21 5 22
REMARK SMILES IDX 98 23 99 24 2 25 1 26 101 27 102 28 23 29 24 30 25 31 26 32
REMARK SMILES IDX 27 33 28 34 29 35 30 36 31 37 32 38 96 39 33 40 95 41 34 42
REMARK SMILES IDX 35 43 36 44 89 45 37 46 94 47 88 48 90 49 38 50 93 51 87 52
REMARK SMILES IDX 86 53 39 55 73 56 52 57 72 58 53 59 56 60 71 61 91 62 54 63
REMARK SMILES IDX 55 64 70 66 92 67 57 68 40 69 41 70 50 71 42 72 43 73 49 74
REMARK SMILES IDX 51 75 44 76 45 77 46 78 47 79 48 80 74 81 75 82 84 83 76 84
REMARK SMILES IDX 77 85 83 86 85 87 78 88 79 89 80 90 81 91 82 92 58 93 59 94
REMARK SMILES IDX 68 95 60 96 61 97 67 98 69 99 62 100 63 101 64 102 65 103
REMARK SMILES IDX 66 104
REMARK H PARENT 90 54 56 65
REMARK Flexibility Score: inf
ROOT
ATOM      1  O   UNL A   1      36.334  32.113  30.603  1.00  0.00    -0.377 OA
ENDROOT
BRANCH   1   2
ATOM      2  C   UNL A   1      35.450  33.135  31.066  1.00  0.00     0.188 C 
BRANCH   2   3
ATOM      3  C   UNL A   1      34.409  33.820  30.138  1.00  0.00     0.188 C 
BRANCH   3   4
ATOM      4  O   UNL A   1      34.772  33.757  28.780  1.00  0.00    -0.376 OA
BRANCH   4   5
ATOM      5  C   UNL A   1      33.984  33.174  27.772  1.00  0.00     0.202 C 
BRANCH   5   6
ATOM      6  C   UNL A   1      33.793  31.653  27.702  1.00  0.00     0.261 C 
BRANCH   6   7
ATOM      7  O   UNL A   1      32.596  31.221  27.067  1.00  0.00    -0.460 OA
BRANCH   7   8
ATOM      8  C   UNL A   1      32.393  29.928  26.795  1.00  0.00     0.330 C 
ATOM      9  O   UNL A   1      31.461  29.463  26.158  1.00  0.00    -0.247 OA
BRANCH   8  10
ATOM     10  C   UNL A   1      33.601  29.139  27.150  1.00  0.00     0.094 C 
ATOM     11  C   UNL A   1      34.181  28.057  26.594  1.00  0.00     0.015 C 
BRANCH  11  12
ATOM     12  C   UNL A   1      33.893  27.302  25.358  1.00  0.00    -0.025 A 
ATOM     13  C   UNL A   1      33.764  25.121  24.264  1.00  0.00    -0.016 A 
ATOM     14  C   UNL A   1      33.440  25.738  23.051  1.00  0.00     0.009 A 
ATOM     15  C   UNL A   1      34.036  25.911  25.396  1.00  0.00     0.017 A 
ATOM     16  C   UNL A   1      33.234  27.104  23.011  1.00  0.00     0.001 A 
ATOM     17  C   UNL A   1      33.394  27.853  24.176  1.00  0.00     0.008 A 
BRANCH  13  18
ATOM     18  C   UNL A   1      33.699  23.660  24.357  1.00  0.00     0.004 A 
ATOM     19  C   UNL A   1      33.483  20.897  24.704  1.00  0.00     0.162 A 
ATOM     20  C   UNL A   1      32.333  21.689  24.645  1.00  0.00     0.051 A 
ATOM     21  C   UNL A   1      34.777  21.468  24.604  1.00  0.00     0.180 A 
ATOM     22  C   UNL A   1      32.441  23.059  24.461  1.00  0.00     0.014 A 
ATOM     23  C   UNL A   1      34.877  22.861  24.433  1.00  0.00     0.094 A 
ATOM     24  Cl  UNL A   1      36.405  23.702  24.333  1.00  0.00    -0.079 Cl
BRANCH  19  25
ATOM     25  O   UNL A   1      33.427  19.538  24.928  1.00  0.00    -0.493 OA
ATOM     26  C   UNL A   1      32.505  18.819  24.121  1.00  0.00     0.278 C 
ENDBRANCH  19  25
BRANCH  21  27
ATOM     27  O   UNL A   1      35.771  20.525  24.684  1.00  0.00    -0.491 OA
ATOM     28  C   UNL A   1      36.974  20.748  25.390  1.00  0.00     0.278 C 
ENDBRANCH  21  27
ENDBRANCH  13  18
ENDBRANCH  11  12
ENDBRANCH   8  10
ENDBRANCH   7   8
ENDBRANCH   6   7
ENDBRANCH   5   6
ENDBRANCH   4   5
ENDBRANCH   3   4
ENDBRANCH   2   3
ENDBRANCH   1   2
BRANCH   1  29
ATOM     29  C   UNL A   1      36.600  30.974  31.413  1.00  0.00     0.188 C 
BRANCH  29  30
ATOM     30  C   UNL A   1      36.886  29.635  30.699  1.00  0.00     0.188 C 
BRANCH  30  31
ATOM     31  O   UNL A   1      37.107  29.773  29.304  1.00  0.00    -0.376 OA
BRANCH  31  32
ATOM     32  C   UNL A   1      38.455  29.836  28.865  1.00  0.00     0.202 C 
BRANCH  32  33
ATOM     33  C   UNL A   1      39.555  29.119  29.672  1.00  0.00     0.261 C 
BRANCH  33  34
ATOM     34  O   UNL A   1      40.670  28.588  28.940  1.00  0.00    -0.460 OA
BRANCH  34  35
ATOM     35  C   UNL A   1      40.766  27.250  28.832  1.00  0.00     0.338 C 
ATOM     36  O   UNL A   1      39.982  26.502  28.260  1.00  0.00    -0.246 OA
BRANCH  35  37
ATOM     37  C   UNL A   1      42.086  26.845  29.356  1.00  0.00     0.060 A 
ATOM     38  C   UNL A   1      42.678  27.611  30.369  1.00  0.00     0.016 A 
ATOM     39  C   UNL A   1      42.738  25.715  28.853  1.00  0.00     0.016 A 
ATOM     40  C   UNL A   1      43.941  27.271  30.853  1.00  0.00     0.010 A 
ATOM     41  C   UNL A   1      44.014  25.389  29.325  1.00  0.00     0.010 A 
ATOM     42  C   UNL A   1      44.637  26.187  30.301  1.00  0.00    -0.014 A 
BRANCH  42  43
ATOM     43  C   UNL A   1      46.077  26.014  30.613  1.00  0.00     0.031 A 
ATOM     44  C   UNL A   1      46.455  25.305  31.886  1.00  0.00     0.074 A 
ATOM     45  C   UNL A   1      47.031  26.437  29.764  1.00  0.00     0.049 A 
ATOM     46  N   UNL A   1      47.640  25.038  32.368  1.00  0.00    -0.248 NA
ATOM     47  C   UNL A   1      45.343  24.837  32.730  1.00  0.00     0.031 C 
ATOM     48  C   UNL A   1      46.789  27.108  28.488  1.00  0.00     0.029 A 
ATOM     49  N   UNL A   1      48.399  26.367  29.856  1.00  0.00    -0.354 N 
ATOM     50  C   UNL A   1      47.418  24.380  33.574  1.00  0.00     0.074 A 
ATOM     51  C   UNL A   1      45.986  24.317  33.764  1.00  0.00     0.031 C 
ATOM     52  C   UNL A   1      47.973  27.400  27.920  1.00  0.00     0.029 A 
ATOM     53  C   UNL A   1      49.053  26.965  28.805  1.00  0.00     0.049 A 
ATOM     54  H   UNL A   1      48.868  25.929  30.602  1.00  0.00     0.167 HD
ATOM     55  C   UNL A   1      48.326  23.871  34.440  1.00  0.00     0.037 A 
ATOM     56  C   UNL A   1      50.371  27.159  28.594  1.00  0.00     0.037 A 
ATOM     57  C   UNL A   1      49.752  23.941  34.245  1.00  0.00     0.049 A 
ATOM     58  C   UNL A   1      51.365  26.630  29.598  1.00  0.00     0.074 A 
ATOM     59  C   UNL A   1      50.756  23.429  35.048  1.00  0.00     0.029 A 
ATOM     60  N   UNL A   1      50.377  24.576  33.182  1.00  0.00    -0.354 N 
ATOM     61  N   UNL A   1      51.143  25.975  30.714  1.00  0.00    -0.248 NA
ATOM     62  C   UNL A   1      52.787  26.858  29.310  1.00  0.00     0.031 C 
ATOM     63  C   UNL A   1      51.987  23.811  34.505  1.00  0.00     0.029 A 
ATOM     64  C   UNL A   1      51.753  24.499  33.325  1.00  0.00     0.049 A 
ATOM     65  H   UNL A   1      49.911  25.018  32.434  1.00  0.00     0.167 HD
ATOM     66  C   UNL A   1      52.399  25.693  31.248  1.00  0.00     0.074 A 
ATOM     67  C   UNL A   1      53.373  26.232  30.321  1.00  0.00     0.031 C 
ATOM     68  C   UNL A   1      52.715  25.045  32.397  1.00  0.00     0.037 A 
BRANCH  55  69
ATOM     69  C   UNL A   1      47.807  23.229  35.699  1.00  0.00     0.058 A 
ATOM     70  C   UNL A   1      47.606  21.841  35.802  1.00  0.00     0.135 A 
ATOM     71  C   UNL A   1      47.527  24.013  36.830  1.00  0.00     0.135 A 
ATOM     72  F   UNL A   1      47.838  21.044  34.746  1.00  0.00    -0.206 F 
ATOM     73  C   UNL A   1      47.122  21.261  36.971  1.00  0.00     0.059 A 
ATOM     74  C   UNL A   1      47.073  23.450  38.019  1.00  0.00     0.059 A 
ATOM     75  F   UNL A   1      47.697  25.344  36.788  1.00  0.00    -0.206 F 
ATOM     76  C   UNL A   1      46.859  22.074  38.074  1.00  0.00     0.060 A 
BRANCH  76  77
ATOM     77  S   UNL A   1      46.235  21.305  39.583  1.00  0.00     0.124 S 
ATOM     78  O   UNL A   1      47.457  21.167  40.369  1.00  0.00    -0.237 OA
ATOM     79  O   UNL A   1      45.280  22.297  40.066  1.00  0.00    -0.237 OA
ATOM     80  O   UNL A   1      45.650  20.054  39.112  1.00  0.00    -0.744 OA
ENDBRANCH  76  77
ENDBRANCH  55  69
BRANCH  56  81
ATOM     81  C   UNL A   1      50.825  27.907  27.390  1.00  0.00     0.058 A 
ATOM     82  C   UNL A   1      50.900  29.308  27.382  1.00  0.00     0.135 A 
ATOM     83  C   UNL A   1      51.203  27.228  26.220  1.00  0.00     0.135 A 
ATOM     84  F   UNL A   1      50.536  30.005  28.469  1.00  0.00    -0.206 F 
ATOM     85  C   UNL A   1      51.329  30.009  26.258  1.00  0.00     0.059 A 
ATOM     86  C   UNL A   1      51.662  27.904  25.095  1.00  0.00     0.059 A 
ATOM     87  F   UNL A   1      51.158  25.888  26.176  1.00  0.00    -0.206 F 
ATOM     88  C   UNL A   1      51.716  29.297  25.122  1.00  0.00     0.060 A 
BRANCH  88  89
ATOM     89  S   UNL A   1      52.340  30.212  23.695  1.00  0.00     0.124 S 
ATOM     90  O   UNL A   1      53.618  29.553  23.457  1.00  0.00    -0.237 OA
ATOM     91  O   UNL A   1      51.299  29.970  22.700  1.00  0.00    -0.237 OA
ATOM     92  O   UNL A   1      52.418  31.585  24.185  1.00  0.00    -0.744 OA
ENDBRANCH  88  89
ENDBRANCH  56  81
BRANCH  68  93
ATOM     93  C   UNL A   1      54.178  24.851  32.708  1.00  0.00     0.058 A 
ATOM     94  C   UNL A   1      54.962  25.874  33.263  1.00  0.00     0.135 A 
ATOM     95  C   UNL A   1      54.795  23.610  32.476  1.00  0.00     0.135 A 
ATOM     96  F   UNL A   1      54.428  27.082  33.503  1.00  0.00    -0.206 F 
ATOM     97  C   UNL A   1      56.313  25.687  33.542  1.00  0.00     0.059 A 
ATOM     98  C   UNL A   1      56.135  23.389  32.780  1.00  0.00     0.059 A 
ATOM     99  F   UNL A   1      54.090  22.590  31.959  1.00  0.00    -0.206 F 
ATOM    100  C   UNL A   1      56.890  24.439  33.295  1.00  0.00     0.060 A 
BRANCH 100 101
ATOM    101  S   UNL A   1      58.642  24.207  33.668  1.00  0.00     0.124 S 
ATOM    102  O   UNL A   1      58.811  25.067  34.834  1.00  0.00    -0.237 OA
ATOM    103  O   UNL A   1      58.719  22.771  33.922  1.00  0.00    -0.237 OA
ATOM    104  O   UNL A   1      59.312  24.660  32.453  1.00  0.00    -0.744 OA
ENDBRANCH 100 101
ENDBRANCH  68  93
ENDBRANCH  42  43
ENDBRANCH  35  37
ENDBRANCH  34  35
ENDBRANCH  33  34
ENDBRANCH  32  33
ENDBRANCH  31  32
ENDBRANCH  30  31
ENDBRANCH  29  30
ENDBRANCH   1  29
TORSDOF 27
ENDMDL
