MODEL 1
REMARK VINA RESULT:      -9.3      0.000      0.000
REMARK SMILES O=C(OCCOCCOCCOCCOC(=O)[C@@H]1CN(C(=O)[C@H]2CC=CCC2)c2ccccc2O1)c1ccc(-c2c3nc(c(-c4c(F)cc(S(=O)(=O)[O-])cc4F)c4ccc([nH]4)c(-c4c(F)cc(S(=O)(=O)[O-])cc4F)c4nc(c(-c5c(F)cc(S(=O)(=O)[O-])cc5F)c5ccc2[nH]5)C=C4)C=C3)cc1
REMARK SMILES IDX 8 1 7 2 6 3 5 4 4 5 3 6 2 7 1 8 36 9 37 10 101 11 38 12
REMARK SMILES IDX 100 13 39 14 40 15 41 16 94 17 42 18 99 19 93 20 95 21 43 22
REMARK SMILES IDX 98 23 92 24 91 25 44 27 78 28 57 29 77 30 58 31 61 32 76 33
REMARK SMILES IDX 96 34 59 35 60 36 75 38 97 39 62 40 45 41 46 42 55 43 47 44
REMARK SMILES IDX 48 45 54 46 56 47 49 48 50 49 51 50 52 51 53 52 79 53 80 54
REMARK SMILES IDX 89 55 81 56 82 57 88 58 90 59 83 60 84 61 85 62 86 63 87 64
REMARK SMILES IDX 63 65 64 66 73 67 65 68 66 69 72 70 74 71 67 72 68 73 69 74
REMARK SMILES IDX 70 75 71 76 9 77 10 78 11 79 12 80 13 81 14 82 15 83 16 84
REMARK SMILES IDX 17 85 18 86 19 87 35 88 20 89 34 90 29 91 33 92 30 93 32 94
REMARK SMILES IDX 31 95 21 96 22 97 23 98 24 99 28 100 25 101 27 102 26 103
REMARK H PARENT 95 26 61 37
REMARK Flexibility Score: inf
ROOT
ATOM      1  C   UNL A   1      42.891  18.885  25.733  1.00  0.00     0.188 C 
ENDROOT
BRANCH   1   2
ATOM      2  C   UNL A   1      44.263  19.467  25.374  1.00  0.00     0.188 C 
BRANCH   2   3
ATOM      3  O   UNL A   1      44.259  20.871  25.156  1.00  0.00    -0.376 OA
BRANCH   3   4
ATOM      4  C   UNL A   1      45.140  21.839  25.707  1.00  0.00     0.202 C 
BRANCH   4   5
ATOM      5  C   UNL A   1      44.908  23.288  25.385  1.00  0.00     0.261 C 
BRANCH   5   6
ATOM      6  O   UNL A   1      43.581  23.692  25.012  1.00  0.00    -0.460 OA
BRANCH   6   7
ATOM      7  C   UNL A   1      42.407  23.746  25.677  1.00  0.00     0.338 C 
ATOM      8  O   UNL A   1      41.633  22.797  25.561  1.00  0.00    -0.246 OA
BRANCH   7   9
ATOM      9  C   UNL A   1      42.016  24.852  26.590  1.00  0.00     0.060 A 
ATOM     10  C   UNL A   1      42.329  26.195  26.433  1.00  0.00     0.016 A 
ATOM     11  C   UNL A   1      41.160  24.525  27.643  1.00  0.00     0.016 A 
ATOM     12  C   UNL A   1      42.087  27.141  27.384  1.00  0.00     0.010 A 
ATOM     13  C   UNL A   1      40.755  25.504  28.549  1.00  0.00     0.010 A 
ATOM     14  C   UNL A   1      41.284  26.795  28.443  1.00  0.00    -0.014 A 
BRANCH  14  15
ATOM     15  C   UNL A   1      41.238  27.784  29.507  1.00  0.00     0.031 A 
ATOM     16  C   UNL A   1      42.363  27.741  30.481  1.00  0.00     0.074 A 
ATOM     17  C   UNL A   1      40.364  28.801  29.420  1.00  0.00     0.049 A 
ATOM     18  N   UNL A   1      42.540  28.448  31.554  1.00  0.00    -0.248 NA
ATOM     19  C   UNL A   1      43.445  26.774  30.200  1.00  0.00     0.031 C 
ATOM     20  C   UNL A   1      39.390  29.000  28.337  1.00  0.00     0.029 A 
ATOM     21  N   UNL A   1      40.180  29.878  30.233  1.00  0.00    -0.354 N 
ATOM     22  C   UNL A   1      43.725  27.983  32.098  1.00  0.00     0.074 A 
ATOM     23  C   UNL A   1      44.220  26.921  31.260  1.00  0.00     0.031 C 
ATOM     24  C   UNL A   1      38.698  30.126  28.570  1.00  0.00     0.029 A 
ATOM     25  C   UNL A   1      39.125  30.669  29.850  1.00  0.00     0.049 A 
ATOM     26  H   UNL A   1      40.746  30.070  31.015  1.00  0.00     0.167 HD
ATOM     27  C   UNL A   1      44.335  28.429  33.214  1.00  0.00     0.037 A 
ATOM     28  C   UNL A   1      38.542  31.677  30.522  1.00  0.00     0.037 A 
ATOM     29  C   UNL A   1      43.787  29.490  34.008  1.00  0.00     0.049 A 
ATOM     30  C   UNL A   1      39.145  32.038  31.855  1.00  0.00     0.074 A 
ATOM     31  C   UNL A   1      44.236  29.986  35.212  1.00  0.00     0.029 A 
ATOM     32  N   UNL A   1      42.652  30.216  33.661  1.00  0.00    -0.354 N 
ATOM     33  N   UNL A   1      40.211  31.537  32.440  1.00  0.00    -0.248 NA
ATOM     34  C   UNL A   1      38.471  33.087  32.621  1.00  0.00     0.031 C 
ATOM     35  C   UNL A   1      43.334  30.971  35.626  1.00  0.00     0.029 A 
ATOM     36  C   UNL A   1      42.372  31.147  34.640  1.00  0.00     0.049 A 
ATOM     37  H   UNL A   1      42.128  30.085  32.837  1.00  0.00     0.167 HD
ATOM     38  C   UNL A   1      40.358  32.238  33.629  1.00  0.00     0.074 A 
ATOM     39  C   UNL A   1      39.280  33.209  33.664  1.00  0.00     0.031 C 
ATOM     40  C   UNL A   1      41.289  32.101  34.608  1.00  0.00     0.037 A 
BRANCH  27  41
ATOM     41  C   UNL A   1      45.575  27.713  33.646  1.00  0.00     0.058 A 
ATOM     42  C   UNL A   1      46.855  28.130  33.248  1.00  0.00     0.135 A 
ATOM     43  C   UNL A   1      45.475  26.562  34.441  1.00  0.00     0.135 A 
ATOM     44  F   UNL A   1      47.001  29.190  32.435  1.00  0.00    -0.206 F 
ATOM     45  C   UNL A   1      47.994  27.427  33.619  1.00  0.00     0.059 A 
ATOM     46  C   UNL A   1      46.603  25.863  34.854  1.00  0.00     0.059 A 
ATOM     47  F   UNL A   1      44.272  26.097  34.812  1.00  0.00    -0.206 F 
ATOM     48  C   UNL A   1      47.857  26.301  34.434  1.00  0.00     0.060 A 
BRANCH  48  49
ATOM     49  S   UNL A   1      49.350  25.435  34.952  1.00  0.00     0.124 S 
ATOM     50  O   UNL A   1      49.097  25.239  36.376  1.00  0.00    -0.237 OA
ATOM     51  O   UNL A   1      49.305  24.231  34.128  1.00  0.00    -0.237 OA
ATOM     52  O   UNL A   1      50.419  26.374  34.628  1.00  0.00    -0.744 OA
ENDBRANCH  48  49
ENDBRANCH  27  41
BRANCH  28  53
ATOM     53  C   UNL A   1      37.310  32.331  30.006  1.00  0.00     0.058 A 
ATOM     54  C   UNL A   1      37.373  33.462  29.180  1.00  0.00     0.135 A 
ATOM     55  C   UNL A   1      36.034  31.863  30.367  1.00  0.00     0.135 A 
ATOM     56  F   UNL A   1      38.565  33.950  28.801  1.00  0.00    -0.206 F 
ATOM     57  C   UNL A   1      36.224  34.132  28.771  1.00  0.00     0.059 A 
ATOM     58  C   UNL A   1      34.871  32.491  29.939  1.00  0.00     0.059 A 
ATOM     59  F   UNL A   1      35.908  30.774  31.143  1.00  0.00    -0.206 F 
ATOM     60  C   UNL A   1      34.977  33.640  29.159  1.00  0.00     0.060 A 
BRANCH  60  61
ATOM     61  S   UNL A   1      33.494  34.523  28.629  1.00  0.00     0.124 S 
ATOM     62  O   UNL A   1      33.084  35.177  29.866  1.00  0.00    -0.237 OA
ATOM     63  O   UNL A   1      34.019  35.396  27.585  1.00  0.00    -0.237 OA
ATOM     64  O   UNL A   1      32.617  33.453  28.161  1.00  0.00    -0.744 OA
ENDBRANCH  60  61
ENDBRANCH  28  53
BRANCH  40  65
ATOM     65  C   UNL A   1      41.211  33.066  35.753  1.00  0.00     0.058 A 
ATOM     66  C   UNL A   1      40.535  32.756  36.942  1.00  0.00     0.135 A 
ATOM     67  C   UNL A   1      41.881  34.298  35.673  1.00  0.00     0.135 A 
ATOM     68  F   UNL A   1      39.878  31.591  37.064  1.00  0.00    -0.206 F 
ATOM     69  C   UNL A   1      40.492  33.653  38.000  1.00  0.00     0.059 A 
ATOM     70  C   UNL A   1      41.892  35.189  36.736  1.00  0.00     0.059 A 
ATOM     71  F   UNL A   1      42.556  34.632  34.561  1.00  0.00    -0.206 F 
ATOM     72  C   UNL A   1      41.181  34.863  37.890  1.00  0.00     0.060 A 
BRANCH  72  73
ATOM     73  S   UNL A   1      41.146  36.001  39.286  1.00  0.00     0.124 S 
ATOM     74  O   UNL A   1      42.559  36.066  39.645  1.00  0.00    -0.237 OA
ATOM     75  O   UNL A   1      40.586  37.208  38.686  1.00  0.00    -0.237 OA
ATOM     76  O   UNL A   1      40.284  35.329  40.253  1.00  0.00    -0.744 OA
ENDBRANCH  72  73
ENDBRANCH  40  65
ENDBRANCH  14  15
ENDBRANCH   7   9
ENDBRANCH   6   7
ENDBRANCH   5   6
ENDBRANCH   4   5
ENDBRANCH   3   4
ENDBRANCH   2   3
ENDBRANCH   1   2
BRANCH   1  77
ATOM     77  O   UNL A   1      42.565  18.968  27.111  1.00  0.00    -0.377 OA
BRANCH  77  78
ATOM     78  C   UNL A   1      41.176  19.175  27.353  1.00  0.00     0.188 C 
BRANCH  78  79
ATOM     79  C   UNL A   1      40.253  19.715  26.183  1.00  0.00     0.188 C 
BRANCH  79  80
ATOM     80  O   UNL A   1      39.144  20.535  26.526  1.00  0.00    -0.376 OA
BRANCH  80  81
ATOM     81  C   UNL A   1      38.663  21.430  25.511  1.00  0.00     0.202 C 
BRANCH  81  82
ATOM     82  C   UNL A   1      37.358  21.077  24.742  1.00  0.00     0.261 C 
BRANCH  82  83
ATOM     83  O   UNL A   1      36.248  21.028  25.651  1.00  0.00    -0.460 OA
BRANCH  83  84
ATOM     84  C   UNL A   1      35.337  22.003  25.742  1.00  0.00     0.349 C 
ATOM     85  O   UNL A   1      35.042  22.500  26.825  1.00  0.00    -0.248 OA
BRANCH  84  86
ATOM     86  C   UNL A   1      34.766  22.462  24.288  1.00  0.00     0.302 C 
ATOM     87  C   UNL A   1      34.846  24.315  23.574  1.00  0.00     0.183 C 
ATOM     88  O   UNL A   1      33.167  21.937  24.591  1.00  0.00    -0.475 OA
ATOM     89  N   UNL A   1      33.147  25.374  24.120  1.00  0.00    -0.304 N 
ATOM     90  C   UNL A   1      32.056  22.791  25.151  1.00  0.00     0.144 A 
ATOM     91  C   UNL A   1      31.881  24.427  25.001  1.00  0.00     0.086 A 
ATOM     92  C   UNL A   1      31.235  22.013  25.923  1.00  0.00     0.049 A 
ATOM     93  C   UNL A   1      30.880  25.007  25.729  1.00  0.00     0.030 A 
ATOM     94  C   UNL A   1      30.285  22.708  26.645  1.00  0.00     0.004 A 
ATOM     95  C   UNL A   1      30.122  24.133  26.554  1.00  0.00     0.002 A 
BRANCH  89  96
ATOM     96  C   UNL A   1      32.935  26.700  23.820  1.00  0.00     0.230 C 
ATOM     97  O   UNL A   1      32.561  27.685  24.396  1.00  0.00    -0.274 OA
BRANCH  96  98
ATOM     98  C   UNL A   1      33.321  26.414  22.466  1.00  0.00     0.083 C 
ATOM     99  C   UNL A   1      31.687  25.880  22.104  1.00  0.00     0.040 C 
ATOM    100  C   UNL A   1      33.982  28.124  22.311  1.00  0.00     0.018 C 
ATOM    101  C   UNL A   1      30.387  27.012  22.440  1.00  0.00    -0.030 C 
ATOM    102  C   UNL A   1      32.533  29.431  22.588  1.00  0.00     0.028 C 
ATOM    103  C   UNL A   1      30.619  28.457  22.669  1.00  0.00    -0.031 C 
ENDBRANCH  96  98
ENDBRANCH  89  96
ENDBRANCH  84  86
ENDBRANCH  83  84
ENDBRANCH  82  83
ENDBRANCH  81  82
ENDBRANCH  80  81
ENDBRANCH  79  80
ENDBRANCH  78  79
ENDBRANCH  77  78
ENDBRANCH   1  77
TORSDOF 25
ENDMDL
MODEL 2
REMARK VINA RESULT:      -9.2      9.660     15.561
REMARK SMILES O=C(OCCOCCOCCOCCOC(=O)[C@@H]1CN(C(=O)[C@H]2CC=CCC2)c2ccccc2O1)c1ccc(-c2c3nc(c(-c4c(F)cc(S(=O)(=O)[O-])cc4F)c4ccc([nH]4)c(-c4c(F)cc(S(=O)(=O)[O-])cc4F)c4nc(c(-c5c(F)cc(S(=O)(=O)[O-])cc5F)c5ccc2[nH]5)C=C4)C=C3)cc1
REMARK SMILES IDX 8 1 7 2 6 3 5 4 4 5 3 6 2 7 1 8 36 9 37 10 101 11 38 12
REMARK SMILES IDX 100 13 39 14 40 15 41 16 94 17 42 18 99 19 93 20 95 21 43 22
REMARK SMILES IDX 98 23 92 24 91 25 44 27 78 28 57 29 77 30 58 31 61 32 76 33
REMARK SMILES IDX 96 34 59 35 60 36 75 38 97 39 62 40 45 41 46 42 55 43 47 44
REMARK SMILES IDX 48 45 54 46 56 47 49 48 50 49 51 50 52 51 53 52 79 53 80 54
REMARK SMILES IDX 89 55 81 56 82 57 88 58 90 59 83 60 84 61 85 62 86 63 87 64
REMARK SMILES IDX 63 65 64 66 73 67 65 68 66 69 72 70 74 71 67 72 68 73 69 74
REMARK SMILES IDX 70 75 71 76 9 77 10 78 11 79 12 80 13 81 14 82 15 83 16 84
REMARK SMILES IDX 17 85 18 86 19 87 35 88 20 89 34 90 29 91 33 92 30 93 32 94
REMARK SMILES IDX 31 95 21 96 22 97 23 98 24 99 28 100 25 101 27 102 26 103
REMARK H PARENT 95 26 61 37
REMARK Flexibility Score: inf
ROOT
ATOM      1  C   UNL A   1      44.738  39.598  29.309  1.00  0.00     0.188 C 
ENDROOT
BRANCH   1   2
ATOM      2  C   UNL A   1      46.242  39.846  29.155  1.00  0.00     0.188 C 
BRANCH   2   3
ATOM      3  O   UNL A   1      46.707  39.780  27.813  1.00  0.00    -0.376 OA
BRANCH   3   4
ATOM      4  C   UNL A   1      46.945  38.619  27.031  1.00  0.00     0.202 C 
BRANCH   4   5
ATOM      5  C   UNL A   1      48.358  38.132  26.878  1.00  0.00     0.261 C 
BRANCH   5   6
ATOM      6  O   UNL A   1      48.858  37.197  27.848  1.00  0.00    -0.460 OA
BRANCH   6   7
ATOM      7  C   UNL A   1      49.285  35.919  27.770  1.00  0.00     0.338 C 
ATOM      8  O   UNL A   1      50.498  35.715  27.731  1.00  0.00    -0.246 OA
BRANCH   7   9
ATOM      9  C   UNL A   1      48.384  34.737  27.791  1.00  0.00     0.060 A 
ATOM     10  C   UNL A   1      48.108  33.934  28.889  1.00  0.00     0.016 A 
ATOM     11  C   UNL A   1      47.661  34.477  26.625  1.00  0.00     0.016 A 
ATOM     12  C   UNL A   1      47.405  32.769  28.812  1.00  0.00     0.010 A 
ATOM     13  C   UNL A   1      46.801  33.381  26.561  1.00  0.00     0.010 A 
ATOM     14  C   UNL A   1      46.738  32.498  27.644  1.00  0.00    -0.014 A 
BRANCH  14  15
ATOM     15  C   UNL A   1      46.183  31.156  27.568  1.00  0.00     0.031 A 
ATOM     16  C   UNL A   1      47.152  30.072  27.248  1.00  0.00     0.074 A 
ATOM     17  C   UNL A   1      44.937  30.935  28.018  1.00  0.00     0.049 A 
ATOM     18  N   UNL A   1      46.928  28.810  27.053  1.00  0.00    -0.248 NA
ATOM     19  C   UNL A   1      48.574  30.463  27.147  1.00  0.00     0.031 C 
ATOM     20  C   UNL A   1      44.032  31.958  28.564  1.00  0.00     0.029 A 
ATOM     21  N   UNL A   1      44.230  29.776  28.126  1.00  0.00    -0.354 N 
ATOM     22  C   UNL A   1      48.167  28.265  26.762  1.00  0.00     0.074 A 
ATOM     23  C   UNL A   1      49.141  29.326  26.782  1.00  0.00     0.031 C 
ATOM     24  C   UNL A   1      42.880  31.374  28.930  1.00  0.00     0.029 A 
ATOM     25  C   UNL A   1      42.944  29.967  28.566  1.00  0.00     0.049 A 
ATOM     26  H   UNL A   1      44.604  28.891  27.911  1.00  0.00     0.167 HD
ATOM     27  C   UNL A   1      48.445  26.973  26.504  1.00  0.00     0.037 A 
ATOM     28  C   UNL A   1      41.926  29.090  28.594  1.00  0.00     0.037 A 
ATOM     29  C   UNL A   1      47.426  25.963  26.496  1.00  0.00     0.049 A 
ATOM     30  C   UNL A   1      42.227  27.689  28.131  1.00  0.00     0.074 A 
ATOM     31  C   UNL A   1      47.535  24.632  26.160  1.00  0.00     0.029 A 
ATOM     32  N   UNL A   1      46.099  26.193  26.843  1.00  0.00    -0.354 N 
ATOM     33  N   UNL A   1      43.378  27.177  27.750  1.00  0.00    -0.248 NA
ATOM     34  C   UNL A   1      41.106  26.750  28.093  1.00  0.00     0.031 C 
ATOM     35  C   UNL A   1      46.258  24.069  26.242  1.00  0.00     0.029 A 
ATOM     36  C   UNL A   1      45.370  25.029  26.711  1.00  0.00     0.049 A 
ATOM     37  H   UNL A   1      45.735  27.058  27.141  1.00  0.00     0.167 HD
ATOM     38  C   UNL A   1      43.125  25.842  27.462  1.00  0.00     0.074 A 
ATOM     39  C   UNL A   1      41.715  25.629  27.733  1.00  0.00     0.031 C 
ATOM     40  C   UNL A   1      43.967  24.877  27.014  1.00  0.00     0.037 A 
BRANCH  27  41
ATOM     41  C   UNL A   1      49.856  26.637  26.140  1.00  0.00     0.058 A 
ATOM     42  C   UNL A   1      50.338  26.757  24.827  1.00  0.00     0.135 A 
ATOM     43  C   UNL A   1      50.731  26.147  27.121  1.00  0.00     0.135 A 
ATOM     44  F   UNL A   1      49.522  27.162  23.839  1.00  0.00    -0.206 F 
ATOM     45  C   UNL A   1      51.638  26.396  24.497  1.00  0.00     0.059 A 
ATOM     46  C   UNL A   1      52.046  25.813  26.821  1.00  0.00     0.059 A 
ATOM     47  F   UNL A   1      50.306  25.973  28.382  1.00  0.00    -0.206 F 
ATOM     48  C   UNL A   1      52.489  25.938  25.505  1.00  0.00     0.060 A 
BRANCH  48  49
ATOM     49  S   UNL A   1      54.189  25.528  25.069  1.00  0.00     0.124 S 
ATOM     50  O   UNL A   1      54.916  26.002  26.243  1.00  0.00    -0.237 OA
ATOM     51  O   UNL A   1      54.121  24.079  24.906  1.00  0.00    -0.237 OA
ATOM     52  O   UNL A   1      54.417  26.285  23.842  1.00  0.00    -0.744 OA
ENDBRANCH  48  49
ENDBRANCH  27  41
BRANCH  28  53
ATOM     53  C   UNL A   1      40.554  29.520  28.976  1.00  0.00     0.058 A 
ATOM     54  C   UNL A   1      40.207  29.757  30.313  1.00  0.00     0.135 A 
ATOM     55  C   UNL A   1      39.542  29.659  28.010  1.00  0.00     0.135 A 
ATOM     56  F   UNL A   1      41.134  29.643  31.276  1.00  0.00    -0.206 F 
ATOM     57  C   UNL A   1      38.903  30.070  30.684  1.00  0.00     0.059 A 
ATOM     58  C   UNL A   1      38.240  30.009  28.351  1.00  0.00     0.059 A 
ATOM     59  F   UNL A   1      39.815  29.461  26.710  1.00  0.00    -0.206 F 
ATOM     60  C   UNL A   1      37.925  30.189  29.695  1.00  0.00     0.060 A 
BRANCH  60  61
ATOM     61  S   UNL A   1      36.236  30.586  30.191  1.00  0.00     0.124 S 
ATOM     62  O   UNL A   1      35.480  30.173  29.014  1.00  0.00    -0.237 OA
ATOM     63  O   UNL A   1      36.068  29.761  31.383  1.00  0.00    -0.237 OA
ATOM     64  O   UNL A   1      36.287  32.025  30.433  1.00  0.00    -0.744 OA
ENDBRANCH  60  61
ENDBRANCH  28  53
BRANCH  40  65
ATOM     65  C   UNL A   1      43.392  23.500  26.858  1.00  0.00     0.058 A 
ATOM     66  C   UNL A   1      43.063  22.970  25.602  1.00  0.00     0.135 A 
ATOM     67  C   UNL A   1      43.230  22.681  27.987  1.00  0.00     0.135 A 
ATOM     68  F   UNL A   1      43.199  23.717  24.495  1.00  0.00    -0.206 F 
ATOM     69  C   UNL A   1      42.553  21.685  25.475  1.00  0.00     0.059 A 
ATOM     70  C   UNL A   1      42.768  21.377  27.878  1.00  0.00     0.059 A 
ATOM     71  F   UNL A   1      43.548  23.139  29.209  1.00  0.00    -0.206 F 
ATOM     72  C   UNL A   1      42.417  20.895  26.618  1.00  0.00     0.060 A 
BRANCH  72  73
ATOM     73  S   UNL A   1      41.789  19.217  26.431  1.00  0.00     0.124 S 
ATOM     74  O   UNL A   1      41.755  18.761  27.817  1.00  0.00    -0.237 OA
ATOM     75  O   UNL A   1      40.491  19.442  25.803  1.00  0.00    -0.237 OA
ATOM     76  O   UNL A   1      42.787  18.571  25.583  1.00  0.00    -0.744 OA
ENDBRANCH  72  73
ENDBRANCH  40  65
ENDBRANCH  14  15
ENDBRANCH   7   9
ENDBRANCH   6   7
ENDBRANCH   5   6
ENDBRANCH   4   5
ENDBRANCH   3   4
ENDBRANCH   2   3
ENDBRANCH   1   2
BRANCH   1  77
ATOM     77  O   UNL A   1      43.966  40.778  29.470  1.00  0.00    -0.377 OA
BRANCH  77  78
ATOM     78  C   UNL A   1      43.054  41.009  28.401  1.00  0.00     0.188 C 
BRANCH  78  79
ATOM     79  C   UNL A   1      42.143  39.820  27.882  1.00  0.00     0.188 C 
BRANCH  79  80
ATOM     80  O   UNL A   1      41.970  39.668  26.479  1.00  0.00    -0.376 OA
BRANCH  80  81
ATOM     81  C   UNL A   1      41.581  40.840  25.745  1.00  0.00     0.202 C 
BRANCH  81  82
ATOM     82  C   UNL A   1      42.625  41.551  24.838  1.00  0.00     0.261 C 
BRANCH  82  83
ATOM     83  O   UNL A   1      41.958  42.266  23.786  1.00  0.00    -0.460 OA
BRANCH  83  84
ATOM     84  C   UNL A   1      42.554  43.220  23.062  1.00  0.00     0.349 C 
ATOM     85  O   UNL A   1      42.299  44.407  23.241  1.00  0.00    -0.248 OA
BRANCH  84  86
ATOM     86  C   UNL A   1      43.656  42.620  22.025  1.00  0.00     0.302 C 
ATOM     87  C   UNL A   1      45.355  43.526  21.529  1.00  0.00     0.183 C 
ATOM     88  O   UNL A   1      42.565  42.495  20.714  1.00  0.00    -0.475 OA
ATOM     89  N   UNL A   1      45.066  44.748  19.877  1.00  0.00    -0.304 N 
ATOM     90  C   UNL A   1      42.338  43.550  19.659  1.00  0.00     0.144 A 
ATOM     91  C   UNL A   1      43.420  44.678  19.126  1.00  0.00     0.086 A 
ATOM     92  C   UNL A   1      41.028  43.515  19.261  1.00  0.00     0.049 A 
ATOM     93  C   UNL A   1      42.941  45.636  18.276  1.00  0.00     0.030 A 
ATOM     94  C   UNL A   1      40.643  44.552  18.435  1.00  0.00     0.004 A 
ATOM     95  C   UNL A   1      41.555  45.562  17.972  1.00  0.00     0.002 A 
BRANCH  89  96
ATOM     96  C   UNL A   1      46.043  45.547  19.329  1.00  0.00     0.230 C 
ATOM     97  O   UNL A   1      46.365  45.920  18.234  1.00  0.00    -0.274 OA
BRANCH  96  98
ATOM     98  C   UNL A   1      46.573  45.736  20.651  1.00  0.00     0.083 C 
ATOM     99  C   UNL A   1      48.193  45.891  19.988  1.00  0.00     0.040 C 
ATOM    100  C   UNL A   1      45.361  47.092  20.926  1.00  0.00     0.018 C 
ATOM    101  C   UNL A   1      48.432  47.112  18.748  1.00  0.00    -0.030 C 
ATOM    102  C   UNL A   1      45.654  48.532  19.613  1.00  0.00     0.028 C 
ATOM    103  C   UNL A   1      47.465  48.207  18.501  1.00  0.00    -0.031 C 
ENDBRANCH  96  98
ENDBRANCH  89  96
ENDBRANCH  84  86
ENDBRANCH  83  84
ENDBRANCH  82  83
ENDBRANCH  81  82
ENDBRANCH  80  81
ENDBRANCH  79  80
ENDBRANCH  78  79
ENDBRANCH  77  78
ENDBRANCH   1  77
TORSDOF 25
ENDMDL
MODEL 3
REMARK VINA RESULT:      -9.2      1.724      2.599
REMARK SMILES O=C(OCCOCCOCCOCCOC(=O)[C@@H]1CN(C(=O)[C@H]2CC=CCC2)c2ccccc2O1)c1ccc(-c2c3nc(c(-c4c(F)cc(S(=O)(=O)[O-])cc4F)c4ccc([nH]4)c(-c4c(F)cc(S(=O)(=O)[O-])cc4F)c4nc(c(-c5c(F)cc(S(=O)(=O)[O-])cc5F)c5ccc2[nH]5)C=C4)C=C3)cc1
REMARK SMILES IDX 8 1 7 2 6 3 5 4 4 5 3 6 2 7 1 8 36 9 37 10 101 11 38 12
REMARK SMILES IDX 100 13 39 14 40 15 41 16 94 17 42 18 99 19 93 20 95 21 43 22
REMARK SMILES IDX 98 23 92 24 91 25 44 27 78 28 57 29 77 30 58 31 61 32 76 33
REMARK SMILES IDX 96 34 59 35 60 36 75 38 97 39 62 40 45 41 46 42 55 43 47 44
REMARK SMILES IDX 48 45 54 46 56 47 49 48 50 49 51 50 52 51 53 52 79 53 80 54
REMARK SMILES IDX 89 55 81 56 82 57 88 58 90 59 83 60 84 61 85 62 86 63 87 64
REMARK SMILES IDX 63 65 64 66 73 67 65 68 66 69 72 70 74 71 67 72 68 73 69 74
REMARK SMILES IDX 70 75 71 76 9 77 10 78 11 79 12 80 13 81 14 82 15 83 16 84
REMARK SMILES IDX 17 85 18 86 19 87 35 88 20 89 34 90 29 91 33 92 30 93 32 94
REMARK SMILES IDX 31 95 21 96 22 97 23 98 24 99 28 100 25 101 27 102 26 103
REMARK H PARENT 95 26 61 37
REMARK Flexibility Score: inf
ROOT
ATOM      1  C   UNL A   1      42.297  18.932  26.048  1.00  0.00     0.188 C 
ENDROOT
BRANCH   1   2
ATOM      2  C   UNL A   1      43.725  18.772  25.519  1.00  0.00     0.188 C 
BRANCH   2   3
ATOM      3  O   UNL A   1      44.229  19.919  24.848  1.00  0.00    -0.376 OA
BRANCH   3   4
ATOM      4  C   UNL A   1      45.493  20.542  25.020  1.00  0.00     0.202 C 
BRANCH   4   5
ATOM      5  C   UNL A   1      45.584  22.034  24.874  1.00  0.00     0.261 C 
BRANCH   5   6
ATOM      6  O   UNL A   1      44.412  22.743  24.439  1.00  0.00    -0.460 OA
BRANCH   6   7
ATOM      7  C   UNL A   1      43.202  22.964  24.997  1.00  0.00     0.338 C 
ATOM      8  O   UNL A   1      42.282  22.202  24.704  1.00  0.00    -0.246 OA
BRANCH   7   9
ATOM      9  C   UNL A   1      42.927  24.034  25.991  1.00  0.00     0.060 A 
ATOM     10  C   UNL A   1      43.339  25.357  25.909  1.00  0.00     0.016 A 
ATOM     11  C   UNL A   1      42.080  23.705  27.051  1.00  0.00     0.016 A 
ATOM     12  C   UNL A   1      43.200  26.254  26.926  1.00  0.00     0.010 A 
ATOM     13  C   UNL A   1      41.780  24.650  28.031  1.00  0.00     0.010 A 
ATOM     14  C   UNL A   1      42.405  25.901  27.988  1.00  0.00    -0.014 A 
BRANCH  14  15
ATOM     15  C   UNL A   1      42.467  26.819  29.113  1.00  0.00     0.031 A 
ATOM     16  C   UNL A   1      43.688  26.721  29.961  1.00  0.00     0.074 A 
ATOM     17  C   UNL A   1      41.588  27.831  29.184  1.00  0.00     0.049 A 
ATOM     18  N   UNL A   1      43.974  27.359  31.053  1.00  0.00    -0.248 NA
ATOM     19  C   UNL A   1      44.737  25.784  29.507  1.00  0.00     0.031 C 
ATOM     20  C   UNL A   1      40.506  28.092  28.223  1.00  0.00     0.029 A 
ATOM     21  N   UNL A   1      41.487  28.852  30.080  1.00  0.00    -0.354 N 
ATOM     22  C   UNL A   1      45.210  26.870  31.441  1.00  0.00     0.074 A 
ATOM     23  C   UNL A   1      45.617  25.869  30.489  1.00  0.00     0.031 C 
ATOM     24  C   UNL A   1      39.840  29.195  28.599  1.00  0.00     0.029 A 
ATOM     25  C   UNL A   1      40.397  29.658  29.862  1.00  0.00     0.049 A 
ATOM     26  H   UNL A   1      42.131  28.998  30.810  1.00  0.00     0.167 HD
ATOM     27  C   UNL A   1      45.931  27.247  32.514  1.00  0.00     0.037 A 
ATOM     28  C   UNL A   1      39.886  30.614  30.654  1.00  0.00     0.037 A 
ATOM     29  C   UNL A   1      45.467  28.250  33.428  1.00  0.00     0.049 A 
ATOM     30  C   UNL A   1      40.622  30.893  31.938  1.00  0.00     0.074 A 
ATOM     31  C   UNL A   1      46.038  28.671  34.609  1.00  0.00     0.029 A 
ATOM     32  N   UNL A   1      44.301  28.988  33.248  1.00  0.00    -0.354 N 
ATOM     33  N   UNL A   1      41.744  30.364  32.376  1.00  0.00    -0.248 NA
ATOM     34  C   UNL A   1      40.030  31.885  32.837  1.00  0.00     0.031 C 
ATOM     35  C   UNL A   1      45.182  29.619  35.178  1.00  0.00     0.029 A 
ATOM     36  C   UNL A   1      44.123  29.850  34.310  1.00  0.00     0.049 A 
ATOM     37  H   UNL A   1      43.695  28.906  32.477  1.00  0.00     0.167 HD
ATOM     38  C   UNL A   1      42.013  30.988  33.587  1.00  0.00     0.074 A 
ATOM     39  C   UNL A   1      40.943  31.945  33.796  1.00  0.00     0.031 C 
ATOM     40  C   UNL A   1      43.041  30.795  34.453  1.00  0.00     0.037 A 
BRANCH  27  41
ATOM     41  C   UNL A   1      47.211  26.516  32.768  1.00  0.00     0.058 A 
ATOM     42  C   UNL A   1      47.254  25.316  33.497  1.00  0.00     0.135 A 
ATOM     43  C   UNL A   1      48.423  27.050  32.306  1.00  0.00     0.135 A 
ATOM     44  F   UNL A   1      46.129  24.796  34.015  1.00  0.00    -0.206 F 
ATOM     45  C   UNL A   1      48.456  24.674  33.764  1.00  0.00     0.059 A 
ATOM     46  C   UNL A   1      49.634  26.407  32.531  1.00  0.00     0.059 A 
ATOM     47  F   UNL A   1      48.440  28.216  31.642  1.00  0.00    -0.206 F 
ATOM     48  C   UNL A   1      49.640  25.222  33.264  1.00  0.00     0.060 A 
BRANCH  48  49
ATOM     49  S   UNL A   1      51.184  24.344  33.573  1.00  0.00     0.124 S 
ATOM     50  O   UNL A   1      51.086  23.236  32.629  1.00  0.00    -0.237 OA
ATOM     51  O   UNL A   1      52.181  25.362  33.256  1.00  0.00    -0.237 OA
ATOM     52  O   UNL A   1      51.092  23.978  34.983  1.00  0.00    -0.744 OA
ENDBRANCH  48  49
ENDBRANCH  27  41
BRANCH  28  53
ATOM     53  C   UNL A   1      38.605  31.291  30.312  1.00  0.00     0.058 A 
ATOM     54  C   UNL A   1      37.370  30.659  30.507  1.00  0.00     0.135 A 
ATOM     55  C   UNL A   1      38.594  32.574  29.738  1.00  0.00     0.135 A 
ATOM     56  F   UNL A   1      37.321  29.435  31.055  1.00  0.00    -0.206 F 
ATOM     57  C   UNL A   1      36.176  31.250  30.104  1.00  0.00     0.059 A 
ATOM     58  C   UNL A   1      37.412  33.202  29.363  1.00  0.00     0.059 A 
ATOM     59  F   UNL A   1      39.745  33.238  29.541  1.00  0.00    -0.206 F 
ATOM     60  C   UNL A   1      36.208  32.521  29.528  1.00  0.00     0.060 A 
BRANCH  60  61
ATOM     61  S   UNL A   1      34.655  33.273  29.001  1.00  0.00     0.124 S 
ATOM     62  O   UNL A   1      35.129  34.409  28.219  1.00  0.00    -0.237 OA
ATOM     63  O   UNL A   1      34.034  32.189  28.247  1.00  0.00    -0.237 OA
ATOM     64  O   UNL A   1      33.999  33.607  30.263  1.00  0.00    -0.744 OA
ENDBRANCH  60  61
ENDBRANCH  28  53
BRANCH  40  65
ATOM     65  C   UNL A   1      43.081  31.684  35.661  1.00  0.00     0.058 A 
ATOM     66  C   UNL A   1      42.531  31.292  36.890  1.00  0.00     0.135 A 
ATOM     67  C   UNL A   1      43.737  32.923  35.593  1.00  0.00     0.135 A 
ATOM     68  F   UNL A   1      41.892  30.117  37.003  1.00  0.00    -0.206 F 
ATOM     69  C   UNL A   1      42.598  32.118  38.004  1.00  0.00     0.059 A 
ATOM     70  C   UNL A   1      43.858  33.743  36.705  1.00  0.00     0.059 A 
ATOM     71  F   UNL A   1      44.294  33.334  34.441  1.00  0.00    -0.206 F 
ATOM     72  C   UNL A   1      43.269  33.338  37.902  1.00  0.00     0.060 A 
BRANCH  72  73
ATOM     73  S   UNL A   1      43.379  34.382  39.366  1.00  0.00     0.124 S 
ATOM     74  O   UNL A   1      42.310  35.345  39.119  1.00  0.00    -0.237 OA
ATOM     75  O   UNL A   1      43.139  33.427  40.443  1.00  0.00    -0.237 OA
ATOM     76  O   UNL A   1      44.734  34.920  39.302  1.00  0.00    -0.744 OA
ENDBRANCH  72  73
ENDBRANCH  40  65
ENDBRANCH  14  15
ENDBRANCH   7   9
ENDBRANCH   6   7
ENDBRANCH   5   6
ENDBRANCH   4   5
ENDBRANCH   3   4
ENDBRANCH   2   3
ENDBRANCH   1   2
BRANCH   1  77
ATOM     77  O   UNL A   1      42.196  19.702  27.236  1.00  0.00    -0.377 OA
BRANCH  77  78
ATOM     78  C   UNL A   1      40.957  20.391  27.362  1.00  0.00     0.188 C 
BRANCH  78  79
ATOM     79  C   UNL A   1      39.951  20.418  26.137  1.00  0.00     0.188 C 
BRANCH  79  80
ATOM     80  O   UNL A   1      39.178  21.592  25.927  1.00  0.00    -0.376 OA
BRANCH  80  81
ATOM     81  C   UNL A   1      37.991  21.451  25.132  1.00  0.00     0.202 C 
BRANCH  81  82
ATOM     82  C   UNL A   1      36.602  21.444  25.832  1.00  0.00     0.261 C 
BRANCH  82  83
ATOM     83  O   UNL A   1      36.379  22.698  26.496  1.00  0.00    -0.460 OA
BRANCH  83  84
ATOM     84  C   UNL A   1      35.266  23.422  26.331  1.00  0.00     0.349 C 
ATOM     85  O   UNL A   1      34.324  23.326  27.111  1.00  0.00    -0.248 OA
BRANCH  84  86
ATOM     86  C   UNL A   1      35.368  24.443  25.067  1.00  0.00     0.302 C 
ATOM     87  C   UNL A   1      34.316  26.120  24.879  1.00  0.00     0.183 C 
ATOM     88  O   UNL A   1      34.950  23.266  23.898  1.00  0.00    -0.475 OA
ATOM     89  N   UNL A   1      32.522  25.743  23.908  1.00  0.00    -0.304 N 
ATOM     90  C   UNL A   1      33.555  22.988  23.395  1.00  0.00     0.144 A 
ATOM     91  C   UNL A   1      32.294  24.051  23.308  1.00  0.00     0.086 A 
ATOM     92  C   UNL A   1      33.437  21.654  23.108  1.00  0.00     0.049 A 
ATOM     93  C   UNL A   1      31.076  23.533  22.967  1.00  0.00     0.030 A 
ATOM     94  C   UNL A   1      32.156  21.233  22.814  1.00  0.00     0.004 A 
ATOM     95  C   UNL A   1      31.034  22.129  22.753  1.00  0.00     0.002 A 
BRANCH  89  96
ATOM     96  C   UNL A   1      31.555  26.695  23.678  1.00  0.00     0.230 C 
ATOM     97  O   UNL A   1      31.170  27.353  22.750  1.00  0.00    -0.274 OA
BRANCH  96  98
ATOM     98  C   UNL A   1      31.200  26.613  25.067  1.00  0.00     0.083 C 
ATOM     99  C   UNL A   1      31.752  28.263  25.314  1.00  0.00     0.040 C 
ATOM    100  C   UNL A   1      29.508  26.078  24.587  1.00  0.00     0.018 C 
ATOM    101  C   UNL A   1      31.047  29.500  24.284  1.00  0.00    -0.030 C 
ATOM    102  C   UNL A   1      28.641  27.479  23.506  1.00  0.00     0.028 C 
ATOM    103  C   UNL A   1      29.809  29.283  23.500  1.00  0.00    -0.031 C 
ENDBRANCH  96  98
ENDBRANCH  89  96
ENDBRANCH  84  86
ENDBRANCH  83  84
ENDBRANCH  82  83
ENDBRANCH  81  82
ENDBRANCH  80  81
ENDBRANCH  79  80
ENDBRANCH  78  79
ENDBRANCH  77  78
ENDBRANCH   1  77
TORSDOF 25
ENDMDL
