MODEL 1
REMARK VINA RESULT:      -9.7      0.000      0.000
REMARK SMILES C[C@H](Cc1cccs1)NC(=O)N[C@](C)(C(=O)OCCOCCOCCOCCOC(=O)c1ccc(-c2c3nc(c(-c4c(F)cc(S(=O)(=O)[O-])cc4F)c4ccc([nH]4)c(-c4c(F)cc(S(=O)(=O)[O-])cc4F)c4nc(c(-c5c(F)cc(S(=O)(=O)[O-])cc5F)c5ccc2[nH]5)C=C4)C=C3)cc1)C(F)(F)F
REMARK SMILES IDX 22 1 21 2 20 3 19 4 18 5 17 6 15 7 16 8 13 9 14 10 12 11
REMARK SMILES IDX 9 12 10 13 11 15 2 17 1 18 3 19 4 20 5 21 8 22 6 23 7 24
REMARK SMILES IDX 98 25 99 26 100 27 101 28 23 29 24 30 25 31 26 32 27 33
REMARK SMILES IDX 28 34 29 35 30 36 31 37 32 38 33 39 97 40 34 41 96 42 35 43
REMARK SMILES IDX 36 44 37 45 90 46 38 47 95 48 89 49 91 50 39 51 94 52 88 53
REMARK SMILES IDX 87 54 40 56 74 57 53 58 73 59 54 60 57 61 72 62 92 63 55 64
REMARK SMILES IDX 56 65 71 67 93 68 58 69 41 70 42 71 51 72 43 73 44 74 50 75
REMARK SMILES IDX 52 76 45 77 46 78 47 79 48 80 49 81 75 82 76 83 85 84 77 85
REMARK SMILES IDX 78 86 84 87 86 88 79 89 80 90 81 91 82 92 83 93 59 94 60 95
REMARK SMILES IDX 69 96 61 97 62 98 68 99 70 100 63 101 64 102 65 103 66 104
REMARK SMILES IDX 67 105
REMARK H PARENT 9 14 12 16 91 55 57 66
REMARK Flexibility Score: inf
ROOT
ATOM      1  C   UNL A   1      42.645  19.959  26.161  1.00  0.00     0.188 C 
ENDROOT
BRANCH   1   2
ATOM      2  C   UNL A   1      41.113  20.020  26.269  1.00  0.00     0.188 C 
BRANCH   2   3
ATOM      3  O   UNL A   1      40.588  21.311  26.031  1.00  0.00    -0.376 OA
BRANCH   3   4
ATOM      4  C   UNL A   1      39.216  21.558  26.295  1.00  0.00     0.202 C 
BRANCH   4   5
ATOM      5  C   UNL A   1      38.484  22.797  25.731  1.00  0.00     0.261 C 
BRANCH   5   6
ATOM      6  O   UNL A   1      37.045  22.825  25.792  1.00  0.00    -0.461 OA
BRANCH   6   7
ATOM      7  C   UNL A   1      36.401  22.697  24.611  1.00  0.00     0.341 C 
ATOM      8  O   UNL A   1      37.029  22.400  23.602  1.00  0.00    -0.249 OA
BRANCH   7   9
ATOM      9  C   UNL A   1      34.877  22.996  24.681  1.00  0.00     0.232 C 
ATOM     10  C   UNL A   1      34.523  23.712  26.014  1.00  0.00     0.058 C 
BRANCH   9  11
ATOM     11  N   UNL A   1      34.653  24.005  23.600  1.00  0.00    -0.315 N 
ATOM     12  N   UNL A   1      32.430  24.840  23.737  1.00  0.00    -0.335 N 
ATOM     13  C   UNL A   1      33.637  24.754  23.183  1.00  0.00     0.316 C 
ATOM     14  H   UNL A   1      31.762  25.136  23.077  1.00  0.00     0.165 HD
ATOM     15  O   UNL A   1      33.822  25.392  22.143  1.00  0.00    -0.249 OA
ATOM     16  H   UNL A   1      35.464  24.154  23.062  1.00  0.00     0.166 HD
BRANCH  12  17
ATOM     17  C   UNL A   1      31.809  24.619  25.048  1.00  0.00     0.086 C 
ATOM     18  C   UNL A   1      30.703  23.563  24.958  1.00  0.00     0.031 C 
BRANCH  17  19
ATOM     19  C   UNL A   1      31.324  25.930  25.697  1.00  0.00     0.071 C 
BRANCH  19  20
ATOM     20  C   UNL A   1      30.943  27.001  24.714  1.00  0.00     0.007 A 
ATOM     21  C   UNL A   1      31.628  28.155  24.385  1.00  0.00     0.015 A 
ATOM     22  S   UNL A   1      29.453  26.900  23.871  1.00  0.00    -0.149 S 
ATOM     23  C   UNL A   1      30.966  28.916  23.385  1.00  0.00     0.012 A 
ATOM     24  C   UNL A   1      29.758  28.361  23.036  1.00  0.00     0.065 A 
ENDBRANCH  19  20
ENDBRANCH  17  19
ENDBRANCH  12  17
ENDBRANCH   9  11
BRANCH   9  25
ATOM     25  C   UNL A   1      33.939  21.765  24.586  1.00  0.00     0.422 C 
ATOM     26  F   UNL A   1      34.611  20.583  24.557  1.00  0.00    -0.168 F 
ATOM     27  F   UNL A   1      33.139  21.674  25.682  1.00  0.00    -0.168 F 
ATOM     28  F   UNL A   1      33.132  21.736  23.508  1.00  0.00    -0.168 F 
ENDBRANCH   9  25
ENDBRANCH   7   9
ENDBRANCH   6   7
ENDBRANCH   5   6
ENDBRANCH   4   5
ENDBRANCH   3   4
ENDBRANCH   2   3
ENDBRANCH   1   2
BRANCH   1  29
ATOM     29  O   UNL A   1      43.195  19.444  24.966  1.00  0.00    -0.377 OA
BRANCH  29  30
ATOM     30  C   UNL A   1      44.522  18.933  24.972  1.00  0.00     0.188 C 
BRANCH  30  31
ATOM     31  C   UNL A   1      45.715  19.771  24.460  1.00  0.00     0.188 C 
BRANCH  31  32
ATOM     32  O   UNL A   1      46.224  20.726  25.376  1.00  0.00    -0.376 OA
BRANCH  32  33
ATOM     33  C   UNL A   1      45.858  22.084  25.192  1.00  0.00     0.202 C 
BRANCH  33  34
ATOM     34  C   UNL A   1      45.081  22.766  26.329  1.00  0.00     0.261 C 
BRANCH  34  35
ATOM     35  O   UNL A   1      44.609  24.097  26.072  1.00  0.00    -0.460 OA
BRANCH  35  36
ATOM     36  C   UNL A   1      43.298  24.254  25.792  1.00  0.00     0.338 C 
ATOM     37  O   UNL A   1      42.629  23.588  25.016  1.00  0.00    -0.246 OA
BRANCH  36  38
ATOM     38  C   UNL A   1      42.746  25.239  26.745  1.00  0.00     0.060 A 
ATOM     39  C   UNL A   1      43.287  26.532  26.772  1.00  0.00     0.016 A 
ATOM     40  C   UNL A   1      41.674  24.903  27.576  1.00  0.00     0.016 A 
ATOM     41  C   UNL A   1      42.782  27.483  27.658  1.00  0.00     0.010 A 
ATOM     42  C   UNL A   1      41.190  25.846  28.484  1.00  0.00     0.010 A 
ATOM     43  C   UNL A   1      41.767  27.128  28.556  1.00  0.00    -0.014 A 
BRANCH  43  44
ATOM     44  C   UNL A   1      41.486  28.004  29.717  1.00  0.00     0.031 A 
ATOM     45  C   UNL A   1      42.331  27.824  30.950  1.00  0.00     0.074 A 
ATOM     46  C   UNL A   1      40.532  28.951  29.679  1.00  0.00     0.049 A 
ATOM     47  N   UNL A   1      42.256  28.428  32.106  1.00  0.00    -0.248 NA
ATOM     48  C   UNL A   1      43.407  26.819  30.864  1.00  0.00     0.031 C 
ATOM     49  C   UNL A   1      39.680  29.249  28.530  1.00  0.00     0.029 A 
ATOM     50  N   UNL A   1      40.114  29.831  30.646  1.00  0.00    -0.354 N 
ATOM     51  C   UNL A   1      43.262  27.871  32.887  1.00  0.00     0.074 A 
ATOM     52  C   UNL A   1      43.916  26.863  32.085  1.00  0.00     0.031 C 
ATOM     53  C   UNL A   1      38.825  30.233  28.866  1.00  0.00     0.029 A 
ATOM     54  C   UNL A   1      39.048  30.610  30.262  1.00  0.00     0.049 A 
ATOM     55  H   UNL A   1      40.538  29.898  31.533  1.00  0.00     0.167 HD
ATOM     56  C   UNL A   1      43.612  28.177  34.158  1.00  0.00     0.037 A 
ATOM     57  C   UNL A   1      38.321  31.501  30.967  1.00  0.00     0.037 A 
ATOM     58  C   UNL A   1      42.956  29.182  34.950  1.00  0.00     0.049 A 
ATOM     59  C   UNL A   1      38.690  31.782  32.404  1.00  0.00     0.074 A 
ATOM     60  C   UNL A   1      43.250  29.586  36.240  1.00  0.00     0.029 A 
ATOM     61  N   UNL A   1      41.868  29.935  34.534  1.00  0.00    -0.354 N 
ATOM     62  N   UNL A   1      39.661  31.270  33.124  1.00  0.00    -0.248 NA
ATOM     63  C   UNL A   1      37.866  32.763  33.124  1.00  0.00     0.031 C 
ATOM     64  C   UNL A   1      42.302  30.537  36.626  1.00  0.00     0.029 A 
ATOM     65  C   UNL A   1      41.459  30.778  35.552  1.00  0.00     0.049 A 
ATOM     66  H   UNL A   1      41.449  29.878  33.644  1.00  0.00     0.167 HD
ATOM     67  C   UNL A   1      39.585  31.891  34.368  1.00  0.00     0.074 A 
ATOM     68  C   UNL A   1      38.478  32.823  34.299  1.00  0.00     0.031 C 
ATOM     69  C   UNL A   1      40.361  31.709  35.466  1.00  0.00     0.037 A 
BRANCH  56  70
ATOM     70  C   UNL A   1      44.732  27.391  34.783  1.00  0.00     0.058 A 
ATOM     71  C   UNL A   1      46.051  27.870  34.813  1.00  0.00     0.135 A 
ATOM     72  C   UNL A   1      44.470  26.154  35.393  1.00  0.00     0.135 A 
ATOM     73  F   UNL A   1      46.362  29.035  34.223  1.00  0.00    -0.206 F 
ATOM     74  C   UNL A   1      47.075  27.140  35.408  1.00  0.00     0.059 A 
ATOM     75  C   UNL A   1      45.473  25.421  36.021  1.00  0.00     0.059 A 
ATOM     76  F   UNL A   1      43.228  25.644  35.385  1.00  0.00    -0.206 F 
ATOM     77  C   UNL A   1      46.775  25.918  36.014  1.00  0.00     0.060 A 
BRANCH  77  78
ATOM     78  S   UNL A   1      48.111  24.994  36.799  1.00  0.00     0.124 S 
ATOM     79  O   UNL A   1      48.775  26.039  37.572  1.00  0.00    -0.237 OA
ATOM     80  O   UNL A   1      47.384  23.996  37.576  1.00  0.00    -0.237 OA
ATOM     81  O   UNL A   1      48.873  24.471  35.668  1.00  0.00    -0.744 OA
ENDBRANCH  77  78
ENDBRANCH  56  70
BRANCH  57  82
ATOM     82  C   UNL A   1      37.157  32.182  30.336  1.00  0.00     0.058 A 
ATOM     83  C   UNL A   1      35.842  31.752  30.573  1.00  0.00     0.135 A 
ATOM     84  C   UNL A   1      37.339  33.271  29.469  1.00  0.00     0.135 A 
ATOM     85  F   UNL A   1      35.614  30.706  31.382  1.00  0.00    -0.206 F 
ATOM     86  C   UNL A   1      34.753  32.365  29.961  1.00  0.00     0.059 A 
ATOM     87  C   UNL A   1      36.264  33.919  28.869  1.00  0.00     0.059 A 
ATOM     88  F   UNL A   1      38.576  33.727  29.213  1.00  0.00    -0.206 F 
ATOM     89  C   UNL A   1      34.974  33.452  29.114  1.00  0.00     0.060 A 
BRANCH  89  90
ATOM     90  S   UNL A   1      33.549  34.270  28.363  1.00  0.00     0.124 S 
ATOM     91  O   UNL A   1      34.189  35.342  27.609  1.00  0.00    -0.237 OA
ATOM     92  O   UNL A   1      32.964  33.193  27.572  1.00  0.00    -0.237 OA
ATOM     93  O   UNL A   1      32.759  34.693  29.516  1.00  0.00    -0.744 OA
ENDBRANCH  89  90
ENDBRANCH  57  82
BRANCH  69  94
ATOM     94  C   UNL A   1      40.077  32.564  36.673  1.00  0.00     0.058 A 
ATOM     95  C   UNL A   1      38.998  32.304  37.532  1.00  0.00     0.135 A 
ATOM     96  C   UNL A   1      40.938  33.623  37.008  1.00  0.00     0.135 A 
ATOM     97  F   UNL A   1      38.142  31.306  37.260  1.00  0.00    -0.206 F 
ATOM     98  C   UNL A   1      38.765  33.083  38.662  1.00  0.00     0.059 A 
ATOM     99  C   UNL A   1      40.743  34.393  38.150  1.00  0.00     0.059 A 
ATOM    100  F   UNL A   1      41.995  33.907  36.229  1.00  0.00    -0.206 F 
ATOM    101  C   UNL A   1      39.644  34.123  38.964  1.00  0.00     0.060 A 
BRANCH 101 102
ATOM    102  S   UNL A   1      39.347  35.106  40.449  1.00  0.00     0.124 S 
ATOM    103  O   UNL A   1      38.903  36.373  39.879  1.00  0.00    -0.237 OA
ATOM    104  O   UNL A   1      38.323  34.326  41.138  1.00  0.00    -0.237 OA
ATOM    105  O   UNL A   1      40.652  35.136  41.106  1.00  0.00    -0.744 OA
ENDBRANCH 101 102
ENDBRANCH  69  94
ENDBRANCH  43  44
ENDBRANCH  36  38
ENDBRANCH  35  36
ENDBRANCH  34  35
ENDBRANCH  33  34
ENDBRANCH  32  33
ENDBRANCH  31  32
ENDBRANCH  30  31
ENDBRANCH  29  30
ENDBRANCH   1  29
TORSDOF 28
ENDMDL
MODEL 2
REMARK VINA RESULT:      -9.3      1.620      2.484
REMARK SMILES C[C@H](Cc1cccs1)NC(=O)N[C@](C)(C(=O)OCCOCCOCCOCCOC(=O)c1ccc(-c2c3nc(c(-c4c(F)cc(S(=O)(=O)[O-])cc4F)c4ccc([nH]4)c(-c4c(F)cc(S(=O)(=O)[O-])cc4F)c4nc(c(-c5c(F)cc(S(=O)(=O)[O-])cc5F)c5ccc2[nH]5)C=C4)C=C3)cc1)C(F)(F)F
REMARK SMILES IDX 22 1 21 2 20 3 19 4 18 5 17 6 15 7 16 8 13 9 14 10 12 11
REMARK SMILES IDX 9 12 10 13 11 15 2 17 1 18 3 19 4 20 5 21 8 22 6 23 7 24
REMARK SMILES IDX 98 25 99 26 100 27 101 28 23 29 24 30 25 31 26 32 27 33
REMARK SMILES IDX 28 34 29 35 30 36 31 37 32 38 33 39 97 40 34 41 96 42 35 43
REMARK SMILES IDX 36 44 37 45 90 46 38 47 95 48 89 49 91 50 39 51 94 52 88 53
REMARK SMILES IDX 87 54 40 56 74 57 53 58 73 59 54 60 57 61 72 62 92 63 55 64
REMARK SMILES IDX 56 65 71 67 93 68 58 69 41 70 42 71 51 72 43 73 44 74 50 75
REMARK SMILES IDX 52 76 45 77 46 78 47 79 48 80 49 81 75 82 76 83 85 84 77 85
REMARK SMILES IDX 78 86 84 87 86 88 79 89 80 90 81 91 82 92 83 93 59 94 60 95
REMARK SMILES IDX 69 96 61 97 62 98 68 99 70 100 63 101 64 102 65 103 66 104
REMARK SMILES IDX 67 105
REMARK H PARENT 9 14 12 16 91 55 57 66
REMARK Flexibility Score: inf
ROOT
ATOM      1  C   UNL A   1      41.149  20.239  26.840  1.00  0.00     0.188 C 
ENDROOT
BRANCH   1   2
ATOM      2  C   UNL A   1      40.425  21.513  27.303  1.00  0.00     0.188 C 
BRANCH   2   3
ATOM      3  O   UNL A   1      39.327  21.861  26.482  1.00  0.00    -0.376 OA
BRANCH   3   4
ATOM      4  C   UNL A   1      39.078  23.230  26.204  1.00  0.00     0.202 C 
BRANCH   4   5
ATOM      5  C   UNL A   1      37.645  23.805  26.143  1.00  0.00     0.261 C 
BRANCH   5   6
ATOM      6  O   UNL A   1      36.541  22.882  26.099  1.00  0.00    -0.461 OA
BRANCH   6   7
ATOM      7  C   UNL A   1      35.955  22.717  24.893  1.00  0.00     0.341 C 
ATOM      8  O   UNL A   1      36.532  22.086  24.015  1.00  0.00    -0.249 OA
BRANCH   7   9
ATOM      9  C   UNL A   1      34.575  23.417  24.753  1.00  0.00     0.232 C 
ATOM     10  C   UNL A   1      34.692  24.927  25.102  1.00  0.00     0.058 C 
BRANCH   9  11
ATOM     11  N   UNL A   1      34.280  23.356  23.288  1.00  0.00    -0.315 N 
ATOM     12  N   UNL A   1      32.423  24.755  22.788  1.00  0.00    -0.335 N 
ATOM     13  C   UNL A   1      33.376  23.883  22.468  1.00  0.00     0.316 C 
ATOM     14  H   UNL A   1      31.678  24.710  22.147  1.00  0.00     0.165 HD
ATOM     15  O   UNL A   1      33.395  23.476  21.303  1.00  0.00    -0.249 OA
ATOM     16  H   UNL A   1      34.919  22.779  22.809  1.00  0.00     0.166 HD
BRANCH  12  17
ATOM     17  C   UNL A   1      32.165  25.764  23.822  1.00  0.00     0.086 C 
ATOM     18  C   UNL A   1      30.857  25.465  24.561  1.00  0.00     0.031 C 
BRANCH  17  19
ATOM     19  C   UNL A   1      32.216  27.201  23.267  1.00  0.00     0.071 C 
BRANCH  19  20
ATOM     20  C   UNL A   1      32.242  28.270  24.323  1.00  0.00     0.007 A 
ATOM     21  C   UNL A   1      31.267  29.198  24.636  1.00  0.00     0.015 A 
ATOM     22  S   UNL A   1      33.641  28.486  25.290  1.00  0.00    -0.149 S 
ATOM     23  C   UNL A   1      31.641  30.035  25.721  1.00  0.00     0.012 A 
ATOM     24  C   UNL A   1      32.919  29.772  26.154  1.00  0.00     0.065 A 
ENDBRANCH  19  20
ENDBRANCH  17  19
ENDBRANCH  12  17
ENDBRANCH   9  11
BRANCH   9  25
ATOM     25  C   UNL A   1      33.435  22.854  25.640  1.00  0.00     0.422 C 
ATOM     26  F   UNL A   1      33.829  21.808  26.414  1.00  0.00    -0.168 F 
ATOM     27  F   UNL A   1      32.999  23.787  26.527  1.00  0.00    -0.168 F 
ATOM     28  F   UNL A   1      32.351  22.409  24.975  1.00  0.00    -0.168 F 
ENDBRANCH   9  25
ENDBRANCH   7   9
ENDBRANCH   6   7
ENDBRANCH   5   6
ENDBRANCH   4   5
ENDBRANCH   3   4
ENDBRANCH   2   3
ENDBRANCH   1   2
BRANCH   1  29
ATOM     29  O   UNL A   1      41.887  20.308  25.638  1.00  0.00    -0.377 OA
BRANCH  29  30
ATOM     30  C   UNL A   1      43.281  20.024  25.657  1.00  0.00     0.188 C 
BRANCH  30  31
ATOM     31  C   UNL A   1      44.336  21.140  25.493  1.00  0.00     0.188 C 
BRANCH  31  32
ATOM     32  O   UNL A   1      44.150  21.994  24.376  1.00  0.00    -0.376 OA
BRANCH  32  33
ATOM     33  C   UNL A   1      43.508  23.240  24.592  1.00  0.00     0.202 C 
BRANCH  33  34
ATOM     34  C   UNL A   1      43.451  23.764  26.037  1.00  0.00     0.261 C 
BRANCH  34  35
ATOM     35  O   UNL A   1      42.195  24.304  26.471  1.00  0.00    -0.460 OA
BRANCH  35  36
ATOM     36  C   UNL A   1      41.892  25.565  26.096  1.00  0.00     0.338 C 
ATOM     37  O   UNL A   1      41.502  25.930  24.998  1.00  0.00    -0.246 OA
BRANCH  36  38
ATOM     38  C   UNL A   1      41.906  26.413  27.307  1.00  0.00     0.060 A 
ATOM     39  C   UNL A   1      40.993  26.140  28.335  1.00  0.00     0.016 A 
ATOM     40  C   UNL A   1      42.842  27.441  27.445  1.00  0.00     0.016 A 
ATOM     41  C   UNL A   1      40.989  26.920  29.491  1.00  0.00     0.010 A 
ATOM     42  C   UNL A   1      42.816  28.242  28.589  1.00  0.00     0.010 A 
ATOM     43  C   UNL A   1      41.864  28.009  29.599  1.00  0.00    -0.014 A 
BRANCH  43  44
ATOM     44  C   UNL A   1      41.620  29.036  30.639  1.00  0.00     0.031 A 
ATOM     45  C   UNL A   1      42.541  29.060  31.829  1.00  0.00     0.074 A 
ATOM     46  C   UNL A   1      40.630  29.940  30.527  1.00  0.00     0.049 A 
ATOM     47  N   UNL A   1      42.512  29.822  32.889  1.00  0.00    -0.248 NA
ATOM     48  C   UNL A   1      43.646  28.084  31.820  1.00  0.00     0.031 C 
ATOM     49  C   UNL A   1      39.702  30.045  29.403  1.00  0.00     0.029 A 
ATOM     50  N   UNL A   1      40.237  30.938  31.383  1.00  0.00    -0.354 N 
ATOM     51  C   UNL A   1      43.581  29.413  33.677  1.00  0.00     0.074 A 
ATOM     52  C   UNL A   1      44.225  28.318  32.987  1.00  0.00     0.031 C 
ATOM     53  C   UNL A   1      38.832  31.042  29.649  1.00  0.00     0.029 A 
ATOM     54  C   UNL A   1      39.122  31.623  30.960  1.00  0.00     0.049 A 
ATOM     55  H   UNL A   1      40.709  31.145  32.222  1.00  0.00     0.167 HD
ATOM     56  C   UNL A   1      43.993  29.909  34.866  1.00  0.00     0.037 A 
ATOM     57  C   UNL A   1      38.406  32.585  31.575  1.00  0.00     0.037 A 
ATOM     58  C   UNL A   1      43.348  30.999  35.547  1.00  0.00     0.049 A 
ATOM     59  C   UNL A   1      38.847  33.082  32.931  1.00  0.00     0.074 A 
ATOM     60  C   UNL A   1      43.702  31.594  36.745  1.00  0.00     0.029 A 
ATOM     61  N   UNL A   1      42.210  31.653  35.097  1.00  0.00    -0.354 N 
ATOM     62  N   UNL A   1      39.877  32.707  33.653  1.00  0.00    -0.248 NA
ATOM     63  C   UNL A   1      38.031  34.133  33.554  1.00  0.00     0.031 C 
ATOM     64  C   UNL A   1      42.743  32.564  37.051  1.00  0.00     0.029 A 
ATOM     65  C   UNL A   1      41.831  32.623  36.008  1.00  0.00     0.049 A 
ATOM     66  H   UNL A   1      41.743  31.456  34.253  1.00  0.00     0.167 HD
ATOM     67  C   UNL A   1      39.850  33.499  34.799  1.00  0.00     0.074 A 
ATOM     68  C   UNL A   1      38.708  34.380  34.667  1.00  0.00     0.031 C 
ATOM     69  C   UNL A   1      40.695  33.500  35.860  1.00  0.00     0.037 A 
BRANCH  56  70
ATOM     70  C   UNL A   1      45.176  29.254  35.525  1.00  0.00     0.058 A 
ATOM     71  C   UNL A   1      45.028  28.224  36.468  1.00  0.00     0.135 A 
ATOM     72  C   UNL A   1      46.481  29.643  35.180  1.00  0.00     0.135 A 
ATOM     73  F   UNL A   1      43.804  27.830  36.853  1.00  0.00    -0.206 F 
ATOM     74  C   UNL A   1      46.131  27.615  37.058  1.00  0.00     0.059 A 
ATOM     75  C   UNL A   1      47.598  29.027  35.734  1.00  0.00     0.059 A 
ATOM     76  F   UNL A   1      46.680  30.629  34.291  1.00  0.00    -0.206 F 
ATOM     77  C   UNL A   1      47.413  28.021  36.681  1.00  0.00     0.060 A 
BRANCH  77  78
ATOM     78  S   UNL A   1      48.833  27.208  37.442  1.00  0.00     0.124 S 
ATOM     79  O   UNL A   1      48.301  25.873  37.699  1.00  0.00    -0.237 OA
ATOM     80  O   UNL A   1      49.841  27.296  36.391  1.00  0.00    -0.237 OA
ATOM     81  O   UNL A   1      49.094  28.018  38.629  1.00  0.00    -0.744 OA
ENDBRANCH  77  78
ENDBRANCH  56  70
BRANCH  57  82
ATOM     82  C   UNL A   1      37.182  33.135  30.928  1.00  0.00     0.058 A 
ATOM     83  C   UNL A   1      37.263  34.031  29.851  1.00  0.00     0.135 A 
ATOM     84  C   UNL A   1      35.902  32.784  31.388  1.00  0.00     0.135 A 
ATOM     85  F   UNL A   1      38.461  34.410  29.383  1.00  0.00    -0.206 F 
ATOM     86  C   UNL A   1      36.122  34.571  29.264  1.00  0.00     0.059 A 
ATOM     87  C   UNL A   1      34.747  33.287  30.799  1.00  0.00     0.059 A 
ATOM     88  F   UNL A   1      35.767  31.925  32.411  1.00  0.00    -0.206 F 
ATOM     89  C   UNL A   1      34.868  34.189  29.743  1.00  0.00     0.060 A 
BRANCH  89  90
ATOM     90  S   UNL A   1      33.393  34.859  28.942  1.00  0.00     0.124 S 
ATOM     91  O   UNL A   1      33.914  36.081  28.341  1.00  0.00    -0.237 OA
ATOM     92  O   UNL A   1      33.040  33.789  28.014  1.00  0.00    -0.237 OA
ATOM     93  O   UNL A   1      32.465  35.047  30.053  1.00  0.00    -0.744 OA
ENDBRANCH  89  90
ENDBRANCH  57  82
BRANCH  69  94
ATOM     94  C   UNL A   1      40.451  34.512  36.948  1.00  0.00     0.058 A 
ATOM     95  C   UNL A   1      41.166  35.718  37.017  1.00  0.00     0.135 A 
ATOM     96  C   UNL A   1      39.441  34.296  37.901  1.00  0.00     0.135 A 
ATOM     97  F   UNL A   1      42.144  35.976  36.134  1.00  0.00    -0.206 F 
ATOM     98  C   UNL A   1      40.909  36.659  38.009  1.00  0.00     0.059 A 
ATOM     99  C   UNL A   1      39.145  35.238  38.882  1.00  0.00     0.059 A 
ATOM    100  F   UNL A   1      38.715  33.166  37.874  1.00  0.00    -0.206 F 
ATOM    101  C   UNL A   1      39.895  36.412  38.936  1.00  0.00     0.060 A 
BRANCH 101 102
ATOM    102  S   UNL A   1      39.553  37.655  40.199  1.00  0.00     0.124 S 
ATOM    103  O   UNL A   1      40.486  38.713  39.830  1.00  0.00    -0.237 OA
ATOM    104  O   UNL A   1      38.141  37.948  39.973  1.00  0.00    -0.237 OA
ATOM    105  O   UNL A   1      39.852  36.962  41.450  1.00  0.00    -0.744 OA
ENDBRANCH 101 102
ENDBRANCH  69  94
ENDBRANCH  43  44
ENDBRANCH  36  38
ENDBRANCH  35  36
ENDBRANCH  34  35
ENDBRANCH  33  34
ENDBRANCH  32  33
ENDBRANCH  31  32
ENDBRANCH  30  31
ENDBRANCH  29  30
ENDBRANCH   1  29
TORSDOF 28
ENDMDL
MODEL 3
REMARK VINA RESULT:      -9.2      1.603      2.565
REMARK SMILES C[C@H](Cc1cccs1)NC(=O)N[C@](C)(C(=O)OCCOCCOCCOCCOC(=O)c1ccc(-c2c3nc(c(-c4c(F)cc(S(=O)(=O)[O-])cc4F)c4ccc([nH]4)c(-c4c(F)cc(S(=O)(=O)[O-])cc4F)c4nc(c(-c5c(F)cc(S(=O)(=O)[O-])cc5F)c5ccc2[nH]5)C=C4)C=C3)cc1)C(F)(F)F
REMARK SMILES IDX 22 1 21 2 20 3 19 4 18 5 17 6 15 7 16 8 13 9 14 10 12 11
REMARK SMILES IDX 9 12 10 13 11 15 2 17 1 18 3 19 4 20 5 21 8 22 6 23 7 24
REMARK SMILES IDX 98 25 99 26 100 27 101 28 23 29 24 30 25 31 26 32 27 33
REMARK SMILES IDX 28 34 29 35 30 36 31 37 32 38 33 39 97 40 34 41 96 42 35 43
REMARK SMILES IDX 36 44 37 45 90 46 38 47 95 48 89 49 91 50 39 51 94 52 88 53
REMARK SMILES IDX 87 54 40 56 74 57 53 58 73 59 54 60 57 61 72 62 92 63 55 64
REMARK SMILES IDX 56 65 71 67 93 68 58 69 41 70 42 71 51 72 43 73 44 74 50 75
REMARK SMILES IDX 52 76 45 77 46 78 47 79 48 80 49 81 75 82 76 83 85 84 77 85
REMARK SMILES IDX 78 86 84 87 86 88 79 89 80 90 81 91 82 92 83 93 59 94 60 95
REMARK SMILES IDX 69 96 61 97 62 98 68 99 70 100 63 101 64 102 65 103 66 104
REMARK SMILES IDX 67 105
REMARK H PARENT 9 14 12 16 91 55 57 66
REMARK Flexibility Score: inf
ROOT
ATOM      1  C   UNL A   1      39.487  19.558  25.909  1.00  0.00     0.188 C 
ENDROOT
BRANCH   1   2
ATOM      2  C   UNL A   1      38.274  19.890  25.025  1.00  0.00     0.188 C 
BRANCH   2   3
ATOM      3  O   UNL A   1      37.636  21.100  25.385  1.00  0.00    -0.376 OA
BRANCH   3   4
ATOM      4  C   UNL A   1      36.846  21.777  24.421  1.00  0.00     0.202 C 
BRANCH   4   5
ATOM      5  C   UNL A   1      35.358  22.114  24.673  1.00  0.00     0.261 C 
BRANCH   5   6
ATOM      6  O   UNL A   1      35.024  23.447  25.102  1.00  0.00    -0.461 OA
BRANCH   6   7
ATOM      7  C   UNL A   1      33.865  23.576  25.785  1.00  0.00     0.341 C 
ATOM      8  O   UNL A   1      33.740  23.043  26.881  1.00  0.00    -0.249 OA
BRANCH   7   9
ATOM      9  C   UNL A   1      32.772  24.389  25.038  1.00  0.00     0.232 C 
ATOM     10  C   UNL A   1      32.366  25.642  25.864  1.00  0.00     0.058 C 
BRANCH   9  11
ATOM     11  N   UNL A   1      33.469  24.909  23.821  1.00  0.00    -0.315 N 
ATOM     12  N   UNL A   1      32.320  26.822  22.999  1.00  0.00    -0.335 N 
ATOM     13  C   UNL A   1      33.276  25.898  22.954  1.00  0.00     0.316 C 
ATOM     14  H   UNL A   1      32.147  27.192  22.103  1.00  0.00     0.165 HD
ATOM     15  O   UNL A   1      34.032  25.922  21.979  1.00  0.00    -0.249 OA
ATOM     16  H   UNL A   1      34.276  24.387  23.610  1.00  0.00     0.166 HD
BRANCH  12  17
ATOM     17  C   UNL A   1      31.449  27.448  24.001  1.00  0.00     0.086 C 
ATOM     18  C   UNL A   1      29.978  27.126  23.724  1.00  0.00     0.031 C 
BRANCH  17  19
ATOM     19  C   UNL A   1      31.707  28.962  24.139  1.00  0.00     0.071 C 
BRANCH  19  20
ATOM     20  C   UNL A   1      32.568  29.337  25.313  1.00  0.00     0.007 A 
ATOM     21  C   UNL A   1      33.835  28.887  25.633  1.00  0.00     0.015 A 
ATOM     22  S   UNL A   1      31.973  30.420  26.501  1.00  0.00    -0.149 S 
ATOM     23  C   UNL A   1      34.346  29.492  26.812  1.00  0.00     0.012 A 
ATOM     24  C   UNL A   1      33.425  30.327  27.399  1.00  0.00     0.065 A 
ENDBRANCH  19  20
ENDBRANCH  17  19
ENDBRANCH  12  17
ENDBRANCH   9  11
BRANCH   9  25
ATOM     25  C   UNL A   1      31.456  23.631  24.725  1.00  0.00     0.422 C 
ATOM     26  F   UNL A   1      30.534  23.730  25.719  1.00  0.00    -0.168 F 
ATOM     27  F   UNL A   1      30.837  24.155  23.634  1.00  0.00    -0.168 F 
ATOM     28  F   UNL A   1      31.591  22.309  24.502  1.00  0.00    -0.168 F 
ENDBRANCH   9  25
ENDBRANCH   7   9
ENDBRANCH   6   7
ENDBRANCH   5   6
ENDBRANCH   4   5
ENDBRANCH   3   4
ENDBRANCH   2   3
ENDBRANCH   1   2
BRANCH   1  29
ATOM     29  O   UNL A   1      40.764  19.594  25.305  1.00  0.00    -0.377 OA
BRANCH  29  30
ATOM     30  C   UNL A   1      41.921  19.390  26.106  1.00  0.00     0.188 C 
BRANCH  30  31
ATOM     31  C   UNL A   1      43.320  19.210  25.476  1.00  0.00     0.188 C 
BRANCH  31  32
ATOM     32  O   UNL A   1      44.213  20.297  25.658  1.00  0.00    -0.376 OA
BRANCH  32  33
ATOM     33  C   UNL A   1      43.743  21.600  25.354  1.00  0.00     0.202 C 
BRANCH  33  34
ATOM     34  C   UNL A   1      43.223  22.453  26.523  1.00  0.00     0.261 C 
BRANCH  34  35
ATOM     35  O   UNL A   1      42.472  23.625  26.174  1.00  0.00    -0.460 OA
BRANCH  35  36
ATOM     36  C   UNL A   1      41.173  23.668  26.536  1.00  0.00     0.338 C 
ATOM     37  O   UNL A   1      40.343  22.782  26.396  1.00  0.00    -0.246 OA
BRANCH  36  38
ATOM     38  C   UNL A   1      40.964  24.897  27.330  1.00  0.00     0.060 A 
ATOM     39  C   UNL A   1      41.910  25.928  27.243  1.00  0.00     0.016 A 
ATOM     40  C   UNL A   1      39.823  25.049  28.121  1.00  0.00     0.016 A 
ATOM     41  C   UNL A   1      41.736  27.100  27.977  1.00  0.00     0.010 A 
ATOM     42  C   UNL A   1      39.665  26.210  28.880  1.00  0.00     0.010 A 
ATOM     43  C   UNL A   1      40.640  27.224  28.840  1.00  0.00    -0.014 A 
BRANCH  43  44
ATOM     44  C   UNL A   1      40.645  28.289  29.871  1.00  0.00     0.031 A 
ATOM     45  C   UNL A   1      41.693  28.213  30.949  1.00  0.00     0.074 A 
ATOM     46  C   UNL A   1      39.769  29.309  29.844  1.00  0.00     0.049 A 
ATOM     47  N   UNL A   1      41.879  28.989  31.984  1.00  0.00    -0.248 NA
ATOM     48  C   UNL A   1      42.660  27.106  30.844  1.00  0.00     0.031 C 
ATOM     49  C   UNL A   1      38.738  29.514  28.829  1.00  0.00     0.029 A 
ATOM     50  N   UNL A   1      39.604  30.361  30.710  1.00  0.00    -0.354 N 
ATOM     51  C   UNL A   1      42.973  28.459  32.658  1.00  0.00     0.074 A 
ATOM     52  C   UNL A   1      43.393  27.282  31.933  1.00  0.00     0.031 C 
ATOM     53  C   UNL A   1      38.033  30.616  29.141  1.00  0.00     0.029 A 
ATOM     54  C   UNL A   1      38.541  31.175  30.394  1.00  0.00     0.049 A 
ATOM     55  H   UNL A   1      40.191  30.519  31.484  1.00  0.00     0.167 HD
ATOM     56  C   UNL A   1      43.577  28.917  33.779  1.00  0.00     0.037 A 
ATOM     57  C   UNL A   1      38.025  32.229  31.058  1.00  0.00     0.037 A 
ATOM     58  C   UNL A   1      43.155  30.089  34.496  1.00  0.00     0.049 A 
ATOM     59  C   UNL A   1      38.676  32.686  32.341  1.00  0.00     0.074 A 
ATOM     60  C   UNL A   1      43.714  30.651  35.630  1.00  0.00     0.029 A 
ATOM     61  N   UNL A   1      42.062  30.875  34.158  1.00  0.00    -0.354 N 
ATOM     62  N   UNL A   1      39.728  32.194  32.954  1.00  0.00    -0.248 NA
ATOM     63  C   UNL A   1      38.073  33.841  33.021  1.00  0.00     0.031 C 
ATOM     64  C   UNL A   1      42.924  31.739  36.012  1.00  0.00     0.029 A 
ATOM     65  C   UNL A   1      41.913  31.898  35.078  1.00  0.00     0.049 A 
ATOM     66  H   UNL A   1      41.480  30.726  33.378  1.00  0.00     0.167 HD
ATOM     67  C   UNL A   1      39.931  33.000  34.072  1.00  0.00     0.074 A 
ATOM     68  C   UNL A   1      38.899  34.016  34.044  1.00  0.00     0.031 C 
ATOM     69  C   UNL A   1      40.886  32.909  35.032  1.00  0.00     0.037 A 
BRANCH  56  70
ATOM     70  C   UNL A   1      44.738  28.127  34.320  1.00  0.00     0.058 A 
ATOM     71  C   UNL A   1      44.562  27.080  35.239  1.00  0.00     0.135 A 
ATOM     72  C   UNL A   1      46.043  28.402  33.884  1.00  0.00     0.135 A 
ATOM     73  F   UNL A   1      43.338  26.790  35.709  1.00  0.00    -0.206 F 
ATOM     74  C   UNL A   1      45.642  26.346  35.720  1.00  0.00     0.059 A 
ATOM     75  C   UNL A   1      47.135  27.662  34.327  1.00  0.00     0.059 A 
ATOM     76  F   UNL A   1      46.270  29.399  33.013  1.00  0.00    -0.206 F 
ATOM     77  C   UNL A   1      46.925  26.643  35.254  1.00  0.00     0.060 A 
BRANCH  77  78
ATOM     78  S   UNL A   1      48.312  25.669  35.873  1.00  0.00     0.124 S 
ATOM     79  O   UNL A   1      48.350  26.073  37.275  1.00  0.00    -0.237 OA
ATOM     80  O   UNL A   1      47.869  24.302  35.620  1.00  0.00    -0.237 OA
ATOM     81  O   UNL A   1      49.437  26.122  35.060  1.00  0.00    -0.744 OA
ENDBRANCH  77  78
ENDBRANCH  56  70
BRANCH  57  82
ATOM     82  C   UNL A   1      36.812  32.920  30.537  1.00  0.00     0.058 A 
ATOM     83  C   UNL A   1      36.895  33.857  29.495  1.00  0.00     0.135 A 
ATOM     84  C   UNL A   1      35.544  32.664  31.083  1.00  0.00     0.135 A 
ATOM     85  F   UNL A   1      38.084  34.148  28.948  1.00  0.00    -0.206 F 
ATOM     86  C   UNL A   1      35.769  34.528  29.027  1.00  0.00     0.059 A 
ATOM     87  C   UNL A   1      34.400  33.299  30.612  1.00  0.00     0.059 A 
ATOM     88  F   UNL A   1      35.407  31.771  32.077  1.00  0.00    -0.206 F 
ATOM     89  C   UNL A   1      34.525  34.238  29.589  1.00  0.00     0.060 A 
BRANCH  89  90
ATOM     90  S   UNL A   1      33.063  35.079  28.940  1.00  0.00     0.124 S 
ATOM     91  O   UNL A   1      32.555  34.097  27.990  1.00  0.00    -0.237 OA
ATOM     92  O   UNL A   1      32.266  35.275  30.146  1.00  0.00    -0.237 OA
ATOM     93  O   UNL A   1      33.611  36.300  28.355  1.00  0.00    -0.744 OA
ENDBRANCH  89  90
ENDBRANCH  57  82
BRANCH  69  94
ATOM     94  C   UNL A   1      40.895  33.960  36.111  1.00  0.00     0.058 A 
ATOM     95  C   UNL A   1      40.223  33.781  37.330  1.00  0.00     0.135 A 
ATOM     96  C   UNL A   1      41.641  35.139  35.944  1.00  0.00     0.135 A 
ATOM     97  F   UNL A   1      39.493  32.674  37.544  1.00  0.00    -0.206 F 
ATOM     98  C   UNL A   1      40.266  34.746  38.332  1.00  0.00     0.059 A 
ATOM     99  C   UNL A   1      41.724  36.102  36.945  1.00  0.00     0.059 A 
ATOM    100  F   UNL A   1      42.316  35.357  34.802  1.00  0.00    -0.206 F 
ATOM    101  C   UNL A   1      41.022  35.902  38.131  1.00  0.00     0.060 A 
BRANCH 101 102
ATOM    102  S   UNL A   1      41.092  37.131  39.451  1.00  0.00     0.124 S 
ATOM    103  O   UNL A   1      41.158  36.285  40.637  1.00  0.00    -0.237 OA
ATOM    104  O   UNL A   1      42.310  37.867  39.127  1.00  0.00    -0.237 OA
ATOM    105  O   UNL A   1      39.850  37.882  39.284  1.00  0.00    -0.744 OA
ENDBRANCH 101 102
ENDBRANCH  69  94
ENDBRANCH  43  44
ENDBRANCH  36  38
ENDBRANCH  35  36
ENDBRANCH  34  35
ENDBRANCH  33  34
ENDBRANCH  32  33
ENDBRANCH  31  32
ENDBRANCH  30  31
ENDBRANCH  29  30
ENDBRANCH   1  29
TORSDOF 28
ENDMDL
