MODEL 1
REMARK VINA RESULT:     -10.0      0.000      0.000
REMARK SMILES C[C@H]1CC[C@@]2(CO)C(C(=O)OCCOCCOCCOCCOC(=O)c3ccc(-c4c5nc(c(-c6c(F)cc(S(=O)(=O)[O-])cc6F)c6ccc([nH]6)c(-c6c(F)cc(S(=O)(=O)[O-])cc6F)c6nc(c(-c7c(F)cc(S(=O)(=O)[O-])cc7F)c7ccc4[nH]7)C=C6)C=C5)cc3)=C[C@@H](O)C[C@@H]2[C@@]1(C)CCc1ccoc1
REMARK SMILES IDX 17 1 16 2 15 3 14 4 13 5 12 6 11 7 9 8 10 9 8 10 1 11 2 12
REMARK SMILES IDX 3 13 97 14 4 15 96 16 98 17 5 18 95 19 93 20 92 21 99 22
REMARK SMILES IDX 100 23 101 24 102 25 105 26 103 27 104 28 6 29 7 30 94 32
REMARK SMILES IDX 18 34 19 35 20 36 21 37 22 38 23 39 24 40 25 41 26 42 27 43
REMARK SMILES IDX 91 44 28 45 90 46 29 47 30 48 31 49 84 50 32 51 89 52 83 53
REMARK SMILES IDX 85 54 33 55 88 56 82 57 81 58 34 60 68 61 47 62 67 63 48 64
REMARK SMILES IDX 51 65 66 66 86 67 49 68 50 69 65 71 87 72 52 73 35 74 36 75
REMARK SMILES IDX 45 76 37 77 38 78 44 79 46 80 39 81 40 82 41 83 42 84 43 85
REMARK SMILES IDX 69 86 70 87 79 88 71 89 72 90 78 91 80 92 73 93 74 94 75 95
REMARK SMILES IDX 76 96 77 97 53 98 54 99 63 100 55 101 56 102 62 103 64 104
REMARK SMILES IDX 57 105 58 106 59 107 60 108 61 109
REMARK H PARENT 7 31 94 33 85 59 51 70
REMARK Flexibility Score: inf
ROOT
ATOM      1  O   UNL A   1      34.097  33.096  29.943  1.00  0.00    -0.377 OA
ENDROOT
BRANCH   1   2
ATOM      2  C   UNL A   1      34.259  32.895  28.543  1.00  0.00     0.188 C 
BRANCH   2   3
ATOM      3  C   UNL A   1      35.057  31.668  28.047  1.00  0.00     0.188 C 
BRANCH   3   4
ATOM      4  O   UNL A   1      34.263  30.635  27.482  1.00  0.00    -0.376 OA
BRANCH   4   5
ATOM      5  C   UNL A   1      32.887  30.810  27.215  1.00  0.00     0.202 C 
BRANCH   5   6
ATOM      6  C   UNL A   1      31.903  29.601  27.204  1.00  0.00     0.261 C 
BRANCH   6   7
ATOM      7  O   UNL A   1      32.355  28.312  26.751  1.00  0.00    -0.460 OA
BRANCH   7   8
ATOM      8  C   UNL A   1      32.484  28.278  25.413  1.00  0.00     0.334 C 
ATOM      9  O   UNL A   1      33.584  28.317  24.886  1.00  0.00    -0.247 OA
BRANCH   8  10
ATOM     10  C   UNL A   1      31.230  28.179  24.597  1.00  0.00     0.044 C 
ATOM     11  C   UNL A   1      33.404  25.045  25.735  1.00  0.00     0.008 C 
ATOM     12  C   UNL A   1      32.154  24.279  25.243  1.00  0.00    -0.008 C 
ATOM     13  C   UNL A   1      30.932  24.639  26.074  1.00  0.00     0.005 C 
ATOM     14  C   UNL A   1      31.928  24.449  23.718  1.00  0.00    -0.026 C 
ATOM     15  C   UNL A   1      30.466  26.073  25.956  1.00  0.00     0.015 C 
ATOM     16  C   UNL A   1      31.684  26.020  23.507  1.00  0.00     0.011 C 
ATOM     17  C   UNL A   1      30.661  23.750  23.173  1.00  0.00     0.012 C 
ATOM     18  C   UNL A   1      30.624  26.734  24.545  1.00  0.00     0.029 C 
ATOM     19  C   UNL A   1      31.510  26.670  22.105  1.00  0.00     0.041 C 
ATOM     20  C   UNL A   1      31.731  28.225  22.193  1.00  0.00     0.138 C 
ATOM     21  C   UNL A   1      31.198  28.900  23.452  1.00  0.00     0.016 C 
BRANCH  14  22
ATOM     22  C   UNL A   1      33.141  23.705  22.957  1.00  0.00     0.012 C 
BRANCH  22  23
ATOM     23  C   UNL A   1      33.787  22.299  23.310  1.00  0.00     0.039 C 
BRANCH  23  24
ATOM     24  C   UNL A   1      35.074  22.157  24.132  1.00  0.00    -0.010 A 
ATOM     25  C   UNL A   1      35.331  21.327  25.286  1.00  0.00     0.045 A 
ATOM     26  C   UNL A   1      36.236  22.904  24.031  1.00  0.00     0.198 A 
ATOM     27  C   UNL A   1      36.647  21.482  25.637  1.00  0.00     0.195 A 
ATOM     28  O   UNL A   1      37.194  22.475  24.901  1.00  0.00    -0.472 OA
ENDBRANCH  23  24
ENDBRANCH  22  23
ENDBRANCH  14  22
BRANCH  18  29
ATOM     29  C   UNL A   1      29.125  26.937  24.039  1.00  0.00     0.168 C 
BRANCH  29  30
ATOM     30  O   UNL A   1      28.139  26.037  24.547  1.00  0.00    -0.395 OA
ATOM     31  H   UNL A   1      27.317  26.138  24.042  1.00  0.00     0.210 HD
ENDBRANCH  29  30
ENDBRANCH  18  29
BRANCH  20  32
ATOM     32  O   UNL A   1      33.132  28.482  22.167  1.00  0.00    -0.389 OA
ATOM     33  H   UNL A   1      33.318  29.196  21.537  1.00  0.00     0.211 HD
ENDBRANCH  20  32
ENDBRANCH   8  10
ENDBRANCH   7   8
ENDBRANCH   6   7
ENDBRANCH   5   6
ENDBRANCH   4   5
ENDBRANCH   3   4
ENDBRANCH   2   3
ENDBRANCH   1   2
BRANCH   1  34
ATOM     34  C   UNL A   1      34.534  34.324  30.528  1.00  0.00     0.188 C 
BRANCH  34  35
ATOM     35  C   UNL A   1      34.377  34.540  32.052  1.00  0.00     0.188 C 
BRANCH  35  36
ATOM     36  O   UNL A   1      35.449  34.037  32.831  1.00  0.00    -0.376 OA
BRANCH  36  37
ATOM     37  C   UNL A   1      35.443  32.646  33.104  1.00  0.00     0.202 C 
BRANCH  37  38
ATOM     38  C   UNL A   1      36.668  31.828  32.664  1.00  0.00     0.261 C 
BRANCH  38  39
ATOM     39  O   UNL A   1      36.717  31.418  31.285  1.00  0.00    -0.460 OA
BRANCH  39  40
ATOM     40  C   UNL A   1      37.044  30.139  30.998  1.00  0.00     0.338 C 
ATOM     41  O   UNL A   1      36.299  29.173  30.990  1.00  0.00    -0.246 OA
BRANCH  40  42
ATOM     42  C   UNL A   1      38.424  30.143  30.461  1.00  0.00     0.060 A 
ATOM     43  C   UNL A   1      38.620  30.200  29.072  1.00  0.00     0.016 A 
ATOM     44  C   UNL A   1      39.518  30.125  31.327  1.00  0.00     0.016 A 
ATOM     45  C   UNL A   1      39.912  30.207  28.546  1.00  0.00     0.010 A 
ATOM     46  C   UNL A   1      40.810  30.090  30.800  1.00  0.00     0.010 A 
ATOM     47  C   UNL A   1      41.010  30.093  29.407  1.00  0.00    -0.014 A 
BRANCH  47  48
ATOM     48  C   UNL A   1      42.329  29.707  28.854  1.00  0.00     0.031 A 
ATOM     49  C   UNL A   1      42.499  28.281  28.403  1.00  0.00     0.074 A 
ATOM     50  C   UNL A   1      43.341  30.585  28.745  1.00  0.00     0.049 A 
ATOM     51  N   UNL A   1      43.565  27.671  27.958  1.00  0.00    -0.248 NA
ATOM     52  C   UNL A   1      41.300  27.427  28.466  1.00  0.00     0.031 C 
ATOM     53  C   UNL A   1      43.276  32.001  29.102  1.00  0.00     0.029 A 
ATOM     54  N   UNL A   1      44.631  30.403  28.314  1.00  0.00    -0.354 N 
ATOM     55  C   UNL A   1      43.170  26.363  27.702  1.00  0.00     0.074 A 
ATOM     56  C   UNL A   1      41.773  26.260  28.058  1.00  0.00     0.031 C 
ATOM     57  C   UNL A   1      44.487  32.554  28.901  1.00  0.00     0.029 A 
ATOM     58  C   UNL A   1      45.415  31.525  28.434  1.00  0.00     0.049 A 
ATOM     59  H   UNL A   1      44.962  29.549  27.953  1.00  0.00     0.167 HD
ATOM     60  C   UNL A   1      43.908  25.340  27.214  1.00  0.00     0.037 A 
ATOM     61  C   UNL A   1      46.738  31.688  28.222  1.00  0.00     0.037 A 
ATOM     62  C   UNL A   1      45.300  25.450  26.868  1.00  0.00     0.049 A 
ATOM     63  C   UNL A   1      47.558  30.513  27.746  1.00  0.00     0.074 A 
ATOM     64  C   UNL A   1      46.132  24.479  26.342  1.00  0.00     0.029 A 
ATOM     65  N   UNL A   1      46.065  26.596  27.025  1.00  0.00    -0.354 N 
ATOM     66  N   UNL A   1      47.169  29.287  27.479  1.00  0.00    -0.248 NA
ATOM     67  C   UNL A   1      48.996  30.740  27.544  1.00  0.00     0.031 C 
ATOM     68  C   UNL A   1      47.418  25.021  26.238  1.00  0.00     0.029 A 
ATOM     69  C   UNL A   1      47.371  26.347  26.639  1.00  0.00     0.049 A 
ATOM     70  H   UNL A   1      45.729  27.459  27.361  1.00  0.00     0.167 HD
ATOM     71  C   UNL A   1      48.308  28.608  27.055  1.00  0.00     0.074 A 
ATOM     72  C   UNL A   1      49.396  29.562  27.088  1.00  0.00     0.031 C 
ATOM     73  C   UNL A   1      48.442  27.312  26.674  1.00  0.00     0.037 A 
BRANCH  60  74
ATOM     74  C   UNL A   1      43.236  24.004  27.067  1.00  0.00     0.058 A 
ATOM     75  C   UNL A   1      42.792  23.528  25.824  1.00  0.00     0.135 A 
ATOM     76  C   UNL A   1      43.064  23.174  28.187  1.00  0.00     0.135 A 
ATOM     77  F   UNL A   1      42.908  24.291  24.726  1.00  0.00    -0.206 F 
ATOM     78  C   UNL A   1      42.186  22.282  25.697  1.00  0.00     0.059 A 
ATOM     79  C   UNL A   1      42.487  21.912  28.080  1.00  0.00     0.059 A 
ATOM     80  F   UNL A   1      43.461  23.585  29.401  1.00  0.00    -0.206 F 
ATOM     81  C   UNL A   1      42.042  21.479  26.831  1.00  0.00     0.060 A 
BRANCH  81  82
ATOM     82  S   UNL A   1      41.274  19.856  26.647  1.00  0.00     0.124 S 
ATOM     83  O   UNL A   1      39.864  20.213  26.521  1.00  0.00    -0.237 OA
ATOM     84  O   UNL A   1      41.909  19.348  25.435  1.00  0.00    -0.237 OA
ATOM     85  O   UNL A   1      41.638  19.165  27.880  1.00  0.00    -0.744 OA
ENDBRANCH  81  82
ENDBRANCH  60  74
BRANCH  61  86
ATOM     86  C   UNL A   1      47.381  33.004  28.490  1.00  0.00     0.058 A 
ATOM     87  C   UNL A   1      47.423  34.009  27.513  1.00  0.00     0.135 A 
ATOM     88  C   UNL A   1      47.980  33.277  29.731  1.00  0.00     0.135 A 
ATOM     89  F   UNL A   1      46.879  33.793  26.305  1.00  0.00    -0.206 F 
ATOM     90  C   UNL A   1      48.046  35.231  27.748  1.00  0.00     0.059 A 
ATOM     91  C   UNL A   1      48.584  34.501  30.000  1.00  0.00     0.059 A 
ATOM     92  F   UNL A   1      47.965  32.353  30.704  1.00  0.00    -0.206 F 
ATOM     93  C   UNL A   1      48.622  35.470  28.998  1.00  0.00     0.060 A 
BRANCH  93  94
ATOM     94  S   UNL A   1      49.386  37.076  29.308  1.00  0.00     0.124 S 
ATOM     95  O   UNL A   1      49.159  37.760  28.041  1.00  0.00    -0.237 OA
ATOM     96  O   UNL A   1      48.615  37.566  30.447  1.00  0.00    -0.237 OA
ATOM     97  O   UNL A   1      50.776  36.735  29.602  1.00  0.00    -0.744 OA
ENDBRANCH  93  94
ENDBRANCH  61  86
BRANCH  73  98
ATOM     98  C   UNL A   1      49.804  26.852  26.229  1.00  0.00     0.058 A 
ATOM     99  C   UNL A   1      50.212  26.938  24.889  1.00  0.00     0.135 A 
ATOM    100  C   UNL A   1      50.737  26.383  27.169  1.00  0.00     0.135 A 
ATOM    101  F   UNL A   1      49.360  27.375  23.949  1.00  0.00    -0.206 F 
ATOM    102  C   UNL A   1      51.490  26.553  24.493  1.00  0.00     0.059 A 
ATOM    103  C   UNL A   1      52.029  26.023  26.801  1.00  0.00     0.059 A 
ATOM    104  F   UNL A   1      50.403  26.294  28.467  1.00  0.00    -0.206 F 
ATOM    105  C   UNL A   1      52.393  26.100  25.457  1.00  0.00     0.060 A 
BRANCH 105 106
ATOM    106  S   UNL A   1      54.059  25.640  24.935  1.00  0.00     0.124 S 
ATOM    107  O   UNL A   1      54.849  26.036  26.096  1.00  0.00    -0.237 OA
ATOM    108  O   UNL A   1      53.931  24.203  24.715  1.00  0.00    -0.237 OA
ATOM    109  O   UNL A   1      54.271  26.436  23.729  1.00  0.00    -0.744 OA
ENDBRANCH 105 106
ENDBRANCH  73  98
ENDBRANCH  47  48
ENDBRANCH  40  42
ENDBRANCH  39  40
ENDBRANCH  38  39
ENDBRANCH  37  38
ENDBRANCH  36  37
ENDBRANCH  35  36
ENDBRANCH  34  35
ENDBRANCH   1  34
TORSDOF 29
ENDMDL
MODEL 2
REMARK VINA RESULT:      -8.8      6.943     10.885
REMARK SMILES C[C@H]1CC[C@@]2(CO)C(C(=O)OCCOCCOCCOCCOC(=O)c3ccc(-c4c5nc(c(-c6c(F)cc(S(=O)(=O)[O-])cc6F)c6ccc([nH]6)c(-c6c(F)cc(S(=O)(=O)[O-])cc6F)c6nc(c(-c7c(F)cc(S(=O)(=O)[O-])cc7F)c7ccc4[nH]7)C=C6)C=C5)cc3)=C[C@@H](O)C[C@@H]2[C@@]1(C)CCc1ccoc1
REMARK SMILES IDX 17 1 16 2 15 3 14 4 13 5 12 6 11 7 9 8 10 9 8 10 1 11 2 12
REMARK SMILES IDX 3 13 97 14 4 15 96 16 98 17 5 18 95 19 93 20 92 21 99 22
REMARK SMILES IDX 100 23 101 24 102 25 105 26 103 27 104 28 6 29 7 30 94 32
REMARK SMILES IDX 18 34 19 35 20 36 21 37 22 38 23 39 24 40 25 41 26 42 27 43
REMARK SMILES IDX 91 44 28 45 90 46 29 47 30 48 31 49 84 50 32 51 89 52 83 53
REMARK SMILES IDX 85 54 33 55 88 56 82 57 81 58 34 60 68 61 47 62 67 63 48 64
REMARK SMILES IDX 51 65 66 66 86 67 49 68 50 69 65 71 87 72 52 73 35 74 36 75
REMARK SMILES IDX 45 76 37 77 38 78 44 79 46 80 39 81 40 82 41 83 42 84 43 85
REMARK SMILES IDX 69 86 70 87 79 88 71 89 72 90 78 91 80 92 73 93 74 94 75 95
REMARK SMILES IDX 76 96 77 97 53 98 54 99 63 100 55 101 56 102 62 103 64 104
REMARK SMILES IDX 57 105 58 106 59 107 60 108 61 109
REMARK H PARENT 7 31 94 33 85 59 51 70
REMARK Flexibility Score: inf
ROOT
ATOM      1  O   UNL A   1      35.417  33.495  30.443  1.00  0.00    -0.377 OA
ENDROOT
BRANCH   1   2
ATOM      2  C   UNL A   1      36.037  33.375  29.167  1.00  0.00     0.188 C 
BRANCH   2   3
ATOM      3  C   UNL A   1      35.242  32.748  28.000  1.00  0.00     0.188 C 
BRANCH   3   4
ATOM      4  O   UNL A   1      34.588  31.528  28.319  1.00  0.00    -0.376 OA
BRANCH   4   5
ATOM      5  C   UNL A   1      33.862  30.794  27.354  1.00  0.00     0.202 C 
BRANCH   5   6
ATOM      6  C   UNL A   1      33.844  29.236  27.366  1.00  0.00     0.261 C 
BRANCH   6   7
ATOM      7  O   UNL A   1      33.386  28.514  26.209  1.00  0.00    -0.460 OA
BRANCH   7   8
ATOM      8  C   UNL A   1      32.046  28.391  26.203  1.00  0.00     0.334 C 
ATOM      9  O   UNL A   1      31.424  28.260  27.244  1.00  0.00    -0.247 OA
BRANCH   8  10
ATOM     10  C   UNL A   1      31.351  28.432  24.875  1.00  0.00     0.044 C 
ATOM     11  C   UNL A   1      32.927  25.142  26.466  1.00  0.00     0.008 C 
ATOM     12  C   UNL A   1      32.128  24.473  25.324  1.00  0.00    -0.008 C 
ATOM     13  C   UNL A   1      30.634  24.704  25.497  1.00  0.00     0.005 C 
ATOM     14  C   UNL A   1      32.652  24.887  23.924  1.00  0.00    -0.026 C 
ATOM     15  C   UNL A   1      30.181  26.142  25.373  1.00  0.00     0.015 C 
ATOM     16  C   UNL A   1      32.427  26.473  23.848  1.00  0.00     0.011 C 
ATOM     17  C   UNL A   1      31.858  24.292  22.738  1.00  0.00     0.012 C 
ATOM     18  C   UNL A   1      30.950  27.019  24.329  1.00  0.00     0.029 C 
ATOM     19  C   UNL A   1      32.904  27.340  22.649  1.00  0.00     0.041 C 
ATOM     20  C   UNL A   1      32.942  28.860  23.054  1.00  0.00     0.138 C 
ATOM     21  C   UNL A   1      31.822  29.328  23.976  1.00  0.00     0.016 C 
BRANCH  14  22
ATOM     22  C   UNL A   1      34.131  24.265  23.752  1.00  0.00     0.012 C 
BRANCH  22  23
ATOM     23  C   UNL A   1      34.516  22.785  23.329  1.00  0.00     0.039 C 
BRANCH  23  24
ATOM     24  C   UNL A   1      33.946  21.544  24.028  1.00  0.00    -0.010 A 
ATOM     25  C   UNL A   1      32.596  21.032  24.018  1.00  0.00     0.045 A 
ATOM     26  C   UNL A   1      34.577  20.717  24.942  1.00  0.00     0.198 A 
ATOM     27  C   UNL A   1      32.579  19.861  24.729  1.00  0.00     0.195 A 
ATOM     28  O   UNL A   1      33.776  19.685  25.331  1.00  0.00    -0.472 OA
ENDBRANCH  23  24
ENDBRANCH  22  23
ENDBRANCH  14  22
BRANCH  18  29
ATOM     29  C   UNL A   1      29.870  27.310  23.193  1.00  0.00     0.168 C 
BRANCH  29  30
ATOM     30  O   UNL A   1      28.496  27.303  23.583  1.00  0.00    -0.395 OA
ATOM     31  H   UNL A   1      28.422  27.576  24.511  1.00  0.00     0.210 HD
ENDBRANCH  29  30
ENDBRANCH  18  29
BRANCH  20  32
ATOM     32  O   UNL A   1      34.160  29.107  23.751  1.00  0.00    -0.389 OA
ATOM     33  H   UNL A   1      34.104  29.962  24.206  1.00  0.00     0.211 HD
ENDBRANCH  20  32
ENDBRANCH   8  10
ENDBRANCH   7   8
ENDBRANCH   6   7
ENDBRANCH   5   6
ENDBRANCH   4   5
ENDBRANCH   3   4
ENDBRANCH   2   3
ENDBRANCH   1   2
BRANCH   1  34
ATOM     34  C   UNL A   1      36.015  32.860  31.574  1.00  0.00     0.188 C 
BRANCH  34  35
ATOM     35  C   UNL A   1      35.624  31.406  31.927  1.00  0.00     0.188 C 
BRANCH  35  36
ATOM     36  O   UNL A   1      36.689  30.613  32.423  1.00  0.00    -0.376 OA
BRANCH  36  37
ATOM     37  C   UNL A   1      36.896  29.358  31.796  1.00  0.00     0.202 C 
BRANCH  37  38
ATOM     38  C   UNL A   1      36.766  29.296  30.266  1.00  0.00     0.261 C 
BRANCH  38  39
ATOM     39  O   UNL A   1      37.639  30.148  29.502  1.00  0.00    -0.460 OA
BRANCH  39  40
ATOM     40  C   UNL A   1      38.949  29.826  29.415  1.00  0.00     0.338 C 
ATOM     41  O   UNL A   1      39.425  28.793  28.975  1.00  0.00    -0.246 OA
BRANCH  40  42
ATOM     42  C   UNL A   1      39.727  31.046  29.729  1.00  0.00     0.060 A 
ATOM     43  C   UNL A   1      41.128  30.970  29.796  1.00  0.00     0.016 A 
ATOM     44  C   UNL A   1      39.078  32.266  29.922  1.00  0.00     0.016 A 
ATOM     45  C   UNL A   1      41.878  32.107  30.089  1.00  0.00     0.010 A 
ATOM     46  C   UNL A   1      39.827  33.396  30.257  1.00  0.00     0.010 A 
ATOM     47  C   UNL A   1      41.226  33.312  30.378  1.00  0.00    -0.014 A 
BRANCH  47  48
ATOM     48  C   UNL A   1      41.970  34.395  31.061  1.00  0.00     0.031 A 
ATOM     49  C   UNL A   1      41.930  34.419  32.566  1.00  0.00     0.074 A 
ATOM     50  C   UNL A   1      42.665  35.323  30.380  1.00  0.00     0.049 A 
ATOM     51  N   UNL A   1      42.427  35.295  33.397  1.00  0.00    -0.248 NA
ATOM     52  C   UNL A   1      41.229  33.300  33.220  1.00  0.00     0.031 C 
ATOM     53  C   UNL A   1      42.817  35.370  28.928  1.00  0.00     0.029 A 
ATOM     54  N   UNL A   1      43.363  36.415  30.830  1.00  0.00    -0.354 N 
ATOM     55  C   UNL A   1      42.088  34.842  34.667  1.00  0.00     0.074 A 
ATOM     56  C   UNL A   1      41.329  33.624  34.499  1.00  0.00     0.031 C 
ATOM     57  C   UNL A   1      43.540  36.458  28.603  1.00  0.00     0.029 A 
ATOM     58  C   UNL A   1      43.872  37.197  29.821  1.00  0.00     0.049 A 
ATOM     59  H   UNL A   1      43.487  36.620  31.785  1.00  0.00     0.167 HD
ATOM     60  C   UNL A   1      42.385  35.394  35.866  1.00  0.00     0.037 A 
ATOM     61  C   UNL A   1      44.502  38.389  29.877  1.00  0.00     0.037 A 
ATOM     62  C   UNL A   1      43.137  36.609  36.024  1.00  0.00     0.049 A 
ATOM     63  C   UNL A   1      44.760  39.023  31.223  1.00  0.00     0.074 A 
ATOM     64  C   UNL A   1      43.514  37.239  37.196  1.00  0.00     0.029 A 
ATOM     65  N   UNL A   1      43.616  37.384  34.978  1.00  0.00    -0.354 N 
ATOM     66  N   UNL A   1      44.462  38.571  32.420  1.00  0.00    -0.248 NA
ATOM     67  C   UNL A   1      45.437  40.327  31.229  1.00  0.00     0.031 C 
ATOM     68  C   UNL A   1      44.168  38.428  36.858  1.00  0.00     0.029 A 
ATOM     69  C   UNL A   1      44.254  38.506  35.476  1.00  0.00     0.049 A 
ATOM     70  H   UNL A   1      43.516  37.168  34.022  1.00  0.00     0.167 HD
ATOM     71  C   UNL A   1      44.937  39.523  33.317  1.00  0.00     0.074 A 
ATOM     72  C   UNL A   1      45.554  40.567  32.527  1.00  0.00     0.031 C 
ATOM     73  C   UNL A   1      44.869  39.534  34.673  1.00  0.00     0.037 A 
BRANCH  60  74
ATOM     74  C   UNL A   1      41.859  34.710  37.097  1.00  0.00     0.058 A 
ATOM     75  C   UNL A   1      42.605  33.742  37.786  1.00  0.00     0.135 A 
ATOM     76  C   UNL A   1      40.599  35.057  37.612  1.00  0.00     0.135 A 
ATOM     77  F   UNL A   1      43.804  33.355  37.323  1.00  0.00    -0.206 F 
ATOM     78  C   UNL A   1      42.115  33.129  38.934  1.00  0.00     0.059 A 
ATOM     79  C   UNL A   1      40.101  34.478  38.775  1.00  0.00     0.059 A 
ATOM     80  F   UNL A   1      39.840  35.969  36.986  1.00  0.00    -0.206 F 
ATOM     81  C   UNL A   1      40.863  33.507  39.423  1.00  0.00     0.060 A 
BRANCH  81  82
ATOM     82  S   UNL A   1      40.249  32.717  40.927  1.00  0.00     0.124 S 
ATOM     83  O   UNL A   1      40.238  33.838  41.861  1.00  0.00    -0.237 OA
ATOM     84  O   UNL A   1      38.939  32.228  40.507  1.00  0.00    -0.237 OA
ATOM     85  O   UNL A   1      41.243  31.684  41.199  1.00  0.00    -0.744 OA
ENDBRANCH  81  82
ENDBRANCH  60  74
BRANCH  61  86
ATOM     86  C   UNL A   1      44.905  39.082  28.622  1.00  0.00     0.058 A 
ATOM     87  C   UNL A   1      46.114  38.783  27.978  1.00  0.00     0.135 A 
ATOM     88  C   UNL A   1      44.089  40.071  28.049  1.00  0.00     0.135 A 
ATOM     89  F   UNL A   1      46.937  37.856  28.494  1.00  0.00    -0.206 F 
ATOM     90  C   UNL A   1      46.508  39.445  26.819  1.00  0.00     0.059 A 
ATOM     91  C   UNL A   1      44.448  40.728  26.876  1.00  0.00     0.059 A 
ATOM     92  F   UNL A   1      42.919  40.395  28.621  1.00  0.00    -0.206 F 
ATOM     93  C   UNL A   1      45.666  40.416  26.273  1.00  0.00     0.060 A 
BRANCH  93  94
ATOM     94  S   UNL A   1      46.165  41.237  24.744  1.00  0.00     0.124 S 
ATOM     95  O   UNL A   1      47.048  42.283  25.247  1.00  0.00    -0.237 OA
ATOM     96  O   UNL A   1      46.810  40.152  24.012  1.00  0.00    -0.237 OA
ATOM     97  O   UNL A   1      44.899  41.697  24.181  1.00  0.00    -0.744 OA
ENDBRANCH  93  94
ENDBRANCH  61  86
BRANCH  73  98
ATOM     98  C   UNL A   1      45.503  40.693  35.396  1.00  0.00     0.058 A 
ATOM     99  C   UNL A   1      46.838  40.653  35.826  1.00  0.00     0.135 A 
ATOM    100  C   UNL A   1      44.785  41.882  35.598  1.00  0.00     0.135 A 
ATOM    101  F   UNL A   1      47.569  39.539  35.662  1.00  0.00    -0.206 F 
ATOM    102  C   UNL A   1      47.432  41.745  36.453  1.00  0.00     0.059 A 
ATOM    103  C   UNL A   1      45.368  42.997  36.193  1.00  0.00     0.059 A 
ATOM    104  F   UNL A   1      43.508  41.980  35.192  1.00  0.00    -0.206 F 
ATOM    105  C   UNL A   1      46.689  42.913  36.629  1.00  0.00     0.060 A 
BRANCH 105 106
ATOM    106  S   UNL A   1      47.484  44.335  37.408  1.00  0.00     0.124 S 
ATOM    107  O   UNL A   1      47.885  45.121  36.246  1.00  0.00    -0.237 OA
ATOM    108  O   UNL A   1      46.400  44.896  38.210  1.00  0.00    -0.237 OA
ATOM    109  O   UNL A   1      48.576  43.739  38.172  1.00  0.00    -0.744 OA
ENDBRANCH 105 106
ENDBRANCH  73  98
ENDBRANCH  47  48
ENDBRANCH  40  42
ENDBRANCH  39  40
ENDBRANCH  38  39
ENDBRANCH  37  38
ENDBRANCH  36  37
ENDBRANCH  35  36
ENDBRANCH  34  35
ENDBRANCH   1  34
TORSDOF 29
ENDMDL
MODEL 3
REMARK VINA RESULT:      -8.8      3.857      9.938
REMARK SMILES C[C@H]1CC[C@@]2(CO)C(C(=O)OCCOCCOCCOCCOC(=O)c3ccc(-c4c5nc(c(-c6c(F)cc(S(=O)(=O)[O-])cc6F)c6ccc([nH]6)c(-c6c(F)cc(S(=O)(=O)[O-])cc6F)c6nc(c(-c7c(F)cc(S(=O)(=O)[O-])cc7F)c7ccc4[nH]7)C=C6)C=C5)cc3)=C[C@@H](O)C[C@@H]2[C@@]1(C)CCc1ccoc1
REMARK SMILES IDX 17 1 16 2 15 3 14 4 13 5 12 6 11 7 9 8 10 9 8 10 1 11 2 12
REMARK SMILES IDX 3 13 97 14 4 15 96 16 98 17 5 18 95 19 93 20 92 21 99 22
REMARK SMILES IDX 100 23 101 24 102 25 105 26 103 27 104 28 6 29 7 30 94 32
REMARK SMILES IDX 18 34 19 35 20 36 21 37 22 38 23 39 24 40 25 41 26 42 27 43
REMARK SMILES IDX 91 44 28 45 90 46 29 47 30 48 31 49 84 50 32 51 89 52 83 53
REMARK SMILES IDX 85 54 33 55 88 56 82 57 81 58 34 60 68 61 47 62 67 63 48 64
REMARK SMILES IDX 51 65 66 66 86 67 49 68 50 69 65 71 87 72 52 73 35 74 36 75
REMARK SMILES IDX 45 76 37 77 38 78 44 79 46 80 39 81 40 82 41 83 42 84 43 85
REMARK SMILES IDX 69 86 70 87 79 88 71 89 72 90 78 91 80 92 73 93 74 94 75 95
REMARK SMILES IDX 76 96 77 97 53 98 54 99 63 100 55 101 56 102 62 103 64 104
REMARK SMILES IDX 57 105 58 106 59 107 60 108 61 109
REMARK H PARENT 7 31 94 33 85 59 51 70
REMARK Flexibility Score: inf
ROOT
ATOM      1  O   UNL A   1      41.322  20.853  27.033  1.00  0.00    -0.377 OA
ENDROOT
BRANCH   1   2
ATOM      2  C   UNL A   1      41.554  22.233  27.299  1.00  0.00     0.188 C 
BRANCH   2   3
ATOM      3  C   UNL A   1      40.344  23.181  27.462  1.00  0.00     0.188 C 
BRANCH   3   4
ATOM      4  O   UNL A   1      39.306  22.982  26.513  1.00  0.00    -0.376 OA
BRANCH   4   5
ATOM      5  C   UNL A   1      38.256  23.913  26.346  1.00  0.00     0.202 C 
BRANCH   5   6
ATOM      6  C   UNL A   1      37.190  23.740  25.223  1.00  0.00     0.261 C 
BRANCH   6   7
ATOM      7  O   UNL A   1      36.313  22.599  25.237  1.00  0.00    -0.460 OA
BRANCH   7   8
ATOM      8  C   UNL A   1      35.715  22.423  24.044  1.00  0.00     0.334 C 
ATOM      9  O   UNL A   1      36.142  22.970  23.041  1.00  0.00    -0.247 OA
BRANCH   8  10
ATOM     10  C   UNL A   1      34.517  21.523  23.995  1.00  0.00     0.044 C 
ATOM     11  C   UNL A   1      34.317  25.492  24.224  1.00  0.00     0.008 C 
ATOM     12  C   UNL A   1      32.832  25.216  23.895  1.00  0.00    -0.008 C 
ATOM     13  C   UNL A   1      32.690  24.572  22.524  1.00  0.00     0.005 C 
ATOM     14  C   UNL A   1      32.123  24.419  25.021  1.00  0.00    -0.026 C 
ATOM     15  C   UNL A   1      33.285  23.188  22.390  1.00  0.00     0.015 C 
ATOM     16  C   UNL A   1      32.901  23.020  25.094  1.00  0.00     0.011 C 
ATOM     17  C   UNL A   1      30.647  24.065  24.726  1.00  0.00     0.012 C 
ATOM     18  C   UNL A   1      33.181  22.270  23.654  1.00  0.00     0.029 C 
ATOM     19  C   UNL A   1      32.592  21.932  26.161  1.00  0.00     0.041 C 
ATOM     20  C   UNL A   1      33.779  20.904  26.254  1.00  0.00     0.138 C 
ATOM     21  C   UNL A   1      34.455  20.550  24.934  1.00  0.00     0.016 C 
BRANCH  14  22
ATOM     22  C   UNL A   1      32.041  25.374  26.318  1.00  0.00     0.012 C 
BRANCH  22  23
ATOM     23  C   UNL A   1      31.425  26.834  26.409  1.00  0.00     0.039 C 
BRANCH  23  24
ATOM     24  C   UNL A   1      32.288  28.094  26.555  1.00  0.00    -0.010 A 
ATOM     25  C   UNL A   1      33.671  28.209  26.955  1.00  0.00     0.045 A 
ATOM     26  C   UNL A   1      31.886  29.416  26.470  1.00  0.00     0.198 A 
ATOM     27  C   UNL A   1      34.029  29.530  26.872  1.00  0.00     0.195 A 
ATOM     28  O   UNL A   1      32.932  30.277  26.616  1.00  0.00    -0.472 OA
ENDBRANCH  23  24
ENDBRANCH  22  23
ENDBRANCH  14  22
BRANCH  18  29
ATOM     29  C   UNL A   1      32.168  21.118  23.218  1.00  0.00     0.168 C 
BRANCH  29  30
ATOM     30  O   UNL A   1      31.751  21.100  21.852  1.00  0.00    -0.395 OA
ATOM     31  H   UNL A   1      32.384  20.585  21.328  1.00  0.00     0.210 HD
ENDBRANCH  29  30
ENDBRANCH  18  29
BRANCH  20  32
ATOM     32  O   UNL A   1      34.794  21.464  27.082  1.00  0.00    -0.389 OA
ATOM     33  H   UNL A   1      34.837  20.974  27.918  1.00  0.00     0.211 HD
ENDBRANCH  20  32
ENDBRANCH   8  10
ENDBRANCH   7   8
ENDBRANCH   6   7
ENDBRANCH   5   6
ENDBRANCH   4   5
ENDBRANCH   3   4
ENDBRANCH   2   3
ENDBRANCH   1   2
BRANCH   1  34
ATOM     34  C   UNL A   1      42.158  20.172  26.097  1.00  0.00     0.188 C 
BRANCH  34  35
ATOM     35  C   UNL A   1      43.542  20.763  25.741  1.00  0.00     0.188 C 
BRANCH  35  36
ATOM     36  O   UNL A   1      43.527  21.692  24.671  1.00  0.00    -0.376 OA
BRANCH  36  37
ATOM     37  C   UNL A   1      44.594  22.625  24.620  1.00  0.00     0.202 C 
BRANCH  37  38
ATOM     38  C   UNL A   1      45.236  23.045  25.953  1.00  0.00     0.261 C 
BRANCH  38  39
ATOM     39  O   UNL A   1      45.445  24.454  26.161  1.00  0.00    -0.460 OA
BRANCH  39  40
ATOM     40  C   UNL A   1      46.417  25.078  25.460  1.00  0.00     0.338 C 
ATOM     41  O   UNL A   1      46.964  24.679  24.445  1.00  0.00    -0.246 OA
BRANCH  40  42
ATOM     42  C   UNL A   1      46.544  26.450  26.002  1.00  0.00     0.060 A 
ATOM     43  C   UNL A   1      46.943  26.628  27.336  1.00  0.00     0.016 A 
ATOM     44  C   UNL A   1      46.304  27.556  25.185  1.00  0.00     0.016 A 
ATOM     45  C   UNL A   1      47.070  27.911  27.865  1.00  0.00     0.010 A 
ATOM     46  C   UNL A   1      46.390  28.840  25.727  1.00  0.00     0.010 A 
ATOM     47  C   UNL A   1      46.738  29.020  27.078  1.00  0.00    -0.014 A 
BRANCH  47  48
ATOM     48  C   UNL A   1      46.491  30.326  27.731  1.00  0.00     0.031 A 
ATOM     49  C   UNL A   1      45.249  30.456  28.572  1.00  0.00     0.074 A 
ATOM     50  C   UNL A   1      47.337  31.363  27.595  1.00  0.00     0.049 A 
ATOM     51  N   UNL A   1      44.764  31.504  29.183  1.00  0.00    -0.248 NA
ATOM     52  C   UNL A   1      44.444  29.234  28.742  1.00  0.00     0.031 C 
ATOM     53  C   UNL A   1      48.593  31.338  26.849  1.00  0.00     0.029 A 
ATOM     54  N   UNL A   1      47.252  32.646  28.074  1.00  0.00    -0.354 N 
ATOM     55  C   UNL A   1      43.594  31.072  29.797  1.00  0.00     0.074 A 
ATOM     56  C   UNL A   1      43.430  29.673  29.471  1.00  0.00     0.031 C 
ATOM     57  C   UNL A   1      49.149  32.563  26.897  1.00  0.00     0.029 A 
ATOM     58  C   UNL A   1      48.272  33.462  27.647  1.00  0.00     0.049 A 
ATOM     59  H   UNL A   1      46.528  32.953  28.667  1.00  0.00     0.167 HD
ATOM     60  C   UNL A   1      42.733  31.780  30.563  1.00  0.00     0.037 A 
ATOM     61  C   UNL A   1      48.454  34.788  27.817  1.00  0.00     0.037 A 
ATOM     62  C   UNL A   1      42.901  33.173  30.878  1.00  0.00     0.049 A 
ATOM     63  C   UNL A   1      47.442  35.574  28.616  1.00  0.00     0.074 A 
ATOM     64  C   UNL A   1      42.099  33.977  31.667  1.00  0.00     0.029 A 
ATOM     65  N   UNL A   1      43.934  33.970  30.408  1.00  0.00    -0.354 N 
ATOM     66  N   UNL A   1      46.354  35.150  29.218  1.00  0.00    -0.248 NA
ATOM     67  C   UNL A   1      47.680  37.017  28.759  1.00  0.00     0.031 C 
ATOM     68  C   UNL A   1      42.615  35.277  31.625  1.00  0.00     0.029 A 
ATOM     69  C   UNL A   1      43.772  35.268  30.862  1.00  0.00     0.049 A 
ATOM     70  H   UNL A   1      44.674  33.660  29.837  1.00  0.00     0.167 HD
ATOM     71  C   UNL A   1      45.795  36.268  29.829  1.00  0.00     0.074 A 
ATOM     72  C   UNL A   1      46.671  37.383  29.537  1.00  0.00     0.031 C 
ATOM     73  C   UNL A   1      44.659  36.366  30.565  1.00  0.00     0.037 A 
BRANCH  60  74
ATOM     74  C   UNL A   1      41.512  31.070  31.078  1.00  0.00     0.058 A 
ATOM     75  C   UNL A   1      40.272  31.156  30.425  1.00  0.00     0.135 A 
ATOM     76  C   UNL A   1      41.596  30.265  32.225  1.00  0.00     0.135 A 
ATOM     77  F   UNL A   1      40.131  31.932  29.339  1.00  0.00    -0.206 F 
ATOM     78  C   UNL A   1      39.153  30.480  30.901  1.00  0.00     0.059 A 
ATOM     79  C   UNL A   1      40.497  29.557  32.703  1.00  0.00     0.059 A 
ATOM     80  F   UNL A   1      42.755  30.157  32.892  1.00  0.00    -0.206 F 
ATOM     81  C   UNL A   1      39.277  29.680  32.039  1.00  0.00     0.060 A 
BRANCH  81  82
ATOM     82  S   UNL A   1      37.820  28.793  32.632  1.00  0.00     0.124 S 
ATOM     83  O   UNL A   1      38.308  27.418  32.661  1.00  0.00    -0.237 OA
ATOM     84  O   UNL A   1      37.591  29.411  33.934  1.00  0.00    -0.237 OA
ATOM     85  O   UNL A   1      36.811  29.079  31.618  1.00  0.00    -0.744 OA
ENDBRANCH  81  82
ENDBRANCH  60  74
BRANCH  61  86
ATOM     86  C   UNL A   1      49.621  35.468  27.191  1.00  0.00     0.058 A 
ATOM     87  C   UNL A   1      50.884  35.462  27.802  1.00  0.00     0.135 A 
ATOM     88  C   UNL A   1      49.492  36.151  25.971  1.00  0.00     0.135 A 
ATOM     89  F   UNL A   1      51.057  34.837  28.977  1.00  0.00    -0.206 F 
ATOM     90  C   UNL A   1      51.973  36.118  27.236  1.00  0.00     0.059 A 
ATOM     91  C   UNL A   1      50.572  36.791  25.371  1.00  0.00     0.059 A 
ATOM     92  F   UNL A   1      48.308  36.186  25.341  1.00  0.00    -0.206 F 
ATOM     93  C   UNL A   1      51.808  36.779  26.017  1.00  0.00     0.060 A 
BRANCH  93  94
ATOM     94  S   UNL A   1      53.238  37.587  25.268  1.00  0.00     0.124 S 
ATOM     95  O   UNL A   1      53.052  37.267  23.857  1.00  0.00    -0.237 OA
ATOM     96  O   UNL A   1      53.030  38.983  25.640  1.00  0.00    -0.237 OA
ATOM     97  O   UNL A   1      54.371  36.936  25.919  1.00  0.00    -0.744 OA
ENDBRANCH  93  94
ENDBRANCH  61  86
BRANCH  73  98
ATOM     98  C   UNL A   1      44.308  37.714  31.136  1.00  0.00     0.058 A 
ATOM     99  C   UNL A   1      43.669  38.698  30.367  1.00  0.00     0.135 A 
ATOM    100  C   UNL A   1      44.553  37.997  32.489  1.00  0.00     0.135 A 
ATOM    101  F   UNL A   1      43.414  38.481  29.066  1.00  0.00    -0.206 F 
ATOM    102  C   UNL A   1      43.306  39.925  30.913  1.00  0.00     0.059 A 
ATOM    103  C   UNL A   1      44.171  39.204  33.065  1.00  0.00     0.059 A 
ATOM    104  F   UNL A   1      45.149  37.085  33.274  1.00  0.00    -0.206 F 
ATOM    105  C   UNL A   1      43.558  40.168  32.265  1.00  0.00     0.060 A 
BRANCH 105 106
ATOM    106  S   UNL A   1      43.048  41.749  32.971  1.00  0.00     0.124 S 
ATOM    107  O   UNL A   1      42.662  42.493  31.776  1.00  0.00    -0.237 OA
ATOM    108  O   UNL A   1      41.954  41.358  33.855  1.00  0.00    -0.237 OA
ATOM    109  O   UNL A   1      44.252  42.226  33.645  1.00  0.00    -0.744 OA
ENDBRANCH 105 106
ENDBRANCH  73  98
ENDBRANCH  47  48
ENDBRANCH  40  42
ENDBRANCH  39  40
ENDBRANCH  38  39
ENDBRANCH  37  38
ENDBRANCH  36  37
ENDBRANCH  35  36
ENDBRANCH  34  35
ENDBRANCH   1  34
TORSDOF 29
ENDMDL
