MODEL 1
REMARK VINA RESULT:      -7.8      0.000      0.000
REMARK SMILES C/C(=N/OCC(=O)OCCOCCOCCOCCOC(=O)c1ccc(-c2c3nc(c(-c4c(F)cc(S(=O)(=O)[O-])cc4F)c4ccc([nH]4)c(-c4c(F)cc(S(=O)(=O)[O-])cc4F)c4nc(c(-c5c(F)cc(S(=O)(=O)[O-])cc5F)c5ccc2[nH]5)C=C4)C=C3)cc1)c1ccc(C)cc1
REMARK SMILES IDX 14 1 13 2 12 3 11 4 10 5 9 6 8 7 6 8 7 9 5 10 4 11 3 12 1 13
REMARK SMILES IDX 2 14 89 15 90 16 95 17 91 18 94 19 92 20 93 21 15 22 16 23
REMARK SMILES IDX 17 24 18 25 19 26 20 27 21 28 22 29 23 30 24 31 88 32 25 33
REMARK SMILES IDX 87 34 26 35 27 36 28 37 81 38 29 39 86 40 80 41 82 42 30 43
REMARK SMILES IDX 85 44 79 45 78 46 31 48 65 49 44 50 64 51 45 52 48 53 63 54
REMARK SMILES IDX 83 55 46 56 47 57 62 59 84 60 49 61 32 62 33 63 42 64 34 65
REMARK SMILES IDX 35 66 41 67 43 68 36 69 37 70 38 71 39 72 40 73 66 74 67 75
REMARK SMILES IDX 76 76 68 77 69 78 75 79 77 80 70 81 71 82 72 83 73 84 74 85
REMARK SMILES IDX 50 86 51 87 60 88 52 89 53 90 59 91 61 92 54 93 55 94 56 95
REMARK SMILES IDX 57 96 58 97
REMARK H PARENT 82 47 48 58
REMARK Flexibility Score: inf
ROOT
ATOM      1  O   UNL A   1      33.376  35.182  32.493  1.00  0.00    -0.377 OA
ENDROOT
BRANCH   1   2
ATOM      2  C   UNL A   1      33.038  36.304  31.703  1.00  0.00     0.188 C 
BRANCH   2   3
ATOM      3  C   UNL A   1      32.972  36.221  30.175  1.00  0.00     0.188 C 
BRANCH   3   4
ATOM      4  O   UNL A   1      32.656  34.955  29.644  1.00  0.00    -0.376 OA
BRANCH   4   5
ATOM      5  C   UNL A   1      33.445  34.276  28.689  1.00  0.00     0.202 C 
BRANCH   5   6
ATOM      6  C   UNL A   1      34.375  33.068  28.938  1.00  0.00     0.261 C 
BRANCH   6   7
ATOM      7  O   UNL A   1      35.565  32.946  28.153  1.00  0.00    -0.461 OA
BRANCH   7   8
ATOM      8  C   UNL A   1      36.457  31.989  28.520  1.00  0.00     0.347 C 
ATOM      9  O   UNL A   1      37.606  32.231  28.884  1.00  0.00    -0.248 OA
BRANCH   8  10
ATOM     10  C   UNL A   1      35.894  30.554  28.527  1.00  0.00     0.386 C 
BRANCH  10  11
ATOM     11  O   UNL A   1      36.738  29.413  28.480  1.00  0.00    -0.384 OA
BRANCH  11  12
ATOM     12  N   UNL A   1      37.142  29.049  29.788  1.00  0.00    -0.091 NA
ATOM     13  C   UNL A   1      38.628  27.626  31.076  1.00  0.00     0.071 C 
ATOM     14  C   UNL A   1      38.249  28.358  29.803  1.00  0.00     0.084 C 
BRANCH  14  15
ATOM     15  C   UNL A   1      39.208  28.267  28.677  1.00  0.00    -0.001 A 
ATOM     16  C   UNL A   1      39.976  29.398  28.388  1.00  0.00     0.010 A 
ATOM     17  C   UNL A   1      39.381  27.091  27.944  1.00  0.00     0.010 A 
ATOM     18  C   UNL A   1      40.874  29.379  27.328  1.00  0.00     0.004 A 
ATOM     19  C   UNL A   1      40.290  27.073  26.883  1.00  0.00     0.004 A 
ATOM     20  C   UNL A   1      41.032  28.220  26.561  1.00  0.00    -0.051 A 
ATOM     21  C   UNL A   1      41.949  28.247  25.375  1.00  0.00     0.044 C 
ENDBRANCH  14  15
ENDBRANCH  11  12
ENDBRANCH  10  11
ENDBRANCH   8  10
ENDBRANCH   7   8
ENDBRANCH   6   7
ENDBRANCH   5   6
ENDBRANCH   4   5
ENDBRANCH   3   4
ENDBRANCH   2   3
ENDBRANCH   1   2
BRANCH   1  22
ATOM     22  C   UNL A   1      34.464  35.353  33.370  1.00  0.00     0.188 C 
BRANCH  22  23
ATOM     23  C   UNL A   1      35.798  34.964  32.712  1.00  0.00     0.188 C 
BRANCH  23  24
ATOM     24  O   UNL A   1      36.685  34.031  33.325  1.00  0.00    -0.376 OA
BRANCH  24  25
ATOM     25  C   UNL A   1      37.198  32.918  32.608  1.00  0.00     0.202 C 
BRANCH  25  26
ATOM     26  C   UNL A   1      36.851  31.476  33.025  1.00  0.00     0.261 C 
BRANCH  26  27
ATOM     27  O   UNL A   1      37.829  30.464  32.761  1.00  0.00    -0.460 OA
BRANCH  27  28
ATOM     28  C   UNL A   1      38.728  30.258  33.754  1.00  0.00     0.338 C 
ATOM     29  O   UNL A   1      38.493  30.018  34.922  1.00  0.00    -0.246 OA
BRANCH  28  30
ATOM     30  C   UNL A   1      40.086  30.222  33.172  1.00  0.00     0.060 A 
ATOM     31  C   UNL A   1      40.344  30.990  32.027  1.00  0.00     0.016 A 
ATOM     32  C   UNL A   1      41.077  29.404  33.717  1.00  0.00     0.016 A 
ATOM     33  C   UNL A   1      41.586  30.924  31.403  1.00  0.00     0.010 A 
ATOM     34  C   UNL A   1      42.309  29.308  33.068  1.00  0.00     0.010 A 
ATOM     35  C   UNL A   1      42.553  30.040  31.891  1.00  0.00    -0.014 A 
BRANCH  35  36
ATOM     36  C   UNL A   1      43.714  29.684  31.045  1.00  0.00     0.031 A 
ATOM     37  C   UNL A   1      43.623  28.421  30.235  1.00  0.00     0.074 A 
ATOM     38  C   UNL A   1      44.816  30.449  31.008  1.00  0.00     0.049 A 
ATOM     39  N   UNL A   1      44.541  27.816  29.532  1.00  0.00    -0.248 NA
ATOM     40  C   UNL A   1      42.314  27.744  30.230  1.00  0.00     0.031 C 
ATOM     41  C   UNL A   1      44.979  31.733  31.687  1.00  0.00     0.029 A 
ATOM     42  N   UNL A   1      46.017  30.243  30.379  1.00  0.00    -0.354 N 
ATOM     43  C   UNL A   1      43.934  26.671  29.029  1.00  0.00     0.074 A 
ATOM     44  C   UNL A   1      42.574  26.659  29.517  1.00  0.00     0.031 C 
ATOM     45  C   UNL A   1      46.220  32.194  31.451  1.00  0.00     0.029 A 
ATOM     46  C   UNL A   1      46.952  31.214  30.649  1.00  0.00     0.049 A 
ATOM     47  H   UNL A   1      46.193  29.474  29.791  1.00  0.00     0.167 HD
ATOM     48  C   UNL A   1      44.470  25.713  28.238  1.00  0.00     0.037 A 
ATOM     49  C   UNL A   1      48.256  31.279  30.312  1.00  0.00     0.037 A 
ATOM     50  C   UNL A   1      45.828  25.744  27.766  1.00  0.00     0.049 A 
ATOM     51  C   UNL A   1      48.860  30.155  29.508  1.00  0.00     0.074 A 
ATOM     52  C   UNL A   1      46.473  24.840  26.943  1.00  0.00     0.029 A 
ATOM     53  N   UNL A   1      46.755  26.725  28.091  1.00  0.00    -0.354 N 
ATOM     54  N   UNL A   1      48.282  29.078  29.030  1.00  0.00    -0.248 NA
ATOM     55  C   UNL A   1      50.295  30.248  29.204  1.00  0.00     0.031 C 
ATOM     56  C   UNL A   1      47.809  25.237  26.827  1.00  0.00     0.029 A 
ATOM     57  C   UNL A   1      47.977  26.430  27.513  1.00  0.00     0.049 A 
ATOM     58  H   UNL A   1      46.570  27.515  28.649  1.00  0.00     0.167 HD
ATOM     59  C   UNL A   1      49.268  28.391  28.329  1.00  0.00     0.074 A 
ATOM     60  C   UNL A   1      50.484  29.167  28.458  1.00  0.00     0.031 C 
ATOM     61  C   UNL A   1      49.172  27.231  27.633  1.00  0.00     0.037 A 
BRANCH  48  62
ATOM     62  C   UNL A   1      43.607  24.530  27.894  1.00  0.00     0.058 A 
ATOM     63  C   UNL A   1      43.396  23.468  28.788  1.00  0.00     0.135 A 
ATOM     64  C   UNL A   1      42.983  24.458  26.637  1.00  0.00     0.135 A 
ATOM     65  F   UNL A   1      43.982  23.473  29.997  1.00  0.00    -0.206 F 
ATOM     66  C   UNL A   1      42.634  22.360  28.433  1.00  0.00     0.059 A 
ATOM     67  C   UNL A   1      42.188  23.376  26.275  1.00  0.00     0.059 A 
ATOM     68  F   UNL A   1      43.151  25.443  25.741  1.00  0.00    -0.206 F 
ATOM     69  C   UNL A   1      42.037  22.321  27.172  1.00  0.00     0.060 A 
BRANCH  69  70
ATOM     70  S   UNL A   1      41.072  20.865  26.716  1.00  0.00     0.124 S 
ATOM     71  O   UNL A   1      41.923  20.260  25.697  1.00  0.00    -0.237 OA
ATOM     72  O   UNL A   1      40.985  20.142  27.980  1.00  0.00    -0.237 OA
ATOM     73  O   UNL A   1      39.816  21.427  26.231  1.00  0.00    -0.744 OA
ENDBRANCH  69  70
ENDBRANCH  48  62
BRANCH  49  74
ATOM     74  C   UNL A   1      49.073  32.448  30.731  1.00  0.00     0.058 A 
ATOM     75  C   UNL A   1      49.120  33.608  29.942  1.00  0.00     0.135 A 
ATOM     76  C   UNL A   1      49.804  32.446  31.929  1.00  0.00     0.135 A 
ATOM     77  F   UNL A   1      48.450  33.655  28.780  1.00  0.00    -0.206 F 
ATOM     78  C   UNL A   1      49.863  34.720  30.323  1.00  0.00     0.059 A 
ATOM     79  C   UNL A   1      50.533  33.556  32.345  1.00  0.00     0.059 A 
ATOM     80  F   UNL A   1      49.789  31.364  32.725  1.00  0.00    -0.206 F 
ATOM     81  C   UNL A   1      50.560  34.687  31.531  1.00  0.00     0.060 A 
BRANCH  81  82
ATOM     82  S   UNL A   1      51.465  36.164  32.044  1.00  0.00     0.124 S 
ATOM     83  O   UNL A   1      50.578  36.714  33.063  1.00  0.00    -0.237 OA
ATOM     84  O   UNL A   1      52.720  35.597  32.528  1.00  0.00    -0.237 OA
ATOM     85  O   UNL A   1      51.568  36.939  30.812  1.00  0.00    -0.744 OA
ENDBRANCH  81  82
ENDBRANCH  49  74
BRANCH  61  86
ATOM     86  C   UNL A   1      50.387  26.748  26.890  1.00  0.00     0.058 A 
ATOM     87  C   UNL A   1      50.665  27.146  25.575  1.00  0.00     0.135 A 
ATOM     88  C   UNL A   1      51.351  25.972  27.559  1.00  0.00     0.135 A 
ATOM     89  F   UNL A   1      49.773  27.879  24.888  1.00  0.00    -0.206 F 
ATOM     90  C   UNL A   1      51.857  26.798  24.949  1.00  0.00     0.059 A 
ATOM     91  C   UNL A   1      52.561  25.637  26.963  1.00  0.00     0.059 A 
ATOM     92  F   UNL A   1      51.137  25.571  28.823  1.00  0.00    -0.206 F 
ATOM     93  C   UNL A   1      52.807  26.056  25.657  1.00  0.00     0.060 A 
BRANCH  93  94
ATOM     94  S   UNL A   1      54.388  25.693  24.865  1.00  0.00     0.124 S 
ATOM     95  O   UNL A   1      55.297  26.556  25.612  1.00  0.00    -0.237 OA
ATOM     96  O   UNL A   1      54.533  24.260  25.105  1.00  0.00    -0.237 OA
ATOM     97  O   UNL A   1      54.166  26.070  23.472  1.00  0.00    -0.744 OA
ENDBRANCH  93  94
ENDBRANCH  61  86
ENDBRANCH  35  36
ENDBRANCH  28  30
ENDBRANCH  27  28
ENDBRANCH  26  27
ENDBRANCH  25  26
ENDBRANCH  24  25
ENDBRANCH  23  24
ENDBRANCH  22  23
ENDBRANCH   1  22
TORSDOF 26
ENDMDL
MODEL 2
REMARK VINA RESULT:      -6.3      6.665     10.677
REMARK SMILES C/C(=N/OCC(=O)OCCOCCOCCOCCOC(=O)c1ccc(-c2c3nc(c(-c4c(F)cc(S(=O)(=O)[O-])cc4F)c4ccc([nH]4)c(-c4c(F)cc(S(=O)(=O)[O-])cc4F)c4nc(c(-c5c(F)cc(S(=O)(=O)[O-])cc5F)c5ccc2[nH]5)C=C4)C=C3)cc1)c1ccc(C)cc1
REMARK SMILES IDX 14 1 13 2 12 3 11 4 10 5 9 6 8 7 6 8 7 9 5 10 4 11 3 12 1 13
REMARK SMILES IDX 2 14 89 15 90 16 95 17 91 18 94 19 92 20 93 21 15 22 16 23
REMARK SMILES IDX 17 24 18 25 19 26 20 27 21 28 22 29 23 30 24 31 88 32 25 33
REMARK SMILES IDX 87 34 26 35 27 36 28 37 81 38 29 39 86 40 80 41 82 42 30 43
REMARK SMILES IDX 85 44 79 45 78 46 31 48 65 49 44 50 64 51 45 52 48 53 63 54
REMARK SMILES IDX 83 55 46 56 47 57 62 59 84 60 49 61 32 62 33 63 42 64 34 65
REMARK SMILES IDX 35 66 41 67 43 68 36 69 37 70 38 71 39 72 40 73 66 74 67 75
REMARK SMILES IDX 76 76 68 77 69 78 75 79 77 80 70 81 71 82 72 83 73 84 74 85
REMARK SMILES IDX 50 86 51 87 60 88 52 89 53 90 59 91 61 92 54 93 55 94 56 95
REMARK SMILES IDX 57 96 58 97
REMARK H PARENT 82 47 48 58
REMARK Flexibility Score: inf
ROOT
ATOM      1  O   UNL A   1      32.913  34.919  32.094  1.00  0.00    -0.377 OA
ENDROOT
BRANCH   1   2
ATOM      2  C   UNL A   1      32.675  36.270  31.756  1.00  0.00     0.188 C 
BRANCH   2   3
ATOM      3  C   UNL A   1      33.105  36.850  30.405  1.00  0.00     0.188 C 
BRANCH   3   4
ATOM      4  O   UNL A   1      32.490  36.284  29.272  1.00  0.00    -0.376 OA
BRANCH   4   5
ATOM      5  C   UNL A   1      33.007  35.183  28.555  1.00  0.00     0.202 C 
BRANCH   5   6
ATOM      6  C   UNL A   1      34.362  34.477  28.780  1.00  0.00     0.261 C 
BRANCH   6   7
ATOM      7  O   UNL A   1      34.380  33.245  29.507  1.00  0.00    -0.461 OA
BRANCH   7   8
ATOM      8  C   UNL A   1      34.548  32.101  28.790  1.00  0.00     0.347 C 
ATOM      9  O   UNL A   1      33.888  31.821  27.791  1.00  0.00    -0.248 OA
BRANCH   8  10
ATOM     10  C   UNL A   1      35.698  31.199  29.278  1.00  0.00     0.386 C 
BRANCH  10  11
ATOM     11  O   UNL A   1      36.888  31.022  28.525  1.00  0.00    -0.384 OA
BRANCH  11  12
ATOM     12  N   UNL A   1      37.940  31.790  29.082  1.00  0.00    -0.091 NA
ATOM     13  C   UNL A   1      39.910  31.714  30.497  1.00  0.00     0.071 C 
ATOM     14  C   UNL A   1      38.893  31.054  29.587  1.00  0.00     0.084 C 
BRANCH  14  15
ATOM     15  C   UNL A   1      39.096  29.616  29.300  1.00  0.00    -0.001 A 
ATOM     16  C   UNL A   1      39.707  29.277  28.090  1.00  0.00     0.010 A 
ATOM     17  C   UNL A   1      38.734  28.620  30.210  1.00  0.00     0.010 A 
ATOM     18  C   UNL A   1      39.902  27.941  27.757  1.00  0.00     0.004 A 
ATOM     19  C   UNL A   1      38.937  27.279  29.875  1.00  0.00     0.004 A 
ATOM     20  C   UNL A   1      39.510  26.932  28.642  1.00  0.00    -0.051 A 
ATOM     21  C   UNL A   1      39.659  25.498  28.228  1.00  0.00     0.044 C 
ENDBRANCH  14  15
ENDBRANCH  11  12
ENDBRANCH  10  11
ENDBRANCH   8  10
ENDBRANCH   7   8
ENDBRANCH   6   7
ENDBRANCH   5   6
ENDBRANCH   4   5
ENDBRANCH   3   4
ENDBRANCH   2   3
ENDBRANCH   1   2
BRANCH   1  22
ATOM     22  C   UNL A   1      34.120  34.659  32.772  1.00  0.00     0.188 C 
BRANCH  22  23
ATOM     23  C   UNL A   1      34.285  33.165  33.094  1.00  0.00     0.188 C 
BRANCH  23  24
ATOM     24  O   UNL A   1      35.515  32.644  33.594  1.00  0.00    -0.376 OA
BRANCH  24  25
ATOM     25  C   UNL A   1      36.400  31.910  32.762  1.00  0.00     0.202 C 
BRANCH  25  26
ATOM     26  C   UNL A   1      37.029  30.587  33.242  1.00  0.00     0.261 C 
BRANCH  26  27
ATOM     27  O   UNL A   1      38.395  30.627  33.668  1.00  0.00    -0.460 OA
BRANCH  27  28
ATOM     28  C   UNL A   1      38.581  30.878  34.987  1.00  0.00     0.338 C 
ATOM     29  O   UNL A   1      38.201  30.206  35.925  1.00  0.00    -0.246 OA
BRANCH  28  30
ATOM     30  C   UNL A   1      39.468  32.051  35.132  1.00  0.00     0.060 A 
ATOM     31  C   UNL A   1      38.957  33.319  34.817  1.00  0.00     0.016 A 
ATOM     32  C   UNL A   1      40.799  31.899  35.522  1.00  0.00     0.016 A 
ATOM     33  C   UNL A   1      39.780  34.440  34.866  1.00  0.00     0.010 A 
ATOM     34  C   UNL A   1      41.634  33.017  35.533  1.00  0.00     0.010 A 
ATOM     35  C   UNL A   1      41.136  34.283  35.170  1.00  0.00    -0.014 A 
BRANCH  35  36
ATOM     36  C   UNL A   1      42.087  35.375  34.867  1.00  0.00     0.031 A 
ATOM     37  C   UNL A   1      42.588  35.490  33.455  1.00  0.00     0.074 A 
ATOM     38  C   UNL A   1      42.501  36.228  35.818  1.00  0.00     0.049 A 
ATOM     39  N   UNL A   1      43.522  36.258  32.964  1.00  0.00    -0.248 NA
ATOM     40  C   UNL A   1      41.951  34.605  32.464  1.00  0.00     0.031 C 
ATOM     41  C   UNL A   1      42.018  36.258  37.197  1.00  0.00     0.029 A 
ATOM     42  N   UNL A   1      43.440  37.226  35.765  1.00  0.00    -0.354 N 
ATOM     43  C   UNL A   1      43.609  35.927  31.617  1.00  0.00     0.074 A 
ATOM     44  C   UNL A   1      42.643  34.880  31.371  1.00  0.00     0.031 C 
ATOM     45  C   UNL A   1      42.679  37.219  37.867  1.00  0.00     0.029 A 
ATOM     46  C   UNL A   1      43.665  37.833  36.978  1.00  0.00     0.049 A 
ATOM     47  H   UNL A   1      43.909  37.483  34.938  1.00  0.00     0.167 HD
ATOM     48  C   UNL A   1      44.430  36.446  30.675  1.00  0.00     0.037 A 
ATOM     49  C   UNL A   1      44.586  38.753  37.328  1.00  0.00     0.037 A 
ATOM     50  C   UNL A   1      45.386  37.486  30.943  1.00  0.00     0.049 A 
ATOM     51  C   UNL A   1      45.554  39.253  36.285  1.00  0.00     0.074 A 
ATOM     52  C   UNL A   1      46.254  38.103  30.063  1.00  0.00     0.029 A 
ATOM     53  N   UNL A   1      45.610  38.051  32.191  1.00  0.00    -0.354 N 
ATOM     54  N   UNL A   1      45.630  38.941  35.012  1.00  0.00    -0.248 NA
ATOM     55  C   UNL A   1      46.569  40.221  36.725  1.00  0.00     0.031 C 
ATOM     56  C   UNL A   1      47.052  38.991  30.792  1.00  0.00     0.029 A 
ATOM     57  C   UNL A   1      46.628  38.984  32.112  1.00  0.00     0.049 A 
ATOM     58  H   UNL A   1      45.117  37.821  33.012  1.00  0.00     0.167 HD
ATOM     59  C   UNL A   1      46.665  39.709  34.490  1.00  0.00     0.074 A 
ATOM     60  C   UNL A   1      47.197  40.490  35.587  1.00  0.00     0.031 C 
ATOM     61  C   UNL A   1      47.126  39.772  33.215  1.00  0.00     0.037 A 
BRANCH  48  62
ATOM     62  C   UNL A   1      44.370  35.851  29.294  1.00  0.00     0.058 A 
ATOM     63  C   UNL A   1      43.426  36.262  28.340  1.00  0.00     0.135 A 
ATOM     64  C   UNL A   1      45.278  34.845  28.923  1.00  0.00     0.135 A 
ATOM     65  F   UNL A   1      42.522  37.207  28.644  1.00  0.00    -0.206 F 
ATOM     66  C   UNL A   1      43.355  35.666  27.084  1.00  0.00     0.059 A 
ATOM     67  C   UNL A   1      45.248  34.260  27.662  1.00  0.00     0.059 A 
ATOM     68  F   UNL A   1      46.201  34.411  29.795  1.00  0.00    -0.206 F 
ATOM     69  C   UNL A   1      44.268  34.662  26.756  1.00  0.00     0.060 A 
BRANCH  69  70
ATOM     70  S   UNL A   1      44.148  33.881  25.133  1.00  0.00     0.124 S 
ATOM     71  O   UNL A   1      42.927  34.485  24.609  1.00  0.00    -0.237 OA
ATOM     72  O   UNL A   1      45.390  34.303  24.493  1.00  0.00    -0.237 OA
ATOM     73  O   UNL A   1      44.059  32.458  25.445  1.00  0.00    -0.744 OA
ENDBRANCH  69  70
ENDBRANCH  48  62
BRANCH  49  74
ATOM     74  C   UNL A   1      44.632  39.262  38.724  1.00  0.00     0.058 A 
ATOM     75  C   UNL A   1      43.977  40.452  39.074  1.00  0.00     0.135 A 
ATOM     76  C   UNL A   1      45.309  38.569  39.739  1.00  0.00     0.135 A 
ATOM     77  F   UNL A   1      43.328  41.161  38.137  1.00  0.00    -0.206 F 
ATOM     78  C   UNL A   1      43.991  40.938  40.377  1.00  0.00     0.059 A 
ATOM     79  C   UNL A   1      45.315  39.019  41.056  1.00  0.00     0.059 A 
ATOM     80  F   UNL A   1      45.947  37.421  39.461  1.00  0.00    -0.206 F 
ATOM     81  C   UNL A   1      44.657  40.209  41.364  1.00  0.00     0.060 A 
BRANCH  81  82
ATOM     82  S   UNL A   1      44.609  40.816  43.064  1.00  0.00     0.124 S 
ATOM     83  O   UNL A   1      43.210  41.204  43.200  1.00  0.00    -0.237 OA
ATOM     84  O   UNL A   1      45.023  39.637  43.819  1.00  0.00    -0.237 OA
ATOM     85  O   UNL A   1      45.571  41.915  43.055  1.00  0.00    -0.744 OA
ENDBRANCH  81  82
ENDBRANCH  49  74
BRANCH  61  86
ATOM     86  C   UNL A   1      48.214  40.761  32.902  1.00  0.00     0.058 A 
ATOM     87  C   UNL A   1      47.936  42.090  32.553  1.00  0.00     0.135 A 
ATOM     88  C   UNL A   1      49.561  40.396  33.079  1.00  0.00     0.135 A 
ATOM     89  F   UNL A   1      46.668  42.488  32.362  1.00  0.00    -0.206 F 
ATOM     90  C   UNL A   1      48.953  43.026  32.396  1.00  0.00     0.059 A 
ATOM     91  C   UNL A   1      50.591  41.321  32.956  1.00  0.00     0.059 A 
ATOM     92  F   UNL A   1      49.880  39.137  33.420  1.00  0.00    -0.206 F 
ATOM     93  C   UNL A   1      50.277  42.636  32.615  1.00  0.00     0.060 A 
BRANCH  93  94
ATOM     94  S   UNL A   1      51.578  43.882  32.501  1.00  0.00     0.124 S 
ATOM     95  O   UNL A   1      50.799  45.112  32.386  1.00  0.00    -0.237 OA
ATOM     96  O   UNL A   1      52.293  43.700  33.761  1.00  0.00    -0.237 OA
ATOM     97  O   UNL A   1      52.318  43.495  31.305  1.00  0.00    -0.744 OA
ENDBRANCH  93  94
ENDBRANCH  61  86
ENDBRANCH  35  36
ENDBRANCH  28  30
ENDBRANCH  27  28
ENDBRANCH  26  27
ENDBRANCH  25  26
ENDBRANCH  24  25
ENDBRANCH  23  24
ENDBRANCH  22  23
ENDBRANCH   1  22
TORSDOF 26
ENDMDL
MODEL 3
REMARK VINA RESULT:      -6.2      7.929     12.222
REMARK SMILES C/C(=N/OCC(=O)OCCOCCOCCOCCOC(=O)c1ccc(-c2c3nc(c(-c4c(F)cc(S(=O)(=O)[O-])cc4F)c4ccc([nH]4)c(-c4c(F)cc(S(=O)(=O)[O-])cc4F)c4nc(c(-c5c(F)cc(S(=O)(=O)[O-])cc5F)c5ccc2[nH]5)C=C4)C=C3)cc1)c1ccc(C)cc1
REMARK SMILES IDX 14 1 13 2 12 3 11 4 10 5 9 6 8 7 6 8 7 9 5 10 4 11 3 12 1 13
REMARK SMILES IDX 2 14 89 15 90 16 95 17 91 18 94 19 92 20 93 21 15 22 16 23
REMARK SMILES IDX 17 24 18 25 19 26 20 27 21 28 22 29 23 30 24 31 88 32 25 33
REMARK SMILES IDX 87 34 26 35 27 36 28 37 81 38 29 39 86 40 80 41 82 42 30 43
REMARK SMILES IDX 85 44 79 45 78 46 31 48 65 49 44 50 64 51 45 52 48 53 63 54
REMARK SMILES IDX 83 55 46 56 47 57 62 59 84 60 49 61 32 62 33 63 42 64 34 65
REMARK SMILES IDX 35 66 41 67 43 68 36 69 37 70 38 71 39 72 40 73 66 74 67 75
REMARK SMILES IDX 76 76 68 77 69 78 75 79 77 80 70 81 71 82 72 83 73 84 74 85
REMARK SMILES IDX 50 86 51 87 60 88 52 89 53 90 59 91 61 92 54 93 55 94 56 95
REMARK SMILES IDX 57 96 58 97
REMARK H PARENT 82 47 48 58
REMARK Flexibility Score: inf
ROOT
ATOM      1  O   UNL A   1      37.990  33.335  34.462  1.00  0.00    -0.377 OA
ENDROOT
BRANCH   1   2
ATOM      2  C   UNL A   1      37.373  34.221  33.551  1.00  0.00     0.188 C 
BRANCH   2   3
ATOM      3  C   UNL A   1      35.854  34.416  33.520  1.00  0.00     0.188 C 
BRANCH   3   4
ATOM      4  O   UNL A   1      35.408  35.705  33.171  1.00  0.00    -0.376 OA
BRANCH   4   5
ATOM      5  C   UNL A   1      34.136  36.222  33.502  1.00  0.00     0.202 C 
BRANCH   5   6
ATOM      6  C   UNL A   1      33.100  36.837  32.537  1.00  0.00     0.261 C 
BRANCH   6   7
ATOM      7  O   UNL A   1      33.458  37.002  31.161  1.00  0.00    -0.461 OA
BRANCH   7   8
ATOM      8  C   UNL A   1      32.924  36.125  30.270  1.00  0.00     0.347 C 
ATOM      9  O   UNL A   1      32.154  36.453  29.369  1.00  0.00    -0.248 OA
BRANCH   8  10
ATOM     10  C   UNL A   1      33.420  34.674  30.419  1.00  0.00     0.386 C 
BRANCH  10  11
ATOM     11  O   UNL A   1      33.767  33.876  29.297  1.00  0.00    -0.384 OA
BRANCH  11  12
ATOM     12  N   UNL A   1      35.114  34.114  28.925  1.00  0.00    -0.091 NA
ATOM     13  C   UNL A   1      37.229  33.061  28.373  1.00  0.00     0.071 C 
ATOM     14  C   UNL A   1      35.718  33.041  28.494  1.00  0.00     0.084 C 
BRANCH  14  15
ATOM     15  C   UNL A   1      35.036  31.800  28.060  1.00  0.00    -0.001 A 
ATOM     16  C   UNL A   1      33.707  31.904  27.641  1.00  0.00     0.010 A 
ATOM     17  C   UNL A   1      35.692  30.567  28.026  1.00  0.00     0.010 A 
ATOM     18  C   UNL A   1      33.010  30.768  27.245  1.00  0.00     0.004 A 
ATOM     19  C   UNL A   1      34.990  29.429  27.621  1.00  0.00     0.004 A 
ATOM     20  C   UNL A   1      33.642  29.521  27.241  1.00  0.00    -0.051 A 
ATOM     21  C   UNL A   1      32.847  28.300  26.885  1.00  0.00     0.044 C 
ENDBRANCH  14  15
ENDBRANCH  11  12
ENDBRANCH  10  11
ENDBRANCH   8  10
ENDBRANCH   7   8
ENDBRANCH   6   7
ENDBRANCH   5   6
ENDBRANCH   4   5
ENDBRANCH   3   4
ENDBRANCH   2   3
ENDBRANCH   1   2
BRANCH   1  22
ATOM     22  C   UNL A   1      37.392  32.066  34.586  1.00  0.00     0.188 C 
BRANCH  22  23
ATOM     23  C   UNL A   1      38.374  31.021  35.137  1.00  0.00     0.188 C 
BRANCH  23  24
ATOM     24  O   UNL A   1      38.514  29.739  34.528  1.00  0.00    -0.376 OA
BRANCH  24  25
ATOM     25  C   UNL A   1      38.106  29.509  33.188  1.00  0.00     0.202 C 
BRANCH  25  26
ATOM     26  C   UNL A   1      38.791  28.435  32.322  1.00  0.00     0.261 C 
BRANCH  26  27
ATOM     27  O   UNL A   1      39.773  28.879  31.380  1.00  0.00    -0.460 OA
BRANCH  27  28
ATOM     28  C   UNL A   1      39.354  29.842  30.522  1.00  0.00     0.338 C 
ATOM     29  O   UNL A   1      38.442  29.770  29.724  1.00  0.00    -0.246 OA
BRANCH  28  30
ATOM     30  C   UNL A   1      40.096  31.089  30.801  1.00  0.00     0.060 A 
ATOM     31  C   UNL A   1      41.495  31.030  30.892  1.00  0.00     0.016 A 
ATOM     32  C   UNL A   1      39.421  32.290  31.020  1.00  0.00     0.016 A 
ATOM     33  C   UNL A   1      42.225  32.165  31.228  1.00  0.00     0.010 A 
ATOM     34  C   UNL A   1      40.150  33.419  31.396  1.00  0.00     0.010 A 
ATOM     35  C   UNL A   1      41.549  33.350  31.536  1.00  0.00    -0.014 A 
BRANCH  35  36
ATOM     36  C   UNL A   1      42.260  34.437  32.244  1.00  0.00     0.031 A 
ATOM     37  C   UNL A   1      42.291  34.386  33.746  1.00  0.00     0.074 A 
ATOM     38  C   UNL A   1      42.848  35.442  31.576  1.00  0.00     0.049 A 
ATOM     39  N   UNL A   1      42.718  35.277  34.600  1.00  0.00    -0.248 NA
ATOM     40  C   UNL A   1      41.753  33.163  34.367  1.00  0.00     0.031 C 
ATOM     41  C   UNL A   1      42.949  35.547  30.122  1.00  0.00     0.029 A 
ATOM     42  N   UNL A   1      43.458  36.579  32.042  1.00  0.00    -0.354 N 
ATOM     43  C   UNL A   1      42.471  34.738  35.857  1.00  0.00     0.074 A 
ATOM     44  C   UNL A   1      41.845  33.451  35.655  1.00  0.00     0.031 C 
ATOM     45  C   UNL A   1      43.571  36.699  29.812  1.00  0.00     0.029 A 
ATOM     46  C   UNL A   1      43.863  37.432  31.043  1.00  0.00     0.049 A 
ATOM     47  H   UNL A   1      43.592  36.766  32.999  1.00  0.00     0.167 HD
ATOM     48  C   UNL A   1      42.735  35.277  37.070  1.00  0.00     0.037 A 
ATOM     49  C   UNL A   1      44.379  38.676  31.123  1.00  0.00     0.037 A 
ATOM     50  C   UNL A   1      43.356  36.562  37.247  1.00  0.00     0.049 A 
ATOM     51  C   UNL A   1      44.581  39.298  32.483  1.00  0.00     0.074 A 
ATOM     52  C   UNL A   1      43.691  37.199  38.427  1.00  0.00     0.029 A 
ATOM     53  N   UNL A   1      43.720  37.413  36.212  1.00  0.00    -0.354 N 
ATOM     54  N   UNL A   1      44.350  38.784  33.669  1.00  0.00    -0.248 NA
ATOM     55  C   UNL A   1      45.102  40.672  32.517  1.00  0.00     0.031 C 
ATOM     56  C   UNL A   1      44.193  38.465  38.108  1.00  0.00     0.029 A 
ATOM     57  C   UNL A   1      44.244  38.585  36.727  1.00  0.00     0.049 A 
ATOM     58  H   UNL A   1      43.620  37.212  35.253  1.00  0.00     0.167 HD
ATOM     59  C   UNL A   1      44.745  39.750  34.589  1.00  0.00     0.074 A 
ATOM     60  C   UNL A   1      45.214  40.885  33.822  1.00  0.00     0.031 C 
ATOM     61  C   UNL A   1      44.730  39.697  35.944  1.00  0.00     0.037 A 
BRANCH  48  62
ATOM     62  C   UNL A   1      42.295  34.508  38.285  1.00  0.00     0.058 A 
ATOM     63  C   UNL A   1      41.012  34.649  38.840  1.00  0.00     0.135 A 
ATOM     64  C   UNL A   1      43.180  33.614  38.909  1.00  0.00     0.135 A 
ATOM     65  F   UNL A   1      40.129  35.503  38.298  1.00  0.00    -0.206 F 
ATOM     66  C   UNL A   1      40.640  33.966  39.994  1.00  0.00     0.059 A 
ATOM     67  C   UNL A   1      42.817  32.894  40.042  1.00  0.00     0.059 A 
ATOM     68  F   UNL A   1      44.419  33.440  38.424  1.00  0.00    -0.206 F 
ATOM     69  C   UNL A   1      41.552  33.093  40.590  1.00  0.00     0.060 A 
BRANCH  69  70
ATOM     70  S   UNL A   1      41.064  32.232  42.100  1.00  0.00     0.124 S 
ATOM     71  O   UNL A   1      41.977  32.818  43.076  1.00  0.00    -0.237 OA
ATOM     72  O   UNL A   1      39.662  32.613  42.235  1.00  0.00    -0.237 OA
ATOM     73  O   UNL A   1      41.302  30.828  41.784  1.00  0.00    -0.744 OA
ENDBRANCH  69  70
ENDBRANCH  48  62
BRANCH  49  74
ATOM     74  C   UNL A   1      44.743  39.409  29.882  1.00  0.00     0.058 A 
ATOM     75  C   UNL A   1      46.040  39.325  29.355  1.00  0.00     0.135 A 
ATOM     76  C   UNL A   1      43.806  40.190  29.186  1.00  0.00     0.135 A 
ATOM     77  F   UNL A   1      46.976  38.604  29.991  1.00  0.00    -0.206 F 
ATOM     78  C   UNL A   1      46.397  39.988  28.186  1.00  0.00     0.059 A 
ATOM     79  C   UNL A   1      44.132  40.840  28.000  1.00  0.00     0.059 A 
ATOM     80  F   UNL A   1      42.549  40.300  29.643  1.00  0.00    -0.206 F 
ATOM     81  C   UNL A   1      45.433  40.737  27.510  1.00  0.00     0.060 A 
BRANCH  81  82
ATOM     82  S   UNL A   1      45.894  41.536  25.958  1.00  0.00     0.124 S 
ATOM     83  O   UNL A   1      45.056  40.825  24.999  1.00  0.00    -0.237 OA
ATOM     84  O   UNL A   1      45.534  42.927  26.214  1.00  0.00    -0.237 OA
ATOM     85  O   UNL A   1      47.327  41.274  25.858  1.00  0.00    -0.744 OA
ENDBRANCH  81  82
ENDBRANCH  49  74
BRANCH  61  86
ATOM     86  C   UNL A   1      45.298  40.862  36.705  1.00  0.00     0.058 A 
ATOM     87  C   UNL A   1      46.636  40.902  37.120  1.00  0.00     0.135 A 
ATOM     88  C   UNL A   1      44.513  42.011  36.909  1.00  0.00     0.135 A 
ATOM     89  F   UNL A   1      47.426  39.828  36.958  1.00  0.00    -0.206 F 
ATOM     90  C   UNL A   1      47.180  42.041  37.705  1.00  0.00     0.059 A 
ATOM     91  C   UNL A   1      45.043  43.170  37.465  1.00  0.00     0.059 A 
ATOM     92  F   UNL A   1      43.226  42.027  36.524  1.00  0.00    -0.206 F 
ATOM     93  C   UNL A   1      46.380  43.176  37.860  1.00  0.00     0.060 A 
BRANCH  93  94
ATOM     94  S   UNL A   1      47.124  44.676  38.533  1.00  0.00     0.124 S 
ATOM     95  O   UNL A   1      45.946  45.489  38.816  1.00  0.00    -0.237 OA
ATOM     96  O   UNL A   1      47.841  44.170  39.699  1.00  0.00    -0.237 OA
ATOM     97  O   UNL A   1      47.970  45.155  37.444  1.00  0.00    -0.744 OA
ENDBRANCH  93  94
ENDBRANCH  61  86
ENDBRANCH  35  36
ENDBRANCH  28  30
ENDBRANCH  27  28
ENDBRANCH  26  27
ENDBRANCH  25  26
ENDBRANCH  24  25
ENDBRANCH  23  24
ENDBRANCH  22  23
ENDBRANCH   1  22
TORSDOF 26
ENDMDL
