MODEL 1
REMARK VINA RESULT:     -11.4      0.000      0.000
REMARK SMILES COc1cccc(-c2nn(-c3cc4c(cc3C(N)=O)OCO4)cc2C(=O)OCCOCCOCCOCCOC(=O)c2ccc(-c3c4nc(c(-c5c(F)cc(S(=O)(=O)[O-])cc5F)c5ccc([nH]5)c(-c5c(F)cc(S(=O)(=O)[O-])cc5F)c5nc(c(-c6c(F)cc(S(=O)(=O)[O-])cc6F)c6ccc3[nH]6)C=C5)C=C4)cc2)c1
REMARK SMILES IDX 34 1 33 2 32 3 31 4 30 5 29 6 28 7 27 8 25 9 26 10 24 11
REMARK SMILES IDX 8 12 9 13 10 14 23 15 7 16 3 17 4 18 108 19 5 20 6 21 2 22
REMARK SMILES IDX 1 23 11 24 12 25 16 26 13 27 15 28 14 29 22 30 20 31 21 32
REMARK SMILES IDX 17 33 18 34 19 35 35 38 36 39 37 40 38 41 39 42 40 43 41 44
REMARK SMILES IDX 42 45 43 46 107 47 44 48 106 49 45 50 46 51 47 52 100 53
REMARK SMILES IDX 48 54 105 55 99 56 101 57 49 58 104 59 98 60 97 61 50 63
REMARK SMILES IDX 84 64 63 65 83 66 64 67 67 68 82 69 102 70 65 71 66 72 81 74
REMARK SMILES IDX 103 75 68 76 51 77 52 78 61 79 53 80 54 81 60 82 62 83 55 84
REMARK SMILES IDX 56 85 57 86 58 87 59 88 85 89 86 90 95 91 87 92 88 93 94 94
REMARK SMILES IDX 96 95 89 96 90 97 91 98 92 99 93 100 69 101 70 102 79 103
REMARK SMILES IDX 71 104 72 105 78 106 80 107 73 108 74 109 75 110 76 111
REMARK SMILES IDX 77 112
REMARK H PARENT 18 36 18 37 101 62 67 73
REMARK Flexibility Score: inf
ROOT
ATOM      1  C   UNL A   1      37.809  21.136  24.559  1.00  0.00     0.188 C 
ENDROOT
BRANCH   1   2
ATOM      2  O   UNL A   1      36.735  21.957  25.004  1.00  0.00    -0.377 OA
BRANCH   2   3
ATOM      3  C   UNL A   1      37.017  23.287  25.386  1.00  0.00     0.188 C 
BRANCH   3   4
ATOM      4  C   UNL A   1      35.974  24.342  24.956  1.00  0.00     0.188 C 
BRANCH   4   5
ATOM      5  O   UNL A   1      34.607  24.007  25.060  1.00  0.00    -0.376 OA
BRANCH   5   6
ATOM      6  C   UNL A   1      33.906  23.993  26.285  1.00  0.00     0.202 C 
BRANCH   6   7
ATOM      7  C   UNL A   1      32.574  24.697  26.594  1.00  0.00     0.261 C 
BRANCH   7   8
ATOM      8  O   UNL A   1      31.651  24.048  27.455  1.00  0.00    -0.460 OA
BRANCH   8   9
ATOM      9  C   UNL A   1      30.465  23.664  26.906  1.00  0.00     0.342 C 
ATOM     10  O   UNL A   1      29.587  23.041  27.497  1.00  0.00    -0.246 OA
BRANCH   9  11
ATOM     11  C   UNL A   1      30.323  24.192  25.572  1.00  0.00     0.106 A 
ATOM     12  C   UNL A   1      30.804  23.716  24.319  1.00  0.00     0.107 A 
ATOM     13  N   UNL A   1      30.484  24.567  23.325  1.00  0.00    -0.167 NA
ATOM     14  N   UNL A   1      29.975  25.639  23.986  1.00  0.00    -0.239 N 
ATOM     15  C   UNL A   1      29.547  25.280  25.235  1.00  0.00     0.131 A 
BRANCH  12  16
ATOM     16  C   UNL A   1      31.461  22.441  24.055  1.00  0.00     0.007 A 
ATOM     17  C   UNL A   1      32.244  20.286  24.836  1.00  0.00     0.119 A 
ATOM     18  C   UNL A   1      32.531  19.922  23.516  1.00  0.00     0.046 A 
ATOM     19  C   UNL A   1      31.691  21.540  25.101  1.00  0.00     0.056 A 
ATOM     20  C   UNL A   1      32.311  20.815  22.469  1.00  0.00     0.005 A 
ATOM     21  C   UNL A   1      31.806  22.085  22.743  1.00  0.00     0.011 A 
BRANCH  17  22
ATOM     22  O   UNL A   1      32.565  19.334  25.765  1.00  0.00    -0.497 OA
ATOM     23  C   UNL A   1      32.453  17.978  25.359  1.00  0.00     0.278 C 
ENDBRANCH  17  22
ENDBRANCH  12  16
BRANCH  14  24
ATOM     24  C   UNL A   1      29.881  26.927  23.411  1.00  0.00     0.081 A 
ATOM     25  C   UNL A   1      28.616  27.542  23.369  1.00  0.00     0.079 A 
ATOM     26  C   UNL A   1      31.038  27.589  22.891  1.00  0.00     0.069 A 
ATOM     27  C   UNL A   1      28.555  28.826  22.875  1.00  0.00     0.167 A 
ATOM     28  C   UNL A   1      30.938  28.940  22.525  1.00  0.00     0.066 A 
ATOM     29  C   UNL A   1      29.688  29.510  22.502  1.00  0.00     0.166 A 
ATOM     30  O   UNL A   1      27.429  29.560  22.670  1.00  0.00    -0.454 OA
ATOM     31  O   UNL A   1      29.414  30.755  22.027  1.00  0.00    -0.454 OA
ATOM     32  C   UNL A   1      27.976  30.687  21.952  1.00  0.00     0.468 C 
BRANCH  26  33
ATOM     33  C   UNL A   1      32.262  26.824  22.445  1.00  0.00     0.251 C 
ATOM     34  N   UNL A   1      32.310  26.312  21.178  1.00  0.00    -0.366 N 
ATOM     35  O   UNL A   1      33.191  26.538  23.189  1.00  0.00    -0.269 OA
ATOM     36  H   UNL A   1      31.587  26.512  20.539  1.00  0.00     0.159 HD
ATOM     37  H   UNL A   1      33.067  25.745  20.905  1.00  0.00     0.159 HD
ENDBRANCH  26  33
ENDBRANCH  14  24
ENDBRANCH   9  11
ENDBRANCH   8   9
ENDBRANCH   7   8
ENDBRANCH   6   7
ENDBRANCH   5   6
ENDBRANCH   4   5
ENDBRANCH   3   4
ENDBRANCH   2   3
ENDBRANCH   1   2
BRANCH   1  38
ATOM     38  C   UNL A   1      38.052  19.685  25.069  1.00  0.00     0.188 C 
BRANCH  38  39
ATOM     39  O   UNL A   1      39.389  19.337  25.386  1.00  0.00    -0.376 OA
BRANCH  39  40
ATOM     40  C   UNL A   1      40.302  20.169  26.075  1.00  0.00     0.202 C 
BRANCH  40  41
ATOM     41  C   UNL A   1      41.722  19.671  26.327  1.00  0.00     0.261 C 
BRANCH  41  42
ATOM     42  O   UNL A   1      42.661  20.717  26.415  1.00  0.00    -0.460 OA
BRANCH  42  43
ATOM     43  C   UNL A   1      43.646  20.633  25.503  1.00  0.00     0.338 C 
ATOM     44  O   UNL A   1      44.061  19.625  24.957  1.00  0.00    -0.246 OA
BRANCH  43  45
ATOM     45  C   UNL A   1      44.219  21.970  25.346  1.00  0.00     0.060 A 
ATOM     46  C   UNL A   1      45.175  22.301  26.302  1.00  0.00     0.016 A 
ATOM     47  C   UNL A   1      43.461  22.925  24.650  1.00  0.00     0.016 A 
ATOM     48  C   UNL A   1      45.080  23.551  26.847  1.00  0.00     0.010 A 
ATOM     49  C   UNL A   1      43.355  24.165  25.209  1.00  0.00     0.010 A 
ATOM     50  C   UNL A   1      44.072  24.399  26.375  1.00  0.00    -0.014 A 
BRANCH  50  51
ATOM     51  C   UNL A   1      43.818  25.602  27.118  1.00  0.00     0.031 A 
ATOM     52  C   UNL A   1      44.864  26.604  26.866  1.00  0.00     0.074 A 
ATOM     53  C   UNL A   1      42.716  25.757  27.871  1.00  0.00     0.049 A 
ATOM     54  N   UNL A   1      45.832  26.935  27.652  1.00  0.00    -0.248 NA
ATOM     55  C   UNL A   1      45.015  27.086  25.482  1.00  0.00     0.031 C 
ATOM     56  C   UNL A   1      41.528  24.904  27.957  1.00  0.00     0.029 A 
ATOM     57  N   UNL A   1      42.392  26.809  28.662  1.00  0.00    -0.354 N 
ATOM     58  C   UNL A   1      46.549  27.887  26.943  1.00  0.00     0.074 A 
ATOM     59  C   UNL A   1      46.175  27.737  25.562  1.00  0.00     0.031 C 
ATOM     60  C   UNL A   1      40.530  25.594  28.561  1.00  0.00     0.029 A 
ATOM     61  C   UNL A   1      41.048  26.873  29.012  1.00  0.00     0.049 A 
ATOM     62  H   UNL A   1      43.053  27.473  28.964  1.00  0.00     0.167 HD
ATOM     63  C   UNL A   1      47.130  28.933  27.587  1.00  0.00     0.037 A 
ATOM     64  C   UNL A   1      40.438  27.975  29.523  1.00  0.00     0.037 A 
ATOM     65  C   UNL A   1      47.280  28.661  28.996  1.00  0.00     0.049 A 
ATOM     66  C   UNL A   1      41.521  28.833  30.094  1.00  0.00     0.074 A 
ATOM     67  C   UNL A   1      47.913  27.669  29.723  1.00  0.00     0.029 A 
ATOM     68  N   UNL A   1      46.379  29.240  29.860  1.00  0.00    -0.354 N 
ATOM     69  N   UNL A   1      42.249  28.483  31.124  1.00  0.00    -0.248 NA
ATOM     70  C   UNL A   1      42.133  29.820  29.212  1.00  0.00     0.031 C 
ATOM     71  C   UNL A   1      47.035  27.386  30.809  1.00  0.00     0.029 A 
ATOM     72  C   UNL A   1      45.954  28.266  30.730  1.00  0.00     0.049 A 
ATOM     73  H   UNL A   1      46.091  30.181  29.855  1.00  0.00     0.167 HD
ATOM     74  C   UNL A   1      43.543  28.875  30.804  1.00  0.00     0.074 A 
ATOM     75  C   UNL A   1      43.399  29.742  29.635  1.00  0.00     0.031 C 
ATOM     76  C   UNL A   1      44.633  28.232  31.320  1.00  0.00     0.037 A 
BRANCH  63  77
ATOM     77  C   UNL A   1      47.164  30.323  27.009  1.00  0.00     0.058 A 
ATOM     78  C   UNL A   1      48.373  31.039  27.031  1.00  0.00     0.135 A 
ATOM     79  C   UNL A   1      46.009  31.076  26.687  1.00  0.00     0.135 A 
ATOM     80  F   UNL A   1      49.525  30.424  27.340  1.00  0.00    -0.206 F 
ATOM     81  C   UNL A   1      48.422  32.416  26.813  1.00  0.00     0.059 A 
ATOM     82  C   UNL A   1      46.045  32.433  26.405  1.00  0.00     0.059 A 
ATOM     83  F   UNL A   1      44.774  30.566  26.728  1.00  0.00    -0.206 F 
ATOM     84  C   UNL A   1      47.249  33.103  26.513  1.00  0.00     0.060 A 
BRANCH  84  85
ATOM     85  S   UNL A   1      47.289  34.891  26.332  1.00  0.00     0.124 S 
ATOM     86  O   UNL A   1      47.733  35.305  27.657  1.00  0.00    -0.237 OA
ATOM     87  O   UNL A   1      48.251  35.061  25.249  1.00  0.00    -0.237 OA
ATOM     88  O   UNL A   1      45.908  35.224  25.993  1.00  0.00    -0.744 OA
ENDBRANCH  84  85
ENDBRANCH  63  77
BRANCH  64  89
ATOM     89  C   UNL A   1      39.096  28.510  29.153  1.00  0.00     0.058 A 
ATOM     90  C   UNL A   1      38.059  28.591  30.102  1.00  0.00     0.135 A 
ATOM     91  C   UNL A   1      38.885  29.213  27.948  1.00  0.00     0.135 A 
ATOM     92  F   UNL A   1      38.180  27.971  31.285  1.00  0.00    -0.206 F 
ATOM     93  C   UNL A   1      36.908  29.360  29.889  1.00  0.00     0.059 A 
ATOM     94  C   UNL A   1      37.743  29.977  27.711  1.00  0.00     0.059 A 
ATOM     95  F   UNL A   1      39.826  29.258  26.995  1.00  0.00    -0.206 F 
ATOM     96  C   UNL A   1      36.770  30.069  28.695  1.00  0.00     0.060 A 
BRANCH  96  97
ATOM     97  S   UNL A   1      35.379  31.207  28.484  1.00  0.00     0.124 S 
ATOM     98  O   UNL A   1      35.888  32.124  27.470  1.00  0.00    -0.237 OA
ATOM     99  O   UNL A   1      34.309  30.312  28.056  1.00  0.00    -0.237 OA
ATOM    100  O   UNL A   1      35.207  31.783  29.816  1.00  0.00    -0.744 OA
ENDBRANCH  96  97
ENDBRANCH  64  89
BRANCH  76 101
ATOM    101  C   UNL A   1      44.423  27.251  32.447  1.00  0.00     0.058 A 
ATOM    102  C   UNL A   1      44.179  25.876  32.274  1.00  0.00     0.135 A 
ATOM    103  C   UNL A   1      44.647  27.698  33.757  1.00  0.00     0.135 A 
ATOM    104  F   UNL A   1      44.060  25.348  31.047  1.00  0.00    -0.206 F 
ATOM    105  C   UNL A   1      44.119  24.996  33.359  1.00  0.00     0.059 A 
ATOM    106  C   UNL A   1      44.623  26.835  34.849  1.00  0.00     0.059 A 
ATOM    107  F   UNL A   1      44.950  28.988  33.983  1.00  0.00    -0.206 F 
ATOM    108  C   UNL A   1      44.345  25.487  34.645  1.00  0.00     0.060 A 
BRANCH 108 109
ATOM    109  S   UNL A   1      44.335  24.343  36.044  1.00  0.00     0.124 S 
ATOM    110  O   UNL A   1      43.556  23.227  35.521  1.00  0.00    -0.237 OA
ATOM    111  O   UNL A   1      45.757  24.084  36.252  1.00  0.00    -0.237 OA
ATOM    112  O   UNL A   1      43.689  25.110  37.106  1.00  0.00    -0.744 OA
ENDBRANCH 108 109
ENDBRANCH  76 101
ENDBRANCH  50  51
ENDBRANCH  43  45
ENDBRANCH  42  43
ENDBRANCH  41  42
ENDBRANCH  40  41
ENDBRANCH  39  40
ENDBRANCH  38  39
ENDBRANCH   1  38
TORSDOF 27
ENDMDL
MODEL 2
REMARK VINA RESULT:     -11.0      2.424      3.350
REMARK SMILES COc1cccc(-c2nn(-c3cc4c(cc3C(N)=O)OCO4)cc2C(=O)OCCOCCOCCOCCOC(=O)c2ccc(-c3c4nc(c(-c5c(F)cc(S(=O)(=O)[O-])cc5F)c5ccc([nH]5)c(-c5c(F)cc(S(=O)(=O)[O-])cc5F)c5nc(c(-c6c(F)cc(S(=O)(=O)[O-])cc6F)c6ccc3[nH]6)C=C5)C=C4)cc2)c1
REMARK SMILES IDX 34 1 33 2 32 3 31 4 30 5 29 6 28 7 27 8 25 9 26 10 24 11
REMARK SMILES IDX 8 12 9 13 10 14 23 15 7 16 3 17 4 18 108 19 5 20 6 21 2 22
REMARK SMILES IDX 1 23 11 24 12 25 16 26 13 27 15 28 14 29 22 30 20 31 21 32
REMARK SMILES IDX 17 33 18 34 19 35 35 38 36 39 37 40 38 41 39 42 40 43 41 44
REMARK SMILES IDX 42 45 43 46 107 47 44 48 106 49 45 50 46 51 47 52 100 53
REMARK SMILES IDX 48 54 105 55 99 56 101 57 49 58 104 59 98 60 97 61 50 63
REMARK SMILES IDX 84 64 63 65 83 66 64 67 67 68 82 69 102 70 65 71 66 72 81 74
REMARK SMILES IDX 103 75 68 76 51 77 52 78 61 79 53 80 54 81 60 82 62 83 55 84
REMARK SMILES IDX 56 85 57 86 58 87 59 88 85 89 86 90 95 91 87 92 88 93 94 94
REMARK SMILES IDX 96 95 89 96 90 97 91 98 92 99 93 100 69 101 70 102 79 103
REMARK SMILES IDX 71 104 72 105 78 106 80 107 73 108 74 109 75 110 76 111
REMARK SMILES IDX 77 112
REMARK H PARENT 18 36 18 37 101 62 67 73
REMARK Flexibility Score: inf
ROOT
ATOM      1  C   UNL A   1      36.898  19.494  24.988  1.00  0.00     0.188 C 
ENDROOT
BRANCH   1   2
ATOM      2  O   UNL A   1      35.670  20.213  24.994  1.00  0.00    -0.377 OA
BRANCH   2   3
ATOM      3  C   UNL A   1      35.711  21.615  25.165  1.00  0.00     0.188 C 
BRANCH   3   4
ATOM      4  C   UNL A   1      35.104  22.146  26.483  1.00  0.00     0.188 C 
BRANCH   4   5
ATOM      5  O   UNL A   1      33.959  22.966  26.404  1.00  0.00    -0.376 OA
BRANCH   5   6
ATOM      6  C   UNL A   1      33.989  24.293  25.923  1.00  0.00     0.202 C 
BRANCH   6   7
ATOM      7  C   UNL A   1      32.993  25.417  26.254  1.00  0.00     0.261 C 
BRANCH   7   8
ATOM      8  O   UNL A   1      31.793  25.079  26.934  1.00  0.00    -0.460 OA
BRANCH   8   9
ATOM      9  C   UNL A   1      30.772  24.599  26.172  1.00  0.00     0.342 C 
ATOM     10  O   UNL A   1      30.057  23.647  26.476  1.00  0.00    -0.246 OA
BRANCH   9  11
ATOM     11  C   UNL A   1      30.558  25.433  25.015  1.00  0.00     0.106 A 
ATOM     12  C   UNL A   1      31.074  25.348  23.690  1.00  0.00     0.107 A 
ATOM     13  N   UNL A   1      30.653  26.387  22.942  1.00  0.00    -0.167 NA
ATOM     14  N   UNL A   1      30.039  27.192  23.846  1.00  0.00    -0.239 N 
ATOM     15  C   UNL A   1      29.666  26.481  24.954  1.00  0.00     0.131 A 
BRANCH  12  16
ATOM     16  C   UNL A   1      31.861  24.261  23.120  1.00  0.00     0.007 A 
ATOM     17  C   UNL A   1      32.427  21.907  23.028  1.00  0.00     0.119 A 
ATOM     18  C   UNL A   1      33.214  22.150  21.897  1.00  0.00     0.046 A 
ATOM     19  C   UNL A   1      31.736  22.963  23.627  1.00  0.00     0.056 A 
ATOM     20  C   UNL A   1      33.350  23.441  21.390  1.00  0.00     0.005 A 
ATOM     21  C   UNL A   1      32.699  24.500  22.021  1.00  0.00     0.011 A 
BRANCH  17  22
ATOM     22  O   UNL A   1      32.433  20.606  23.449  1.00  0.00    -0.497 OA
ATOM     23  C   UNL A   1      32.099  20.372  24.810  1.00  0.00     0.278 C 
ENDBRANCH  17  22
ENDBRANCH  12  16
BRANCH  14  24
ATOM     24  C   UNL A   1      29.801  28.567  23.620  1.00  0.00     0.081 A 
ATOM     25  C   UNL A   1      28.808  28.921  22.687  1.00  0.00     0.079 A 
ATOM     26  C   UNL A   1      30.546  29.570  24.317  1.00  0.00     0.069 A 
ATOM     27  C   UNL A   1      28.537  30.262  22.533  1.00  0.00     0.167 A 
ATOM     28  C   UNL A   1      30.136  30.908  24.219  1.00  0.00     0.066 A 
ATOM     29  C   UNL A   1      29.157  31.217  23.304  1.00  0.00     0.166 A 
ATOM     30  O   UNL A   1      27.683  30.816  21.632  1.00  0.00    -0.454 OA
ATOM     31  O   UNL A   1      28.765  32.480  22.987  1.00  0.00    -0.454 OA
ATOM     32  C   UNL A   1      27.993  32.216  21.799  1.00  0.00     0.468 C 
BRANCH  26  33
ATOM     33  C   UNL A   1      31.909  29.289  24.902  1.00  0.00     0.251 C 
ATOM     34  N   UNL A   1      33.028  29.626  24.193  1.00  0.00    -0.366 N 
ATOM     35  O   UNL A   1      32.085  28.675  25.947  1.00  0.00    -0.269 OA
ATOM     36  H   UNL A   1      32.942  30.121  23.346  1.00  0.00     0.159 HD
ATOM     37  H   UNL A   1      33.918  29.375  24.529  1.00  0.00     0.159 HD
ENDBRANCH  26  33
ENDBRANCH  14  24
ENDBRANCH   9  11
ENDBRANCH   8   9
ENDBRANCH   7   8
ENDBRANCH   6   7
ENDBRANCH   5   6
ENDBRANCH   4   5
ENDBRANCH   3   4
ENDBRANCH   2   3
ENDBRANCH   1   2
BRANCH   1  38
ATOM     38  C   UNL A   1      38.295  20.176  24.906  1.00  0.00     0.188 C 
BRANCH  38  39
ATOM     39  O   UNL A   1      39.394  19.438  25.413  1.00  0.00    -0.376 OA
BRANCH  39  40
ATOM     40  C   UNL A   1      40.355  19.936  26.323  1.00  0.00     0.202 C 
BRANCH  40  41
ATOM     41  C   UNL A   1      40.851  21.371  26.175  1.00  0.00     0.261 C 
BRANCH  41  42
ATOM     42  O   UNL A   1      40.492  22.189  27.263  1.00  0.00    -0.460 OA
BRANCH  42  43
ATOM     43  C   UNL A   1      39.784  23.276  26.908  1.00  0.00     0.338 C 
ATOM     44  O   UNL A   1      38.606  23.321  26.600  1.00  0.00    -0.246 OA
BRANCH  43  45
ATOM     45  C   UNL A   1      40.711  24.408  26.851  1.00  0.00     0.060 A 
ATOM     46  C   UNL A   1      41.695  24.396  27.835  1.00  0.00     0.016 A 
ATOM     47  C   UNL A   1      40.266  25.580  26.219  1.00  0.00     0.016 A 
ATOM     48  C   UNL A   1      41.936  25.583  28.467  1.00  0.00     0.010 A 
ATOM     49  C   UNL A   1      40.494  26.761  26.864  1.00  0.00     0.010 A 
ATOM     50  C   UNL A   1      41.216  26.707  28.049  1.00  0.00    -0.014 A 
BRANCH  50  51
ATOM     51  C   UNL A   1      41.286  27.881  28.874  1.00  0.00     0.031 A 
ATOM     52  C   UNL A   1      42.403  28.745  28.463  1.00  0.00     0.074 A 
ATOM     53  C   UNL A   1      40.379  28.136  29.833  1.00  0.00     0.049 A 
ATOM     54  N   UNL A   1      43.539  28.886  29.059  1.00  0.00    -0.248 NA
ATOM     55  C   UNL A   1      42.362  29.294  27.097  1.00  0.00     0.031 C 
ATOM     56  C   UNL A   1      39.115  27.450  30.115  1.00  0.00     0.029 A 
ATOM     57  N   UNL A   1      40.368  29.167  30.713  1.00  0.00    -0.354 N 
ATOM     58  C   UNL A   1      44.243  29.776  28.262  1.00  0.00     0.074 A 
ATOM     59  C   UNL A   1      43.600  29.771  26.976  1.00  0.00     0.031 C 
ATOM     60  C   UNL A   1      38.361  28.229  30.928  1.00  0.00     0.029 A 
ATOM     61  C   UNL A   1      39.137  29.391  31.320  1.00  0.00     0.049 A 
ATOM     62  H   UNL A   1      41.165  29.712  30.906  1.00  0.00     0.167 HD
ATOM     63  C   UNL A   1      45.083  30.686  28.822  1.00  0.00     0.037 A 
ATOM     64  C   UNL A   1      38.803  30.530  31.983  1.00  0.00     0.037 A 
ATOM     65  C   UNL A   1      45.451  30.302  30.163  1.00  0.00     0.049 A 
ATOM     66  C   UNL A   1      40.089  31.190  32.365  1.00  0.00     0.074 A 
ATOM     67  C   UNL A   1      46.055  29.186  30.713  1.00  0.00     0.029 A 
ATOM     68  N   UNL A   1      44.823  30.940  31.207  1.00  0.00    -0.354 N 
ATOM     69  N   UNL A   1      40.936  30.675  33.220  1.00  0.00    -0.248 NA
ATOM     70  C   UNL A   1      40.665  32.140  31.421  1.00  0.00     0.031 C 
ATOM     71  C   UNL A   1      45.363  28.954  31.937  1.00  0.00     0.029 A 
ATOM     72  C   UNL A   1      44.429  29.978  32.104  1.00  0.00     0.049 A 
ATOM     73  H   UNL A   1      44.682  31.910  31.297  1.00  0.00     0.167 HD
ATOM     74  C   UNL A   1      42.191  30.906  32.670  1.00  0.00     0.074 A 
ATOM     75  C   UNL A   1      41.961  31.861  31.587  1.00  0.00     0.031 C 
ATOM     76  C   UNL A   1      43.251  30.086  32.938  1.00  0.00     0.037 A 
BRANCH  63  77
ATOM     77  C   UNL A   1      45.213  32.094  28.304  1.00  0.00     0.058 A 
ATOM     78  C   UNL A   1      46.489  32.580  27.969  1.00  0.00     0.135 A 
ATOM     79  C   UNL A   1      44.186  33.065  28.380  1.00  0.00     0.135 A 
ATOM     80  F   UNL A   1      47.537  31.746  27.886  1.00  0.00    -0.206 F 
ATOM     81  C   UNL A   1      46.739  33.939  27.788  1.00  0.00     0.059 A 
ATOM     82  C   UNL A   1      44.401  34.414  28.142  1.00  0.00     0.059 A 
ATOM     83  F   UNL A   1      42.945  32.781  28.789  1.00  0.00    -0.206 F 
ATOM     84  C   UNL A   1      45.688  34.848  27.889  1.00  0.00     0.060 A 
BRANCH  84  85
ATOM     85  S   UNL A   1      46.022  36.609  27.757  1.00  0.00     0.124 S 
ATOM     86  O   UNL A   1      45.016  37.161  28.657  1.00  0.00    -0.237 OA
ATOM     87  O   UNL A   1      47.405  36.687  28.214  1.00  0.00    -0.237 OA
ATOM     88  O   UNL A   1      45.820  36.883  26.337  1.00  0.00    -0.744 OA
ENDBRANCH  84  85
ENDBRANCH  63  77
BRANCH  64  89
ATOM     89  C   UNL A   1      37.510  31.268  31.902  1.00  0.00     0.058 A 
ATOM     90  C   UNL A   1      36.801  31.621  33.066  1.00  0.00     0.135 A 
ATOM     91  C   UNL A   1      37.085  31.890  30.709  1.00  0.00     0.135 A 
ATOM     92  F   UNL A   1      37.147  31.095  34.250  1.00  0.00    -0.206 F 
ATOM     93  C   UNL A   1      35.768  32.567  33.055  1.00  0.00     0.059 A 
ATOM     94  C   UNL A   1      36.052  32.827  30.674  1.00  0.00     0.059 A 
ATOM     95  F   UNL A   1      37.720  31.677  29.549  1.00  0.00    -0.206 F 
ATOM     96  C   UNL A   1      35.416  33.182  31.854  1.00  0.00     0.060 A 
BRANCH  96  97
ATOM     97  S   UNL A   1      34.212  34.534  31.857  1.00  0.00     0.124 S 
ATOM     98  O   UNL A   1      33.266  34.095  32.877  1.00  0.00    -0.237 OA
ATOM     99  O   UNL A   1      35.039  35.684  32.207  1.00  0.00    -0.237 OA
ATOM    100  O   UNL A   1      33.699  34.534  30.489  1.00  0.00    -0.744 OA
ENDBRANCH  96  97
ENDBRANCH  64  89
BRANCH  76 101
ATOM    101  C   UNL A   1      43.113  29.070  34.045  1.00  0.00     0.058 A 
ATOM    102  C   UNL A   1      43.375  29.327  35.403  1.00  0.00     0.135 A 
ATOM    103  C   UNL A   1      42.530  27.833  33.732  1.00  0.00     0.135 A 
ATOM    104  F   UNL A   1      43.832  30.524  35.800  1.00  0.00    -0.206 F 
ATOM    105  C   UNL A   1      43.107  28.382  36.398  1.00  0.00     0.059 A 
ATOM    106  C   UNL A   1      42.226  26.890  34.709  1.00  0.00     0.059 A 
ATOM    107  F   UNL A   1      42.195  27.551  32.462  1.00  0.00    -0.206 F 
ATOM    108  C   UNL A   1      42.530  27.164  36.039  1.00  0.00     0.060 A 
BRANCH 108 109
ATOM    109  S   UNL A   1      42.120  25.965  37.327  1.00  0.00     0.124 S 
ATOM    110  O   UNL A   1      42.994  26.378  38.419  1.00  0.00    -0.237 OA
ATOM    111  O   UNL A   1      40.693  26.195  37.533  1.00  0.00    -0.237 OA
ATOM    112  O   UNL A   1      42.452  24.680  36.715  1.00  0.00    -0.744 OA
ENDBRANCH 108 109
ENDBRANCH  76 101
ENDBRANCH  50  51
ENDBRANCH  43  45
ENDBRANCH  42  43
ENDBRANCH  41  42
ENDBRANCH  40  41
ENDBRANCH  39  40
ENDBRANCH  38  39
ENDBRANCH   1  38
TORSDOF 27
ENDMDL
MODEL 3
REMARK VINA RESULT:     -10.9      2.966      9.973
REMARK SMILES COc1cccc(-c2nn(-c3cc4c(cc3C(N)=O)OCO4)cc2C(=O)OCCOCCOCCOCCOC(=O)c2ccc(-c3c4nc(c(-c5c(F)cc(S(=O)(=O)[O-])cc5F)c5ccc([nH]5)c(-c5c(F)cc(S(=O)(=O)[O-])cc5F)c5nc(c(-c6c(F)cc(S(=O)(=O)[O-])cc6F)c6ccc3[nH]6)C=C5)C=C4)cc2)c1
REMARK SMILES IDX 34 1 33 2 32 3 31 4 30 5 29 6 28 7 27 8 25 9 26 10 24 11
REMARK SMILES IDX 8 12 9 13 10 14 23 15 7 16 3 17 4 18 108 19 5 20 6 21 2 22
REMARK SMILES IDX 1 23 11 24 12 25 16 26 13 27 15 28 14 29 22 30 20 31 21 32
REMARK SMILES IDX 17 33 18 34 19 35 35 38 36 39 37 40 38 41 39 42 40 43 41 44
REMARK SMILES IDX 42 45 43 46 107 47 44 48 106 49 45 50 46 51 47 52 100 53
REMARK SMILES IDX 48 54 105 55 99 56 101 57 49 58 104 59 98 60 97 61 50 63
REMARK SMILES IDX 84 64 63 65 83 66 64 67 67 68 82 69 102 70 65 71 66 72 81 74
REMARK SMILES IDX 103 75 68 76 51 77 52 78 61 79 53 80 54 81 60 82 62 83 55 84
REMARK SMILES IDX 56 85 57 86 58 87 59 88 85 89 86 90 95 91 87 92 88 93 94 94
REMARK SMILES IDX 96 95 89 96 90 97 91 98 92 99 93 100 69 101 70 102 79 103
REMARK SMILES IDX 71 104 72 105 78 106 80 107 73 108 74 109 75 110 76 111
REMARK SMILES IDX 77 112
REMARK H PARENT 18 36 18 37 101 62 67 73
REMARK Flexibility Score: inf
ROOT
ATOM      1  C   UNL A   1      33.108  36.267  29.107  1.00  0.00     0.188 C 
ENDROOT
BRANCH   1   2
ATOM      2  O   UNL A   1      34.329  35.790  28.554  1.00  0.00    -0.377 OA
BRANCH   2   3
ATOM      3  C   UNL A   1      34.313  34.579  27.828  1.00  0.00     0.188 C 
BRANCH   3   4
ATOM      4  C   UNL A   1      35.155  33.429  28.426  1.00  0.00     0.188 C 
BRANCH   4   5
ATOM      5  O   UNL A   1      34.512  32.200  28.685  1.00  0.00    -0.376 OA
BRANCH   5   6
ATOM      6  C   UNL A   1      33.823  31.464  27.698  1.00  0.00     0.202 C 
BRANCH   6   7
ATOM      7  C   UNL A   1      33.889  29.945  27.465  1.00  0.00     0.261 C 
BRANCH   7   8
ATOM      8  O   UNL A   1      32.997  29.366  26.524  1.00  0.00    -0.460 OA
BRANCH   8   9
ATOM      9  C   UNL A   1      32.471  28.152  26.844  1.00  0.00     0.342 C 
ATOM     10  O   UNL A   1      31.670  27.952  27.753  1.00  0.00    -0.246 OA
BRANCH   9  11
ATOM     11  C   UNL A   1      32.884  27.147  25.895  1.00  0.00     0.106 A 
ATOM     12  C   UNL A   1      32.370  26.800  24.614  1.00  0.00     0.107 A 
ATOM     13  N   UNL A   1      33.031  25.745  24.099  1.00  0.00    -0.167 NA
ATOM     14  N   UNL A   1      33.816  25.338  25.129  1.00  0.00    -0.239 N 
ATOM     15  C   UNL A   1      34.002  26.352  26.028  1.00  0.00     0.131 A 
BRANCH  12  16
ATOM     16  C   UNL A   1      31.348  27.510  23.854  1.00  0.00     0.007 A 
ATOM     17  C   UNL A   1      29.013  27.910  23.345  1.00  0.00     0.119 A 
ATOM     18  C   UNL A   1      29.382  29.004  22.555  1.00  0.00     0.046 A 
ATOM     19  C   UNL A   1      29.998  27.175  24.008  1.00  0.00     0.056 A 
ATOM     20  C   UNL A   1      30.724  29.341  22.391  1.00  0.00     0.005 A 
ATOM     21  C   UNL A   1      31.707  28.574  23.015  1.00  0.00     0.011 A 
BRANCH  17  22
ATOM     22  O   UNL A   1      27.668  27.659  23.368  1.00  0.00    -0.497 OA
ATOM     23  C   UNL A   1      26.805  28.781  23.251  1.00  0.00     0.278 C 
ENDBRANCH  17  22
ENDBRANCH  12  16
BRANCH  14  24
ATOM     24  C   UNL A   1      34.377  24.042  25.206  1.00  0.00     0.081 A 
ATOM     25  C   UNL A   1      35.674  23.852  24.694  1.00  0.00     0.079 A 
ATOM     26  C   UNL A   1      33.650  22.956  25.788  1.00  0.00     0.069 A 
ATOM     27  C   UNL A   1      36.235  22.605  24.844  1.00  0.00     0.167 A 
ATOM     28  C   UNL A   1      34.320  21.748  26.033  1.00  0.00     0.066 A 
ATOM     29  C   UNL A   1      35.589  21.600  25.525  1.00  0.00     0.166 A 
ATOM     30  O   UNL A   1      37.432  22.191  24.349  1.00  0.00    -0.454 OA
ATOM     31  O   UNL A   1      36.301  20.441  25.549  1.00  0.00    -0.454 OA
ATOM     32  C   UNL A   1      37.361  20.777  24.631  1.00  0.00     0.468 C 
BRANCH  26  33
ATOM     33  C   UNL A   1      32.142  22.959  25.871  1.00  0.00     0.251 C 
ATOM     34  N   UNL A   1      31.514  23.879  26.663  1.00  0.00    -0.366 N 
ATOM     35  O   UNL A   1      31.433  22.111  25.345  1.00  0.00    -0.269 OA
ATOM     36  H   UNL A   1      32.039  24.583  27.110  1.00  0.00     0.159 HD
ATOM     37  H   UNL A   1      30.539  23.838  26.787  1.00  0.00     0.159 HD
ENDBRANCH  26  33
ENDBRANCH  14  24
ENDBRANCH   9  11
ENDBRANCH   8   9
ENDBRANCH   7   8
ENDBRANCH   6   7
ENDBRANCH   5   6
ENDBRANCH   4   5
ENDBRANCH   3   4
ENDBRANCH   2   3
ENDBRANCH   1   2
BRANCH   1  38
ATOM     38  C   UNL A   1      32.899  36.535  30.627  1.00  0.00     0.188 C 
BRANCH  38  39
ATOM     39  O   UNL A   1      33.864  35.986  31.508  1.00  0.00    -0.376 OA
BRANCH  39  40
ATOM     40  C   UNL A   1      34.174  34.611  31.618  1.00  0.00     0.202 C 
BRANCH  40  41
ATOM     41  C   UNL A   1      34.162  33.950  32.993  1.00  0.00     0.261 C 
BRANCH  41  42
ATOM     42  O   UNL A   1      34.608  32.615  32.962  1.00  0.00    -0.460 OA
BRANCH  42  43
ATOM     43  C   UNL A   1      35.923  32.481  33.208  1.00  0.00     0.338 C 
ATOM     44  O   UNL A   1      36.508  32.730  34.248  1.00  0.00    -0.246 OA
BRANCH  43  45
ATOM     45  C   UNL A   1      36.568  32.073  31.959  1.00  0.00     0.060 A 
ATOM     46  C   UNL A   1      36.445  30.719  31.664  1.00  0.00     0.016 A 
ATOM     47  C   UNL A   1      37.611  32.877  31.473  1.00  0.00     0.016 A 
ATOM     48  C   UNL A   1      37.576  30.088  31.228  1.00  0.00     0.010 A 
ATOM     49  C   UNL A   1      38.744  32.243  31.056  1.00  0.00     0.010 A 
ATOM     50  C   UNL A   1      38.737  30.855  31.072  1.00  0.00    -0.014 A 
BRANCH  50  51
ATOM     51  C   UNL A   1      39.971  30.150  30.861  1.00  0.00     0.031 A 
ATOM     52  C   UNL A   1      40.729  30.031  32.116  1.00  0.00     0.074 A 
ATOM     53  C   UNL A   1      40.299  29.627  29.667  1.00  0.00     0.049 A 
ATOM     54  N   UNL A   1      41.772  30.707  32.462  1.00  0.00    -0.248 NA
ATOM     55  C   UNL A   1      40.096  29.285  33.216  1.00  0.00     0.031 C 
ATOM     56  C   UNL A   1      39.480  29.493  28.460  1.00  0.00     0.029 A 
ATOM     57  N   UNL A   1      41.450  28.999  29.324  1.00  0.00    -0.354 N 
ATOM     58  C   UNL A   1      42.080  30.247  33.733  1.00  0.00     0.074 A 
ATOM     59  C   UNL A   1      40.896  29.602  34.233  1.00  0.00     0.031 C 
ATOM     60  C   UNL A   1      40.076  28.616  27.615  1.00  0.00     0.029 A 
ATOM     61  C   UNL A   1      41.365  28.238  28.163  1.00  0.00     0.049 A 
ATOM     62  H   UNL A   1      42.277  29.075  29.852  1.00  0.00     0.167 HD
ATOM     63  C   UNL A   1      43.375  30.139  34.131  1.00  0.00     0.037 A 
ATOM     64  C   UNL A   1      42.269  27.291  27.797  1.00  0.00     0.037 A 
ATOM     65  C   UNL A   1      44.245  30.941  33.305  1.00  0.00     0.049 A 
ATOM     66  C   UNL A   1      43.531  27.600  28.538  1.00  0.00     0.074 A 
ATOM     67  C   UNL A   1      44.299  32.286  32.988  1.00  0.00     0.029 A 
ATOM     68  N   UNL A   1      44.981  30.298  32.337  1.00  0.00    -0.354 N 
ATOM     69  N   UNL A   1      44.242  28.679  28.329  1.00  0.00    -0.248 NA
ATOM     70  C   UNL A   1      43.710  26.986  29.848  1.00  0.00     0.031 C 
ATOM     71  C   UNL A   1      44.645  32.327  31.606  1.00  0.00     0.029 A 
ATOM     72  C   UNL A   1      44.855  31.016  31.175  1.00  0.00     0.049 A 
ATOM     73  H   UNL A   1      45.505  29.472  32.456  1.00  0.00     0.167 HD
ATOM     74  C   UNL A   1      44.627  29.108  29.593  1.00  0.00     0.074 A 
ATOM     75  C   UNL A   1      44.314  27.993  30.486  1.00  0.00     0.031 C 
ATOM     76  C   UNL A   1      44.884  30.426  29.853  1.00  0.00     0.037 A 
BRANCH  63  77
ATOM     77  C   UNL A   1      43.869  28.997  34.980  1.00  0.00     0.058 A 
ATOM     78  C   UNL A   1      43.753  27.685  34.489  1.00  0.00     0.135 A 
ATOM     79  C   UNL A   1      44.196  29.113  36.353  1.00  0.00     0.135 A 
ATOM     80  F   UNL A   1      43.431  27.463  33.206  1.00  0.00    -0.206 F 
ATOM     81  C   UNL A   1      43.888  26.571  35.316  1.00  0.00     0.059 A 
ATOM     82  C   UNL A   1      44.396  28.018  37.178  1.00  0.00     0.059 A 
ATOM     83  F   UNL A   1      44.238  30.286  36.993  1.00  0.00    -0.206 F 
ATOM     84  C   UNL A   1      44.198  26.751  36.662  1.00  0.00     0.060 A 
BRANCH  84  85
ATOM     85  S   UNL A   1      44.272  25.326  37.755  1.00  0.00     0.124 S 
ATOM     86  O   UNL A   1      44.319  25.967  39.063  1.00  0.00    -0.237 OA
ATOM     87  O   UNL A   1      43.034  24.629  37.423  1.00  0.00    -0.237 OA
ATOM     88  O   UNL A   1      45.497  24.648  37.338  1.00  0.00    -0.744 OA
ENDBRANCH  84  85
ENDBRANCH  63  77
BRANCH  64  89
ATOM     89  C   UNL A   1      41.977  25.943  27.231  1.00  0.00     0.058 A 
ATOM     90  C   UNL A   1      42.791  25.383  26.228  1.00  0.00     0.135 A 
ATOM     91  C   UNL A   1      41.069  25.059  27.852  1.00  0.00     0.135 A 
ATOM     92  F   UNL A   1      43.698  26.142  25.596  1.00  0.00    -0.206 F 
ATOM     93  C   UNL A   1      42.743  24.022  25.898  1.00  0.00     0.059 A 
ATOM     94  C   UNL A   1      40.997  23.703  27.532  1.00  0.00     0.059 A 
ATOM     95  F   UNL A   1      40.283  25.463  28.860  1.00  0.00    -0.206 F 
ATOM     96  C   UNL A   1      41.856  23.185  26.574  1.00  0.00     0.060 A 
BRANCH  96  97
ATOM     97  S   UNL A   1      41.912  21.399  26.286  1.00  0.00     0.124 S 
ATOM     98  O   UNL A   1      40.547  21.118  25.855  1.00  0.00    -0.237 OA
ATOM     99  O   UNL A   1      42.942  21.283  25.259  1.00  0.00    -0.237 OA
ATOM    100  O   UNL A   1      42.278  20.857  27.592  1.00  0.00    -0.744 OA
ENDBRANCH  96  97
ENDBRANCH  64  89
BRANCH  76 101
ATOM    101  C   UNL A   1      44.996  31.380  28.690  1.00  0.00     0.058 A 
ATOM    102  C   UNL A   1      43.963  32.229  28.251  1.00  0.00     0.135 A 
ATOM    103  C   UNL A   1      46.259  31.558  28.106  1.00  0.00     0.135 A 
ATOM    104  F   UNL A   1      42.755  32.197  28.831  1.00  0.00    -0.206 F 
ATOM    105  C   UNL A   1      44.168  33.182  27.249  1.00  0.00     0.059 A 
ATOM    106  C   UNL A   1      46.493  32.521  27.129  1.00  0.00     0.059 A 
ATOM    107  F   UNL A   1      47.302  30.825  28.527  1.00  0.00    -0.206 F 
ATOM    108  C   UNL A   1      45.440  33.321  26.694  1.00  0.00     0.060 A 
BRANCH 108 109
ATOM    109  S   UNL A   1      45.727  34.595  25.445  1.00  0.00     0.124 S 
ATOM    110  O   UNL A   1      47.168  34.500  25.236  1.00  0.00    -0.237 OA
ATOM    111  O   UNL A   1      44.893  34.145  24.335  1.00  0.00    -0.237 OA
ATOM    112  O   UNL A   1      45.272  35.821  26.098  1.00  0.00    -0.744 OA
ENDBRANCH 108 109
ENDBRANCH  76 101
ENDBRANCH  50  51
ENDBRANCH  43  45
ENDBRANCH  42  43
ENDBRANCH  41  42
ENDBRANCH  40  41
ENDBRANCH  39  40
ENDBRANCH  38  39
ENDBRANCH   1  38
TORSDOF 27
ENDMDL
