MODEL 1
REMARK VINA RESULT:      -9.9      0.000      0.000
REMARK SMILES CC1(C)NC(=O)N(CCC(=O)N2CCC[C@H]2C(=O)OCCOCCOCCOCCOC(=O)c2ccc(-c3c4nc(c(-c5c(F)cc(S(=O)(=O)[O-])cc5F)c5ccc([nH]5)c(-c5c(F)cc(S(=O)(=O)[O-])cc5F)c5nc(c(-c6c(F)cc(S(=O)(=O)[O-])cc6F)c6ccc3[nH]6)C=C5)C=C4)cc2)C1=O
REMARK SMILES IDX 24 1 23 2 22 3 21 4 20 5 19 6 17 7 18 8 16 9 12 10 13 11
REMARK SMILES IDX 14 12 15 13 10 14 11 15 9 16 8 17 7 18 1 19 2 20 3 21 4 22
REMARK SMILES IDX 100 23 5 24 101 26 6 27 25 28 26 29 27 30 28 31 29 32 30 33
REMARK SMILES IDX 31 34 32 35 33 36 34 37 35 38 99 39 36 40 98 41 37 42 38 43
REMARK SMILES IDX 39 44 92 45 40 46 97 47 91 48 93 49 41 50 96 51 90 52 89 53
REMARK SMILES IDX 42 55 76 56 55 57 75 58 56 59 59 60 74 61 94 62 57 63 58 64
REMARK SMILES IDX 73 66 95 67 60 68 43 69 44 70 53 71 45 72 46 73 52 74 54 75
REMARK SMILES IDX 47 76 48 77 49 78 50 79 51 80 77 81 78 82 87 83 79 84 80 85
REMARK SMILES IDX 86 86 88 87 81 88 82 89 83 90 84 91 85 92 61 93 62 94 71 95
REMARK SMILES IDX 63 96 64 97 70 98 72 99 65 100 66 101 67 102 68 103 69 104
REMARK H PARENT 4 25 93 54 59 65
REMARK Flexibility Score: inf
ROOT
ATOM      1  C   UNL A   1      40.199  20.339  26.466  1.00  0.00     0.188 C 
ENDROOT
BRANCH   1   2
ATOM      2  C   UNL A   1      39.783  21.797  26.289  1.00  0.00     0.188 C 
BRANCH   2   3
ATOM      3  O   UNL A   1      38.397  21.988  26.046  1.00  0.00    -0.376 OA
BRANCH   3   4
ATOM      4  C   UNL A   1      37.833  21.210  24.993  1.00  0.00     0.202 C 
BRANCH   4   5
ATOM      5  C   UNL A   1      36.346  20.838  25.115  1.00  0.00     0.261 C 
BRANCH   5   6
ATOM      6  O   UNL A   1      35.445  21.783  24.496  1.00  0.00    -0.462 OA
BRANCH   6   7
ATOM      7  C   UNL A   1      34.779  22.661  25.277  1.00  0.00     0.328 C 
ATOM      8  O   UNL A   1      35.295  23.265  26.213  1.00  0.00    -0.250 OA
BRANCH   7   9
ATOM      9  C   UNL A   1      33.369  23.009  24.729  1.00  0.00     0.195 C 
ATOM     10  N   UNL A   1      32.901  24.369  24.443  1.00  0.00    -0.329 N 
ATOM     11  C   UNL A   1      33.462  24.707  23.141  1.00  0.00     0.120 C 
ATOM     12  C   UNL A   1      33.339  23.415  22.336  1.00  0.00     0.024 C 
ATOM     13  C   UNL A   1      33.151  22.311  23.383  1.00  0.00     0.039 C 
BRANCH  10  14
ATOM     14  C   UNL A   1      31.575  24.756  24.694  1.00  0.00     0.225 C 
ATOM     15  O   UNL A   1      30.885  24.164  25.532  1.00  0.00    -0.275 OA
BRANCH  14  16
ATOM     16  C   UNL A   1      30.878  25.753  23.758  1.00  0.00     0.122 C 
BRANCH  16  17
ATOM     17  C   UNL A   1      30.428  27.174  24.116  1.00  0.00     0.140 C 
BRANCH  17  18
ATOM     18  N   UNL A   1      31.388  28.123  24.649  1.00  0.00    -0.262 N 
ATOM     19  C   UNL A   1      34.154  28.925  26.649  1.00  0.00     0.045 C 
ATOM     20  C   UNL A   1      32.827  29.379  26.064  1.00  0.00     0.115 C 
ATOM     21  C   UNL A   1      32.260  30.542  26.859  1.00  0.00     0.045 C 
ATOM     22  N   UNL A   1      32.961  29.698  24.664  1.00  0.00    -0.324 N 
ATOM     23  C   UNL A   1      31.788  28.237  25.958  1.00  0.00     0.255 C 
ATOM     24  C   UNL A   1      32.189  28.893  23.862  1.00  0.00     0.325 C 
ATOM     25  H   UNL A   1      33.542  30.414  24.320  1.00  0.00     0.166 HD
ATOM     26  O   UNL A   1      31.385  27.565  26.898  1.00  0.00    -0.272 OA
ATOM     27  O   UNL A   1      32.203  28.926  22.644  1.00  0.00    -0.248 OA
ENDBRANCH  17  18
ENDBRANCH  16  17
ENDBRANCH  14  16
ENDBRANCH  10  14
ENDBRANCH   7   9
ENDBRANCH   6   7
ENDBRANCH   5   6
ENDBRANCH   4   5
ENDBRANCH   3   4
ENDBRANCH   2   3
ENDBRANCH   1   2
BRANCH   1  28
ATOM     28  O   UNL A   1      41.538  20.055  26.790  1.00  0.00    -0.377 OA
BRANCH  28  29
ATOM     29  C   UNL A   1      42.288  19.318  25.847  1.00  0.00     0.188 C 
BRANCH  29  30
ATOM     30  C   UNL A   1      43.731  19.749  25.530  1.00  0.00     0.188 C 
BRANCH  30  31
ATOM     31  O   UNL A   1      43.853  20.961  24.792  1.00  0.00    -0.376 OA
BRANCH  31  32
ATOM     32  C   UNL A   1      43.997  22.157  25.547  1.00  0.00     0.202 C 
BRANCH  32  33
ATOM     33  C   UNL A   1      42.831  23.144  25.414  1.00  0.00     0.261 C 
BRANCH  33  34
ATOM     34  O   UNL A   1      42.791  24.196  26.391  1.00  0.00    -0.460 OA
BRANCH  34  35
ATOM     35  C   UNL A   1      42.679  25.472  25.961  1.00  0.00     0.338 C 
ATOM     36  O   UNL A   1      42.718  25.869  24.809  1.00  0.00    -0.246 OA
BRANCH  35  37
ATOM     37  C   UNL A   1      42.254  26.282  27.125  1.00  0.00     0.060 A 
ATOM     38  C   UNL A   1      42.771  27.579  27.261  1.00  0.00     0.016 A 
ATOM     39  C   UNL A   1      41.245  25.827  27.981  1.00  0.00     0.016 A 
ATOM     40  C   UNL A   1      42.285  28.419  28.264  1.00  0.00     0.010 A 
ATOM     41  C   UNL A   1      40.789  26.654  29.009  1.00  0.00     0.010 A 
ATOM     42  C   UNL A   1      41.329  27.942  29.173  1.00  0.00    -0.014 A 
BRANCH  42  43
ATOM     43  C   UNL A   1      41.142  28.647  30.463  1.00  0.00     0.031 A 
ATOM     44  C   UNL A   1      40.030  29.661  30.518  1.00  0.00     0.074 A 
ATOM     45  C   UNL A   1      41.918  28.421  31.539  1.00  0.00     0.049 A 
ATOM     46  N   UNL A   1      39.665  30.443  31.496  1.00  0.00    -0.248 NA
ATOM     47  C   UNL A   1      39.223  29.814  29.292  1.00  0.00     0.031 C 
ATOM     48  C   UNL A   1      43.011  27.453  31.618  1.00  0.00     0.029 A 
ATOM     49  N   UNL A   1      41.906  29.012  32.779  1.00  0.00    -0.354 N 
ATOM     50  C   UNL A   1      38.596  31.182  31.004  1.00  0.00     0.074 A 
ATOM     51  C   UNL A   1      38.375  30.768  29.638  1.00  0.00     0.031 C 
ATOM     52  C   UNL A   1      43.577  27.533  32.837  1.00  0.00     0.029 A 
ATOM     53  C   UNL A   1      42.903  28.571  33.617  1.00  0.00     0.049 A 
ATOM     54  H   UNL A   1      41.243  29.690  33.044  1.00  0.00     0.167 HD
ATOM     55  C   UNL A   1      37.860  32.124  31.633  1.00  0.00     0.037 A 
ATOM     56  C   UNL A   1      43.239  28.980  34.860  1.00  0.00     0.037 A 
ATOM     57  C   UNL A   1      38.081  32.540  32.987  1.00  0.00     0.049 A 
ATOM     58  C   UNL A   1      42.430  30.074  35.521  1.00  0.00     0.074 A 
ATOM     59  C   UNL A   1      37.364  33.463  33.728  1.00  0.00     0.029 A 
ATOM     60  N   UNL A   1      39.102  32.075  33.799  1.00  0.00    -0.354 N 
ATOM     61  N   UNL A   1      41.379  30.716  35.068  1.00  0.00    -0.248 NA
ATOM     62  C   UNL A   1      42.856  30.502  36.863  1.00  0.00     0.031 C 
ATOM     63  C   UNL A   1      37.985  33.591  34.974  1.00  0.00     0.029 A 
ATOM     64  C   UNL A   1      39.055  32.713  35.024  1.00  0.00     0.049 A 
ATOM     65  H   UNL A   1      39.764  31.392  33.541  1.00  0.00     0.167 HD
ATOM     66  C   UNL A   1      40.999  31.593  36.081  1.00  0.00     0.074 A 
ATOM     67  C   UNL A   1      41.928  31.398  37.172  1.00  0.00     0.031 C 
ATOM     68  C   UNL A   1      39.975  32.481  36.108  1.00  0.00     0.037 A 
BRANCH  55  69
ATOM     69  C   UNL A   1      36.768  32.788  30.851  1.00  0.00     0.058 A 
ATOM     70  C   UNL A   1      35.417  32.465  31.050  1.00  0.00     0.135 A 
ATOM     71  C   UNL A   1      37.077  33.789  29.918  1.00  0.00     0.135 A 
ATOM     72  F   UNL A   1      35.073  31.491  31.908  1.00  0.00    -0.206 F 
ATOM     73  C   UNL A   1      34.407  33.114  30.349  1.00  0.00     0.059 A 
ATOM     74  C   UNL A   1      36.083  34.466  29.222  1.00  0.00     0.059 A 
ATOM     75  F   UNL A   1      38.357  34.118  29.679  1.00  0.00    -0.206 F 
ATOM     76  C   UNL A   1      34.751  34.118  29.442  1.00  0.00     0.060 A 
BRANCH  76  77
ATOM     77  S   UNL A   1      33.427  34.983  28.573  1.00  0.00     0.124 S 
ATOM     78  O   UNL A   1      32.962  33.953  27.650  1.00  0.00    -0.237 OA
ATOM     79  O   UNL A   1      32.511  35.321  29.658  1.00  0.00    -0.237 OA
ATOM     80  O   UNL A   1      34.108  36.117  27.957  1.00  0.00    -0.744 OA
ENDBRANCH  76  77
ENDBRANCH  55  69
BRANCH  56  81
ATOM     81  C   UNL A   1      44.408  28.388  35.570  1.00  0.00     0.058 A 
ATOM     82  C   UNL A   1      45.718  28.809  35.292  1.00  0.00     0.135 A 
ATOM     83  C   UNL A   1      44.244  27.338  36.487  1.00  0.00     0.135 A 
ATOM     84  F   UNL A   1      45.931  29.798  34.411  1.00  0.00    -0.206 F 
ATOM     85  C   UNL A   1      46.823  28.190  35.870  1.00  0.00     0.059 A 
ATOM     86  C   UNL A   1      45.332  26.721  37.098  1.00  0.00     0.059 A 
ATOM     87  F   UNL A   1      43.013  26.899  36.795  1.00  0.00    -0.206 F 
ATOM     88  C   UNL A   1      46.619  27.142  36.768  1.00  0.00     0.060 A 
BRANCH  88  89
ATOM     89  S   UNL A   1      48.057  26.346  37.520  1.00  0.00     0.124 S 
ATOM     90  O   UNL A   1      47.754  26.475  38.940  1.00  0.00    -0.237 OA
ATOM     91  O   UNL A   1      47.985  24.996  36.970  1.00  0.00    -0.237 OA
ATOM     92  O   UNL A   1      49.175  27.151  37.035  1.00  0.00    -0.744 OA
ENDBRANCH  88  89
ENDBRANCH  56  81
BRANCH  68  93
ATOM     93  C   UNL A   1      39.763  33.274  37.367  1.00  0.00     0.058 A 
ATOM     94  C   UNL A   1      40.472  34.458  37.623  1.00  0.00     0.135 A 
ATOM     95  C   UNL A   1      38.775  32.888  38.287  1.00  0.00     0.135 A 
ATOM     96  F   UNL A   1      41.427  34.870  36.775  1.00  0.00    -0.206 F 
ATOM     97  C   UNL A   1      40.220  35.222  38.757  1.00  0.00     0.059 A 
ATOM     98  C   UNL A   1      38.488  33.650  39.414  1.00  0.00     0.059 A 
ATOM     99  F   UNL A   1      38.059  31.771  38.080  1.00  0.00    -0.206 F 
ATOM    100  C   UNL A   1      39.223  34.813  39.645  1.00  0.00     0.060 A 
BRANCH 100 101
ATOM    101  S   UNL A   1      38.871  35.838  41.089  1.00  0.00     0.124 S 
ATOM    102  O   UNL A   1      38.883  37.176  40.507  1.00  0.00    -0.237 OA
ATOM    103  O   UNL A   1      37.566  35.342  41.516  1.00  0.00    -0.237 OA
ATOM    104  O   UNL A   1      39.975  35.537  41.996  1.00  0.00    -0.744 OA
ENDBRANCH 100 101
ENDBRANCH  68  93
ENDBRANCH  42  43
ENDBRANCH  35  37
ENDBRANCH  34  35
ENDBRANCH  33  34
ENDBRANCH  32  33
ENDBRANCH  31  32
ENDBRANCH  30  31
ENDBRANCH  29  30
ENDBRANCH  28  29
ENDBRANCH   1  28
TORSDOF 27
ENDMDL
MODEL 2
REMARK VINA RESULT:      -8.1      6.765      9.549
REMARK SMILES CC1(C)NC(=O)N(CCC(=O)N2CCC[C@H]2C(=O)OCCOCCOCCOCCOC(=O)c2ccc(-c3c4nc(c(-c5c(F)cc(S(=O)(=O)[O-])cc5F)c5ccc([nH]5)c(-c5c(F)cc(S(=O)(=O)[O-])cc5F)c5nc(c(-c6c(F)cc(S(=O)(=O)[O-])cc6F)c6ccc3[nH]6)C=C5)C=C4)cc2)C1=O
REMARK SMILES IDX 24 1 23 2 22 3 21 4 20 5 19 6 17 7 18 8 16 9 12 10 13 11
REMARK SMILES IDX 14 12 15 13 10 14 11 15 9 16 8 17 7 18 1 19 2 20 3 21 4 22
REMARK SMILES IDX 100 23 5 24 101 26 6 27 25 28 26 29 27 30 28 31 29 32 30 33
REMARK SMILES IDX 31 34 32 35 33 36 34 37 35 38 99 39 36 40 98 41 37 42 38 43
REMARK SMILES IDX 39 44 92 45 40 46 97 47 91 48 93 49 41 50 96 51 90 52 89 53
REMARK SMILES IDX 42 55 76 56 55 57 75 58 56 59 59 60 74 61 94 62 57 63 58 64
REMARK SMILES IDX 73 66 95 67 60 68 43 69 44 70 53 71 45 72 46 73 52 74 54 75
REMARK SMILES IDX 47 76 48 77 49 78 50 79 51 80 77 81 78 82 87 83 79 84 80 85
REMARK SMILES IDX 86 86 88 87 81 88 82 89 83 90 84 91 85 92 61 93 62 94 71 95
REMARK SMILES IDX 63 96 64 97 70 98 72 99 65 100 66 101 67 102 68 103 69 104
REMARK H PARENT 4 25 93 54 59 65
REMARK Flexibility Score: inf
ROOT
ATOM      1  C   UNL A   1      41.736  19.834  27.092  1.00  0.00     0.188 C 
ENDROOT
BRANCH   1   2
ATOM      2  C   UNL A   1      41.093  21.109  27.633  1.00  0.00     0.188 C 
BRANCH   2   3
ATOM      3  O   UNL A   1      39.955  21.548  26.906  1.00  0.00    -0.376 OA
BRANCH   3   4
ATOM      4  C   UNL A   1      39.883  22.946  26.640  1.00  0.00     0.202 C 
BRANCH   4   5
ATOM      5  C   UNL A   1      38.540  23.495  26.129  1.00  0.00     0.261 C 
BRANCH   5   6
ATOM      6  O   UNL A   1      37.453  22.544  26.176  1.00  0.00    -0.462 OA
BRANCH   6   7
ATOM      7  C   UNL A   1      37.090  21.908  25.042  1.00  0.00     0.328 C 
ATOM      8  O   UNL A   1      37.659  20.910  24.610  1.00  0.00    -0.250 OA
BRANCH   7   9
ATOM      9  C   UNL A   1      35.740  22.417  24.468  1.00  0.00     0.195 C 
ATOM     10  N   UNL A   1      34.445  21.767  24.688  1.00  0.00    -0.329 N 
ATOM     11  C   UNL A   1      34.014  22.197  26.012  1.00  0.00     0.120 C 
ATOM     12  C   UNL A   1      34.421  23.667  26.078  1.00  0.00     0.024 C 
ATOM     13  C   UNL A   1      35.469  23.839  24.972  1.00  0.00     0.039 C 
BRANCH  10  14
ATOM     14  C   UNL A   1      33.470  21.715  23.679  1.00  0.00     0.225 C 
ATOM     15  O   UNL A   1      33.357  22.627  22.853  1.00  0.00    -0.275 OA
BRANCH  14  16
ATOM     16  C   UNL A   1      32.365  20.651  23.736  1.00  0.00     0.122 C 
BRANCH  16  17
ATOM     17  C   UNL A   1      32.475  19.200  23.253  1.00  0.00     0.140 C 
BRANCH  17  18
ATOM     18  N   UNL A   1      32.886  18.160  24.178  1.00  0.00    -0.262 N 
ATOM     19  C   UNL A   1      35.230  15.851  25.387  1.00  0.00     0.045 C 
ATOM     20  C   UNL A   1      33.765  16.183  25.162  1.00  0.00     0.115 C 
ATOM     21  C   UNL A   1      32.920  14.920  25.180  1.00  0.00     0.045 C 
ATOM     22  N   UNL A   1      33.301  17.156  26.119  1.00  0.00    -0.324 N 
ATOM     23  C   UNL A   1      33.517  16.982  23.860  1.00  0.00     0.255 C 
ATOM     24  C   UNL A   1      32.887  18.325  25.529  1.00  0.00     0.325 C 
ATOM     25  H   UNL A   1      33.282  17.000  27.091  1.00  0.00     0.166 HD
ATOM     26  O   UNL A   1      33.824  16.607  22.736  1.00  0.00    -0.272 OA
ATOM     27  O   UNL A   1      32.532  19.314  26.146  1.00  0.00    -0.248 OA
ENDBRANCH  17  18
ENDBRANCH  16  17
ENDBRANCH  14  16
ENDBRANCH  10  14
ENDBRANCH   7   9
ENDBRANCH   6   7
ENDBRANCH   5   6
ENDBRANCH   4   5
ENDBRANCH   3   4
ENDBRANCH   2   3
ENDBRANCH   1   2
BRANCH   1  28
ATOM     28  O   UNL A   1      42.044  19.763  25.722  1.00  0.00    -0.377 OA
BRANCH  28  29
ATOM     29  C   UNL A   1      43.408  19.649  25.372  1.00  0.00     0.188 C 
BRANCH  29  30
ATOM     30  C   UNL A   1      44.283  20.914  25.331  1.00  0.00     0.188 C 
BRANCH  30  31
ATOM     31  O   UNL A   1      43.970  21.834  24.289  1.00  0.00    -0.376 OA
BRANCH  31  32
ATOM     32  C   UNL A   1      43.896  23.207  24.651  1.00  0.00     0.202 C 
BRANCH  32  33
ATOM     33  C   UNL A   1      45.185  23.782  25.251  1.00  0.00     0.261 C 
BRANCH  33  34
ATOM     34  O   UNL A   1      45.290  25.214  25.245  1.00  0.00    -0.460 OA
BRANCH  34  35
ATOM     35  C   UNL A   1      46.457  25.778  25.628  1.00  0.00     0.338 C 
ATOM     36  O   UNL A   1      47.579  25.464  25.271  1.00  0.00    -0.246 OA
BRANCH  35  37
ATOM     37  C   UNL A   1      46.115  27.011  26.372  1.00  0.00     0.060 A 
ATOM     38  C   UNL A   1      45.173  27.889  25.815  1.00  0.00     0.016 A 
ATOM     39  C   UNL A   1      46.601  27.221  27.667  1.00  0.00     0.016 A 
ATOM     40  C   UNL A   1      44.724  28.986  26.552  1.00  0.00     0.010 A 
ATOM     41  C   UNL A   1      46.182  28.341  28.388  1.00  0.00     0.010 A 
ATOM     42  C   UNL A   1      45.264  29.243  27.821  1.00  0.00    -0.014 A 
BRANCH  42  43
ATOM     43  C   UNL A   1      45.129  30.600  28.403  1.00  0.00     0.031 A 
ATOM     44  C   UNL A   1      46.148  31.620  27.969  1.00  0.00     0.074 A 
ATOM     45  C   UNL A   1      44.165  30.924  29.284  1.00  0.00     0.049 A 
ATOM     46  N   UNL A   1      46.291  32.862  28.341  1.00  0.00    -0.248 NA
ATOM     47  C   UNL A   1      47.146  31.168  26.982  1.00  0.00     0.031 C 
ATOM     48  C   UNL A   1      43.111  30.033  29.767  1.00  0.00     0.029 A 
ATOM     49  N   UNL A   1      43.929  32.107  29.943  1.00  0.00    -0.354 N 
ATOM     50  C   UNL A   1      47.394  33.336  27.641  1.00  0.00     0.074 A 
ATOM     51  C   UNL A   1      47.894  32.250  26.831  1.00  0.00     0.031 C 
ATOM     52  C   UNL A   1      42.353  30.697  30.660  1.00  0.00     0.029 A 
ATOM     53  C   UNL A   1      42.881  32.051  30.831  1.00  0.00     0.049 A 
ATOM     54  H   UNL A   1      44.463  32.921  29.792  1.00  0.00     0.167 HD
ATOM     55  C   UNL A   1      47.944  34.569  27.668  1.00  0.00     0.037 A 
ATOM     56  C   UNL A   1      42.422  32.983  31.694  1.00  0.00     0.037 A 
ATOM     57  C   UNL A   1      47.454  35.648  28.475  1.00  0.00     0.049 A 
ATOM     58  C   UNL A   1      43.092  34.339  31.741  1.00  0.00     0.074 A 
ATOM     59  C   UNL A   1      47.922  36.948  28.544  1.00  0.00     0.029 A 
ATOM     60  N   UNL A   1      46.397  35.550  29.364  1.00  0.00    -0.354 N 
ATOM     61  N   UNL A   1      44.092  34.794  31.024  1.00  0.00    -0.248 NA
ATOM     62  C   UNL A   1      42.571  35.307  32.720  1.00  0.00     0.031 C 
ATOM     63  C   UNL A   1      47.176  37.623  29.514  1.00  0.00     0.029 A 
ATOM     64  C   UNL A   1      46.213  36.759  30.010  1.00  0.00     0.049 A 
ATOM     65  H   UNL A   1      45.856  34.740  29.513  1.00  0.00     0.167 HD
ATOM     66  C   UNL A   1      44.294  36.109  31.438  1.00  0.00     0.074 A 
ATOM     67  C   UNL A   1      43.310  36.378  32.464  1.00  0.00     0.031 C 
ATOM     68  C   UNL A   1      45.209  37.013  31.009  1.00  0.00     0.037 A 
BRANCH  55  69
ATOM     69  C   UNL A   1      49.159  34.806  26.821  1.00  0.00     0.058 A 
ATOM     70  C   UNL A   1      49.057  35.143  25.463  1.00  0.00     0.135 A 
ATOM     71  C   UNL A   1      50.440  34.731  27.390  1.00  0.00     0.135 A 
ATOM     72  F   UNL A   1      47.855  35.194  24.867  1.00  0.00    -0.206 F 
ATOM     73  C   UNL A   1      50.187  35.400  24.695  1.00  0.00     0.059 A 
ATOM     74  C   UNL A   1      51.581  35.005  26.646  1.00  0.00     0.059 A 
ATOM     75  F   UNL A   1      50.588  34.392  28.680  1.00  0.00    -0.206 F 
ATOM     76  C   UNL A   1      51.444  35.334  25.298  1.00  0.00     0.060 A 
BRANCH  76  77
ATOM     77  S   UNL A   1      52.898  35.715  24.300  1.00  0.00     0.124 S 
ATOM     78  O   UNL A   1      53.865  34.751  24.814  1.00  0.00    -0.237 OA
ATOM     79  O   UNL A   1      52.418  35.469  22.943  1.00  0.00    -0.237 OA
ATOM     80  O   UNL A   1      53.174  37.112  24.619  1.00  0.00    -0.744 OA
ENDBRANCH  76  77
ENDBRANCH  55  69
BRANCH  56  81
ATOM     81  C   UNL A   1      41.289  32.681  32.614  1.00  0.00     0.058 A 
ATOM     82  C   UNL A   1      39.956  32.861  32.211  1.00  0.00     0.135 A 
ATOM     83  C   UNL A   1      41.518  32.277  33.938  1.00  0.00     0.135 A 
ATOM     84  F   UNL A   1      39.683  33.261  30.959  1.00  0.00    -0.206 F 
ATOM     85  C   UNL A   1      38.895  32.684  33.094  1.00  0.00     0.059 A 
ATOM     86  C   UNL A   1      40.472  32.069  34.833  1.00  0.00     0.059 A 
ATOM     87  F   UNL A   1      42.772  32.085  34.376  1.00  0.00    -0.206 F 
ATOM     88  C   UNL A   1      39.164  32.294  34.406  1.00  0.00     0.060 A 
BRANCH  88  89
ATOM     89  S   UNL A   1      37.782  32.061  35.547  1.00  0.00     0.124 S 
ATOM     90  O   UNL A   1      38.179  32.906  36.666  1.00  0.00    -0.237 OA
ATOM     91  O   UNL A   1      36.648  32.534  34.759  1.00  0.00    -0.237 OA
ATOM     92  O   UNL A   1      37.799  30.623  35.802  1.00  0.00    -0.744 OA
ENDBRANCH  88  89
ENDBRANCH  56  81
BRANCH  68  93
ATOM     93  C   UNL A   1      45.166  38.393  31.602  1.00  0.00     0.058 A 
ATOM     94  C   UNL A   1      44.317  39.389  31.097  1.00  0.00     0.135 A 
ATOM     95  C   UNL A   1      45.925  38.694  32.746  1.00  0.00     0.135 A 
ATOM     96  F   UNL A   1      43.572  39.152  30.006  1.00  0.00    -0.206 F 
ATOM     97  C   UNL A   1      44.233  40.641  31.695  1.00  0.00     0.059 A 
ATOM     98  C   UNL A   1      45.838  39.931  33.375  1.00  0.00     0.059 A 
ATOM     99  F   UNL A   1      46.742  37.771  33.277  1.00  0.00    -0.206 F 
ATOM    100  C   UNL A   1      44.995  40.903  32.836  1.00  0.00     0.060 A 
BRANCH 100 101
ATOM    101  S   UNL A   1      44.842  42.515  33.633  1.00  0.00     0.124 S 
ATOM    102  O   UNL A   1      44.554  42.135  35.011  1.00  0.00    -0.237 OA
ATOM    103  O   UNL A   1      46.155  43.107  33.398  1.00  0.00    -0.237 OA
ATOM    104  O   UNL A   1      43.740  43.147  32.912  1.00  0.00    -0.744 OA
ENDBRANCH 100 101
ENDBRANCH  68  93
ENDBRANCH  42  43
ENDBRANCH  35  37
ENDBRANCH  34  35
ENDBRANCH  33  34
ENDBRANCH  32  33
ENDBRANCH  31  32
ENDBRANCH  30  31
ENDBRANCH  29  30
ENDBRANCH  28  29
ENDBRANCH   1  28
TORSDOF 27
ENDMDL
MODEL 3
REMARK VINA RESULT:      -8.0      4.116      8.358
REMARK SMILES CC1(C)NC(=O)N(CCC(=O)N2CCC[C@H]2C(=O)OCCOCCOCCOCCOC(=O)c2ccc(-c3c4nc(c(-c5c(F)cc(S(=O)(=O)[O-])cc5F)c5ccc([nH]5)c(-c5c(F)cc(S(=O)(=O)[O-])cc5F)c5nc(c(-c6c(F)cc(S(=O)(=O)[O-])cc6F)c6ccc3[nH]6)C=C5)C=C4)cc2)C1=O
REMARK SMILES IDX 24 1 23 2 22 3 21 4 20 5 19 6 17 7 18 8 16 9 12 10 13 11
REMARK SMILES IDX 14 12 15 13 10 14 11 15 9 16 8 17 7 18 1 19 2 20 3 21 4 22
REMARK SMILES IDX 100 23 5 24 101 26 6 27 25 28 26 29 27 30 28 31 29 32 30 33
REMARK SMILES IDX 31 34 32 35 33 36 34 37 35 38 99 39 36 40 98 41 37 42 38 43
REMARK SMILES IDX 39 44 92 45 40 46 97 47 91 48 93 49 41 50 96 51 90 52 89 53
REMARK SMILES IDX 42 55 76 56 55 57 75 58 56 59 59 60 74 61 94 62 57 63 58 64
REMARK SMILES IDX 73 66 95 67 60 68 43 69 44 70 53 71 45 72 46 73 52 74 54 75
REMARK SMILES IDX 47 76 48 77 49 78 50 79 51 80 77 81 78 82 87 83 79 84 80 85
REMARK SMILES IDX 86 86 88 87 81 88 82 89 83 90 84 91 85 92 61 93 62 94 71 95
REMARK SMILES IDX 63 96 64 97 70 98 72 99 65 100 66 101 67 102 68 103 69 104
REMARK H PARENT 4 25 93 54 59 65
REMARK Flexibility Score: inf
ROOT
ATOM      1  C   UNL A   1      40.579  20.630  26.484  1.00  0.00     0.188 C 
ENDROOT
BRANCH   1   2
ATOM      2  C   UNL A   1      40.010  22.047  26.498  1.00  0.00     0.188 C 
BRANCH   2   3
ATOM      3  O   UNL A   1      38.680  22.151  26.009  1.00  0.00    -0.376 OA
BRANCH   3   4
ATOM      4  C   UNL A   1      37.934  23.277  26.461  1.00  0.00     0.202 C 
BRANCH   4   5
ATOM      5  C   UNL A   1      36.995  23.950  25.446  1.00  0.00     0.261 C 
BRANCH   5   6
ATOM      6  O   UNL A   1      35.616  24.025  25.871  1.00  0.00    -0.462 OA
BRANCH   6   7
ATOM      7  C   UNL A   1      34.696  23.257  25.249  1.00  0.00     0.328 C 
ATOM      8  O   UNL A   1      34.782  22.036  25.156  1.00  0.00    -0.250 OA
BRANCH   7   9
ATOM      9  C   UNL A   1      33.408  24.038  24.875  1.00  0.00     0.195 C 
ATOM     10  N   UNL A   1      32.527  24.700  25.842  1.00  0.00    -0.329 N 
ATOM     11  C   UNL A   1      33.175  25.968  26.152  1.00  0.00     0.120 C 
ATOM     12  C   UNL A   1      33.726  26.443  24.809  1.00  0.00     0.024 C 
ATOM     13  C   UNL A   1      33.760  25.189  23.928  1.00  0.00     0.039 C 
BRANCH  10  14
ATOM     14  C   UNL A   1      31.133  24.712  25.676  1.00  0.00     0.225 C 
ATOM     15  O   UNL A   1      30.376  24.759  26.651  1.00  0.00    -0.275 OA
BRANCH  14  16
ATOM     16  C   UNL A   1      30.522  24.414  24.300  1.00  0.00     0.122 C 
BRANCH  16  17
ATOM     17  C   UNL A   1      30.542  25.338  23.076  1.00  0.00     0.140 C 
BRANCH  17  18
ATOM     18  N   UNL A   1      30.151  26.728  23.215  1.00  0.00    -0.262 N 
ATOM     19  C   UNL A   1      29.798  29.978  21.949  1.00  0.00     0.045 C 
ATOM     20  C   UNL A   1      30.068  29.103  23.161  1.00  0.00     0.115 C 
ATOM     21  C   UNL A   1      30.764  29.897  24.253  1.00  0.00     0.045 C 
ATOM     22  N   UNL A   1      28.853  28.486  23.635  1.00  0.00    -0.324 N 
ATOM     23  C   UNL A   1      30.874  27.827  22.821  1.00  0.00     0.255 C 
ATOM     24  C   UNL A   1      28.893  27.115  23.566  1.00  0.00     0.325 C 
ATOM     25  H   UNL A   1      28.079  28.992  23.971  1.00  0.00     0.166 HD
ATOM     26  O   UNL A   1      31.982  27.814  22.301  1.00  0.00    -0.272 OA
ATOM     27  O   UNL A   1      27.953  26.389  23.835  1.00  0.00    -0.248 OA
ENDBRANCH  17  18
ENDBRANCH  16  17
ENDBRANCH  14  16
ENDBRANCH  10  14
ENDBRANCH   7   9
ENDBRANCH   6   7
ENDBRANCH   5   6
ENDBRANCH   4   5
ENDBRANCH   3   4
ENDBRANCH   2   3
ENDBRANCH   1   2
BRANCH   1  28
ATOM     28  O   UNL A   1      41.910  20.443  26.070  1.00  0.00    -0.377 OA
BRANCH  28  29
ATOM     29  C   UNL A   1      42.443  19.139  26.179  1.00  0.00     0.188 C 
BRANCH  29  30
ATOM     30  C   UNL A   1      43.757  18.800  25.455  1.00  0.00     0.188 C 
BRANCH  30  31
ATOM     31  O   UNL A   1      44.097  19.669  24.378  1.00  0.00    -0.376 OA
BRANCH  31  32
ATOM     32  C   UNL A   1      44.986  20.737  24.676  1.00  0.00     0.202 C 
BRANCH  32  33
ATOM     33  C   UNL A   1      44.826  21.974  23.783  1.00  0.00     0.261 C 
BRANCH  33  34
ATOM     34  O   UNL A   1      44.785  23.235  24.467  1.00  0.00    -0.460 OA
BRANCH  34  35
ATOM     35  C   UNL A   1      45.945  23.897  24.671  1.00  0.00     0.338 C 
ATOM     36  O   UNL A   1      46.941  23.872  23.970  1.00  0.00    -0.246 OA
BRANCH  35  37
ATOM     37  C   UNL A   1      45.705  24.857  25.772  1.00  0.00     0.060 A 
ATOM     38  C   UNL A   1      46.782  25.631  26.231  1.00  0.00     0.016 A 
ATOM     39  C   UNL A   1      44.409  25.099  26.239  1.00  0.00     0.016 A 
ATOM     40  C   UNL A   1      46.562  26.642  27.168  1.00  0.00     0.010 A 
ATOM     41  C   UNL A   1      44.197  26.084  27.205  1.00  0.00     0.010 A 
ATOM     42  C   UNL A   1      45.277  26.838  27.695  1.00  0.00    -0.014 A 
BRANCH  42  43
ATOM     43  C   UNL A   1      45.124  27.581  28.969  1.00  0.00     0.031 A 
ATOM     44  C   UNL A   1      45.179  26.763  30.232  1.00  0.00     0.074 A 
ATOM     45  C   UNL A   1      44.931  28.911  29.020  1.00  0.00     0.049 A 
ATOM     46  N   UNL A   1      45.040  27.141  31.473  1.00  0.00    -0.248 NA
ATOM     47  C   UNL A   1      45.419  25.318  30.066  1.00  0.00     0.031 C 
ATOM     48  C   UNL A   1      44.878  29.814  27.871  1.00  0.00     0.029 A 
ATOM     49  N   UNL A   1      44.730  29.736  30.101  1.00  0.00    -0.354 N 
ATOM     50  C   UNL A   1      45.170  25.984  32.232  1.00  0.00     0.074 A 
ATOM     51  C   UNL A   1      45.384  24.887  31.317  1.00  0.00     0.031 C 
ATOM     52  C   UNL A   1      44.638  31.065  28.309  1.00  0.00     0.029 A 
ATOM     53  C   UNL A   1      44.497  31.049  29.765  1.00  0.00     0.049 A 
ATOM     54  H   UNL A   1      44.750  29.415  31.032  1.00  0.00     0.167 HD
ATOM     55  C   UNL A   1      45.114  25.844  33.574  1.00  0.00     0.037 A 
ATOM     56  C   UNL A   1      44.186  32.105  30.547  1.00  0.00     0.037 A 
ATOM     57  C   UNL A   1      44.895  26.929  34.485  1.00  0.00     0.049 A 
ATOM     58  C   UNL A   1      44.078  31.909  32.044  1.00  0.00     0.074 A 
ATOM     59  C   UNL A   1      44.859  26.895  35.867  1.00  0.00     0.029 A 
ATOM     60  N   UNL A   1      44.659  28.240  34.106  1.00  0.00    -0.354 N 
ATOM     61  N   UNL A   1      44.270  30.821  32.752  1.00  0.00    -0.248 NA
ATOM     62  C   UNL A   1      43.708  33.085  32.847  1.00  0.00     0.031 C 
ATOM     63  C   UNL A   1      44.551  28.180  36.322  1.00  0.00     0.029 A 
ATOM     64  C   UNL A   1      44.446  29.022  35.226  1.00  0.00     0.049 A 
ATOM     65  H   UNL A   1      44.645  28.567  33.176  1.00  0.00     0.167 HD
ATOM     66  C   UNL A   1      44.080  31.190  34.082  1.00  0.00     0.074 A 
ATOM     67  C   UNL A   1      43.764  32.602  34.081  1.00  0.00     0.031 C 
ATOM     68  C   UNL A   1      44.160  30.433  35.203  1.00  0.00     0.037 A 
BRANCH  55  69
ATOM     69  C   UNL A   1      45.263  24.461  34.134  1.00  0.00     0.058 A 
ATOM     70  C   UNL A   1      44.154  23.632  34.355  1.00  0.00     0.135 A 
ATOM     71  C   UNL A   1      46.539  23.948  34.415  1.00  0.00     0.135 A 
ATOM     72  F   UNL A   1      42.911  24.090  34.133  1.00  0.00    -0.206 F 
ATOM     73  C   UNL A   1      44.304  22.336  34.836  1.00  0.00     0.059 A 
ATOM     74  C   UNL A   1      46.714  22.649  34.877  1.00  0.00     0.059 A 
ATOM     75  F   UNL A   1      47.629  24.712  34.238  1.00  0.00    -0.206 F 
ATOM     76  C   UNL A   1      45.588  21.852  35.088  1.00  0.00     0.060 A 
BRANCH  76  77
ATOM     77  S   UNL A   1      45.770  20.154  35.669  1.00  0.00     0.124 S 
ATOM     78  O   UNL A   1      47.083  19.802  35.136  1.00  0.00    -0.237 OA
ATOM     79  O   UNL A   1      45.697  20.310  37.119  1.00  0.00    -0.237 OA
ATOM     80  O   UNL A   1      44.639  19.462  35.059  1.00  0.00    -0.744 OA
ENDBRANCH  76  77
ENDBRANCH  55  69
BRANCH  56  81
ATOM     81  C   UNL A   1      43.922  33.445  29.953  1.00  0.00     0.058 A 
ATOM     82  C   UNL A   1      42.621  33.844  29.604  1.00  0.00     0.135 A 
ATOM     83  C   UNL A   1      44.972  34.327  29.654  1.00  0.00     0.135 A 
ATOM     84  F   UNL A   1      41.582  33.032  29.855  1.00  0.00    -0.206 F 
ATOM     85  C   UNL A   1      42.375  35.049  28.952  1.00  0.00     0.059 A 
ATOM     86  C   UNL A   1      44.749  35.549  29.026  1.00  0.00     0.059 A 
ATOM     87  F   UNL A   1      46.235  34.000  29.970  1.00  0.00    -0.206 F 
ATOM     88  C   UNL A   1      43.448  35.892  28.661  1.00  0.00     0.060 A 
BRANCH  88  89
ATOM     89  S   UNL A   1      43.122  37.458  27.819  1.00  0.00     0.124 S 
ATOM     90  O   UNL A   1      42.937  38.364  28.947  1.00  0.00    -0.237 OA
ATOM     91  O   UNL A   1      44.342  37.648  27.040  1.00  0.00    -0.237 OA
ATOM     92  O   UNL A   1      41.925  37.171  27.033  1.00  0.00    -0.744 OA
ENDBRANCH  88  89
ENDBRANCH  56  81
BRANCH  68  93
ATOM     93  C   UNL A   1      43.956  31.112  36.528  1.00  0.00     0.058 A 
ATOM     94  C   UNL A   1      42.677  31.288  37.079  1.00  0.00     0.135 A 
ATOM     95  C   UNL A   1      45.063  31.513  37.294  1.00  0.00     0.135 A 
ATOM     96  F   UNL A   1      41.587  30.923  36.387  1.00  0.00    -0.206 F 
ATOM     97  C   UNL A   1      42.503  31.855  38.337  1.00  0.00     0.059 A 
ATOM     98  C   UNL A   1      44.913  32.057  38.565  1.00  0.00     0.059 A 
ATOM     99  F   UNL A   1      46.308  31.352  36.818  1.00  0.00    -0.206 F 
ATOM    100  C   UNL A   1      43.627  32.233  39.075  1.00  0.00     0.060 A 
BRANCH 100 101
ATOM    101  S   UNL A   1      43.390  32.922  40.726  1.00  0.00     0.124 S 
ATOM    102  O   UNL A   1      42.702  31.829  41.404  1.00  0.00    -0.237 OA
ATOM    103  O   UNL A   1      44.761  33.176  41.160  1.00  0.00    -0.237 OA
ATOM    104  O   UNL A   1      42.586  34.117  40.483  1.00  0.00    -0.744 OA
ENDBRANCH 100 101
ENDBRANCH  68  93
ENDBRANCH  42  43
ENDBRANCH  35  37
ENDBRANCH  34  35
ENDBRANCH  33  34
ENDBRANCH  32  33
ENDBRANCH  31  32
ENDBRANCH  30  31
ENDBRANCH  29  30
ENDBRANCH  28  29
ENDBRANCH   1  28
TORSDOF 27
ENDMDL
