MODEL 1
REMARK VINA RESULT:     -10.3      0.000      0.000
REMARK SMILES Cc1c(Cc2nc(C(C)(C)C)cs2)cccc1C(=O)OCCOCCOCCOCCOC(=O)c1ccc(-c2c3nc(c(-c4c(F)cc(S(=O)(=O)[O-])cc4F)c4ccc([nH]4)c(-c4c(F)cc(S(=O)(=O)[O-])cc4F)c4nc(c(-c5c(F)cc(S(=O)(=O)[O-])cc5F)c5ccc2[nH]5)C=C4)C=C3)cc1
REMARK SMILES IDX 26 1 25 2 24 3 23 4 22 5 21 6 20 7 18 8 19 9 17 10 1 11 2 12
REMARK SMILES IDX 3 13 14 14 16 15 15 16 4 17 5 18 6 19 13 20 7 21 12 22 8 23
REMARK SMILES IDX 9 24 10 25 11 26 27 27 28 28 29 29 30 30 31 31 32 32 33 33
REMARK SMILES IDX 34 34 35 35 36 36 100 37 37 38 99 39 38 40 39 41 40 42 93 43
REMARK SMILES IDX 41 44 98 45 92 46 94 47 42 48 97 49 91 50 90 51 43 53 77 54
REMARK SMILES IDX 56 55 76 56 57 57 60 58 75 59 95 60 58 61 59 62 74 64 96 65
REMARK SMILES IDX 61 66 44 67 45 68 54 69 46 70 47 71 53 72 55 73 48 74 49 75
REMARK SMILES IDX 50 76 51 77 52 78 78 79 79 80 88 81 80 82 81 83 87 84 89 85
REMARK SMILES IDX 82 86 83 87 84 88 85 89 86 90 62 91 63 92 72 93 64 94 65 95
REMARK SMILES IDX 71 96 73 97 66 98 67 99 68 100 69 101 70 102
REMARK H PARENT 94 52 60 63
REMARK Flexibility Score: inf
ROOT
ATOM      1  O   UNL A   1      35.299  17.233  24.893  1.00  0.00    -0.377 OA
ENDROOT
BRANCH   1   2
ATOM      2  C   UNL A   1      33.937  16.855  24.800  1.00  0.00     0.188 C 
BRANCH   2   3
ATOM      3  C   UNL A   1      32.878  17.562  25.666  1.00  0.00     0.188 C 
BRANCH   3   4
ATOM      4  O   UNL A   1      31.957  18.479  25.102  1.00  0.00    -0.376 OA
BRANCH   4   5
ATOM      5  C   UNL A   1      32.482  19.775  24.826  1.00  0.00     0.202 C 
BRANCH   5   6
ATOM      6  C   UNL A   1      33.391  20.409  25.866  1.00  0.00     0.261 C 
BRANCH   6   7
ATOM      7  O   UNL A   1      32.692  21.505  26.443  1.00  0.00    -0.460 OA
BRANCH   7   8
ATOM      8  C   UNL A   1      33.279  22.699  26.292  1.00  0.00     0.338 C 
ATOM      9  O   UNL A   1      34.330  23.062  26.772  1.00  0.00    -0.246 OA
BRANCH   8  10
ATOM     10  C   UNL A   1      32.621  23.369  25.137  1.00  0.00     0.063 A 
ATOM     11  C   UNL A   1      30.347  23.895  26.237  1.00  0.00     0.045 C 
ATOM     12  C   UNL A   1      31.333  23.952  25.101  1.00  0.00    -0.033 A 
ATOM     13  C   UNL A   1      30.950  24.629  23.922  1.00  0.00    -0.037 A 
ATOM     14  C   UNL A   1      31.742  24.510  22.761  1.00  0.00     0.004 A 
ATOM     15  C   UNL A   1      33.387  23.263  23.962  1.00  0.00     0.016 A 
ATOM     16  C   UNL A   1      32.930  23.794  22.769  1.00  0.00     0.001 A 
BRANCH  13  17
ATOM     17  C   UNL A   1      29.846  25.684  23.928  1.00  0.00     0.103 C 
BRANCH  17  18
ATOM     18  C   UNL A   1      30.496  27.036  24.004  1.00  0.00     0.097 A 
ATOM     19  N   UNL A   1      31.341  27.351  24.961  1.00  0.00    -0.245 NA
ATOM     20  S   UNL A   1      30.041  28.338  22.986  1.00  0.00    -0.127 S 
ATOM     21  C   UNL A   1      31.421  28.722  25.098  1.00  0.00     0.057 A 
ATOM     22  C   UNL A   1      30.850  29.422  24.048  1.00  0.00     0.091 A 
BRANCH  21  23
ATOM     23  C   UNL A   1      32.108  29.263  26.337  1.00  0.00     0.005 C 
ATOM     24  C   UNL A   1      31.737  30.741  26.525  1.00  0.00     0.017 C 
ATOM     25  C   UNL A   1      31.707  28.459  27.589  1.00  0.00     0.017 C 
ATOM     26  C   UNL A   1      33.646  29.152  26.197  1.00  0.00     0.017 C 
ENDBRANCH  21  23
ENDBRANCH  17  18
ENDBRANCH  13  17
ENDBRANCH   8  10
ENDBRANCH   7   8
ENDBRANCH   6   7
ENDBRANCH   5   6
ENDBRANCH   4   5
ENDBRANCH   3   4
ENDBRANCH   2   3
ENDBRANCH   1   2
BRANCH   1  27
ATOM     27  C   UNL A   1      35.705  18.469  24.300  1.00  0.00     0.188 C 
BRANCH  27  28
ATOM     28  C   UNL A   1      36.876  19.219  24.911  1.00  0.00     0.188 C 
BRANCH  28  29
ATOM     29  O   UNL A   1      36.416  20.546  25.168  1.00  0.00    -0.376 OA
BRANCH  29  30
ATOM     30  C   UNL A   1      36.892  21.556  24.302  1.00  0.00     0.202 C 
BRANCH  30  31
ATOM     31  C   UNL A   1      37.482  22.765  25.029  1.00  0.00     0.261 C 
BRANCH  31  32
ATOM     32  O   UNL A   1      37.953  22.438  26.362  1.00  0.00    -0.460 OA
BRANCH  32  33
ATOM     33  C   UNL A   1      39.267  22.641  26.691  1.00  0.00     0.338 C 
ATOM     34  O   UNL A   1      40.111  21.762  26.611  1.00  0.00    -0.246 OA
BRANCH  33  35
ATOM     35  C   UNL A   1      39.619  24.080  26.849  1.00  0.00     0.060 A 
ATOM     36  C   UNL A   1      40.207  24.841  25.828  1.00  0.00     0.016 A 
ATOM     37  C   UNL A   1      39.376  24.687  28.065  1.00  0.00     0.016 A 
ATOM     38  C   UNL A   1      40.743  26.121  26.091  1.00  0.00     0.010 A 
ATOM     39  C   UNL A   1      39.945  25.915  28.332  1.00  0.00     0.010 A 
ATOM     40  C   UNL A   1      40.685  26.637  27.381  1.00  0.00    -0.014 A 
BRANCH  40  41
ATOM     41  C   UNL A   1      41.401  27.828  27.902  1.00  0.00     0.031 A 
ATOM     42  C   UNL A   1      40.587  29.037  28.289  1.00  0.00     0.074 A 
ATOM     43  C   UNL A   1      42.666  27.683  28.383  1.00  0.00     0.049 A 
ATOM     44  N   UNL A   1      41.007  30.014  29.016  1.00  0.00    -0.248 NA
ATOM     45  C   UNL A   1      39.172  29.214  27.954  1.00  0.00     0.031 C 
ATOM     46  C   UNL A   1      43.300  28.477  29.439  1.00  0.00     0.029 A 
ATOM     47  N   UNL A   1      43.651  26.746  28.131  1.00  0.00    -0.354 N 
ATOM     48  C   UNL A   1      39.933  30.732  29.505  1.00  0.00     0.074 A 
ATOM     49  C   UNL A   1      38.810  30.224  28.758  1.00  0.00     0.031 C 
ATOM     50  C   UNL A   1      44.558  28.076  29.668  1.00  0.00     0.029 A 
ATOM     51  C   UNL A   1      44.895  27.192  28.587  1.00  0.00     0.049 A 
ATOM     52  H   UNL A   1      43.497  25.880  27.691  1.00  0.00     0.167 HD
ATOM     53  C   UNL A   1      40.142  31.586  30.558  1.00  0.00     0.037 A 
ATOM     54  C   UNL A   1      45.887  27.513  27.705  1.00  0.00     0.037 A 
ATOM     55  C   UNL A   1      41.596  31.754  30.801  1.00  0.00     0.049 A 
ATOM     56  C   UNL A   1      46.047  29.042  27.703  1.00  0.00     0.074 A 
ATOM     57  C   UNL A   1      42.435  31.593  31.891  1.00  0.00     0.029 A 
ATOM     58  N   UNL A   1      42.444  31.978  29.711  1.00  0.00    -0.354 N 
ATOM     59  N   UNL A   1      45.038  29.880  27.857  1.00  0.00    -0.248 NA
ATOM     60  C   UNL A   1      47.341  29.696  27.926  1.00  0.00     0.031 C 
ATOM     61  C   UNL A   1      43.779  31.522  31.401  1.00  0.00     0.029 A 
ATOM     62  C   UNL A   1      43.770  31.734  30.024  1.00  0.00     0.049 A 
ATOM     63  H   UNL A   1      42.135  32.275  28.825  1.00  0.00     0.167 HD
ATOM     64  C   UNL A   1      45.510  31.062  28.383  1.00  0.00     0.074 A 
ATOM     65  C   UNL A   1      46.962  30.918  28.346  1.00  0.00     0.031 C 
ATOM     66  C   UNL A   1      44.818  32.038  29.056  1.00  0.00     0.037 A 
BRANCH  53  67
ATOM     67  C   UNL A   1      39.071  32.183  31.492  1.00  0.00     0.058 A 
ATOM     68  C   UNL A   1      38.161  31.337  32.176  1.00  0.00     0.135 A 
ATOM     69  C   UNL A   1      38.816  33.561  31.695  1.00  0.00     0.135 A 
ATOM     70  F   UNL A   1      38.268  30.003  32.102  1.00  0.00    -0.206 F 
ATOM     71  C   UNL A   1      37.100  31.805  32.969  1.00  0.00     0.059 A 
ATOM     72  C   UNL A   1      37.788  34.054  32.526  1.00  0.00     0.059 A 
ATOM     73  F   UNL A   1      39.524  34.507  31.068  1.00  0.00    -0.206 F 
ATOM     74  C   UNL A   1      36.923  33.169  33.150  1.00  0.00     0.060 A 
BRANCH  74  75
ATOM     75  S   UNL A   1      35.588  33.749  34.226  1.00  0.00     0.124 S 
ATOM     76  O   UNL A   1      35.588  35.186  33.975  1.00  0.00    -0.237 OA
ATOM     77  O   UNL A   1      34.432  33.017  33.715  1.00  0.00    -0.237 OA
ATOM     78  O   UNL A   1      36.027  33.351  35.562  1.00  0.00    -0.744 OA
ENDBRANCH  74  75
ENDBRANCH  53  67
BRANCH  54  79
ATOM     79  C   UNL A   1      46.037  26.417  26.688  1.00  0.00     0.058 A 
ATOM     80  C   UNL A   1      46.481  25.191  27.247  1.00  0.00     0.135 A 
ATOM     81  C   UNL A   1      45.154  26.314  25.596  1.00  0.00     0.135 A 
ATOM     82  F   UNL A   1      47.349  25.205  28.272  1.00  0.00    -0.206 F 
ATOM     83  C   UNL A   1      45.881  23.967  26.936  1.00  0.00     0.059 A 
ATOM     84  C   UNL A   1      44.549  25.087  25.259  1.00  0.00     0.059 A 
ATOM     85  F   UNL A   1      44.693  27.423  25.000  1.00  0.00    -0.206 F 
ATOM     86  C   UNL A   1      44.864  23.937  25.989  1.00  0.00     0.060 A 
BRANCH  86  87
ATOM     87  S   UNL A   1      43.821  22.449  25.915  1.00  0.00     0.124 S 
ATOM     88  O   UNL A   1      43.207  22.437  27.236  1.00  0.00    -0.237 OA
ATOM     89  O   UNL A   1      42.929  22.752  24.797  1.00  0.00    -0.237 OA
ATOM     90  O   UNL A   1      44.780  21.386  25.654  1.00  0.00    -0.744 OA
ENDBRANCH  86  87
ENDBRANCH  54  79
BRANCH  66  91
ATOM     91  C   UNL A   1      45.096  33.499  28.771  1.00  0.00     0.058 A 
ATOM     92  C   UNL A   1      44.558  34.158  27.653  1.00  0.00     0.135 A 
ATOM     93  C   UNL A   1      45.733  34.331  29.729  1.00  0.00     0.135 A 
ATOM     94  F   UNL A   1      43.850  33.507  26.720  1.00  0.00    -0.206 F 
ATOM     95  C   UNL A   1      44.695  35.526  27.466  1.00  0.00     0.059 A 
ATOM     96  C   UNL A   1      45.824  35.708  29.588  1.00  0.00     0.059 A 
ATOM     97  F   UNL A   1      46.269  33.847  30.857  1.00  0.00    -0.206 F 
ATOM     98  C   UNL A   1      45.330  36.291  28.435  1.00  0.00     0.060 A 
BRANCH  98  99
ATOM     99  S   UNL A   1      45.497  38.057  28.166  1.00  0.00     0.124 S 
ATOM    100  O   UNL A   1      45.845  38.092  26.748  1.00  0.00    -0.237 OA
ATOM    101  O   UNL A   1      44.166  38.553  28.502  1.00  0.00    -0.237 OA
ATOM    102  O   UNL A   1      46.557  38.446  29.089  1.00  0.00    -0.744 OA
ENDBRANCH  98  99
ENDBRANCH  66  91
ENDBRANCH  40  41
ENDBRANCH  33  35
ENDBRANCH  32  33
ENDBRANCH  31  32
ENDBRANCH  30  31
ENDBRANCH  29  30
ENDBRANCH  28  29
ENDBRANCH  27  28
ENDBRANCH   1  27
TORSDOF 26
ENDMDL
MODEL 2
REMARK VINA RESULT:      -9.5      2.169      2.643
REMARK SMILES Cc1c(Cc2nc(C(C)(C)C)cs2)cccc1C(=O)OCCOCCOCCOCCOC(=O)c1ccc(-c2c3nc(c(-c4c(F)cc(S(=O)(=O)[O-])cc4F)c4ccc([nH]4)c(-c4c(F)cc(S(=O)(=O)[O-])cc4F)c4nc(c(-c5c(F)cc(S(=O)(=O)[O-])cc5F)c5ccc2[nH]5)C=C4)C=C3)cc1
REMARK SMILES IDX 26 1 25 2 24 3 23 4 22 5 21 6 20 7 18 8 19 9 17 10 1 11 2 12
REMARK SMILES IDX 3 13 14 14 16 15 15 16 4 17 5 18 6 19 13 20 7 21 12 22 8 23
REMARK SMILES IDX 9 24 10 25 11 26 27 27 28 28 29 29 30 30 31 31 32 32 33 33
REMARK SMILES IDX 34 34 35 35 36 36 100 37 37 38 99 39 38 40 39 41 40 42 93 43
REMARK SMILES IDX 41 44 98 45 92 46 94 47 42 48 97 49 91 50 90 51 43 53 77 54
REMARK SMILES IDX 56 55 76 56 57 57 60 58 75 59 95 60 58 61 59 62 74 64 96 65
REMARK SMILES IDX 61 66 44 67 45 68 54 69 46 70 47 71 53 72 55 73 48 74 49 75
REMARK SMILES IDX 50 76 51 77 52 78 78 79 79 80 88 81 80 82 81 83 87 84 89 85
REMARK SMILES IDX 82 86 83 87 84 88 85 89 86 90 62 91 63 92 72 93 64 94 65 95
REMARK SMILES IDX 71 96 73 97 66 98 67 99 68 100 69 101 70 102
REMARK H PARENT 94 52 60 63
REMARK Flexibility Score: inf
ROOT
ATOM      1  O   UNL A   1      35.469  18.046  24.379  1.00  0.00    -0.377 OA
ENDROOT
BRANCH   1   2
ATOM      2  C   UNL A   1      34.061  18.015  24.230  1.00  0.00     0.188 C 
BRANCH   2   3
ATOM      3  C   UNL A   1      33.151  18.467  25.388  1.00  0.00     0.188 C 
BRANCH   3   4
ATOM      4  O   UNL A   1      31.960  19.196  25.148  1.00  0.00    -0.376 OA
BRANCH   4   5
ATOM      5  C   UNL A   1      32.141  20.481  24.560  1.00  0.00     0.202 C 
BRANCH   5   6
ATOM      6  C   UNL A   1      32.889  21.531  25.364  1.00  0.00     0.261 C 
BRANCH   6   7
ATOM      7  O   UNL A   1      33.928  22.047  24.542  1.00  0.00    -0.460 OA
BRANCH   7   8
ATOM      8  C   UNL A   1      34.370  23.266  24.879  1.00  0.00     0.338 C 
ATOM      9  O   UNL A   1      35.220  23.534  25.699  1.00  0.00    -0.246 OA
BRANCH   8  10
ATOM     10  C   UNL A   1      33.921  24.205  23.814  1.00  0.00     0.063 A 
ATOM     11  C   UNL A   1      34.170  26.417  25.119  1.00  0.00     0.045 C 
ATOM     12  C   UNL A   1      33.867  25.617  23.880  1.00  0.00    -0.033 A 
ATOM     13  C   UNL A   1      33.504  26.316  22.708  1.00  0.00    -0.037 A 
ATOM     14  C   UNL A   1      32.993  25.607  21.602  1.00  0.00     0.004 A 
ATOM     15  C   UNL A   1      33.400  23.525  22.698  1.00  0.00     0.016 A 
ATOM     16  C   UNL A   1      32.898  24.222  21.614  1.00  0.00     0.001 A 
BRANCH  13  17
ATOM     17  C   UNL A   1      33.878  27.783  22.504  1.00  0.00     0.103 C 
BRANCH  17  18
ATOM     18  C   UNL A   1      32.855  28.626  23.210  1.00  0.00     0.097 A 
ATOM     19  N   UNL A   1      33.142  29.307  24.297  1.00  0.00    -0.245 NA
ATOM     20  S   UNL A   1      31.194  28.610  22.786  1.00  0.00    -0.127 S 
ATOM     21  C   UNL A   1      31.990  29.593  25.002  1.00  0.00     0.057 A 
ATOM     22  C   UNL A   1      30.827  29.367  24.285  1.00  0.00     0.091 A 
BRANCH  21  23
ATOM     23  C   UNL A   1      32.147  30.104  26.421  1.00  0.00     0.005 C 
ATOM     24  C   UNL A   1      33.629  30.395  26.700  1.00  0.00     0.017 C 
ATOM     25  C   UNL A   1      31.311  31.379  26.648  1.00  0.00     0.017 C 
ATOM     26  C   UNL A   1      31.650  29.047  27.437  1.00  0.00     0.017 C 
ENDBRANCH  21  23
ENDBRANCH  17  18
ENDBRANCH  13  17
ENDBRANCH   8  10
ENDBRANCH   7   8
ENDBRANCH   6   7
ENDBRANCH   5   6
ENDBRANCH   4   5
ENDBRANCH   3   4
ENDBRANCH   2   3
ENDBRANCH   1   2
BRANCH   1  27
ATOM     27  C   UNL A   1      36.063  19.188  25.000  1.00  0.00     0.188 C 
BRANCH  27  28
ATOM     28  C   UNL A   1      37.361  19.734  24.429  1.00  0.00     0.188 C 
BRANCH  28  29
ATOM     29  O   UNL A   1      37.998  20.450  25.489  1.00  0.00    -0.376 OA
BRANCH  29  30
ATOM     30  C   UNL A   1      38.202  21.832  25.279  1.00  0.00     0.202 C 
BRANCH  30  31
ATOM     31  C   UNL A   1      38.610  22.595  26.539  1.00  0.00     0.261 C 
BRANCH  31  32
ATOM     32  O   UNL A   1      39.868  22.125  27.092  1.00  0.00    -0.460 OA
BRANCH  32  33
ATOM     33  C   UNL A   1      41.033  22.777  26.787  1.00  0.00     0.338 C 
ATOM     34  O   UNL A   1      41.928  22.262  26.136  1.00  0.00    -0.246 OA
BRANCH  33  35
ATOM     35  C   UNL A   1      40.973  24.243  27.049  1.00  0.00     0.060 A 
ATOM     36  C   UNL A   1      40.846  25.198  26.030  1.00  0.00     0.016 A 
ATOM     37  C   UNL A   1      41.070  24.682  28.354  1.00  0.00     0.016 A 
ATOM     38  C   UNL A   1      41.036  26.573  26.293  1.00  0.00     0.010 A 
ATOM     39  C   UNL A   1      41.305  26.019  28.601  1.00  0.00     0.010 A 
ATOM     40  C   UNL A   1      41.350  26.987  27.584  1.00  0.00    -0.014 A 
BRANCH  40  41
ATOM     41  C   UNL A   1      41.825  28.329  28.003  1.00  0.00     0.031 A 
ATOM     42  C   UNL A   1      40.794  29.385  28.316  1.00  0.00     0.074 A 
ATOM     43  C   UNL A   1      43.097  28.467  28.468  1.00  0.00     0.049 A 
ATOM     44  N   UNL A   1      41.021  30.476  28.961  1.00  0.00    -0.248 NA
ATOM     45  C   UNL A   1      39.371  29.261  27.996  1.00  0.00     0.031 C 
ATOM     46  C   UNL A   1      43.571  29.445  29.451  1.00  0.00     0.029 A 
ATOM     47  N   UNL A   1      44.242  27.721  28.266  1.00  0.00    -0.354 N 
ATOM     48  C   UNL A   1      39.831  31.009  29.418  1.00  0.00     0.074 A 
ATOM     49  C   UNL A   1      38.824  30.240  28.731  1.00  0.00     0.031 C 
ATOM     50  C   UNL A   1      44.883  29.312  29.684  1.00  0.00     0.029 A 
ATOM     51  C   UNL A   1      45.379  28.430  28.664  1.00  0.00     0.049 A 
ATOM     52  H   UNL A   1      44.256  26.810  27.893  1.00  0.00     0.167 HD
ATOM     53  C   UNL A   1      39.876  31.964  30.402  1.00  0.00     0.037 A 
ATOM     54  C   UNL A   1      46.286  28.869  27.742  1.00  0.00     0.037 A 
ATOM     55  C   UNL A   1      41.272  32.426  30.604  1.00  0.00     0.049 A 
ATOM     56  C   UNL A   1      46.148  30.395  27.625  1.00  0.00     0.074 A 
ATOM     57  C   UNL A   1      42.131  32.513  31.685  1.00  0.00     0.029 A 
ATOM     58  N   UNL A   1      42.056  32.727  29.483  1.00  0.00    -0.354 N 
ATOM     59  N   UNL A   1      44.997  31.033  27.737  1.00  0.00    -0.248 NA
ATOM     60  C   UNL A   1      47.292  31.301  27.775  1.00  0.00     0.031 C 
ATOM     61  C   UNL A   1      43.461  32.665  31.176  1.00  0.00     0.029 A 
ATOM     62  C   UNL A   1      43.405  32.767  29.788  1.00  0.00     0.049 A 
ATOM     63  H   UNL A   1      41.690  32.891  28.584  1.00  0.00     0.167 HD
ATOM     64  C   UNL A   1      45.234  32.320  28.167  1.00  0.00     0.074 A 
ATOM     65  C   UNL A   1      46.686  32.455  28.112  1.00  0.00     0.031 C 
ATOM     66  C   UNL A   1      44.370  33.193  28.780  1.00  0.00     0.037 A 
BRANCH  53  67
ATOM     67  C   UNL A   1      38.715  32.413  31.310  1.00  0.00     0.058 A 
ATOM     68  C   UNL A   1      37.537  32.969  30.748  1.00  0.00     0.135 A 
ATOM     69  C   UNL A   1      38.716  32.417  32.726  1.00  0.00     0.135 A 
ATOM     70  F   UNL A   1      37.367  33.030  29.420  1.00  0.00    -0.206 F 
ATOM     71  C   UNL A   1      36.475  33.486  31.508  1.00  0.00     0.059 A 
ATOM     72  C   UNL A   1      37.642  32.886  33.509  1.00  0.00     0.059 A 
ATOM     73  F   UNL A   1      39.776  32.003  33.429  1.00  0.00    -0.206 F 
ATOM     74  C   UNL A   1      36.527  33.433  32.893  1.00  0.00     0.060 A 
BRANCH  74  75
ATOM     75  S   UNL A   1      35.121  34.049  33.852  1.00  0.00     0.124 S 
ATOM     76  O   UNL A   1      35.345  35.491  33.842  1.00  0.00    -0.237 OA
ATOM     77  O   UNL A   1      33.979  33.580  33.073  1.00  0.00    -0.237 OA
ATOM     78  O   UNL A   1      35.285  33.404  35.153  1.00  0.00    -0.744 OA
ENDBRANCH  74  75
ENDBRANCH  53  67
BRANCH  54  79
ATOM     79  C   UNL A   1      46.640  27.749  26.804  1.00  0.00     0.058 A 
ATOM     80  C   UNL A   1      45.901  27.778  25.593  1.00  0.00     0.135 A 
ATOM     81  C   UNL A   1      47.961  27.271  26.711  1.00  0.00     0.135 A 
ATOM     82  F   UNL A   1      44.623  28.192  25.606  1.00  0.00    -0.206 F 
ATOM     83  C   UNL A   1      46.506  27.615  24.345  1.00  0.00     0.059 A 
ATOM     84  C   UNL A   1      48.584  27.089  25.460  1.00  0.00     0.059 A 
ATOM     85  F   UNL A   1      48.728  27.200  27.808  1.00  0.00    -0.206 F 
ATOM     86  C   UNL A   1      47.868  27.340  24.287  1.00  0.00     0.060 A 
BRANCH  86  87
ATOM     87  S   UNL A   1      48.709  27.559  22.689  1.00  0.00     0.124 S 
ATOM     88  O   UNL A   1      47.843  28.516  22.014  1.00  0.00    -0.237 OA
ATOM     89  O   UNL A   1      50.021  28.057  23.095  1.00  0.00    -0.237 OA
ATOM     90  O   UNL A   1      48.717  26.214  22.133  1.00  0.00    -0.744 OA
ENDBRANCH  86  87
ENDBRANCH  54  79
BRANCH  66  91
ATOM     91  C   UNL A   1      44.359  34.654  28.384  1.00  0.00     0.058 A 
ATOM     92  C   UNL A   1      43.859  35.089  27.145  1.00  0.00     0.135 A 
ATOM     93  C   UNL A   1      44.650  35.677  29.324  1.00  0.00     0.135 A 
ATOM     94  F   UNL A   1      43.455  34.227  26.202  1.00  0.00    -0.206 F 
ATOM     95  C   UNL A   1      43.717  36.434  26.838  1.00  0.00     0.059 A 
ATOM     96  C   UNL A   1      44.456  37.024  29.055  1.00  0.00     0.059 A 
ATOM     97  F   UNL A   1      45.109  35.412  30.555  1.00  0.00    -0.206 F 
ATOM     98  C   UNL A   1      44.021  37.393  27.795  1.00  0.00     0.060 A 
BRANCH  98  99
ATOM     99  S   UNL A   1      43.834  39.126  27.370  1.00  0.00     0.124 S 
ATOM    100  O   UNL A   1      42.577  39.097  26.627  1.00  0.00    -0.237 OA
ATOM    101  O   UNL A   1      43.778  39.766  28.681  1.00  0.00    -0.237 OA
ATOM    102  O   UNL A   1      45.028  39.417  26.586  1.00  0.00    -0.744 OA
ENDBRANCH  98  99
ENDBRANCH  66  91
ENDBRANCH  40  41
ENDBRANCH  33  35
ENDBRANCH  32  33
ENDBRANCH  31  32
ENDBRANCH  30  31
ENDBRANCH  29  30
ENDBRANCH  28  29
ENDBRANCH  27  28
ENDBRANCH   1  27
TORSDOF 26
ENDMDL
MODEL 3
REMARK VINA RESULT:      -9.5      6.393      8.372
REMARK SMILES Cc1c(Cc2nc(C(C)(C)C)cs2)cccc1C(=O)OCCOCCOCCOCCOC(=O)c1ccc(-c2c3nc(c(-c4c(F)cc(S(=O)(=O)[O-])cc4F)c4ccc([nH]4)c(-c4c(F)cc(S(=O)(=O)[O-])cc4F)c4nc(c(-c5c(F)cc(S(=O)(=O)[O-])cc5F)c5ccc2[nH]5)C=C4)C=C3)cc1
REMARK SMILES IDX 26 1 25 2 24 3 23 4 22 5 21 6 20 7 18 8 19 9 17 10 1 11 2 12
REMARK SMILES IDX 3 13 14 14 16 15 15 16 4 17 5 18 6 19 13 20 7 21 12 22 8 23
REMARK SMILES IDX 9 24 10 25 11 26 27 27 28 28 29 29 30 30 31 31 32 32 33 33
REMARK SMILES IDX 34 34 35 35 36 36 100 37 37 38 99 39 38 40 39 41 40 42 93 43
REMARK SMILES IDX 41 44 98 45 92 46 94 47 42 48 97 49 91 50 90 51 43 53 77 54
REMARK SMILES IDX 56 55 76 56 57 57 60 58 75 59 95 60 58 61 59 62 74 64 96 65
REMARK SMILES IDX 61 66 44 67 45 68 54 69 46 70 47 71 53 72 55 73 48 74 49 75
REMARK SMILES IDX 50 76 51 77 52 78 78 79 79 80 88 81 80 82 81 83 87 84 89 85
REMARK SMILES IDX 82 86 83 87 84 88 85 89 86 90 62 91 63 92 72 93 64 94 65 95
REMARK SMILES IDX 71 96 73 97 66 98 67 99 68 100 69 101 70 102
REMARK H PARENT 94 52 60 63
REMARK Flexibility Score: inf
ROOT
ATOM      1  O   UNL A   1      39.938  24.882  26.597  1.00  0.00    -0.377 OA
ENDROOT
BRANCH   1   2
ATOM      2  C   UNL A   1      39.011  23.923  27.076  1.00  0.00     0.188 C 
BRANCH   2   3
ATOM      3  C   UNL A   1      37.970  23.309  26.121  1.00  0.00     0.188 C 
BRANCH   3   4
ATOM      4  O   UNL A   1      38.225  22.095  25.436  1.00  0.00    -0.376 OA
BRANCH   4   5
ATOM      5  C   UNL A   1      37.093  21.505  24.803  1.00  0.00     0.202 C 
BRANCH   5   6
ATOM      6  C   UNL A   1      35.737  22.156  25.023  1.00  0.00     0.261 C 
BRANCH   6   7
ATOM      7  O   UNL A   1      34.850  21.157  25.509  1.00  0.00    -0.460 OA
BRANCH   7   8
ATOM      8  C   UNL A   1      33.772  20.930  24.748  1.00  0.00     0.338 C 
ATOM      9  O   UNL A   1      33.445  19.880  24.241  1.00  0.00    -0.246 OA
BRANCH   8  10
ATOM     10  C   UNL A   1      32.848  22.080  24.942  1.00  0.00     0.063 A 
ATOM     11  C   UNL A   1      33.233  23.273  22.688  1.00  0.00     0.045 C 
ATOM     12  C   UNL A   1      32.554  23.113  24.021  1.00  0.00    -0.033 A 
ATOM     13  C   UNL A   1      31.562  24.051  24.380  1.00  0.00    -0.037 A 
ATOM     14  C   UNL A   1      31.069  24.075  25.701  1.00  0.00     0.004 A 
ATOM     15  C   UNL A   1      32.343  22.133  26.254  1.00  0.00     0.016 A 
ATOM     16  C   UNL A   1      31.491  23.150  26.645  1.00  0.00     0.001 A 
BRANCH  13  17
ATOM     17  C   UNL A   1      30.823  24.875  23.328  1.00  0.00     0.103 C 
BRANCH  17  18
ATOM     18  C   UNL A   1      31.039  26.329  23.640  1.00  0.00     0.097 A 
ATOM     19  N   UNL A   1      31.960  26.730  24.488  1.00  0.00    -0.245 NA
ATOM     20  S   UNL A   1      29.984  27.560  23.083  1.00  0.00    -0.127 S 
ATOM     21  C   UNL A   1      31.660  27.994  24.958  1.00  0.00     0.057 A 
ATOM     22  C   UNL A   1      30.668  28.636  24.236  1.00  0.00     0.091 A 
BRANCH  21  23
ATOM     23  C   UNL A   1      32.436  28.495  26.160  1.00  0.00     0.005 C 
ATOM     24  C   UNL A   1      31.817  27.924  27.444  1.00  0.00     0.017 C 
ATOM     25  C   UNL A   1      33.921  28.093  26.070  1.00  0.00     0.017 C 
ATOM     26  C   UNL A   1      32.386  30.041  26.232  1.00  0.00     0.017 C 
ENDBRANCH  21  23
ENDBRANCH  17  18
ENDBRANCH  13  17
ENDBRANCH   8  10
ENDBRANCH   7   8
ENDBRANCH   6   7
ENDBRANCH   5   6
ENDBRANCH   4   5
ENDBRANCH   3   4
ENDBRANCH   2   3
ENDBRANCH   1   2
BRANCH   1  27
ATOM     27  C   UNL A   1      41.235  24.433  26.197  1.00  0.00     0.188 C 
BRANCH  27  28
ATOM     28  C   UNL A   1      41.610  22.981  26.443  1.00  0.00     0.188 C 
BRANCH  28  29
ATOM     29  O   UNL A   1      42.574  22.639  25.446  1.00  0.00    -0.376 OA
BRANCH  29  30
ATOM     30  C   UNL A   1      43.929  22.672  25.845  1.00  0.00     0.202 C 
BRANCH  30  31
ATOM     31  C   UNL A   1      44.708  23.865  25.289  1.00  0.00     0.261 C 
BRANCH  31  32
ATOM     32  O   UNL A   1      44.688  25.008  26.184  1.00  0.00    -0.460 OA
BRANCH  32  33
ATOM     33  C   UNL A   1      45.793  25.306  26.936  1.00  0.00     0.338 C 
ATOM     34  O   UNL A   1      46.737  25.945  26.499  1.00  0.00    -0.246 OA
BRANCH  33  35
ATOM     35  C   UNL A   1      45.599  25.056  28.392  1.00  0.00     0.060 A 
ATOM     36  C   UNL A   1      44.482  24.382  28.910  1.00  0.00     0.016 A 
ATOM     37  C   UNL A   1      46.549  25.529  29.274  1.00  0.00     0.016 A 
ATOM     38  C   UNL A   1      44.214  24.378  30.297  1.00  0.00     0.010 A 
ATOM     39  C   UNL A   1      46.259  25.567  30.622  1.00  0.00     0.010 A 
ATOM     40  C   UNL A   1      45.072  25.048  31.163  1.00  0.00    -0.014 A 
BRANCH  40  41
ATOM     41  C   UNL A   1      44.831  25.366  32.593  1.00  0.00     0.031 A 
ATOM     42  C   UNL A   1      44.292  26.732  32.939  1.00  0.00     0.074 A 
ATOM     43  C   UNL A   1      44.717  24.348  33.489  1.00  0.00     0.049 A 
ATOM     44  N   UNL A   1      43.760  27.056  34.066  1.00  0.00    -0.248 NA
ATOM     45  C   UNL A   1      44.225  27.850  31.996  1.00  0.00     0.031 C 
ATOM     46  C   UNL A   1      43.921  24.345  34.719  1.00  0.00     0.029 A 
ATOM     47  N   UNL A   1      45.189  23.049  33.478  1.00  0.00    -0.354 N 
ATOM     48  C   UNL A   1      43.025  28.217  33.923  1.00  0.00     0.074 A 
ATOM     49  C   UNL A   1      43.402  28.705  32.620  1.00  0.00     0.031 C 
ATOM     50  C   UNL A   1      44.035  23.183  35.377  1.00  0.00     0.029 A 
ATOM     51  C   UNL A   1      45.123  22.481  34.754  1.00  0.00     0.049 A 
ATOM     52  H   UNL A   1      45.526  22.584  32.679  1.00  0.00     0.167 HD
ATOM     53  C   UNL A   1      42.116  28.541  34.898  1.00  0.00     0.037 A 
ATOM     54  C   UNL A   1      46.261  22.197  35.452  1.00  0.00     0.037 A 
ATOM     55  C   UNL A   1      42.298  27.664  36.080  1.00  0.00     0.049 A 
ATOM     56  C   UNL A   1      46.383  23.213  36.599  1.00  0.00     0.074 A 
ATOM     57  C   UNL A   1      41.481  26.821  36.814  1.00  0.00     0.029 A 
ATOM     58  N   UNL A   1      43.593  27.437  36.563  1.00  0.00    -0.354 N 
ATOM     59  N   UNL A   1      45.994  24.471  36.503  1.00  0.00    -0.248 NA
ATOM     60  C   UNL A   1      46.564  22.801  37.996  1.00  0.00     0.031 C 
ATOM     61  C   UNL A   1      42.324  25.956  37.584  1.00  0.00     0.029 A 
ATOM     62  C   UNL A   1      43.652  26.332  37.394  1.00  0.00     0.049 A 
ATOM     63  H   UNL A   1      44.370  27.997  36.338  1.00  0.00     0.167 HD
ATOM     64  C   UNL A   1      45.679  24.943  37.758  1.00  0.00     0.074 A 
ATOM     65  C   UNL A   1      46.115  23.882  38.661  1.00  0.00     0.031 C 
ATOM     66  C   UNL A   1      44.888  26.012  38.099  1.00  0.00     0.037 A 
BRANCH  53  67
ATOM     67  C   UNL A   1      40.950  29.543  34.780  1.00  0.00     0.058 A 
ATOM     68  C   UNL A   1      40.832  30.619  35.697  1.00  0.00     0.135 A 
ATOM     69  C   UNL A   1      39.872  29.464  33.866  1.00  0.00     0.135 A 
ATOM     70  F   UNL A   1      41.774  30.845  36.622  1.00  0.00    -0.206 F 
ATOM     71  C   UNL A   1      39.752  31.517  35.716  1.00  0.00     0.059 A 
ATOM     72  C   UNL A   1      38.803  30.383  33.835  1.00  0.00     0.059 A 
ATOM     73  F   UNL A   1      39.774  28.468  32.978  1.00  0.00    -0.206 F 
ATOM     74  C   UNL A   1      38.741  31.402  34.773  1.00  0.00     0.060 A 
BRANCH  74  75
ATOM     75  S   UNL A   1      37.391  32.607  34.776  1.00  0.00     0.124 S 
ATOM     76  O   UNL A   1      37.031  32.667  36.189  1.00  0.00    -0.237 OA
ATOM     77  O   UNL A   1      38.035  33.800  34.235  1.00  0.00    -0.237 OA
ATOM     78  O   UNL A   1      36.388  32.000  33.905  1.00  0.00    -0.744 OA
ENDBRANCH  74  75
ENDBRANCH  53  67
BRANCH  54  79
ATOM     79  C   UNL A   1      47.225  21.453  34.571  1.00  0.00     0.058 A 
ATOM     80  C   UNL A   1      48.409  22.184  34.294  1.00  0.00     0.135 A 
ATOM     81  C   UNL A   1      47.371  20.056  34.673  1.00  0.00     0.135 A 
ATOM     82  F   UNL A   1      48.347  23.519  34.151  1.00  0.00    -0.206 F 
ATOM     83  C   UNL A   1      49.680  21.612  34.388  1.00  0.00     0.059 A 
ATOM     84  C   UNL A   1      48.645  19.459  34.757  1.00  0.00     0.059 A 
ATOM     85  F   UNL A   1      46.302  19.287  34.923  1.00  0.00    -0.206 F 
ATOM     86  C   UNL A   1      49.789  20.259  34.692  1.00  0.00     0.060 A 
BRANCH  86  87
ATOM     87  S   UNL A   1      51.412  19.640  35.230  1.00  0.00     0.124 S 
ATOM     88  O   UNL A   1      52.001  20.819  35.851  1.00  0.00    -0.237 OA
ATOM     89  O   UNL A   1      51.045  18.555  36.138  1.00  0.00    -0.237 OA
ATOM     90  O   UNL A   1      52.030  19.207  33.986  1.00  0.00    -0.744 OA
ENDBRANCH  86  87
ENDBRANCH  54  79
BRANCH  66  91
ATOM     91  C   UNL A   1      45.312  26.944  39.215  1.00  0.00     0.058 A 
ATOM     92  C   UNL A   1      45.954  28.167  38.964  1.00  0.00     0.135 A 
ATOM     93  C   UNL A   1      44.888  26.733  40.554  1.00  0.00     0.135 A 
ATOM     94  F   UNL A   1      46.321  28.535  37.729  1.00  0.00    -0.206 F 
ATOM     95  C   UNL A   1      46.215  29.084  39.972  1.00  0.00     0.059 A 
ATOM     96  C   UNL A   1      45.085  27.667  41.561  1.00  0.00     0.059 A 
ATOM     97  F   UNL A   1      44.239  25.625  40.936  1.00  0.00    -0.206 F 
ATOM     98  C   UNL A   1      45.781  28.825  41.265  1.00  0.00     0.060 A 
BRANCH  98  99
ATOM     99  S   UNL A   1      46.135  30.025  42.551  1.00  0.00     0.124 S 
ATOM    100  O   UNL A   1      46.888  31.026  41.799  1.00  0.00    -0.237 OA
ATOM    101  O   UNL A   1      44.800  30.430  42.979  1.00  0.00    -0.237 OA
ATOM    102  O   UNL A   1      46.898  29.262  43.532  1.00  0.00    -0.744 OA
ENDBRANCH  98  99
ENDBRANCH  66  91
ENDBRANCH  40  41
ENDBRANCH  33  35
ENDBRANCH  32  33
ENDBRANCH  31  32
ENDBRANCH  30  31
ENDBRANCH  29  30
ENDBRANCH  28  29
ENDBRANCH  27  28
ENDBRANCH   1  27
TORSDOF 26
ENDMDL
