MODEL 1
REMARK VINA RESULT:      -8.7      0.000      0.000
REMARK SMILES Cc1nn(C)c(OCC(C)(C)[NH+](C)C)c1C(=O)OCCOCCOCCOCCOC(=O)c1ccc(-c2c3nc(c(-c4c(F)cc(S(=O)(=O)[O-])cc4F)c4ccc([nH]4)c(-c4c(F)cc(S(=O)(=O)[O-])cc4F)c4nc(c(-c5c(F)cc(S(=O)(=O)[O-])cc5F)c5ccc2[nH]5)C=C4)C=C3)cc1
REMARK SMILES IDX 23 1 22 2 21 3 20 4 19 5 18 6 16 7 17 8 15 9 1 10 2 11 3 12
REMARK SMILES IDX 4 13 6 14 5 15 7 16 8 17 9 18 10 19 11 20 12 21 13 22 14 23
REMARK SMILES IDX 24 25 25 26 26 27 27 28 28 29 29 30 30 31 31 32 32 33 33 34
REMARK SMILES IDX 34 35 98 36 35 37 97 38 36 39 37 40 38 41 91 42 39 43 96 44
REMARK SMILES IDX 90 45 92 46 40 47 95 48 89 49 88 50 41 52 75 53 54 54 74 55
REMARK SMILES IDX 55 56 58 57 73 58 93 59 56 60 57 61 72 63 94 64 59 65 42 66
REMARK SMILES IDX 43 67 52 68 44 69 45 70 51 71 53 72 46 73 47 74 48 75 49 76
REMARK SMILES IDX 50 77 76 78 77 79 86 80 78 81 79 82 85 83 87 84 80 85 81 86
REMARK SMILES IDX 82 87 83 88 84 89 60 90 61 91 70 92 62 93 63 94 69 95 71 96
REMARK SMILES IDX 64 97 65 98 66 99 67 100 68 101
REMARK H PARENT 12 24 92 51 58 62
REMARK Flexibility Score: inf
ROOT
ATOM      1  C   UNL A   1      34.364  17.270  24.366  1.00  0.00     0.188 C 
ENDROOT
BRANCH   1   2
ATOM      2  C   UNL A   1      33.421  17.553  23.181  1.00  0.00     0.188 C 
BRANCH   2   3
ATOM      3  O   UNL A   1      32.222  18.246  23.492  1.00  0.00    -0.376 OA
BRANCH   3   4
ATOM      4  C   UNL A   1      32.259  19.645  23.700  1.00  0.00     0.202 C 
BRANCH   4   5
ATOM      5  C   UNL A   1      32.047  20.556  22.461  1.00  0.00     0.261 C 
BRANCH   5   6
ATOM      6  O   UNL A   1      31.681  21.937  22.677  1.00  0.00    -0.459 OA
BRANCH   6   7
ATOM      7  C   UNL A   1      32.676  22.675  23.231  1.00  0.00     0.345 C 
ATOM      8  O   UNL A   1      33.734  22.797  22.666  1.00  0.00    -0.246 OA
BRANCH   7   9
ATOM      9  C   UNL A   1      32.362  23.420  24.426  1.00  0.00     0.144 A 
ATOM     10  C   UNL A   1      32.974  21.755  26.375  1.00  0.00     0.070 C 
ATOM     11  C   UNL A   1      32.430  23.008  25.788  1.00  0.00     0.078 A 
ATOM     12  N   UNL A   1      31.990  23.961  26.617  1.00  0.00    -0.174 NA
ATOM     13  N   UNL A   1      31.679  24.980  25.804  1.00  0.00    -0.236 N 
ATOM     14  C   UNL A   1      31.990  24.767  24.481  1.00  0.00     0.227 A 
ATOM     15  C   UNL A   1      31.077  26.161  26.376  1.00  0.00     0.178 C 
BRANCH  14  16
ATOM     16  O   UNL A   1      31.927  25.820  23.648  1.00  0.00    -0.471 OA
BRANCH  16  17
ATOM     17  C   UNL A   1      33.071  26.615  23.327  1.00  0.00     0.299 C 
BRANCH  17  18
ATOM     18  C   UNL A   1      33.031  28.149  23.778  1.00  0.00     0.126 C 
ATOM     19  C   UNL A   1      33.855  28.482  25.052  1.00  0.00     0.082 C 
ATOM     20  C   UNL A   1      33.662  28.916  22.579  1.00  0.00     0.082 C 
BRANCH  18  21
ATOM     21  N   UNL A   1      31.612  28.624  23.945  1.00  0.00    -0.333 N 
ATOM     22  C   UNL A   1      31.500  29.697  24.938  1.00  0.00     0.333 C 
ATOM     23  C   UNL A   1      30.974  29.063  22.698  1.00  0.00     0.333 C 
ATOM     24  H   UNL A   1      31.113  27.796  24.272  1.00  0.00     0.348 HD
ENDBRANCH  18  21
ENDBRANCH  17  18
ENDBRANCH  16  17
ENDBRANCH  14  16
ENDBRANCH   7   9
ENDBRANCH   6   7
ENDBRANCH   5   6
ENDBRANCH   4   5
ENDBRANCH   3   4
ENDBRANCH   2   3
ENDBRANCH   1   2
BRANCH   1  25
ATOM     25  O   UNL A   1      35.506  18.084  24.575  1.00  0.00    -0.377 OA
BRANCH  25  26
ATOM     26  C   UNL A   1      35.327  19.445  24.941  1.00  0.00     0.188 C 
BRANCH  26  27
ATOM     27  C   UNL A   1      36.553  20.383  24.978  1.00  0.00     0.188 C 
BRANCH  27  28
ATOM     28  O   UNL A   1      36.518  21.441  24.026  1.00  0.00    -0.376 OA
BRANCH  28  29
ATOM     29  C   UNL A   1      36.768  22.747  24.521  1.00  0.00     0.202 C 
BRANCH  29  30
ATOM     30  C   UNL A   1      37.562  22.823  25.832  1.00  0.00     0.261 C 
BRANCH  30  31
ATOM     31  O   UNL A   1      38.957  22.490  25.739  1.00  0.00    -0.460 OA
BRANCH  31  32
ATOM     32  C   UNL A   1      39.690  22.512  26.876  1.00  0.00     0.338 C 
ATOM     33  O   UNL A   1      40.258  21.573  27.399  1.00  0.00    -0.246 OA
BRANCH  32  34
ATOM     34  C   UNL A   1      39.890  23.935  27.239  1.00  0.00     0.060 A 
ATOM     35  C   UNL A   1      40.411  24.809  26.272  1.00  0.00     0.016 A 
ATOM     36  C   UNL A   1      39.479  24.421  28.483  1.00  0.00     0.016 A 
ATOM     37  C   UNL A   1      40.546  26.167  26.560  1.00  0.00     0.010 A 
ATOM     38  C   UNL A   1      39.656  25.772  28.786  1.00  0.00     0.010 A 
ATOM     39  C   UNL A   1      40.225  26.640  27.839  1.00  0.00    -0.014 A 
BRANCH  39  40
ATOM     40  C   UNL A   1      40.776  27.944  28.279  1.00  0.00     0.031 A 
ATOM     41  C   UNL A   1      42.266  28.124  28.159  1.00  0.00     0.074 A 
ATOM     42  C   UNL A   1      39.999  28.936  28.747  1.00  0.00     0.049 A 
ATOM     43  N   UNL A   1      43.012  29.137  28.508  1.00  0.00    -0.248 NA
ATOM     44  C   UNL A   1      43.015  27.002  27.564  1.00  0.00     0.031 C 
ATOM     45  C   UNL A   1      38.542  28.895  28.866  1.00  0.00     0.029 A 
ATOM     46  N   UNL A   1      40.340  30.179  29.221  1.00  0.00    -0.354 N 
ATOM     47  C   UNL A   1      44.313  28.774  28.177  1.00  0.00     0.074 A 
ATOM     48  C   UNL A   1      44.261  27.441  27.623  1.00  0.00     0.031 C 
ATOM     49  C   UNL A   1      38.117  30.056  29.397  1.00  0.00     0.029 A 
ATOM     50  C   UNL A   1      39.270  30.910  29.683  1.00  0.00     0.049 A 
ATOM     51  H   UNL A   1      41.265  30.516  29.230  1.00  0.00     0.167 HD
ATOM     52  C   UNL A   1      45.450  29.489  28.320  1.00  0.00     0.037 A 
ATOM     53  C   UNL A   1      39.239  32.115  30.287  1.00  0.00     0.037 A 
ATOM     54  C   UNL A   1      45.500  30.809  28.883  1.00  0.00     0.049 A 
ATOM     55  C   UNL A   1      40.534  32.863  30.506  1.00  0.00     0.074 A 
ATOM     56  C   UNL A   1      46.601  31.624  29.065  1.00  0.00     0.029 A 
ATOM     57  N   UNL A   1      44.400  31.503  29.363  1.00  0.00    -0.354 N 
ATOM     58  N   UNL A   1      41.755  32.521  30.165  1.00  0.00    -0.248 NA
ATOM     59  C   UNL A   1      40.447  34.162  31.190  1.00  0.00     0.031 C 
ATOM     60  C   UNL A   1      46.174  32.792  29.704  1.00  0.00     0.029 A 
ATOM     61  C   UNL A   1      44.798  32.728  29.865  1.00  0.00     0.049 A 
ATOM     62  H   UNL A   1      43.472  31.172  29.349  1.00  0.00     0.167 HD
ATOM     63  C   UNL A   1      42.572  33.575  30.563  1.00  0.00     0.074 A 
ATOM     64  C   UNL A   1      41.708  34.570  31.162  1.00  0.00     0.031 C 
ATOM     65  C   UNL A   1      43.917  33.712  30.442  1.00  0.00     0.037 A 
BRANCH  52  66
ATOM     66  C   UNL A   1      46.736  28.843  27.890  1.00  0.00     0.058 A 
ATOM     67  C   UNL A   1      47.201  28.930  26.569  1.00  0.00     0.135 A 
ATOM     68  C   UNL A   1      47.527  28.152  28.821  1.00  0.00     0.135 A 
ATOM     69  F   UNL A   1      46.467  29.552  25.633  1.00  0.00    -0.206 F 
ATOM     70  C   UNL A   1      48.404  28.348  26.183  1.00  0.00     0.059 A 
ATOM     71  C   UNL A   1      48.746  27.585  28.464  1.00  0.00     0.059 A 
ATOM     72  F   UNL A   1      47.118  28.027  30.093  1.00  0.00    -0.206 F 
ATOM     73  C   UNL A   1      49.171  27.682  27.141  1.00  0.00     0.060 A 
BRANCH  73  74
ATOM     74  S   UNL A   1      50.745  26.960  26.632  1.00  0.00     0.124 S 
ATOM     75  O   UNL A   1      51.659  28.079  26.833  1.00  0.00    -0.237 OA
ATOM     76  O   UNL A   1      50.892  25.847  27.565  1.00  0.00    -0.237 OA
ATOM     77  O   UNL A   1      50.512  26.581  25.242  1.00  0.00    -0.744 OA
ENDBRANCH  73  74
ENDBRANCH  52  66
BRANCH  53  78
ATOM     78  C   UNL A   1      37.948  32.694  30.754  1.00  0.00     0.058 A 
ATOM     79  C   UNL A   1      37.210  33.574  29.948  1.00  0.00     0.135 A 
ATOM     80  C   UNL A   1      37.445  32.408  32.033  1.00  0.00     0.135 A 
ATOM     81  F   UNL A   1      37.653  33.893  28.722  1.00  0.00    -0.206 F 
ATOM     82  C   UNL A   1      36.034  34.167  30.399  1.00  0.00     0.059 A 
ATOM     83  C   UNL A   1      36.258  32.967  32.496  1.00  0.00     0.059 A 
ATOM     84  F   UNL A   1      38.108  31.568  32.844  1.00  0.00    -0.206 F 
ATOM     85  C   UNL A   1      35.566  33.856  31.677  1.00  0.00     0.060 A 
BRANCH  85  86
ATOM     86  S   UNL A   1      34.022  34.605  32.242  1.00  0.00     0.124 S 
ATOM     87  O   UNL A   1      33.528  33.596  33.172  1.00  0.00    -0.237 OA
ATOM     88  O   UNL A   1      34.489  35.852  32.842  1.00  0.00    -0.237 OA
ATOM     89  O   UNL A   1      33.255  34.761  31.010  1.00  0.00    -0.744 OA
ENDBRANCH  85  86
ENDBRANCH  53  78
BRANCH  65  90
ATOM     90  C   UNL A   1      44.537  34.996  30.919  1.00  0.00     0.058 A 
ATOM     91  C   UNL A   1      44.638  36.124  30.091  1.00  0.00     0.135 A 
ATOM     92  C   UNL A   1      44.971  35.120  32.250  1.00  0.00     0.135 A 
ATOM     93  F   UNL A   1      44.240  36.059  28.810  1.00  0.00    -0.206 F 
ATOM     94  C   UNL A   1      45.168  37.323  30.558  1.00  0.00     0.059 A 
ATOM     95  C   UNL A   1      45.476  36.316  32.747  1.00  0.00     0.059 A 
ATOM     96  F   UNL A   1      44.882  34.076  33.090  1.00  0.00    -0.206 F 
ATOM     97  C   UNL A   1      45.583  37.409  31.888  1.00  0.00     0.060 A 
BRANCH  97  98
ATOM     98  S   UNL A   1      46.235  38.980  32.492  1.00  0.00     0.124 S 
ATOM     99  O   UNL A   1      46.855  38.577  33.750  1.00  0.00    -0.237 OA
ATOM    100  O   UNL A   1      47.156  39.367  31.428  1.00  0.00    -0.237 OA
ATOM    101  O   UNL A   1      45.046  39.817  32.619  1.00  0.00    -0.744 OA
ENDBRANCH  97  98
ENDBRANCH  65  90
ENDBRANCH  39  40
ENDBRANCH  32  34
ENDBRANCH  31  32
ENDBRANCH  30  31
ENDBRANCH  29  30
ENDBRANCH  28  29
ENDBRANCH  27  28
ENDBRANCH  26  27
ENDBRANCH  25  26
ENDBRANCH   1  25
TORSDOF 27
ENDMDL
MODEL 2
REMARK VINA RESULT:      -7.6      1.386      2.262
REMARK SMILES Cc1nn(C)c(OCC(C)(C)[NH+](C)C)c1C(=O)OCCOCCOCCOCCOC(=O)c1ccc(-c2c3nc(c(-c4c(F)cc(S(=O)(=O)[O-])cc4F)c4ccc([nH]4)c(-c4c(F)cc(S(=O)(=O)[O-])cc4F)c4nc(c(-c5c(F)cc(S(=O)(=O)[O-])cc5F)c5ccc2[nH]5)C=C4)C=C3)cc1
REMARK SMILES IDX 23 1 22 2 21 3 20 4 19 5 18 6 16 7 17 8 15 9 1 10 2 11 3 12
REMARK SMILES IDX 4 13 6 14 5 15 7 16 8 17 9 18 10 19 11 20 12 21 13 22 14 23
REMARK SMILES IDX 24 25 25 26 26 27 27 28 28 29 29 30 30 31 31 32 32 33 33 34
REMARK SMILES IDX 34 35 98 36 35 37 97 38 36 39 37 40 38 41 91 42 39 43 96 44
REMARK SMILES IDX 90 45 92 46 40 47 95 48 89 49 88 50 41 52 75 53 54 54 74 55
REMARK SMILES IDX 55 56 58 57 73 58 93 59 56 60 57 61 72 63 94 64 59 65 42 66
REMARK SMILES IDX 43 67 52 68 44 69 45 70 51 71 53 72 46 73 47 74 48 75 49 76
REMARK SMILES IDX 50 77 76 78 77 79 86 80 78 81 79 82 85 83 87 84 80 85 81 86
REMARK SMILES IDX 82 87 83 88 84 89 60 90 61 91 70 92 62 93 63 94 69 95 71 96
REMARK SMILES IDX 64 97 65 98 66 99 67 100 68 101
REMARK H PARENT 12 24 92 51 58 62
REMARK Flexibility Score: inf
ROOT
ATOM      1  C   UNL A   1      34.819  17.692  24.626  1.00  0.00     0.188 C 
ENDROOT
BRANCH   1   2
ATOM      2  C   UNL A   1      33.608  18.410  24.001  1.00  0.00     0.188 C 
BRANCH   2   3
ATOM      3  O   UNL A   1      32.482  18.583  24.847  1.00  0.00    -0.376 OA
BRANCH   3   4
ATOM      4  C   UNL A   1      32.169  19.873  25.338  1.00  0.00     0.202 C 
BRANCH   4   5
ATOM      5  C   UNL A   1      33.266  20.612  26.151  1.00  0.00     0.261 C 
BRANCH   5   6
ATOM      6  O   UNL A   1      33.830  21.823  25.602  1.00  0.00    -0.459 OA
BRANCH   6   7
ATOM      7  C   UNL A   1      32.910  22.801  25.402  1.00  0.00     0.345 C 
ATOM      8  O   UNL A   1      32.194  23.160  26.304  1.00  0.00    -0.246 OA
BRANCH   7   9
ATOM      9  C   UNL A   1      32.934  23.484  24.131  1.00  0.00     0.144 A 
ATOM     10  C   UNL A   1      32.134  21.644  22.421  1.00  0.00     0.070 C 
ATOM     11  C   UNL A   1      32.658  22.975  22.830  1.00  0.00     0.078 A 
ATOM     12  N   UNL A   1      32.853  23.900  21.884  1.00  0.00    -0.174 NA
ATOM     13  N   UNL A   1      33.211  24.995  22.569  1.00  0.00    -0.236 N 
ATOM     14  C   UNL A   1      33.165  24.850  23.937  1.00  0.00     0.227 A 
ATOM     15  C   UNL A   1      33.590  26.178  21.834  1.00  0.00     0.178 C 
BRANCH  14  16
ATOM     16  O   UNL A   1      33.281  25.959  24.686  1.00  0.00    -0.471 OA
BRANCH  16  17
ATOM     17  C   UNL A   1      32.578  27.167  24.386  1.00  0.00     0.299 C 
BRANCH  17  18
ATOM     18  C   UNL A   1      31.022  27.205  24.751  1.00  0.00     0.126 C 
ATOM     19  C   UNL A   1      30.254  25.878  24.499  1.00  0.00     0.082 C 
ATOM     20  C   UNL A   1      30.997  27.495  26.281  1.00  0.00     0.082 C 
BRANCH  18  21
ATOM     21  N   UNL A   1      30.330  28.341  24.047  1.00  0.00    -0.333 N 
ATOM     22  C   UNL A   1      31.242  29.092  23.179  1.00  0.00     0.333 C 
ATOM     23  C   UNL A   1      29.155  27.937  23.266  1.00  0.00     0.333 C 
ATOM     24  H   UNL A   1      30.004  28.939  24.807  1.00  0.00     0.348 HD
ENDBRANCH  18  21
ENDBRANCH  17  18
ENDBRANCH  16  17
ENDBRANCH  14  16
ENDBRANCH   7   9
ENDBRANCH   6   7
ENDBRANCH   5   6
ENDBRANCH   4   5
ENDBRANCH   3   4
ENDBRANCH   2   3
ENDBRANCH   1   2
BRANCH   1  25
ATOM     25  O   UNL A   1      36.093  18.315  24.626  1.00  0.00    -0.377 OA
BRANCH  25  26
ATOM     26  C   UNL A   1      36.168  19.733  24.662  1.00  0.00     0.188 C 
BRANCH  26  27
ATOM     27  C   UNL A   1      37.528  20.409  24.946  1.00  0.00     0.188 C 
BRANCH  27  28
ATOM     28  O   UNL A   1      37.550  21.813  24.720  1.00  0.00    -0.376 OA
BRANCH  28  29
ATOM     29  C   UNL A   1      37.875  22.629  25.835  1.00  0.00     0.202 C 
BRANCH  29  30
ATOM     30  C   UNL A   1      39.202  22.305  26.535  1.00  0.00     0.261 C 
BRANCH  30  31
ATOM     31  O   UNL A   1      40.389  22.536  25.760  1.00  0.00    -0.460 OA
BRANCH  31  32
ATOM     32  C   UNL A   1      41.562  22.662  26.423  1.00  0.00     0.338 C 
ATOM     33  O   UNL A   1      42.499  21.886  26.407  1.00  0.00    -0.246 OA
BRANCH  32  34
ATOM     34  C   UNL A   1      41.606  24.035  26.975  1.00  0.00     0.060 A 
ATOM     35  C   UNL A   1      41.583  25.120  26.085  1.00  0.00     0.016 A 
ATOM     36  C   UNL A   1      41.573  24.253  28.356  1.00  0.00     0.016 A 
ATOM     37  C   UNL A   1      41.553  26.426  26.575  1.00  0.00     0.010 A 
ATOM     38  C   UNL A   1      41.588  25.561  28.846  1.00  0.00     0.010 A 
ATOM     39  C   UNL A   1      41.616  26.649  27.957  1.00  0.00    -0.014 A 
BRANCH  39  40
ATOM     40  C   UNL A   1      42.032  27.984  28.449  1.00  0.00     0.031 A 
ATOM     41  C   UNL A   1      43.510  28.272  28.457  1.00  0.00     0.074 A 
ATOM     42  C   UNL A   1      41.149  28.913  28.853  1.00  0.00     0.049 A 
ATOM     43  N   UNL A   1      44.149  29.332  28.873  1.00  0.00    -0.248 NA
ATOM     44  C   UNL A   1      44.387  27.213  27.923  1.00  0.00     0.031 C 
ATOM     45  C   UNL A   1      39.694  28.766  28.847  1.00  0.00     0.029 A 
ATOM     46  N   UNL A   1      41.357  30.172  29.360  1.00  0.00    -0.354 N 
ATOM     47  C   UNL A   1      45.495  29.067  28.652  1.00  0.00     0.074 A 
ATOM     48  C   UNL A   1      45.588  27.740  28.090  1.00  0.00     0.031 C 
ATOM     49  C   UNL A   1      39.142  29.888  29.345  1.00  0.00     0.029 A 
ATOM     50  C   UNL A   1      40.202  30.819  29.732  1.00  0.00     0.049 A 
ATOM     51  H   UNL A   1      42.251  30.574  29.449  1.00  0.00     0.167 HD
ATOM     52  C   UNL A   1      46.562  29.860  28.895  1.00  0.00     0.037 A 
ATOM     53  C   UNL A   1      40.032  32.012  30.336  1.00  0.00     0.037 A 
ATOM     54  C   UNL A   1      46.468  31.175  29.465  1.00  0.00     0.049 A 
ATOM     55  C   UNL A   1      41.246  32.849  30.668  1.00  0.00     0.074 A 
ATOM     56  C   UNL A   1      47.487  32.065  29.744  1.00  0.00     0.029 A 
ATOM     57  N   UNL A   1      45.284  31.783  29.853  1.00  0.00    -0.354 N 
ATOM     58  N   UNL A   1      42.513  32.599  30.431  1.00  0.00    -0.248 NA
ATOM     59  C   UNL A   1      41.008  34.131  31.348  1.00  0.00     0.031 C 
ATOM     60  C   UNL A   1      46.924  33.193  30.350  1.00  0.00     0.029 A 
ATOM     61  C   UNL A   1      45.548  33.028  30.393  1.00  0.00     0.049 A 
ATOM     62  H   UNL A   1      44.387  31.386  29.759  1.00  0.00     0.167 HD
ATOM     63  C   UNL A   1      43.215  33.706  30.902  1.00  0.00     0.074 A 
ATOM     64  C   UNL A   1      42.233  34.629  31.430  1.00  0.00     0.031 C 
ATOM     65  C   UNL A   1      44.552  33.939  30.896  1.00  0.00     0.037 A 
BRANCH  52  66
ATOM     66  C   UNL A   1      47.923  29.313  28.572  1.00  0.00     0.058 A 
ATOM     67  C   UNL A   1      48.749  28.756  29.560  1.00  0.00     0.135 A 
ATOM     68  C   UNL A   1      48.392  29.320  27.250  1.00  0.00     0.135 A 
ATOM     69  F   UNL A   1      48.360  28.754  30.845  1.00  0.00    -0.206 F 
ATOM     70  C   UNL A   1      49.999  28.232  29.250  1.00  0.00     0.059 A 
ATOM     71  C   UNL A   1      49.628  28.777  26.911  1.00  0.00     0.059 A 
ATOM     72  F   UNL A   1      47.647  29.855  26.271  1.00  0.00    -0.206 F 
ATOM     73  C   UNL A   1      50.427  28.242  27.920  1.00  0.00     0.060 A 
BRANCH  73  74
ATOM     74  S   UNL A   1      52.037  27.528  27.529  1.00  0.00     0.124 S 
ATOM     75  O   UNL A   1      51.748  26.817  26.287  1.00  0.00    -0.237 OA
ATOM     76  O   UNL A   1      52.879  28.714  27.398  1.00  0.00    -0.237 OA
ATOM     77  O   UNL A   1      52.325  26.683  28.683  1.00  0.00    -0.744 OA
ENDBRANCH  73  74
ENDBRANCH  52  66
BRANCH  53  78
ATOM     78  C   UNL A   1      38.668  32.492  30.694  1.00  0.00     0.058 A 
ATOM     79  C   UNL A   1      38.105  32.217  31.950  1.00  0.00     0.135 A 
ATOM     80  C   UNL A   1      37.884  33.204  29.772  1.00  0.00     0.135 A 
ATOM     81  F   UNL A   1      38.805  31.527  32.863  1.00  0.00    -0.206 F 
ATOM     82  C   UNL A   1      36.808  32.609  32.272  1.00  0.00     0.059 A 
ATOM     83  C   UNL A   1      36.595  33.630  30.081  1.00  0.00     0.059 A 
ATOM     84  F   UNL A   1      38.375  33.499  28.558  1.00  0.00    -0.206 F 
ATOM     85  C   UNL A   1      36.061  33.316  31.329  1.00  0.00     0.060 A 
BRANCH  85  86
ATOM     86  S   UNL A   1      34.391  33.849  31.766  1.00  0.00     0.124 S 
ATOM     87  O   UNL A   1      34.663  35.003  32.616  1.00  0.00    -0.237 OA
ATOM     88  O   UNL A   1      33.811  34.141  30.458  1.00  0.00    -0.237 OA
ATOM     89  O   UNL A   1      33.834  32.682  32.442  1.00  0.00    -0.744 OA
ENDBRANCH  85  86
ENDBRANCH  53  78
BRANCH  65  90
ATOM     90  C   UNL A   1      45.035  35.260  31.431  1.00  0.00     0.058 A 
ATOM     91  C   UNL A   1      45.150  36.394  30.612  1.00  0.00     0.135 A 
ATOM     92  C   UNL A   1      45.317  35.408  32.799  1.00  0.00     0.135 A 
ATOM     93  F   UNL A   1      44.894  36.306  29.297  1.00  0.00    -0.206 F 
ATOM     94  C   UNL A   1      45.550  37.623  31.126  1.00  0.00     0.059 A 
ATOM     95  C   UNL A   1      45.689  36.634  33.341  1.00  0.00     0.059 A 
ATOM     96  F   UNL A   1      45.207  34.359  33.630  1.00  0.00    -0.206 F 
ATOM     97  C   UNL A   1      45.816  37.733  32.493  1.00  0.00     0.060 A 
BRANCH  97  98
ATOM     98  S   UNL A   1      46.299  39.342  33.155  1.00  0.00     0.124 S 
ATOM     99  O   UNL A   1      47.755  39.256  33.102  1.00  0.00    -0.237 OA
ATOM    100  O   UNL A   1      45.685  40.268  32.208  1.00  0.00    -0.237 OA
ATOM    101  O   UNL A   1      45.719  39.348  34.494  1.00  0.00    -0.744 OA
ENDBRANCH  97  98
ENDBRANCH  65  90
ENDBRANCH  39  40
ENDBRANCH  32  34
ENDBRANCH  31  32
ENDBRANCH  30  31
ENDBRANCH  29  30
ENDBRANCH  28  29
ENDBRANCH  27  28
ENDBRANCH  26  27
ENDBRANCH  25  26
ENDBRANCH   1  25
TORSDOF 27
ENDMDL
MODEL 3
REMARK VINA RESULT:      -7.4      6.629     12.991
REMARK SMILES Cc1nn(C)c(OCC(C)(C)[NH+](C)C)c1C(=O)OCCOCCOCCOCCOC(=O)c1ccc(-c2c3nc(c(-c4c(F)cc(S(=O)(=O)[O-])cc4F)c4ccc([nH]4)c(-c4c(F)cc(S(=O)(=O)[O-])cc4F)c4nc(c(-c5c(F)cc(S(=O)(=O)[O-])cc5F)c5ccc2[nH]5)C=C4)C=C3)cc1
REMARK SMILES IDX 23 1 22 2 21 3 20 4 19 5 18 6 16 7 17 8 15 9 1 10 2 11 3 12
REMARK SMILES IDX 4 13 6 14 5 15 7 16 8 17 9 18 10 19 11 20 12 21 13 22 14 23
REMARK SMILES IDX 24 25 25 26 26 27 27 28 28 29 29 30 30 31 31 32 32 33 33 34
REMARK SMILES IDX 34 35 98 36 35 37 97 38 36 39 37 40 38 41 91 42 39 43 96 44
REMARK SMILES IDX 90 45 92 46 40 47 95 48 89 49 88 50 41 52 75 53 54 54 74 55
REMARK SMILES IDX 55 56 58 57 73 58 93 59 56 60 57 61 72 63 94 64 59 65 42 66
REMARK SMILES IDX 43 67 52 68 44 69 45 70 51 71 53 72 46 73 47 74 48 75 49 76
REMARK SMILES IDX 50 77 76 78 77 79 86 80 78 81 79 82 85 83 87 84 80 85 81 86
REMARK SMILES IDX 82 87 83 88 84 89 60 90 61 91 70 92 62 93 63 94 69 95 71 96
REMARK SMILES IDX 64 97 65 98 66 99 67 100 68 101
REMARK H PARENT 12 24 92 51 58 62
REMARK Flexibility Score: inf
ROOT
ATOM      1  C   UNL A   1      49.799  25.588  28.128  1.00  0.00     0.188 C 
ENDROOT
BRANCH   1   2
ATOM      2  C   UNL A   1      49.472  26.080  29.551  1.00  0.00     0.188 C 
BRANCH   2   3
ATOM      3  O   UNL A   1      49.568  27.479  29.763  1.00  0.00    -0.376 OA
BRANCH   3   4
ATOM      4  C   UNL A   1      50.161  27.966  30.953  1.00  0.00     0.202 C 
BRANCH   4   5
ATOM      5  C   UNL A   1      49.460  27.616  32.293  1.00  0.00     0.261 C 
BRANCH   5   6
ATOM      6  O   UNL A   1      48.020  27.504  32.307  1.00  0.00    -0.459 OA
BRANCH   6   7
ATOM      7  C   UNL A   1      47.558  26.645  33.251  1.00  0.00     0.345 C 
ATOM      8  O   UNL A   1      47.908  26.755  34.400  1.00  0.00    -0.246 OA
BRANCH   7   9
ATOM      9  C   UNL A   1      46.531  25.713  32.854  1.00  0.00     0.144 A 
ATOM     10  C   UNL A   1      46.133  26.273  30.310  1.00  0.00     0.070 C 
ATOM     11  C   UNL A   1      45.866  25.586  31.601  1.00  0.00     0.078 A 
ATOM     12  N   UNL A   1      44.918  24.644  31.637  1.00  0.00    -0.174 NA
ATOM     13  N   UNL A   1      44.998  24.149  32.880  1.00  0.00    -0.236 N 
ATOM     14  C   UNL A   1      46.028  24.665  33.632  1.00  0.00     0.227 A 
ATOM     15  C   UNL A   1      44.034  23.155  33.292  1.00  0.00     0.178 C 
BRANCH  14  16
ATOM     16  O   UNL A   1      46.317  24.057  34.794  1.00  0.00    -0.471 OA
BRANCH  16  17
ATOM     17  C   UNL A   1      47.384  23.114  34.925  1.00  0.00     0.299 C 
BRANCH  17  18
ATOM     18  C   UNL A   1      47.142  21.887  35.922  1.00  0.00     0.126 C 
ATOM     19  C   UNL A   1      45.654  21.592  36.254  1.00  0.00     0.082 C 
ATOM     20  C   UNL A   1      47.721  20.658  35.161  1.00  0.00     0.082 C 
BRANCH  18  21
ATOM     21  N   UNL A   1      47.927  22.064  37.194  1.00  0.00    -0.333 N 
ATOM     22  C   UNL A   1      47.431  23.184  38.000  1.00  0.00     0.333 C 
ATOM     23  C   UNL A   1      47.986  20.863  38.036  1.00  0.00     0.333 C 
ATOM     24  H   UNL A   1      48.875  22.262  36.872  1.00  0.00     0.348 HD
ENDBRANCH  18  21
ENDBRANCH  17  18
ENDBRANCH  16  17
ENDBRANCH  14  16
ENDBRANCH   7   9
ENDBRANCH   6   7
ENDBRANCH   5   6
ENDBRANCH   4   5
ENDBRANCH   3   4
ENDBRANCH   2   3
ENDBRANCH   1   2
BRANCH   1  25
ATOM     25  O   UNL A   1      48.968  25.959  27.040  1.00  0.00    -0.377 OA
BRANCH  25  26
ATOM     26  C   UNL A   1      47.960  25.059  26.603  1.00  0.00     0.188 C 
BRANCH  26  27
ATOM     27  C   UNL A   1      46.482  25.366  26.928  1.00  0.00     0.188 C 
BRANCH  27  28
ATOM     28  O   UNL A   1      45.540  24.657  26.132  1.00  0.00    -0.376 OA
BRANCH  28  29
ATOM     29  C   UNL A   1      44.456  24.052  26.821  1.00  0.00     0.202 C 
BRANCH  29  30
ATOM     30  C   UNL A   1      43.058  24.371  26.273  1.00  0.00     0.261 C 
BRANCH  30  31
ATOM     31  O   UNL A   1      42.847  25.726  25.847  1.00  0.00    -0.460 OA
BRANCH  31  32
ATOM     32  C   UNL A   1      41.630  26.275  26.063  1.00  0.00     0.338 C 
ATOM     33  O   UNL A   1      40.633  26.137  25.379  1.00  0.00    -0.246 OA
BRANCH  32  34
ATOM     34  C   UNL A   1      41.654  26.874  27.417  1.00  0.00     0.060 A 
ATOM     35  C   UNL A   1      40.688  26.467  28.350  1.00  0.00     0.016 A 
ATOM     36  C   UNL A   1      42.675  27.753  27.794  1.00  0.00     0.016 A 
ATOM     37  C   UNL A   1      40.726  26.960  29.655  1.00  0.00     0.010 A 
ATOM     38  C   UNL A   1      42.686  28.280  29.087  1.00  0.00     0.010 A 
ATOM     39  C   UNL A   1      41.690  27.914  30.008  1.00  0.00    -0.014 A 
BRANCH  39  40
ATOM     40  C   UNL A   1      41.463  28.750  31.210  1.00  0.00     0.031 A 
ATOM     41  C   UNL A   1      40.329  29.739  31.142  1.00  0.00     0.074 A 
ATOM     42  C   UNL A   1      42.208  28.635  32.323  1.00  0.00     0.049 A 
ATOM     43  N   UNL A   1      39.938  30.619  32.024  1.00  0.00    -0.248 NA
ATOM     44  C   UNL A   1      39.528  29.732  29.904  1.00  0.00     0.031 C 
ATOM     45  C   UNL A   1      43.301  27.684  32.523  1.00  0.00     0.029 A 
ATOM     46  N   UNL A   1      42.157  29.341  33.500  1.00  0.00    -0.354 N 
ATOM     47  C   UNL A   1      38.852  31.268  31.448  1.00  0.00     0.074 A 
ATOM     48  C   UNL A   1      38.658  30.701  30.134  1.00  0.00     0.031 C 
ATOM     49  C   UNL A   1      43.828  27.879  33.746  1.00  0.00     0.029 A 
ATOM     50  C   UNL A   1      43.132  28.986  34.402  1.00  0.00     0.049 A 
ATOM     51  H   UNL A   1      41.484  30.036  33.681  1.00  0.00     0.167 HD
ATOM     52  C   UNL A   1      38.082  32.248  31.969  1.00  0.00     0.037 A 
ATOM     53  C   UNL A   1      43.435  29.515  35.605  1.00  0.00     0.037 A 
ATOM     54  C   UNL A   1      38.285  32.817  33.272  1.00  0.00     0.049 A 
ATOM     55  C   UNL A   1      42.606  30.663  36.134  1.00  0.00     0.074 A 
ATOM     56  C   UNL A   1      37.555  33.810  33.898  1.00  0.00     0.029 A 
ATOM     57  N   UNL A   1      39.298  32.450  34.143  1.00  0.00    -0.354 N 
ATOM     58  N   UNL A   1      41.565  31.251  35.592  1.00  0.00    -0.248 NA
ATOM     59  C   UNL A   1      42.993  31.219  37.440  1.00  0.00     0.031 C 
ATOM     60  C   UNL A   1      38.160  34.081  35.129  1.00  0.00     0.029 A 
ATOM     61  C   UNL A   1      39.230  33.214  35.294  1.00  0.00     0.049 A 
ATOM     62  H   UNL A   1      39.968  31.750  33.969  1.00  0.00     0.167 HD
ATOM     63  C   UNL A   1      41.155  32.220  36.504  1.00  0.00     0.074 A 
ATOM     64  C   UNL A   1      42.054  32.134  37.635  1.00  0.00     0.031 C 
ATOM     65  C   UNL A   1      40.126  33.100  36.416  1.00  0.00     0.037 A 
BRANCH  52  66
ATOM     66  C   UNL A   1      36.970  32.786  31.115  1.00  0.00     0.058 A 
ATOM     67  C   UNL A   1      35.641  32.367  31.281  1.00  0.00     0.135 A 
ATOM     68  C   UNL A   1      37.236  33.758  30.138  1.00  0.00     0.135 A 
ATOM     69  F   UNL A   1      35.338  31.416  32.180  1.00  0.00    -0.206 F 
ATOM     70  C   UNL A   1      34.614  32.886  30.500  1.00  0.00     0.059 A 
ATOM     71  C   UNL A   1      36.220  34.311  29.364  1.00  0.00     0.059 A 
ATOM     72  F   UNL A   1      38.492  34.181  29.930  1.00  0.00    -0.206 F 
ATOM     73  C   UNL A   1      34.914  33.862  29.548  1.00  0.00     0.060 A 
BRANCH  73  74
ATOM     74  S   UNL A   1      33.565  34.551  28.566  1.00  0.00     0.124 S 
ATOM     75  O   UNL A   1      34.240  35.636  27.862  1.00  0.00    -0.237 OA
ATOM     76  O   UNL A   1      33.168  33.412  27.744  1.00  0.00    -0.237 OA
ATOM     77  O   UNL A   1      32.590  34.964  29.570  1.00  0.00    -0.744 OA
ENDBRANCH  73  74
ENDBRANCH  52  66
BRANCH  53  78
ATOM     78  C   UNL A   1      44.585  28.991  36.395  1.00  0.00     0.058 A 
ATOM     79  C   UNL A   1      45.855  29.582  36.311  1.00  0.00     0.135 A 
ATOM     80  C   UNL A   1      44.445  27.864  37.221  1.00  0.00     0.135 A 
ATOM     81  F   UNL A   1      46.047  30.652  35.525  1.00  0.00    -0.206 F 
ATOM     82  C   UNL A   1      46.949  29.063  36.998  1.00  0.00     0.059 A 
ATOM     83  C   UNL A   1      45.518  27.344  37.939  1.00  0.00     0.059 A 
ATOM     84  F   UNL A   1      43.251  27.263  37.342  1.00  0.00    -0.206 F 
ATOM     85  C   UNL A   1      46.770  27.943  37.811  1.00  0.00     0.060 A 
BRANCH  85  86
ATOM     86  S   UNL A   1      48.188  27.295  38.724  1.00  0.00     0.124 S 
ATOM     87  O   UNL A   1      48.750  28.513  39.297  1.00  0.00    -0.237 OA
ATOM     88  O   UNL A   1      47.552  26.379  39.666  1.00  0.00    -0.237 OA
ATOM     89  O   UNL A   1      48.990  26.655  37.685  1.00  0.00    -0.744 OA
ENDBRANCH  85  86
ENDBRANCH  53  78
BRANCH  65  90
ATOM     90  C   UNL A   1      39.880  34.009  37.589  1.00  0.00     0.058 A 
ATOM     91  C   UNL A   1      39.135  33.597  38.704  1.00  0.00     0.135 A 
ATOM     92  C   UNL A   1      40.461  35.289  37.626  1.00  0.00     0.135 A 
ATOM     93  F   UNL A   1      38.556  32.386  38.720  1.00  0.00    -0.206 F 
ATOM     94  C   UNL A   1      38.955  34.429  39.805  1.00  0.00     0.059 A 
ATOM     95  C   UNL A   1      40.320  36.125  38.727  1.00  0.00     0.059 A 
ATOM     96  F   UNL A   1      41.198  35.726  36.592  1.00  0.00    -0.206 F 
ATOM     97  C   UNL A   1      39.553  35.690  39.808  1.00  0.00     0.060 A 
BRANCH  97  98
ATOM     98  S   UNL A   1      39.343  36.746  41.257  1.00  0.00     0.124 S 
ATOM     99  O   UNL A   1      38.434  35.947  42.073  1.00  0.00    -0.237 OA
ATOM    100  O   UNL A   1      40.708  36.864  41.760  1.00  0.00    -0.237 OA
ATOM    101  O   UNL A   1      38.776  37.973  40.706  1.00  0.00    -0.744 OA
ENDBRANCH  97  98
ENDBRANCH  65  90
ENDBRANCH  39  40
ENDBRANCH  32  34
ENDBRANCH  31  32
ENDBRANCH  30  31
ENDBRANCH  29  30
ENDBRANCH  28  29
ENDBRANCH  27  28
ENDBRANCH  26  27
ENDBRANCH  25  26
ENDBRANCH   1  25
TORSDOF 27
ENDMDL
