MODEL 1
REMARK VINA RESULT:     -10.6      0.000      0.000
REMARK SMILES CN1C(=O)/C(=C\c2ccc(C(=O)Nc3ccc(O)cc3C(=O)OCCOCCOCCOCCOC(=O)c3ccc(-c4c5nc(c(-c6c(F)cc(S(=O)(=O)[O-])cc6F)c6ccc([nH]6)c(-c6c(F)cc(S(=O)(=O)[O-])cc6F)c6nc(c(-c7c(F)cc(S(=O)(=O)[O-])cc7F)c7ccc4[nH]7)C=C6)C=C5)cc3)cc2)SC1=S
REMARK SMILES IDX 29 1 28 2 27 3 26 4 25 5 24 6 23 7 21 8 22 9 20 10 14 11
REMARK SMILES IDX 15 12 16 13 19 14 17 15 13 16 11 17 12 18 10 20 7 21 8 22
REMARK SMILES IDX 105 23 9 24 104 25 6 26 1 27 2 28 3 29 107 30 4 31 5 32
REMARK SMILES IDX 106 33 108 34 18 35 30 37 31 38 32 39 33 40 34 41 35 42
REMARK SMILES IDX 36 43 37 44 38 45 39 46 103 47 40 48 102 49 41 50 42 51
REMARK SMILES IDX 43 52 96 53 44 54 101 55 95 56 97 57 45 58 100 59 94 60
REMARK SMILES IDX 93 61 46 63 80 64 59 65 79 66 60 67 63 68 78 69 98 70 61 71
REMARK SMILES IDX 62 72 77 74 99 75 64 76 47 77 48 78 57 79 49 80 50 81 56 82
REMARK SMILES IDX 58 83 51 84 52 85 53 86 54 87 55 88 81 89 82 90 91 91 83 92
REMARK SMILES IDX 84 93 90 94 92 95 85 96 86 97 87 98 88 99 89 100 65 101
REMARK SMILES IDX 66 102 75 103 67 104 68 105 74 106 76 107 69 108 70 109
REMARK SMILES IDX 71 110 72 111 73 112
REMARK H PARENT 13 19 18 36 97 62 63 73
REMARK Flexibility Score: inf
ROOT
ATOM      1  O   UNL A   1      38.566  21.062  25.489  1.00  0.00    -0.377 OA
ENDROOT
BRANCH   1   2
ATOM      2  C   UNL A   1      37.766  20.030  24.957  1.00  0.00     0.188 C 
BRANCH   2   3
ATOM      3  C   UNL A   1      36.233  20.182  25.077  1.00  0.00     0.188 C 
BRANCH   3   4
ATOM      4  O   UNL A   1      35.345  19.174  24.637  1.00  0.00    -0.376 OA
BRANCH   4   5
ATOM      5  C   UNL A   1      33.955  19.167  24.898  1.00  0.00     0.202 C 
BRANCH   5   6
ATOM      6  C   UNL A   1      32.852  19.444  23.879  1.00  0.00     0.261 C 
BRANCH   6   7
ATOM      7  O   UNL A   1      32.159  20.682  23.971  1.00  0.00    -0.460 OA
BRANCH   7   8
ATOM      8  C   UNL A   1      32.649  21.660  23.188  1.00  0.00     0.340 C 
ATOM      9  O   UNL A   1      32.194  22.003  22.104  1.00  0.00    -0.246 OA
BRANCH   8  10
ATOM     10  C   UNL A   1      33.727  22.417  23.872  1.00  0.00     0.087 A 
ATOM     11  C   UNL A   1      33.694  22.976  25.171  1.00  0.00     0.056 A 
ATOM     12  C   UNL A   1      34.791  23.768  25.562  1.00  0.00     0.031 A 
ATOM     13  C   UNL A   1      35.910  23.939  24.739  1.00  0.00     0.048 A 
ATOM     14  C   UNL A   1      34.860  22.605  23.047  1.00  0.00     0.064 A 
ATOM     15  C   UNL A   1      35.939  23.350  23.488  1.00  0.00     0.116 A 
BRANCH  11  16
ATOM     16  N   UNL A   1      32.714  22.809  26.187  1.00  0.00    -0.321 N 
ATOM     17  C   UNL A   1      31.643  23.574  26.621  1.00  0.00     0.255 C 
ATOM     18  O   UNL A   1      31.067  23.280  27.666  1.00  0.00    -0.269 OA
ATOM     19  H   UNL A   1      32.819  21.971  26.693  1.00  0.00     0.170 HD
BRANCH  17  20
ATOM     20  C   UNL A   1      31.133  24.705  25.814  1.00  0.00     0.040 A 
ATOM     21  C   UNL A   1      31.014  26.825  24.003  1.00  0.00    -0.024 A 
ATOM     22  C   UNL A   1      31.201  27.085  25.367  1.00  0.00     0.009 A 
ATOM     23  C   UNL A   1      30.781  25.507  23.608  1.00  0.00     0.009 A 
ATOM     24  C   UNL A   1      31.282  26.020  26.275  1.00  0.00     0.014 A 
ATOM     25  C   UNL A   1      30.694  24.473  24.522  1.00  0.00     0.014 A 
BRANCH  21  26
ATOM     26  C   UNL A   1      31.161  27.886  22.998  1.00  0.00     0.029 C 
ATOM     27  C   UNL A   1      27.051  30.204  23.730  1.00  0.00     0.155 C 
ATOM     28  N   UNL A   1      28.251  29.949  22.953  1.00  0.00    -0.296 N 
ATOM     29  C   UNL A   1      28.745  28.669  22.990  1.00  0.00     0.265 C 
ATOM     30  C   UNL A   1      28.940  30.833  22.164  1.00  0.00     0.148 C 
ATOM     31  O   UNL A   1      28.058  27.697  23.262  1.00  0.00    -0.268 OA
ATOM     32  C   UNL A   1      30.169  28.672  22.554  1.00  0.00     0.081 C 
ATOM     33  S   UNL A   1      30.419  30.068  21.568  1.00  0.00    -0.054 SA
ATOM     34  S   UNL A   1      28.523  32.401  21.787  1.00  0.00    -0.052 S 
ENDBRANCH  21  26
ENDBRANCH  17  20
ENDBRANCH  11  16
BRANCH  15  35
ATOM     35  O   UNL A   1      37.041  23.527  22.708  1.00  0.00    -0.508 OA
ATOM     36  H   UNL A   1      37.058  23.180  21.838  1.00  0.00     0.293 HD
ENDBRANCH  15  35
ENDBRANCH   8  10
ENDBRANCH   7   8
ENDBRANCH   6   7
ENDBRANCH   5   6
ENDBRANCH   4   5
ENDBRANCH   3   4
ENDBRANCH   2   3
ENDBRANCH   1   2
BRANCH   1  37
ATOM     37  C   UNL A   1      39.790  20.747  26.140  1.00  0.00     0.188 C 
BRANCH  37  38
ATOM     38  C   UNL A   1      40.532  21.781  27.018  1.00  0.00     0.188 C 
BRANCH  38  39
ATOM     39  O   UNL A   1      41.122  22.856  26.312  1.00  0.00    -0.376 OA
BRANCH  39  40
ATOM     40  C   UNL A   1      42.505  23.112  26.456  1.00  0.00     0.202 C 
BRANCH  40  41
ATOM     41  C   UNL A   1      43.169  24.101  25.489  1.00  0.00     0.261 C 
BRANCH  41  42
ATOM     42  O   UNL A   1      43.289  25.454  25.943  1.00  0.00    -0.460 OA
BRANCH  42  43
ATOM     43  C   UNL A   1      42.153  26.188  26.010  1.00  0.00     0.338 C 
ATOM     44  O   UNL A   1      41.268  26.244  25.187  1.00  0.00    -0.246 OA
BRANCH  43  45
ATOM     45  C   UNL A   1      42.093  26.761  27.373  1.00  0.00     0.060 A 
ATOM     46  C   UNL A   1      41.213  26.207  28.313  1.00  0.00     0.016 A 
ATOM     47  C   UNL A   1      42.923  27.829  27.718  1.00  0.00     0.016 A 
ATOM     48  C   UNL A   1      41.133  26.749  29.595  1.00  0.00     0.010 A 
ATOM     49  C   UNL A   1      42.823  28.388  28.991  1.00  0.00     0.010 A 
ATOM     50  C   UNL A   1      41.900  27.874  29.920  1.00  0.00    -0.014 A 
BRANCH  50  51
ATOM     51  C   UNL A   1      41.575  28.665  31.130  1.00  0.00     0.031 A 
ATOM     52  C   UNL A   1      40.409  29.612  31.052  1.00  0.00     0.074 A 
ATOM     53  C   UNL A   1      42.289  28.548  32.262  1.00  0.00     0.049 A 
ATOM     54  N   UNL A   1      39.982  30.481  31.928  1.00  0.00    -0.248 NA
ATOM     55  C   UNL A   1      39.622  29.575  29.806  1.00  0.00     0.031 C 
ATOM     56  C   UNL A   1      43.405  27.627  32.468  1.00  0.00     0.029 A 
ATOM     57  N   UNL A   1      42.186  29.227  33.449  1.00  0.00    -0.354 N 
ATOM     58  C   UNL A   1      38.889  31.103  31.338  1.00  0.00     0.074 A 
ATOM     59  C   UNL A   1      38.734  30.534  30.018  1.00  0.00     0.031 C 
ATOM     60  C   UNL A   1      43.898  27.813  33.706  1.00  0.00     0.029 A 
ATOM     61  C   UNL A   1      43.159  28.891  34.362  1.00  0.00     0.049 A 
ATOM     62  H   UNL A   1      41.483  29.892  33.631  1.00  0.00     0.167 HD
ATOM     63  C   UNL A   1      38.082  32.059  31.854  1.00  0.00     0.037 A 
ATOM     64  C   UNL A   1      43.434  29.420  35.571  1.00  0.00     0.037 A 
ATOM     65  C   UNL A   1      38.252  32.623  33.167  1.00  0.00     0.049 A 
ATOM     66  C   UNL A   1      42.575  30.546  36.094  1.00  0.00     0.074 A 
ATOM     67  C   UNL A   1      37.488  33.591  33.793  1.00  0.00     0.029 A 
ATOM     68  N   UNL A   1      39.264  32.276  34.052  1.00  0.00    -0.354 N 
ATOM     69  N   UNL A   1      41.533  31.119  35.536  1.00  0.00    -0.248 NA
ATOM     70  C   UNL A   1      42.927  31.098  37.409  1.00  0.00     0.031 C 
ATOM     71  C   UNL A   1      38.073  33.873  35.031  1.00  0.00     0.029 A 
ATOM     72  C   UNL A   1      39.161  33.032  35.207  1.00  0.00     0.049 A 
ATOM     73  H   UNL A   1      39.953  31.594  33.882  1.00  0.00     0.167 HD
ATOM     74  C   UNL A   1      41.087  32.073  36.447  1.00  0.00     0.074 A 
ATOM     75  C   UNL A   1      41.968  31.995  37.593  1.00  0.00     0.031 C 
ATOM     76  C   UNL A   1      40.041  32.932  36.347  1.00  0.00     0.037 A 
BRANCH  63  77
ATOM     77  C   UNL A   1      36.971  32.578  30.983  1.00  0.00     0.058 A 
ATOM     78  C   UNL A   1      35.652  32.108  31.100  1.00  0.00     0.135 A 
ATOM     79  C   UNL A   1      37.226  33.573  30.025  1.00  0.00     0.135 A 
ATOM     80  F   UNL A   1      35.355  31.140  31.983  1.00  0.00    -0.206 F 
ATOM     81  C   UNL A   1      34.635  32.583  30.280  1.00  0.00     0.059 A 
ATOM     82  C   UNL A   1      36.217  34.087  29.217  1.00  0.00     0.059 A 
ATOM     83  F   UNL A   1      38.469  34.055  29.865  1.00  0.00    -0.206 F 
ATOM     84  C   UNL A   1      34.927  33.575  29.342  1.00  0.00     0.060 A 
BRANCH  84  85
ATOM     85  S   UNL A   1      33.594  34.183  28.288  1.00  0.00     0.124 S 
ATOM     86  O   UNL A   1      32.669  34.731  29.276  1.00  0.00    -0.237 OA
ATOM     87  O   UNL A   1      34.281  35.163  27.453  1.00  0.00    -0.237 OA
ATOM     88  O   UNL A   1      33.133  32.985  27.595  1.00  0.00    -0.744 OA
ENDBRANCH  84  85
ENDBRANCH  63  77
BRANCH  64  89
ATOM     89  C   UNL A   1      44.579  28.901  36.368  1.00  0.00     0.058 A 
ATOM     90  C   UNL A   1      44.440  27.770  37.186  1.00  0.00     0.135 A 
ATOM     91  C   UNL A   1      45.837  29.525  36.329  1.00  0.00     0.135 A 
ATOM     92  F   UNL A   1      43.255  27.146  37.270  1.00  0.00    -0.206 F 
ATOM     93  C   UNL A   1      45.498  27.283  37.945  1.00  0.00     0.059 A 
ATOM     94  C   UNL A   1      46.920  29.039  37.057  1.00  0.00     0.059 A 
ATOM     95  F   UNL A   1      46.026  30.610  35.562  1.00  0.00    -0.206 F 
ATOM     96  C   UNL A   1      46.739  27.921  37.869  1.00  0.00     0.060 A 
BRANCH  96  97
ATOM     97  S   UNL A   1      48.115  27.247  38.825  1.00  0.00     0.124 S 
ATOM     98  O   UNL A   1      49.055  28.361  38.815  1.00  0.00    -0.237 OA
ATOM     99  O   UNL A   1      47.481  26.958  40.107  1.00  0.00    -0.237 OA
ATOM    100  O   UNL A   1      48.520  26.075  38.054  1.00  0.00    -0.744 OA
ENDBRANCH  96  97
ENDBRANCH  64  89
BRANCH  76 101
ATOM    101  C   UNL A   1      39.751  33.826  37.523  1.00  0.00     0.058 A 
ATOM    102  C   UNL A   1      38.965  33.400  38.604  1.00  0.00     0.135 A 
ATOM    103  C   UNL A   1      40.334  35.102  37.600  1.00  0.00     0.135 A 
ATOM    104  F   UNL A   1      38.379  32.193  38.581  1.00  0.00    -0.206 F 
ATOM    105  C   UNL A   1      38.751  34.215  39.713  1.00  0.00     0.059 A 
ATOM    106  C   UNL A   1      40.161  35.920  38.712  1.00  0.00     0.059 A 
ATOM    107  F   UNL A   1      41.105  35.555  36.599  1.00  0.00    -0.206 F 
ATOM    108  C   UNL A   1      39.360  35.471  39.760  1.00  0.00     0.060 A 
BRANCH 108 109
ATOM    109  S   UNL A   1      39.114  36.496  41.226  1.00  0.00     0.124 S 
ATOM    110  O   UNL A   1      38.813  37.794  40.631  1.00  0.00    -0.237 OA
ATOM    111  O   UNL A   1      37.998  35.828  41.888  1.00  0.00    -0.237 OA
ATOM    112  O   UNL A   1      40.394  36.407  41.923  1.00  0.00    -0.744 OA
ENDBRANCH 108 109
ENDBRANCH  76 101
ENDBRANCH  50  51
ENDBRANCH  43  45
ENDBRANCH  42  43
ENDBRANCH  41  42
ENDBRANCH  40  41
ENDBRANCH  39  40
ENDBRANCH  38  39
ENDBRANCH  37  38
ENDBRANCH   1  37
TORSDOF 27
ENDMDL
MODEL 2
REMARK VINA RESULT:     -10.2      7.040     12.293
REMARK SMILES CN1C(=O)/C(=C\c2ccc(C(=O)Nc3ccc(O)cc3C(=O)OCCOCCOCCOCCOC(=O)c3ccc(-c4c5nc(c(-c6c(F)cc(S(=O)(=O)[O-])cc6F)c6ccc([nH]6)c(-c6c(F)cc(S(=O)(=O)[O-])cc6F)c6nc(c(-c7c(F)cc(S(=O)(=O)[O-])cc7F)c7ccc4[nH]7)C=C6)C=C5)cc3)cc2)SC1=S
REMARK SMILES IDX 29 1 28 2 27 3 26 4 25 5 24 6 23 7 21 8 22 9 20 10 14 11
REMARK SMILES IDX 15 12 16 13 19 14 17 15 13 16 11 17 12 18 10 20 7 21 8 22
REMARK SMILES IDX 105 23 9 24 104 25 6 26 1 27 2 28 3 29 107 30 4 31 5 32
REMARK SMILES IDX 106 33 108 34 18 35 30 37 31 38 32 39 33 40 34 41 35 42
REMARK SMILES IDX 36 43 37 44 38 45 39 46 103 47 40 48 102 49 41 50 42 51
REMARK SMILES IDX 43 52 96 53 44 54 101 55 95 56 97 57 45 58 100 59 94 60
REMARK SMILES IDX 93 61 46 63 80 64 59 65 79 66 60 67 63 68 78 69 98 70 61 71
REMARK SMILES IDX 62 72 77 74 99 75 64 76 47 77 48 78 57 79 49 80 50 81 56 82
REMARK SMILES IDX 58 83 51 84 52 85 53 86 54 87 55 88 81 89 82 90 91 91 83 92
REMARK SMILES IDX 84 93 90 94 92 95 85 96 86 97 87 98 88 99 89 100 65 101
REMARK SMILES IDX 66 102 75 103 67 104 68 105 74 106 76 107 69 108 70 109
REMARK SMILES IDX 71 110 72 111 73 112
REMARK H PARENT 13 19 18 36 97 62 63 73
REMARK Flexibility Score: inf
ROOT
ATOM      1  O   UNL A   1      32.749  34.794  29.854  1.00  0.00    -0.377 OA
ENDROOT
BRANCH   1   2
ATOM      2  C   UNL A   1      33.471  34.915  28.649  1.00  0.00     0.188 C 
BRANCH   2   3
ATOM      3  C   UNL A   1      34.789  34.119  28.525  1.00  0.00     0.188 C 
BRANCH   3   4
ATOM      4  O   UNL A   1      34.849  32.727  28.769  1.00  0.00    -0.376 OA
BRANCH   4   5
ATOM      5  C   UNL A   1      35.277  31.769  27.821  1.00  0.00     0.202 C 
BRANCH   5   6
ATOM      6  C   UNL A   1      35.150  30.253  27.962  1.00  0.00     0.261 C 
BRANCH   6   7
ATOM      7  O   UNL A   1      35.968  29.605  28.926  1.00  0.00    -0.460 OA
BRANCH   7   8
ATOM      8  C   UNL A   1      37.284  29.855  28.806  1.00  0.00     0.340 C 
ATOM      9  O   UNL A   1      37.797  30.611  27.991  1.00  0.00    -0.246 OA
BRANCH   8  10
ATOM     10  C   UNL A   1      38.061  29.231  29.908  1.00  0.00     0.087 A 
ATOM     11  C   UNL A   1      39.350  28.657  29.832  1.00  0.00     0.056 A 
ATOM     12  C   UNL A   1      39.836  28.004  30.982  1.00  0.00     0.031 A 
ATOM     13  C   UNL A   1      39.115  27.987  32.182  1.00  0.00     0.048 A 
ATOM     14  C   UNL A   1      37.338  29.198  31.123  1.00  0.00     0.064 A 
ATOM     15  C   UNL A   1      37.873  28.590  32.245  1.00  0.00     0.116 A 
BRANCH  11  16
ATOM     16  N   UNL A   1      40.276  28.686  28.753  1.00  0.00    -0.321 N 
ATOM     17  C   UNL A   1      41.015  27.714  28.098  1.00  0.00     0.255 C 
ATOM     18  O   UNL A   1      41.900  28.046  27.313  1.00  0.00    -0.269 OA
ATOM     19  H   UNL A   1      40.426  29.591  28.397  1.00  0.00     0.170 HD
BRANCH  17  20
ATOM     20  C   UNL A   1      40.714  26.275  28.273  1.00  0.00     0.040 A 
ATOM     21  C   UNL A   1      40.512  23.533  27.794  1.00  0.00    -0.024 A 
ATOM     22  C   UNL A   1      39.406  24.363  27.566  1.00  0.00     0.009 A 
ATOM     23  C   UNL A   1      41.654  24.097  28.365  1.00  0.00     0.009 A 
ATOM     24  C   UNL A   1      39.513  25.743  27.786  1.00  0.00     0.014 A 
ATOM     25  C   UNL A   1      41.705  25.428  28.739  1.00  0.00     0.014 A 
BRANCH  21  26
ATOM     26  C   UNL A   1      40.517  22.133  27.353  1.00  0.00     0.029 C 
ATOM     27  C   UNL A   1      44.798  22.010  25.242  1.00  0.00     0.155 C 
ATOM     28  N   UNL A   1      43.500  21.427  25.528  1.00  0.00    -0.296 N 
ATOM     29  C   UNL A   1      42.463  22.304  25.731  1.00  0.00     0.265 C 
ATOM     30  C   UNL A   1      43.179  20.096  25.598  1.00  0.00     0.148 C 
ATOM     31  O   UNL A   1      42.462  23.444  25.296  1.00  0.00    -0.268 OA
ATOM     32  C   UNL A   1      41.357  21.611  26.447  1.00  0.00     0.081 C 
ATOM     33  S   UNL A   1      41.504  19.917  26.138  1.00  0.00    -0.054 SA
ATOM     34  S   UNL A   1      44.157  18.792  25.255  1.00  0.00    -0.052 S 
ENDBRANCH  21  26
ENDBRANCH  17  20
ENDBRANCH  11  16
BRANCH  15  35
ATOM     35  O   UNL A   1      37.193  28.563  33.425  1.00  0.00    -0.508 OA
ATOM     36  H   UNL A   1      37.330  29.238  34.060  1.00  0.00     0.293 HD
ENDBRANCH  15  35
ENDBRANCH   8  10
ENDBRANCH   7   8
ENDBRANCH   6   7
ENDBRANCH   5   6
ENDBRANCH   4   5
ENDBRANCH   3   4
ENDBRANCH   2   3
ENDBRANCH   1   2
BRANCH   1  37
ATOM     37  C   UNL A   1      32.843  35.811  30.843  1.00  0.00     0.188 C 
BRANCH  37  38
ATOM     38  C   UNL A   1      32.998  35.472  32.344  1.00  0.00     0.188 C 
BRANCH  38  39
ATOM     39  O   UNL A   1      33.438  34.156  32.620  1.00  0.00    -0.376 OA
BRANCH  39  40
ATOM     40  C   UNL A   1      34.773  33.790  32.330  1.00  0.00     0.202 C 
BRANCH  40  41
ATOM     41  C   UNL A   1      35.631  33.206  33.459  1.00  0.00     0.261 C 
BRANCH  41  42
ATOM     42  O   UNL A   1      36.535  32.156  33.097  1.00  0.00    -0.460 OA
BRANCH  42  43
ATOM     43  C   UNL A   1      37.517  31.853  33.978  1.00  0.00     0.338 C 
ATOM     44  O   UNL A   1      37.387  31.470  35.118  1.00  0.00    -0.246 OA
BRANCH  43  45
ATOM     45  C   UNL A   1      38.792  31.886  33.226  1.00  0.00     0.060 A 
ATOM     46  C   UNL A   1      39.989  31.589  33.892  1.00  0.00     0.016 A 
ATOM     47  C   UNL A   1      38.791  32.189  31.864  1.00  0.00     0.016 A 
ATOM     48  C   UNL A   1      41.199  31.634  33.200  1.00  0.00     0.010 A 
ATOM     49  C   UNL A   1      40.003  32.261  31.180  1.00  0.00     0.010 A 
ATOM     50  C   UNL A   1      41.214  32.021  31.855  1.00  0.00    -0.014 A 
BRANCH  50  51
ATOM     51  C   UNL A   1      42.491  32.413  31.214  1.00  0.00     0.031 A 
ATOM     52  C   UNL A   1      42.865  33.870  31.237  1.00  0.00     0.074 A 
ATOM     53  C   UNL A   1      43.293  31.508  30.629  1.00  0.00     0.049 A 
ATOM     54  N   UNL A   1      43.869  34.481  30.667  1.00  0.00    -0.248 NA
ATOM     55  C   UNL A   1      41.976  34.758  32.007  1.00  0.00     0.031 C 
ATOM     56  C   UNL A   1      43.057  30.066  30.590  1.00  0.00     0.029 A 
ATOM     57  N   UNL A   1      44.466  31.678  29.938  1.00  0.00    -0.354 N 
ATOM     58  C   UNL A   1      43.726  35.824  30.996  1.00  0.00     0.074 A 
ATOM     59  C   UNL A   1      42.524  35.944  31.790  1.00  0.00     0.031 C 
ATOM     60  C   UNL A   1      44.048  29.483  29.892  1.00  0.00     0.029 A 
ATOM     61  C   UNL A   1      44.963  30.513  29.403  1.00  0.00     0.049 A 
ATOM     62  H   UNL A   1      44.909  32.551  29.835  1.00  0.00     0.167 HD
ATOM     63  C   UNL A   1      44.530  36.861  30.669  1.00  0.00     0.037 A 
ATOM     64  C   UNL A   1      46.017  30.313  28.586  1.00  0.00     0.037 A 
ATOM     65  C   UNL A   1      45.721  36.729  29.870  1.00  0.00     0.049 A 
ATOM     66  C   UNL A   1      46.853  31.497  28.162  1.00  0.00     0.074 A 
ATOM     67  C   UNL A   1      46.612  37.713  29.486  1.00  0.00     0.029 A 
ATOM     68  N   UNL A   1      46.178  35.537  29.325  1.00  0.00    -0.354 N 
ATOM     69  N   UNL A   1      46.721  32.763  28.489  1.00  0.00    -0.248 NA
ATOM     70  C   UNL A   1      47.980  31.229  27.259  1.00  0.00     0.031 C 
ATOM     71  C   UNL A   1      47.575  37.128  28.658  1.00  0.00     0.029 A 
ATOM     72  C   UNL A   1      47.323  35.767  28.583  1.00  0.00     0.049 A 
ATOM     73  H   UNL A   1      45.750  34.659  29.447  1.00  0.00     0.167 HD
ATOM     74  C   UNL A   1      47.767  33.432  27.860  1.00  0.00     0.074 A 
ATOM     75  C   UNL A   1      48.525  32.432  27.139  1.00  0.00     0.031 C 
ATOM     76  C   UNL A   1      48.075  34.754  27.881  1.00  0.00     0.037 A 
BRANCH  63  77
ATOM     77  C   UNL A   1      44.127  38.231  31.144  1.00  0.00     0.058 A 
ATOM     78  C   UNL A   1      43.389  39.111  30.335  1.00  0.00     0.135 A 
ATOM     79  C   UNL A   1      44.473  38.665  32.434  1.00  0.00     0.135 A 
ATOM     80  F   UNL A   1      43.051  38.758  29.084  1.00  0.00    -0.206 F 
ATOM     81  C   UNL A   1      43.033  40.380  30.777  1.00  0.00     0.059 A 
ATOM     82  C   UNL A   1      44.100  39.918  32.909  1.00  0.00     0.059 A 
ATOM     83  F   UNL A   1      45.184  37.869  33.248  1.00  0.00    -0.206 F 
ATOM     84  C   UNL A   1      43.392  40.774  32.067  1.00  0.00     0.060 A 
BRANCH  84  85
ATOM     85  S   UNL A   1      42.921  42.425  32.627  1.00  0.00     0.124 S 
ATOM     86  O   UNL A   1      42.374  43.002  31.402  1.00  0.00    -0.237 OA
ATOM     87  O   UNL A   1      41.950  42.131  33.675  1.00  0.00    -0.237 OA
ATOM     88  O   UNL A   1      44.179  43.003  33.084  1.00  0.00    -0.744 OA
ENDBRANCH  84  85
ENDBRANCH  63  77
BRANCH  64  89
ATOM     89  C   UNL A   1      46.339  28.942  28.106  1.00  0.00     0.058 A 
ATOM     90  C   UNL A   1      46.000  28.530  26.809  1.00  0.00     0.135 A 
ATOM     91  C   UNL A   1      46.995  28.015  28.933  1.00  0.00     0.135 A 
ATOM     92  F   UNL A   1      45.359  29.372  25.984  1.00  0.00    -0.206 F 
ATOM     93  C   UNL A   1      46.285  27.247  26.352  1.00  0.00     0.059 A 
ATOM     94  C   UNL A   1      47.318  26.735  28.489  1.00  0.00     0.059 A 
ATOM     95  F   UNL A   1      47.344  28.358  30.183  1.00  0.00    -0.206 F 
ATOM     96  C   UNL A   1      46.951  26.358  27.198  1.00  0.00     0.060 A 
BRANCH  96  97
ATOM     97  S   UNL A   1      47.356  24.712  26.573  1.00  0.00     0.124 S 
ATOM     98  O   UNL A   1      46.822  24.773  25.218  1.00  0.00    -0.237 OA
ATOM     99  O   UNL A   1      48.811  24.693  26.685  1.00  0.00    -0.237 OA
ATOM    100  O   UNL A   1      46.650  23.820  27.488  1.00  0.00    -0.744 OA
ENDBRANCH  96  97
ENDBRANCH  64  89
BRANCH  76 101
ATOM    101  C   UNL A   1      49.312  35.198  27.146  1.00  0.00     0.058 A 
ATOM    102  C   UNL A   1      49.308  35.444  25.764  1.00  0.00     0.135 A 
ATOM    103  C   UNL A   1      50.499  35.455  27.853  1.00  0.00     0.135 A 
ATOM    104  F   UNL A   1      48.202  35.211  25.039  1.00  0.00    -0.206 F 
ATOM    105  C   UNL A   1      50.442  35.911  25.106  1.00  0.00     0.059 A 
ATOM    106  C   UNL A   1      51.634  35.952  27.221  1.00  0.00     0.059 A 
ATOM    107  F   UNL A   1      50.555  35.250  29.178  1.00  0.00    -0.206 F 
ATOM    108  C   UNL A   1      51.599  36.169  25.845  1.00  0.00     0.060 A 
BRANCH 108 109
ATOM    109  S   UNL A   1      53.046  36.821  24.985  1.00  0.00     0.124 S 
ATOM    110  O   UNL A   1      54.095  35.917  25.446  1.00  0.00    -0.237 OA
ATOM    111  O   UNL A   1      52.662  36.684  23.583  1.00  0.00    -0.237 OA
ATOM    112  O   UNL A   1      53.142  38.194  25.471  1.00  0.00    -0.744 OA
ENDBRANCH 108 109
ENDBRANCH  76 101
ENDBRANCH  50  51
ENDBRANCH  43  45
ENDBRANCH  42  43
ENDBRANCH  41  42
ENDBRANCH  40  41
ENDBRANCH  39  40
ENDBRANCH  38  39
ENDBRANCH  37  38
ENDBRANCH   1  37
TORSDOF 27
ENDMDL
MODEL 3
REMARK VINA RESULT:      -9.6      1.987      8.073
REMARK SMILES CN1C(=O)/C(=C\c2ccc(C(=O)Nc3ccc(O)cc3C(=O)OCCOCCOCCOCCOC(=O)c3ccc(-c4c5nc(c(-c6c(F)cc(S(=O)(=O)[O-])cc6F)c6ccc([nH]6)c(-c6c(F)cc(S(=O)(=O)[O-])cc6F)c6nc(c(-c7c(F)cc(S(=O)(=O)[O-])cc7F)c7ccc4[nH]7)C=C6)C=C5)cc3)cc2)SC1=S
REMARK SMILES IDX 29 1 28 2 27 3 26 4 25 5 24 6 23 7 21 8 22 9 20 10 14 11
REMARK SMILES IDX 15 12 16 13 19 14 17 15 13 16 11 17 12 18 10 20 7 21 8 22
REMARK SMILES IDX 105 23 9 24 104 25 6 26 1 27 2 28 3 29 107 30 4 31 5 32
REMARK SMILES IDX 106 33 108 34 18 35 30 37 31 38 32 39 33 40 34 41 35 42
REMARK SMILES IDX 36 43 37 44 38 45 39 46 103 47 40 48 102 49 41 50 42 51
REMARK SMILES IDX 43 52 96 53 44 54 101 55 95 56 97 57 45 58 100 59 94 60
REMARK SMILES IDX 93 61 46 63 80 64 59 65 79 66 60 67 63 68 78 69 98 70 61 71
REMARK SMILES IDX 62 72 77 74 99 75 64 76 47 77 48 78 57 79 49 80 50 81 56 82
REMARK SMILES IDX 58 83 51 84 52 85 53 86 54 87 55 88 81 89 82 90 91 91 83 92
REMARK SMILES IDX 84 93 90 94 92 95 85 96 86 97 87 98 88 99 89 100 65 101
REMARK SMILES IDX 66 102 75 103 67 104 68 105 74 106 76 107 69 108 70 109
REMARK SMILES IDX 71 110 72 111 73 112
REMARK H PARENT 13 19 18 36 97 62 63 73
REMARK Flexibility Score: inf
ROOT
ATOM      1  O   UNL A   1      38.889  21.854  26.112  1.00  0.00    -0.377 OA
ENDROOT
BRANCH   1   2
ATOM      2  C   UNL A   1      37.856  21.238  25.377  1.00  0.00     0.188 C 
BRANCH   2   3
ATOM      3  C   UNL A   1      36.492  21.962  25.320  1.00  0.00     0.188 C 
BRANCH   3   4
ATOM      4  O   UNL A   1      35.692  22.140  26.471  1.00  0.00    -0.376 OA
BRANCH   4   5
ATOM      5  C   UNL A   1      34.520  21.398  26.751  1.00  0.00     0.202 C 
BRANCH   5   6
ATOM      6  C   UNL A   1      33.100  21.955  26.808  1.00  0.00     0.261 C 
BRANCH   6   7
ATOM      7  O   UNL A   1      32.247  21.714  25.698  1.00  0.00    -0.460 OA
BRANCH   7   8
ATOM      8  C   UNL A   1      31.479  22.759  25.341  1.00  0.00     0.340 C 
ATOM      9  O   UNL A   1      30.526  23.197  25.975  1.00  0.00    -0.246 OA
BRANCH   8  10
ATOM     10  C   UNL A   1      32.027  23.457  24.149  1.00  0.00     0.087 A 
ATOM     11  C   UNL A   1      31.365  24.393  23.322  1.00  0.00     0.056 A 
ATOM     12  C   UNL A   1      32.043  24.827  22.166  1.00  0.00     0.031 A 
ATOM     13  C   UNL A   1      33.350  24.418  21.879  1.00  0.00     0.048 A 
ATOM     14  C   UNL A   1      33.344  23.044  23.843  1.00  0.00     0.064 A 
ATOM     15  C   UNL A   1      33.994  23.533  22.724  1.00  0.00     0.116 A 
BRANCH  11  16
ATOM     16  N   UNL A   1      30.102  25.017  23.516  1.00  0.00    -0.321 N 
ATOM     17  C   UNL A   1      29.680  26.122  24.238  1.00  0.00     0.255 C 
ATOM     18  O   UNL A   1      28.478  26.329  24.391  1.00  0.00    -0.269 OA
ATOM     19  H   UNL A   1      29.370  24.568  23.036  1.00  0.00     0.170 HD
BRANCH  17  20
ATOM     20  C   UNL A   1      30.651  27.101  24.777  1.00  0.00     0.040 A 
ATOM     21  C   UNL A   1      31.725  29.352  26.029  1.00  0.00    -0.024 A 
ATOM     22  C   UNL A   1      31.598  29.325  24.634  1.00  0.00     0.009 A 
ATOM     23  C   UNL A   1      31.409  28.195  26.743  1.00  0.00     0.009 A 
ATOM     24  C   UNL A   1      31.040  28.204  24.006  1.00  0.00     0.014 A 
ATOM     25  C   UNL A   1      31.015  27.030  26.111  1.00  0.00     0.014 A 
BRANCH  21  26
ATOM     26  C   UNL A   1      32.079  30.588  26.738  1.00  0.00     0.029 C 
ATOM     27  C   UNL A   1      36.770  29.854  27.253  1.00  0.00     0.155 C 
ATOM     28  N   UNL A   1      35.552  30.584  27.557  1.00  0.00    -0.296 N 
ATOM     29  C   UNL A   1      34.382  29.866  27.529  1.00  0.00     0.265 C 
ATOM     30  C   UNL A   1      35.433  31.908  27.893  1.00  0.00     0.148 C 
ATOM     31  O   UNL A   1      34.341  28.655  27.678  1.00  0.00    -0.268 OA
ATOM     32  C   UNL A   1      33.229  30.797  27.399  1.00  0.00     0.081 C 
ATOM     33  S   UNL A   1      33.720  32.340  28.002  1.00  0.00    -0.054 SA
ATOM     34  S   UNL A   1      36.656  33.005  28.162  1.00  0.00    -0.052 S 
ENDBRANCH  21  26
ENDBRANCH  17  20
ENDBRANCH  11  16
BRANCH  15  35
ATOM     35  O   UNL A   1      35.267  23.152  22.425  1.00  0.00    -0.508 OA
ATOM     36  H   UNL A   1      35.835  22.844  23.103  1.00  0.00     0.293 HD
ENDBRANCH  15  35
ENDBRANCH   8  10
ENDBRANCH   7   8
ENDBRANCH   6   7
ENDBRANCH   5   6
ENDBRANCH   4   5
ENDBRANCH   3   4
ENDBRANCH   2   3
ENDBRANCH   1   2
BRANCH   1  37
ATOM     37  C   UNL A   1      40.193  21.288  26.115  1.00  0.00     0.188 C 
BRANCH  37  38
ATOM     38  C   UNL A   1      41.419  22.075  26.634  1.00  0.00     0.188 C 
BRANCH  38  39
ATOM     39  O   UNL A   1      42.383  22.402  25.652  1.00  0.00    -0.376 OA
BRANCH  39  40
ATOM     40  C   UNL A   1      42.697  23.758  25.404  1.00  0.00     0.202 C 
BRANCH  40  41
ATOM     41  C   UNL A   1      42.435  24.782  26.517  1.00  0.00     0.261 C 
BRANCH  41  42
ATOM     42  O   UNL A   1      41.526  25.843  26.207  1.00  0.00    -0.460 OA
BRANCH  42  43
ATOM     43  C   UNL A   1      40.320  25.825  26.823  1.00  0.00     0.338 C 
ATOM     44  O   UNL A   1      39.341  25.193  26.499  1.00  0.00    -0.246 OA
BRANCH  43  45
ATOM     45  C   UNL A   1      40.476  26.573  28.092  1.00  0.00     0.060 A 
ATOM     46  C   UNL A   1      39.561  26.358  29.131  1.00  0.00     0.016 A 
ATOM     47  C   UNL A   1      41.538  27.465  28.250  1.00  0.00     0.016 A 
ATOM     48  C   UNL A   1      39.685  27.069  30.325  1.00  0.00     0.010 A 
ATOM     49  C   UNL A   1      41.645  28.195  29.432  1.00  0.00     0.010 A 
ATOM     50  C   UNL A   1      40.697  28.028  30.458  1.00  0.00    -0.014 A 
BRANCH  50  51
ATOM     51  C   UNL A   1      40.631  29.024  31.552  1.00  0.00     0.031 A 
ATOM     52  C   UNL A   1      41.626  28.897  32.672  1.00  0.00     0.074 A 
ATOM     53  C   UNL A   1      39.717  30.009  31.553  1.00  0.00     0.049 A 
ATOM     54  N   UNL A   1      41.717  29.573  33.786  1.00  0.00    -0.248 NA
ATOM     55  C   UNL A   1      42.657  27.857  32.513  1.00  0.00     0.031 C 
ATOM     56  C   UNL A   1      38.738  30.259  30.498  1.00  0.00     0.029 A 
ATOM     57  N   UNL A   1      39.458  30.976  32.492  1.00  0.00    -0.354 N 
ATOM     58  C   UNL A   1      42.802  29.033  34.466  1.00  0.00     0.074 A 
ATOM     59  C   UNL A   1      43.321  27.955  33.654  1.00  0.00     0.031 C 
ATOM     60  C   UNL A   1      37.970  31.303  30.857  1.00  0.00     0.029 A 
ATOM     61  C   UNL A   1      38.377  31.767  32.183  1.00  0.00     0.049 A 
ATOM     62  H   UNL A   1      39.995  31.093  33.309  1.00  0.00     0.167 HD
ATOM     63  C   UNL A   1      43.323  29.408  35.657  1.00  0.00     0.037 A 
ATOM     64  C   UNL A   1      37.771  32.730  32.906  1.00  0.00     0.037 A 
ATOM     65  C   UNL A   1      42.791  30.479  36.459  1.00  0.00     0.049 A 
ATOM     66  C   UNL A   1      38.315  33.076  34.272  1.00  0.00     0.074 A 
ATOM     67  C   UNL A   1      43.246  30.947  37.677  1.00  0.00     0.029 A 
ATOM     68  N   UNL A   1      41.680  31.240  36.125  1.00  0.00    -0.354 N 
ATOM     69  N   UNL A   1      39.351  32.571  34.902  1.00  0.00    -0.248 NA
ATOM     70  C   UNL A   1      37.609  34.121  35.026  1.00  0.00     0.031 C 
ATOM     71  C   UNL A   1      42.373  31.950  38.110  1.00  0.00     0.029 A 
ATOM     72  C   UNL A   1      41.416  32.155  37.129  1.00  0.00     0.049 A 
ATOM     73  H   UNL A   1      41.156  31.142  35.297  1.00  0.00     0.167 HD
ATOM     74  C   UNL A   1      39.440  33.261  36.108  1.00  0.00     0.074 A 
ATOM     75  C   UNL A   1      38.357  34.222  36.116  1.00  0.00     0.031 C 
ATOM     76  C   UNL A   1      40.338  33.116  37.114  1.00  0.00     0.037 A 
BRANCH  63  77
ATOM     77  C   UNL A   1      44.501  28.631  36.177  1.00  0.00     0.058 A 
ATOM     78  C   UNL A   1      44.344  27.441  36.906  1.00  0.00     0.135 A 
ATOM     79  C   UNL A   1      45.810  29.078  35.931  1.00  0.00     0.135 A 
ATOM     80  F   UNL A   1      43.115  26.979  37.192  1.00  0.00    -0.206 F 
ATOM     81  C   UNL A   1      45.439  26.737  37.396  1.00  0.00     0.059 A 
ATOM     82  C   UNL A   1      46.921  28.372  36.383  1.00  0.00     0.059 A 
ATOM     83  F   UNL A   1      46.020  30.212  35.245  1.00  0.00    -0.206 F 
ATOM     84  C   UNL A   1      46.724  27.211  37.127  1.00  0.00     0.060 A 
BRANCH  84  85
ATOM     85  S   UNL A   1      48.135  26.284  37.768  1.00  0.00     0.124 S 
ATOM     86  O   UNL A   1      49.154  26.573  36.763  1.00  0.00    -0.237 OA
ATOM     87  O   UNL A   1      48.343  26.899  39.074  1.00  0.00    -0.237 OA
ATOM     88  O   UNL A   1      47.655  24.907  37.794  1.00  0.00    -0.744 OA
ENDBRANCH  84  85
ENDBRANCH  63  77
BRANCH  64  89
ATOM     89  C   UNL A   1      36.576  33.431  32.362  1.00  0.00     0.058 A 
ATOM     90  C   UNL A   1      35.284  32.920  32.556  1.00  0.00     0.135 A 
ATOM     91  C   UNL A   1      36.700  34.628  31.637  1.00  0.00     0.135 A 
ATOM     92  F   UNL A   1      35.112  31.772  33.229  1.00  0.00    -0.206 F 
ATOM     93  C   UNL A   1      34.161  33.560  32.043  1.00  0.00     0.059 A 
ATOM     94  C   UNL A   1      35.589  35.303  31.139  1.00  0.00     0.059 A 
ATOM     95  F   UNL A   1      37.913  35.162  31.424  1.00  0.00    -0.206 F 
ATOM     96  C   UNL A   1      34.323  34.756  31.340  1.00  0.00     0.060 A 
BRANCH  96  97
ATOM     97  S   UNL A   1      32.849  35.598  30.721  1.00  0.00     0.124 S 
ATOM     98  O   UNL A   1      32.556  34.830  29.517  1.00  0.00    -0.237 OA
ATOM     99  O   UNL A   1      31.915  35.429  31.829  1.00  0.00    -0.237 OA
ATOM    100  O   UNL A   1      33.310  36.965  30.499  1.00  0.00    -0.744 OA
ENDBRANCH  96  97
ENDBRANCH  64  89
BRANCH  76 101
ATOM    101  C   UNL A   1      40.229  34.047  38.293  1.00  0.00     0.058 A 
ATOM    102  C   UNL A   1      39.519  33.699  39.452  1.00  0.00     0.135 A 
ATOM    103  C   UNL A   1      40.911  35.275  38.287  1.00  0.00     0.135 A 
ATOM    104  F   UNL A   1      38.844  32.540  39.510  1.00  0.00    -0.206 F 
ATOM    105  C   UNL A   1      39.474  34.544  40.558  1.00  0.00     0.059 A 
ATOM    106  C   UNL A   1      40.907  36.120  39.393  1.00  0.00     0.059 A 
ATOM    107  F   UNL A   1      41.617  35.653  37.210  1.00  0.00    -0.206 F 
ATOM    108  C   UNL A   1      40.178  35.749  40.521  1.00  0.00     0.060 A 
BRANCH 108 109
ATOM    109  S   UNL A   1      40.150  36.811  41.981  1.00  0.00     0.124 S 
ATOM    110  O   UNL A   1      41.470  36.564  42.551  1.00  0.00    -0.237 OA
ATOM    111  O   UNL A   1      39.947  38.134  41.399  1.00  0.00    -0.237 OA
ATOM    112  O   UNL A   1      39.025  36.295  42.756  1.00  0.00    -0.744 OA
ENDBRANCH 108 109
ENDBRANCH  76 101
ENDBRANCH  50  51
ENDBRANCH  43  45
ENDBRANCH  42  43
ENDBRANCH  41  42
ENDBRANCH  40  41
ENDBRANCH  39  40
ENDBRANCH  38  39
ENDBRANCH  37  38
ENDBRANCH   1  37
TORSDOF 27
ENDMDL
