MODEL 1
REMARK VINA RESULT:     -10.3      0.000      0.000
REMARK SMILES Cc1cscc1C(=O)N[C@H](C(=O)OCCOCCOCCOCCOC(=O)c1ccc(-c2c3nc(c(-c4c(F)cc(S(=O)(=O)[O-])cc4F)c4ccc([nH]4)c(-c4c(F)cc(S(=O)(=O)[O-])cc4F)c4nc(c(-c5c(F)cc(S(=O)(=O)[O-])cc5F)c5ccc2[nH]5)C=C4)C=C3)cc1)c1ccccc1
REMARK SMILES IDX 20 1 19 2 18 3 17 4 16 5 15 6 14 7 13 8 11 9 12 10 10 11
REMARK SMILES IDX 9 12 7 13 8 14 6 16 1 17 2 18 3 19 4 20 5 21 94 22 95 23
REMARK SMILES IDX 99 24 96 25 98 26 97 27 21 28 22 29 23 30 24 31 25 32 26 33
REMARK SMILES IDX 27 34 28 35 29 36 93 37 30 38 92 39 31 40 32 41 33 42 86 43
REMARK SMILES IDX 34 44 91 45 85 46 87 47 35 48 90 49 84 50 83 51 36 53 70 54
REMARK SMILES IDX 49 55 69 56 50 57 53 58 68 59 88 60 51 61 52 62 67 64 89 65
REMARK SMILES IDX 54 66 37 67 38 68 47 69 39 70 40 71 46 72 48 73 41 74 42 75
REMARK SMILES IDX 43 76 44 77 45 78 71 79 72 80 81 81 73 82 74 83 80 84 82 85
REMARK SMILES IDX 75 86 76 87 77 88 78 89 79 90 55 91 56 92 65 93 57 94 58 95
REMARK SMILES IDX 64 96 66 97 59 98 60 99 61 100 62 101 63 102
REMARK H PARENT 9 15 87 52 53 63
REMARK Flexibility Score: inf
ROOT
ATOM      1  C   UNL A   1      42.949  19.653  25.766  1.00  0.00     0.188 C 
ENDROOT
BRANCH   1   2
ATOM      2  O   UNL A   1      41.614  19.309  25.425  1.00  0.00    -0.377 OA
BRANCH   2   3
ATOM      3  C   UNL A   1      40.561  19.880  26.184  1.00  0.00     0.188 C 
BRANCH   3   4
ATOM      4  C   UNL A   1      39.998  21.241  25.769  1.00  0.00     0.188 C 
BRANCH   4   5
ATOM      5  O   UNL A   1      38.663  21.496  26.183  1.00  0.00    -0.376 OA
BRANCH   5   6
ATOM      6  C   UNL A   1      37.721  21.654  25.125  1.00  0.00     0.202 C 
BRANCH   6   7
ATOM      7  C   UNL A   1      36.302  22.022  25.584  1.00  0.00     0.261 C 
BRANCH   7   8
ATOM      8  O   UNL A   1      35.515  20.936  26.124  1.00  0.00    -0.461 OA
BRANCH   8   9
ATOM      9  C   UNL A   1      34.195  21.194  26.320  1.00  0.00     0.333 C 
ATOM     10  O   UNL A   1      33.797  21.855  27.274  1.00  0.00    -0.249 OA
BRANCH   9  11
ATOM     11  C   UNL A   1      33.274  20.454  25.319  1.00  0.00     0.223 C 
BRANCH  11  12
ATOM     12  N   UNL A   1      33.123  21.171  24.052  1.00  0.00    -0.335 N 
ATOM     13  C   UNL A   1      32.957  22.477  23.686  1.00  0.00     0.253 C 
ATOM     14  O   UNL A   1      33.181  22.701  22.491  1.00  0.00    -0.269 OA
ATOM     15  H   UNL A   1      33.146  20.567  23.275  1.00  0.00     0.165 HD
BRANCH  13  16
ATOM     16  C   UNL A   1      32.426  23.558  24.536  1.00  0.00     0.053 A 
ATOM     17  C   UNL A   1      30.464  22.639  26.100  1.00  0.00     0.046 C 
ATOM     18  C   UNL A   1      31.395  23.669  25.566  1.00  0.00    -0.028 A 
ATOM     19  C   UNL A   1      31.359  24.947  26.108  1.00  0.00     0.069 A 
ATOM     20  S   UNL A   1      32.523  25.996  25.463  1.00  0.00    -0.151 S 
ATOM     21  C   UNL A   1      33.099  24.775  24.436  1.00  0.00     0.079 A 
ENDBRANCH  13  16
ENDBRANCH  11  12
BRANCH  11  22
ATOM     22  C   UNL A   1      33.356  18.938  25.073  1.00  0.00    -0.014 A 
ATOM     23  C   UNL A   1      34.299  18.387  24.189  1.00  0.00     0.006 A 
ATOM     24  C   UNL A   1      32.565  18.020  25.797  1.00  0.00     0.006 A 
ATOM     25  C   UNL A   1      34.394  16.998  23.999  1.00  0.00     0.000 A 
ATOM     26  C   UNL A   1      32.633  16.640  25.585  1.00  0.00     0.000 A 
ATOM     27  C   UNL A   1      33.549  16.127  24.682  1.00  0.00     0.000 A 
ENDBRANCH  11  22
ENDBRANCH   9  11
ENDBRANCH   8   9
ENDBRANCH   7   8
ENDBRANCH   6   7
ENDBRANCH   5   6
ENDBRANCH   4   5
ENDBRANCH   3   4
ENDBRANCH   2   3
ENDBRANCH   1   2
BRANCH   1  28
ATOM     28  C   UNL A   1      43.261  21.137  26.015  1.00  0.00     0.188 C 
BRANCH  28  29
ATOM     29  O   UNL A   1      43.495  21.887  24.827  1.00  0.00    -0.376 OA
BRANCH  29  30
ATOM     30  C   UNL A   1      43.295  23.293  24.906  1.00  0.00     0.202 C 
BRANCH  30  31
ATOM     31  C   UNL A   1      42.526  23.797  26.133  1.00  0.00     0.261 C 
BRANCH  31  32
ATOM     32  O   UNL A   1      41.910  25.089  26.010  1.00  0.00    -0.460 OA
BRANCH  32  33
ATOM     33  C   UNL A   1      40.634  25.244  26.425  1.00  0.00     0.338 C 
ATOM     34  O   UNL A   1      39.648  24.648  26.030  1.00  0.00    -0.246 OA
BRANCH  33  35
ATOM     35  C   UNL A   1      40.675  26.118  27.616  1.00  0.00     0.060 A 
ATOM     36  C   UNL A   1      39.692  25.967  28.604  1.00  0.00     0.016 A 
ATOM     37  C   UNL A   1      41.717  27.034  27.784  1.00  0.00     0.016 A 
ATOM     38  C   UNL A   1      39.739  26.751  29.757  1.00  0.00     0.010 A 
ATOM     39  C   UNL A   1      41.745  27.840  28.923  1.00  0.00     0.010 A 
ATOM     40  C   UNL A   1      40.738  27.723  29.897  1.00  0.00    -0.014 A 
BRANCH  40  41
ATOM     41  C   UNL A   1      40.578  28.796  30.906  1.00  0.00     0.031 A 
ATOM     42  C   UNL A   1      41.446  28.718  32.133  1.00  0.00     0.074 A 
ATOM     43  C   UNL A   1      39.696  29.798  30.753  1.00  0.00     0.049 A 
ATOM     44  N   UNL A   1      41.465  29.488  33.187  1.00  0.00    -0.248 NA
ATOM     45  C   UNL A   1      42.422  27.614  32.174  1.00  0.00     0.031 C 
ATOM     46  C   UNL A   1      38.827  29.998  29.595  1.00  0.00     0.029 A 
ATOM     47  N   UNL A   1      39.379  30.835  31.596  1.00  0.00    -0.354 N 
ATOM     48  C   UNL A   1      42.449  28.962  34.015  1.00  0.00     0.074 A 
ATOM     49  C   UNL A   1      42.988  27.795  33.356  1.00  0.00     0.031 C 
ATOM     50  C   UNL A   1      38.057  31.082  29.811  1.00  0.00     0.029 A 
ATOM     51  C   UNL A   1      38.362  31.635  31.131  1.00  0.00     0.049 A 
ATOM     52  H   UNL A   1      39.836  30.991  32.454  1.00  0.00     0.167 HD
ATOM     53  C   UNL A   1      42.871  29.413  35.218  1.00  0.00     0.037 A 
ATOM     54  C   UNL A   1      37.739  32.677  31.718  1.00  0.00     0.037 A 
ATOM     55  C   UNL A   1      42.322  30.562  35.882  1.00  0.00     0.049 A 
ATOM     56  C   UNL A   1      38.179  33.121  33.093  1.00  0.00     0.074 A 
ATOM     57  C   UNL A   1      42.684  31.107  37.100  1.00  0.00     0.029 A 
ATOM     58  N   UNL A   1      41.283  31.336  35.386  1.00  0.00    -0.354 N 
ATOM     59  N   UNL A   1      39.133  32.636  33.852  1.00  0.00    -0.248 NA
ATOM     60  C   UNL A   1      37.458  34.255  33.690  1.00  0.00     0.031 C 
ATOM     61  C   UNL A   1      41.832  32.185  37.363  1.00  0.00     0.029 A 
ATOM     62  C   UNL A   1      40.973  32.340  36.286  1.00  0.00     0.049 A 
ATOM     63  H   UNL A   1      40.831  31.191  34.523  1.00  0.00     0.167 HD
ATOM     64  C   UNL A   1      39.145  33.422  35.001  1.00  0.00     0.074 A 
ATOM     65  C   UNL A   1      38.108  34.419  34.835  1.00  0.00     0.031 C 
ATOM     66  C   UNL A   1      39.944  33.331  36.094  1.00  0.00     0.037 A 
BRANCH  53  67
ATOM     67  C   UNL A   1      43.957  28.634  35.902  1.00  0.00     0.058 A 
ATOM     68  C   UNL A   1      43.666  27.568  36.768  1.00  0.00     0.135 A 
ATOM     69  C   UNL A   1      45.306  28.957  35.688  1.00  0.00     0.135 A 
ATOM     70  F   UNL A   1      42.391  27.238  37.029  1.00  0.00    -0.206 F 
ATOM     71  C   UNL A   1      44.674  26.863  37.415  1.00  0.00     0.059 A 
ATOM     72  C   UNL A   1      46.332  28.250  36.305  1.00  0.00     0.059 A 
ATOM     73  F   UNL A   1      45.637  29.977  34.879  1.00  0.00    -0.206 F 
ATOM     74  C   UNL A   1      46.005  27.213  37.178  1.00  0.00     0.060 A 
BRANCH  74  75
ATOM     75  S   UNL A   1      47.304  26.287  38.023  1.00  0.00     0.124 S 
ATOM     76  O   UNL A   1      46.529  25.511  38.984  1.00  0.00    -0.237 OA
ATOM     77  O   UNL A   1      47.906  25.527  36.933  1.00  0.00    -0.237 OA
ATOM     78  O   UNL A   1      48.148  27.332  38.594  1.00  0.00    -0.744 OA
ENDBRANCH  74  75
ENDBRANCH  53  67
BRANCH  54  79
ATOM     79  C   UNL A   1      36.617  33.367  31.025  1.00  0.00     0.058 A 
ATOM     80  C   UNL A   1      35.286  33.163  31.416  1.00  0.00     0.135 A 
ATOM     81  C   UNL A   1      36.854  34.229  29.942  1.00  0.00     0.135 A 
ATOM     82  F   UNL A   1      35.006  32.335  32.434  1.00  0.00    -0.206 F 
ATOM     83  C   UNL A   1      34.227  33.777  30.752  1.00  0.00     0.059 A 
ATOM     84  C   UNL A   1      35.814  34.873  29.277  1.00  0.00     0.059 A 
ATOM     85  F   UNL A   1      38.110  34.464  29.531  1.00  0.00    -0.206 F 
ATOM     86  C   UNL A   1      34.504  34.632  29.683  1.00  0.00     0.060 A 
BRANCH  86  87
ATOM     87  S   UNL A   1      33.127  35.461  28.857  1.00  0.00     0.124 S 
ATOM     88  O   UNL A   1      33.824  36.440  28.032  1.00  0.00    -0.237 OA
ATOM     89  O   UNL A   1      32.490  34.359  28.142  1.00  0.00    -0.237 OA
ATOM     90  O   UNL A   1      32.352  36.007  29.968  1.00  0.00    -0.744 OA
ENDBRANCH  86  87
ENDBRANCH  54  79
BRANCH  66  91
ATOM     91  C   UNL A   1      39.760  34.353  37.182  1.00  0.00     0.058 A 
ATOM     92  C   UNL A   1      38.875  34.145  38.250  1.00  0.00     0.135 A 
ATOM     93  C   UNL A   1      40.537  35.523  37.191  1.00  0.00     0.135 A 
ATOM     94  F   UNL A   1      38.108  33.043  38.288  1.00  0.00    -0.206 F 
ATOM     95  C   UNL A   1      38.753  35.070  39.283  1.00  0.00     0.059 A 
ATOM     96  C   UNL A   1      40.450  36.450  38.225  1.00  0.00     0.059 A 
ATOM     97  F   UNL A   1      41.409  35.764  36.199  1.00  0.00    -0.206 F 
ATOM     98  C   UNL A   1      39.547  36.219  39.262  1.00  0.00     0.060 A 
BRANCH  98  99
ATOM     99  S   UNL A   1      39.410  37.391  40.629  1.00  0.00     0.124 S 
ATOM    100  O   UNL A   1      40.766  37.926  40.692  1.00  0.00    -0.237 OA
ATOM    101  O   UNL A   1      38.385  38.313  40.151  1.00  0.00    -0.237 OA
ATOM    102  O   UNL A   1      39.013  36.552  41.756  1.00  0.00    -0.744 OA
ENDBRANCH  98  99
ENDBRANCH  66  91
ENDBRANCH  40  41
ENDBRANCH  33  35
ENDBRANCH  32  33
ENDBRANCH  31  32
ENDBRANCH  30  31
ENDBRANCH  29  30
ENDBRANCH  28  29
ENDBRANCH   1  28
TORSDOF 26
ENDMDL
MODEL 2
REMARK VINA RESULT:     -10.3      6.351     12.199
REMARK SMILES Cc1cscc1C(=O)N[C@H](C(=O)OCCOCCOCCOCCOC(=O)c1ccc(-c2c3nc(c(-c4c(F)cc(S(=O)(=O)[O-])cc4F)c4ccc([nH]4)c(-c4c(F)cc(S(=O)(=O)[O-])cc4F)c4nc(c(-c5c(F)cc(S(=O)(=O)[O-])cc5F)c5ccc2[nH]5)C=C4)C=C3)cc1)c1ccccc1
REMARK SMILES IDX 20 1 19 2 18 3 17 4 16 5 15 6 14 7 13 8 11 9 12 10 10 11
REMARK SMILES IDX 9 12 7 13 8 14 6 16 1 17 2 18 3 19 4 20 5 21 94 22 95 23
REMARK SMILES IDX 99 24 96 25 98 26 97 27 21 28 22 29 23 30 24 31 25 32 26 33
REMARK SMILES IDX 27 34 28 35 29 36 93 37 30 38 92 39 31 40 32 41 33 42 86 43
REMARK SMILES IDX 34 44 91 45 85 46 87 47 35 48 90 49 84 50 83 51 36 53 70 54
REMARK SMILES IDX 49 55 69 56 50 57 53 58 68 59 88 60 51 61 52 62 67 64 89 65
REMARK SMILES IDX 54 66 37 67 38 68 47 69 39 70 40 71 46 72 48 73 41 74 42 75
REMARK SMILES IDX 43 76 44 77 45 78 71 79 72 80 81 81 73 82 74 83 80 84 82 85
REMARK SMILES IDX 75 86 76 87 77 88 78 89 79 90 55 91 56 92 65 93 57 94 58 95
REMARK SMILES IDX 64 96 66 97 59 98 60 99 61 100 62 101 63 102
REMARK H PARENT 9 15 87 52 53 63
REMARK Flexibility Score: inf
ROOT
ATOM      1  C   UNL A   1      32.950  30.276  26.163  1.00  0.00     0.188 C 
ENDROOT
BRANCH   1   2
ATOM      2  O   UNL A   1      31.798  29.445  26.173  1.00  0.00    -0.377 OA
BRANCH   2   3
ATOM      3  C   UNL A   1      31.952  28.082  25.813  1.00  0.00     0.188 C 
BRANCH   3   4
ATOM      4  C   UNL A   1      30.735  27.306  25.303  1.00  0.00     0.188 C 
BRANCH   4   5
ATOM      5  O   UNL A   1      30.159  27.802  24.103  1.00  0.00    -0.376 OA
BRANCH   5   6
ATOM      6  C   UNL A   1      30.044  26.852  23.047  1.00  0.00     0.202 C 
BRANCH   6   7
ATOM      7  C   UNL A   1      31.363  26.541  22.323  1.00  0.00     0.261 C 
BRANCH   7   8
ATOM      8  O   UNL A   1      32.068  25.364  22.781  1.00  0.00    -0.461 OA
BRANCH   8   9
ATOM      9  C   UNL A   1      33.416  25.484  22.899  1.00  0.00     0.333 C 
ATOM     10  O   UNL A   1      34.126  25.803  21.951  1.00  0.00    -0.249 OA
BRANCH   9  11
ATOM     11  C   UNL A   1      33.949  25.038  24.284  1.00  0.00     0.223 C 
BRANCH  11  12
ATOM     12  N   UNL A   1      32.876  24.703  25.222  1.00  0.00    -0.335 N 
ATOM     13  C   UNL A   1      32.406  23.555  25.794  1.00  0.00     0.253 C 
ATOM     14  O   UNL A   1      31.677  23.739  26.775  1.00  0.00    -0.269 OA
ATOM     15  H   UNL A   1      32.370  25.497  25.509  1.00  0.00     0.165 HD
BRANCH  13  16
ATOM     16  C   UNL A   1      32.586  22.187  25.274  1.00  0.00     0.053 A 
ATOM     17  C   UNL A   1      31.869  22.065  22.703  1.00  0.00     0.046 C 
ATOM     18  C   UNL A   1      32.386  21.522  23.988  1.00  0.00    -0.028 A 
ATOM     19  C   UNL A   1      32.793  20.196  24.038  1.00  0.00     0.069 A 
ATOM     20  S   UNL A   1      33.431  19.732  25.538  1.00  0.00    -0.151 S 
ATOM     21  C   UNL A   1      33.170  21.288  26.163  1.00  0.00     0.079 A 
ENDBRANCH  13  16
ENDBRANCH  11  12
BRANCH  11  22
ATOM     22  C   UNL A   1      35.132  24.070  24.451  1.00  0.00    -0.014 A 
ATOM     23  C   UNL A   1      35.532  23.214  23.411  1.00  0.00     0.006 A 
ATOM     24  C   UNL A   1      35.939  24.068  25.609  1.00  0.00     0.006 A 
ATOM     25  C   UNL A   1      36.639  22.360  23.556  1.00  0.00     0.000 A 
ATOM     26  C   UNL A   1      37.018  23.195  25.770  1.00  0.00     0.000 A 
ATOM     27  C   UNL A   1      37.369  22.337  24.741  1.00  0.00     0.000 A 
ENDBRANCH  11  22
ENDBRANCH   9  11
ENDBRANCH   8   9
ENDBRANCH   7   8
ENDBRANCH   6   7
ENDBRANCH   5   6
ENDBRANCH   4   5
ENDBRANCH   3   4
ENDBRANCH   2   3
ENDBRANCH   1   2
BRANCH   1  28
ATOM     28  C   UNL A   1      33.648  30.541  27.507  1.00  0.00     0.188 C 
BRANCH  28  29
ATOM     29  O   UNL A   1      34.957  31.088  27.381  1.00  0.00    -0.376 OA
BRANCH  29  30
ATOM     30  C   UNL A   1      35.255  32.225  28.181  1.00  0.00     0.202 C 
BRANCH  30  31
ATOM     31  C   UNL A   1      35.110  32.041  29.697  1.00  0.00     0.261 C 
BRANCH  31  32
ATOM     32  O   UNL A   1      36.322  31.781  30.425  1.00  0.00    -0.460 OA
BRANCH  32  33
ATOM     33  C   UNL A   1      36.637  30.503  30.729  1.00  0.00     0.338 C 
ATOM     34  O   UNL A   1      35.889  29.631  31.132  1.00  0.00    -0.246 OA
BRANCH  33  35
ATOM     35  C   UNL A   1      38.024  30.284  30.268  1.00  0.00     0.060 A 
ATOM     36  C   UNL A   1      38.272  30.167  28.893  1.00  0.00     0.016 A 
ATOM     37  C   UNL A   1      39.078  30.263  31.185  1.00  0.00     0.016 A 
ATOM     38  C   UNL A   1      39.579  30.005  28.434  1.00  0.00     0.010 A 
ATOM     39  C   UNL A   1      40.381  30.069  30.727  1.00  0.00     0.010 A 
ATOM     40  C   UNL A   1      40.632  29.907  29.353  1.00  0.00    -0.014 A 
BRANCH  40  41
ATOM     41  C   UNL A   1      41.938  29.362  28.915  1.00  0.00     0.031 A 
ATOM     42  C   UNL A   1      43.085  30.331  28.809  1.00  0.00     0.074 A 
ATOM     43  C   UNL A   1      42.108  28.064  28.611  1.00  0.00     0.049 A 
ATOM     44  N   UNL A   1      44.307  30.131  28.395  1.00  0.00    -0.248 NA
ATOM     45  C   UNL A   1      42.807  31.719  29.222  1.00  0.00     0.031 C 
ATOM     46  C   UNL A   1      41.084  27.026  28.707  1.00  0.00     0.029 A 
ATOM     47  N   UNL A   1      43.217  27.401  28.145  1.00  0.00    -0.354 N 
ATOM     48  C   UNL A   1      44.941  31.363  28.497  1.00  0.00     0.074 A 
ATOM     49  C   UNL A   1      43.967  32.310  28.986  1.00  0.00     0.031 C 
ATOM     50  C   UNL A   1      41.607  25.858  28.290  1.00  0.00     0.029 A 
ATOM     51  C   UNL A   1      42.994  26.072  27.873  1.00  0.00     0.049 A 
ATOM     52  H   UNL A   1      44.090  27.838  28.015  1.00  0.00     0.167 HD
ATOM     53  C   UNL A   1      46.225  31.678  28.212  1.00  0.00     0.037 A 
ATOM     54  C   UNL A   1      43.812  25.147  27.332  1.00  0.00     0.037 A 
ATOM     55  C   UNL A   1      47.189  30.739  27.708  1.00  0.00     0.049 A 
ATOM     56  C   UNL A   1      45.221  25.537  26.955  1.00  0.00     0.074 A 
ATOM     57  C   UNL A   1      48.518  30.955  27.395  1.00  0.00     0.029 A 
ATOM     58  N   UNL A   1      46.920  29.406  27.432  1.00  0.00    -0.354 N 
ATOM     59  N   UNL A   1      45.820  26.698  27.087  1.00  0.00    -0.248 NA
ATOM     60  C   UNL A   1      46.066  24.493  26.358  1.00  0.00     0.031 C 
ATOM     61  C   UNL A   1      49.043  29.762  26.885  1.00  0.00     0.029 A 
ATOM     62  C   UNL A   1      48.053  28.792  26.928  1.00  0.00     0.049 A 
ATOM     63  H   UNL A   1      46.052  28.964  27.573  1.00  0.00     0.167 HD
ATOM     64  C   UNL A   1      47.118  26.514  26.616  1.00  0.00     0.074 A 
ATOM     65  C   UNL A   1      47.219  25.130  26.203  1.00  0.00     0.031 C 
ATOM     66  C   UNL A   1      48.135  27.408  26.535  1.00  0.00     0.037 A 
BRANCH  53  67
ATOM     67  C   UNL A   1      46.643  33.106  28.409  1.00  0.00     0.058 A 
ATOM     68  C   UNL A   1      46.465  34.071  27.405  1.00  0.00     0.135 A 
ATOM     69  C   UNL A   1      47.228  33.515  29.618  1.00  0.00     0.135 A 
ATOM     70  F   UNL A   1      45.937  33.724  26.220  1.00  0.00    -0.206 F 
ATOM     71  C   UNL A   1      46.871  35.388  27.584  1.00  0.00     0.059 A 
ATOM     72  C   UNL A   1      47.620  34.832  29.829  1.00  0.00     0.059 A 
ATOM     73  F   UNL A   1      47.431  32.628  30.604  1.00  0.00    -0.206 F 
ATOM     74  C   UNL A   1      47.449  35.759  28.800  1.00  0.00     0.060 A 
BRANCH  74  75
ATOM     75  S   UNL A   1      47.971  37.473  29.020  1.00  0.00     0.124 S 
ATOM     76  O   UNL A   1      46.700  38.129  29.305  1.00  0.00    -0.237 OA
ATOM     77  O   UNL A   1      48.900  37.376  30.141  1.00  0.00    -0.237 OA
ATOM     78  O   UNL A   1      48.576  37.810  27.735  1.00  0.00    -0.744 OA
ENDBRANCH  74  75
ENDBRANCH  53  67
BRANCH  54  79
ATOM     79  C   UNL A   1      43.322  23.763  27.090  1.00  0.00     0.058 A 
ATOM     80  C   UNL A   1      42.892  23.356  25.818  1.00  0.00     0.135 A 
ATOM     81  C   UNL A   1      43.254  22.825  28.132  1.00  0.00     0.135 A 
ATOM     82  F   UNL A   1      42.921  24.220  24.792  1.00  0.00    -0.206 F 
ATOM     83  C   UNL A   1      42.400  22.074  25.589  1.00  0.00     0.059 A 
ATOM     84  C   UNL A   1      42.788  21.530  27.923  1.00  0.00     0.059 A 
ATOM     85  F   UNL A   1      43.658  23.161  29.367  1.00  0.00    -0.206 F 
ATOM     86  C   UNL A   1      42.353  21.167  26.650  1.00  0.00     0.060 A 
BRANCH  86  87
ATOM     87  S   UNL A   1      41.757  19.491  26.334  1.00  0.00     0.124 S 
ATOM     88  O   UNL A   1      42.171  18.797  27.546  1.00  0.00    -0.237 OA
ATOM     89  O   UNL A   1      40.321  19.702  26.176  1.00  0.00    -0.237 OA
ATOM     90  O   UNL A   1      42.463  19.111  25.114  1.00  0.00    -0.744 OA
ENDBRANCH  86  87
ENDBRANCH  54  79
BRANCH  66  91
ATOM     91  C   UNL A   1      49.459  26.916  26.017  1.00  0.00     0.058 A 
ATOM     92  C   UNL A   1      49.842  27.095  24.680  1.00  0.00     0.135 A 
ATOM     93  C   UNL A   1      50.385  26.325  26.892  1.00  0.00     0.135 A 
ATOM     94  F   UNL A   1      48.992  27.653  23.802  1.00  0.00    -0.206 F 
ATOM     95  C   UNL A   1      51.091  26.688  24.222  1.00  0.00     0.059 A 
ATOM     96  C   UNL A   1      51.649  25.934  26.462  1.00  0.00     0.059 A 
ATOM     97  F   UNL A   1      50.074  26.144  28.185  1.00  0.00    -0.206 F 
ATOM     98  C   UNL A   1      51.989  26.110  25.122  1.00  0.00     0.060 A 
BRANCH  98  99
ATOM     99  S   UNL A   1      53.623  25.626  24.526  1.00  0.00     0.124 S 
ATOM    100  O   UNL A   1      54.490  26.517  25.289  1.00  0.00    -0.237 OA
ATOM    101  O   UNL A   1      53.685  24.214  24.891  1.00  0.00    -0.237 OA
ATOM    102  O   UNL A   1      53.554  25.893  23.092  1.00  0.00    -0.744 OA
ENDBRANCH  98  99
ENDBRANCH  66  91
ENDBRANCH  40  41
ENDBRANCH  33  35
ENDBRANCH  32  33
ENDBRANCH  31  32
ENDBRANCH  30  31
ENDBRANCH  29  30
ENDBRANCH  28  29
ENDBRANCH   1  28
TORSDOF 26
ENDMDL
MODEL 3
REMARK VINA RESULT:      -9.7      4.623     10.588
REMARK SMILES Cc1cscc1C(=O)N[C@H](C(=O)OCCOCCOCCOCCOC(=O)c1ccc(-c2c3nc(c(-c4c(F)cc(S(=O)(=O)[O-])cc4F)c4ccc([nH]4)c(-c4c(F)cc(S(=O)(=O)[O-])cc4F)c4nc(c(-c5c(F)cc(S(=O)(=O)[O-])cc5F)c5ccc2[nH]5)C=C4)C=C3)cc1)c1ccccc1
REMARK SMILES IDX 20 1 19 2 18 3 17 4 16 5 15 6 14 7 13 8 11 9 12 10 10 11
REMARK SMILES IDX 9 12 7 13 8 14 6 16 1 17 2 18 3 19 4 20 5 21 94 22 95 23
REMARK SMILES IDX 99 24 96 25 98 26 97 27 21 28 22 29 23 30 24 31 25 32 26 33
REMARK SMILES IDX 27 34 28 35 29 36 93 37 30 38 92 39 31 40 32 41 33 42 86 43
REMARK SMILES IDX 34 44 91 45 85 46 87 47 35 48 90 49 84 50 83 51 36 53 70 54
REMARK SMILES IDX 49 55 69 56 50 57 53 58 68 59 88 60 51 61 52 62 67 64 89 65
REMARK SMILES IDX 54 66 37 67 38 68 47 69 39 70 40 71 46 72 48 73 41 74 42 75
REMARK SMILES IDX 43 76 44 77 45 78 71 79 72 80 81 81 73 82 74 83 80 84 82 85
REMARK SMILES IDX 75 86 76 87 77 88 78 89 79 90 55 91 56 92 65 93 57 94 58 95
REMARK SMILES IDX 64 96 66 97 59 98 60 99 61 100 62 101 63 102
REMARK H PARENT 9 15 87 52 53 63
REMARK Flexibility Score: inf
ROOT
ATOM      1  C   UNL A   1      32.086  29.392  23.979  1.00  0.00     0.188 C 
ENDROOT
BRANCH   1   2
ATOM      2  O   UNL A   1      31.925  28.984  22.628  1.00  0.00    -0.377 OA
BRANCH   2   3
ATOM      3  C   UNL A   1      31.721  27.605  22.364  1.00  0.00     0.188 C 
BRANCH   3   4
ATOM      4  C   UNL A   1      32.927  26.663  22.357  1.00  0.00     0.188 C 
BRANCH   4   5
ATOM      5  O   UNL A   1      32.663  25.345  21.897  1.00  0.00    -0.376 OA
BRANCH   5   6
ATOM      6  C   UNL A   1      31.456  24.763  22.384  1.00  0.00     0.202 C 
BRANCH   6   7
ATOM      7  C   UNL A   1      31.501  24.344  23.861  1.00  0.00     0.261 C 
BRANCH   7   8
ATOM      8  O   UNL A   1      30.523  23.357  24.263  1.00  0.00    -0.461 OA
BRANCH   8   9
ATOM      9  C   UNL A   1      30.857  22.587  25.331  1.00  0.00     0.333 C 
ATOM     10  O   UNL A   1      30.156  22.530  26.337  1.00  0.00    -0.249 OA
BRANCH   9  11
ATOM     11  C   UNL A   1      32.254  21.932  25.197  1.00  0.00     0.223 C 
BRANCH  11  12
ATOM     12  N   UNL A   1      33.108  22.174  26.361  1.00  0.00    -0.335 N 
ATOM     13  C   UNL A   1      34.424  22.484  26.556  1.00  0.00     0.253 C 
ATOM     14  O   UNL A   1      34.682  22.910  27.687  1.00  0.00    -0.269 OA
ATOM     15  H   UNL A   1      32.614  22.092  27.209  1.00  0.00     0.165 HD
BRANCH  13  16
ATOM     16  C   UNL A   1      35.526  22.235  25.609  1.00  0.00     0.053 A 
ATOM     17  C   UNL A   1      34.984  23.335  23.235  1.00  0.00     0.046 C 
ATOM     18  C   UNL A   1      35.808  22.581  24.217  1.00  0.00    -0.028 A 
ATOM     19  C   UNL A   1      37.066  22.137  23.833  1.00  0.00     0.069 A 
ATOM     20  S   UNL A   1      37.926  21.362  25.071  1.00  0.00    -0.151 S 
ATOM     21  C   UNL A   1      36.637  21.590  26.150  1.00  0.00     0.079 A 
ENDBRANCH  13  16
ENDBRANCH  11  12
BRANCH  11  22
ATOM     22  C   UNL A   1      32.459  20.503  24.667  1.00  0.00    -0.014 A 
ATOM     23  C   UNL A   1      32.773  19.438  25.529  1.00  0.00     0.006 A 
ATOM     24  C   UNL A   1      32.239  20.169  23.313  1.00  0.00     0.006 A 
ATOM     25  C   UNL A   1      32.920  18.128  25.043  1.00  0.00     0.000 A 
ATOM     26  C   UNL A   1      32.418  18.873  22.821  1.00  0.00     0.000 A 
ATOM     27  C   UNL A   1      32.761  17.849  23.688  1.00  0.00     0.000 A 
ENDBRANCH  11  22
ENDBRANCH   9  11
ENDBRANCH   8   9
ENDBRANCH   7   8
ENDBRANCH   6   7
ENDBRANCH   5   6
ENDBRANCH   4   5
ENDBRANCH   3   4
ENDBRANCH   2   3
ENDBRANCH   1   2
BRANCH   1  28
ATOM     28  C   UNL A   1      31.303  28.621  25.053  1.00  0.00     0.188 C 
BRANCH  28  29
ATOM     29  O   UNL A   1      32.103  28.175  26.144  1.00  0.00    -0.376 OA
BRANCH  29  30
ATOM     30  C   UNL A   1      32.010  28.918  27.353  1.00  0.00     0.202 C 
BRANCH  30  31
ATOM     31  C   UNL A   1      32.611  30.329  27.326  1.00  0.00     0.261 C 
BRANCH  31  32
ATOM     32  O   UNL A   1      34.042  30.408  27.223  1.00  0.00    -0.460 OA
BRANCH  32  33
ATOM     33  C   UNL A   1      34.725  31.096  28.163  1.00  0.00     0.338 C 
ATOM     34  O   UNL A   1      34.311  31.995  28.871  1.00  0.00    -0.246 OA
BRANCH  33  35
ATOM     35  C   UNL A   1      36.021  30.407  28.339  1.00  0.00     0.060 A 
ATOM     36  C   UNL A   1      36.288  29.765  29.557  1.00  0.00     0.016 A 
ATOM     37  C   UNL A   1      36.934  30.339  27.284  1.00  0.00     0.016 A 
ATOM     38  C   UNL A   1      37.486  29.071  29.728  1.00  0.00     0.010 A 
ATOM     39  C   UNL A   1      38.146  29.671  27.468  1.00  0.00     0.010 A 
ATOM     40  C   UNL A   1      38.438  29.063  28.701  1.00  0.00    -0.014 A 
BRANCH  40  41
ATOM     41  C   UNL A   1      39.835  28.670  29.000  1.00  0.00     0.031 A 
ATOM     42  C   UNL A   1      40.719  29.710  29.635  1.00  0.00     0.074 A 
ATOM     43  C   UNL A   1      40.313  27.446  28.717  1.00  0.00     0.049 A 
ATOM     44  N   UNL A   1      41.986  29.648  29.942  1.00  0.00    -0.248 NA
ATOM     45  C   UNL A   1      40.081  30.999  29.959  1.00  0.00     0.031 C 
ATOM     46  C   UNL A   1      39.545  26.347  28.134  1.00  0.00     0.029 A 
ATOM     47  N   UNL A   1      41.575  26.930  28.874  1.00  0.00    -0.354 N 
ATOM     48  C   UNL A   1      42.297  30.885  30.494  1.00  0.00     0.074 A 
ATOM     49  C   UNL A   1      41.096  31.687  30.456  1.00  0.00     0.031 C 
ATOM     50  C   UNL A   1      40.361  25.290  27.963  1.00  0.00     0.029 A 
ATOM     51  C   UNL A   1      41.712  25.647  28.398  1.00  0.00     0.049 A 
ATOM     52  H   UNL A   1      42.315  27.432  29.287  1.00  0.00     0.167 HD
ATOM     53  C   UNL A   1      43.478  31.315  30.992  1.00  0.00     0.037 A 
ATOM     54  C   UNL A   1      42.807  24.866  28.308  1.00  0.00     0.037 A 
ATOM     55  C   UNL A   1      44.677  30.523  31.012  1.00  0.00     0.049 A 
ATOM     56  C   UNL A   1      44.132  25.392  28.806  1.00  0.00     0.074 A 
ATOM     57  C   UNL A   1      45.924  30.864  31.501  1.00  0.00     0.029 A 
ATOM     58  N   UNL A   1      44.778  29.236  30.507  1.00  0.00    -0.354 N 
ATOM     59  N   UNL A   1      44.407  26.552  29.356  1.00  0.00    -0.248 NA
ATOM     60  C   UNL A   1      45.295  24.503  28.673  1.00  0.00     0.031 C 
ATOM     61  C   UNL A   1      46.794  29.796  31.251  1.00  0.00     0.029 A 
ATOM     62  C   UNL A   1      46.075  28.774  30.650  1.00  0.00     0.049 A 
ATOM     63  H   UNL A   1      44.038  28.726  30.104  1.00  0.00     0.167 HD
ATOM     64  C   UNL A   1      45.765  26.520  29.659  1.00  0.00     0.074 A 
ATOM     65  C   UNL A   1      46.255  25.224  29.238  1.00  0.00     0.031 C 
ATOM     66  C   UNL A   1      46.538  27.474  30.236  1.00  0.00     0.037 A 
BRANCH  53  67
ATOM     67  C   UNL A   1      43.531  32.719  31.522  1.00  0.00     0.058 A 
ATOM     68  C   UNL A   1      44.068  33.773  30.765  1.00  0.00     0.135 A 
ATOM     69  C   UNL A   1      43.037  33.014  32.802  1.00  0.00     0.135 A 
ATOM     70  F   UNL A   1      44.580  33.537  29.546  1.00  0.00    -0.206 F 
ATOM     71  C   UNL A   1      44.133  35.067  31.268  1.00  0.00     0.059 A 
ATOM     72  C   UNL A   1      43.069  34.305  33.316  1.00  0.00     0.059 A 
ATOM     73  F   UNL A   1      42.525  32.039  33.570  1.00  0.00    -0.206 F 
ATOM     74  C   UNL A   1      43.632  35.323  32.546  1.00  0.00     0.060 A 
BRANCH  74  75
ATOM     75  S   UNL A   1      43.721  37.009  33.185  1.00  0.00     0.124 S 
ATOM     76  O   UNL A   1      42.616  37.017  34.138  1.00  0.00    -0.237 OA
ATOM     77  O   UNL A   1      45.059  37.052  33.766  1.00  0.00    -0.237 OA
ATOM     78  O   UNL A   1      43.530  37.833  31.996  1.00  0.00    -0.744 OA
ENDBRANCH  74  75
ENDBRANCH  53  67
BRANCH  54  79
ATOM     79  C   UNL A   1      42.713  23.508  27.706  1.00  0.00     0.058 A 
ATOM     80  C   UNL A   1      42.445  22.380  28.495  1.00  0.00     0.135 A 
ATOM     81  C   UNL A   1      42.909  23.309  26.330  1.00  0.00     0.135 A 
ATOM     82  F   UNL A   1      42.266  22.515  29.818  1.00  0.00    -0.206 F 
ATOM     83  C   UNL A   1      42.388  21.102  27.947  1.00  0.00     0.059 A 
ATOM     84  C   UNL A   1      42.834  22.044  25.755  1.00  0.00     0.059 A 
ATOM     85  F   UNL A   1      43.163  24.356  25.529  1.00  0.00    -0.206 F 
ATOM     86  C   UNL A   1      42.583  20.945  26.573  1.00  0.00     0.060 A 
BRANCH  86  87
ATOM     87  S   UNL A   1      42.461  19.289  25.863  1.00  0.00     0.124 S 
ATOM     88  O   UNL A   1      41.044  19.213  25.531  1.00  0.00    -0.237 OA
ATOM     89  O   UNL A   1      43.380  19.372  24.730  1.00  0.00    -0.237 OA
ATOM     90  O   UNL A   1      42.903  18.425  26.954  1.00  0.00    -0.744 OA
ENDBRANCH  86  87
ENDBRANCH  54  79
BRANCH  66  91
ATOM     91  C   UNL A   1      47.985  27.147  30.484  1.00  0.00     0.058 A 
ATOM     92  C   UNL A   1      48.968  27.349  29.504  1.00  0.00     0.135 A 
ATOM     93  C   UNL A   1      48.401  26.695  31.747  1.00  0.00     0.135 A 
ATOM     94  F   UNL A   1      48.622  27.779  28.279  1.00  0.00    -0.206 F 
ATOM     95  C   UNL A   1      50.312  27.098  29.761  1.00  0.00     0.059 A 
ATOM     96  C   UNL A   1      49.741  26.461  32.035  1.00  0.00     0.059 A 
ATOM     97  F   UNL A   1      47.502  26.498  32.725  1.00  0.00    -0.206 F 
ATOM     98  C   UNL A   1      50.689  26.656  31.031  1.00  0.00     0.060 A 
BRANCH  98  99
ATOM     99  S   UNL A   1      52.441  26.374  31.366  1.00  0.00     0.124 S 
ATOM    100  O   UNL A   1      52.454  24.948  31.673  1.00  0.00    -0.237 OA
ATOM    101  O   UNL A   1      53.067  26.757  30.105  1.00  0.00    -0.237 OA
ATOM    102  O   UNL A   1      52.719  27.262  32.491  1.00  0.00    -0.744 OA
ENDBRANCH  98  99
ENDBRANCH  66  91
ENDBRANCH  40  41
ENDBRANCH  33  35
ENDBRANCH  32  33
ENDBRANCH  31  32
ENDBRANCH  30  31
ENDBRANCH  29  30
ENDBRANCH  28  29
ENDBRANCH   1  28
TORSDOF 26
ENDMDL
