MODEL 1
REMARK VINA RESULT:     -10.3      0.000      0.000
REMARK SMILES CC(C)C(=O)Nc1ccc(NC(=O)[C@@H]2[C@@H](C(=O)OCCOCCOCCOCCOC(=O)c3ccc(-c4c5nc(c(-c6c(F)cc(S(=O)(=O)[O-])cc6F)c6ccc([nH]6)c(-c6c(F)cc(S(=O)(=O)[O-])cc6F)c6nc(c(-c7c(F)cc(S(=O)(=O)[O-])cc7F)c7ccc4[nH]7)C=C6)C=C5)cc3)C2(C)C)cc1Cl
REMARK SMILES IDX 23 1 22 2 21 3 20 4 19 5 18 6 16 7 17 8 15 9 14 10 99 11
REMARK SMILES IDX 100 12 101 13 12 14 11 15 13 17 10 18 7 19 8 20 103 21 9 22
REMARK SMILES IDX 102 23 104 24 6 25 4 26 5 27 2 29 1 30 3 31 24 32 25 33
REMARK SMILES IDX 26 34 27 35 28 36 29 37 30 38 31 39 32 40 33 41 34 42 98 43
REMARK SMILES IDX 35 44 97 45 36 46 37 47 38 48 91 49 39 50 96 51 90 52 92 53
REMARK SMILES IDX 40 54 95 55 89 56 88 57 41 59 75 60 54 61 74 62 55 63 58 64
REMARK SMILES IDX 73 65 93 66 56 67 57 68 72 70 94 71 59 72 42 73 43 74 52 75
REMARK SMILES IDX 44 76 45 77 51 78 53 79 46 80 47 81 48 82 49 83 50 84 76 85
REMARK SMILES IDX 77 86 86 87 78 88 79 89 85 90 87 91 80 92 81 93 82 94 83 95
REMARK SMILES IDX 84 96 60 97 61 98 70 99 62 100 63 101 69 102 71 103 64 104
REMARK SMILES IDX 65 105 66 106 67 107 68 108
REMARK H PARENT 11 16 6 28 92 58 58 69
REMARK Flexibility Score: inf
ROOT
ATOM      1  C   UNL A   1      40.291  22.428  27.400  1.00  0.00     0.188 C 
ENDROOT
BRANCH   1   2
ATOM      2  C   UNL A   1      39.156  22.427  26.365  1.00  0.00     0.188 C 
BRANCH   2   3
ATOM      3  O   UNL A   1      38.371  23.614  26.351  1.00  0.00    -0.376 OA
BRANCH   3   4
ATOM      4  C   UNL A   1      37.288  23.611  25.422  1.00  0.00     0.202 C 
BRANCH   4   5
ATOM      5  C   UNL A   1      37.237  22.392  24.495  1.00  0.00     0.261 C 
BRANCH   5   6
ATOM      6  O   UNL A   1      35.933  22.204  23.927  1.00  0.00    -0.463 OA
BRANCH   6   7
ATOM      7  C   UNL A   1      34.913  21.865  24.739  1.00  0.00     0.310 C 
ATOM      8  O   UNL A   1      35.012  21.273  25.804  1.00  0.00    -0.252 OA
BRANCH   7   9
ATOM      9  C   UNL A   1      33.620  22.426  24.277  1.00  0.00     0.118 C 
ATOM     10  C   UNL A   1      33.600  23.746  23.522  1.00  0.00     0.100 C 
ATOM     11  C   UNL A   1      32.863  23.618  24.858  1.00  0.00    -0.009 C 
ATOM     12  C   UNL A   1      33.427  24.443  26.005  1.00  0.00     0.013 C 
ATOM     13  C   UNL A   1      31.353  23.466  24.904  1.00  0.00     0.013 C 
BRANCH  10  14
ATOM     14  C   UNL A   1      32.996  23.726  22.164  1.00  0.00     0.228 C 
ATOM     15  N   UNL A   1      32.584  24.860  21.502  1.00  0.00    -0.326 N 
ATOM     16  H   UNL A   1      32.352  24.702  20.559  1.00  0.00     0.169 HD
ATOM     17  O   UNL A   1      32.865  22.646  21.590  1.00  0.00    -0.274 OA
BRANCH  15  18
ATOM     18  C   UNL A   1      32.426  26.195  21.901  1.00  0.00     0.042 A 
ATOM     19  C   UNL A   1      32.031  28.557  23.363  1.00  0.00     0.060 A 
ATOM     20  C   UNL A   1      33.290  28.244  22.852  1.00  0.00     0.030 A 
ATOM     21  C   UNL A   1      30.941  27.850  22.856  1.00  0.00     0.066 A 
ATOM     22  C   UNL A   1      33.467  27.089  22.085  1.00  0.00     0.028 A 
ATOM     23  C   UNL A   1      31.135  26.637  22.184  1.00  0.00     0.048 A 
ATOM     24  Cl  UNL A   1      29.368  28.562  22.756  1.00  0.00    -0.082 Cl
BRANCH  19  25
ATOM     25  N   UNL A   1      31.961  29.619  24.276  1.00  0.00    -0.325 N 
ATOM     26  C   UNL A   1      31.932  29.654  25.640  1.00  0.00     0.226 C 
ATOM     27  O   UNL A   1      31.750  30.768  26.153  1.00  0.00    -0.274 OA
ATOM     28  H   UNL A   1      31.929  30.507  23.853  1.00  0.00     0.169 HD
BRANCH  26  29
ATOM     29  C   UNL A   1      32.250  28.470  26.568  1.00  0.00     0.072 C 
ATOM     30  C   UNL A   1      31.303  27.285  26.508  1.00  0.00     0.018 C 
ATOM     31  C   UNL A   1      33.711  28.034  26.547  1.00  0.00     0.018 C 
ENDBRANCH  26  29
ENDBRANCH  19  25
ENDBRANCH  15  18
ENDBRANCH  10  14
ENDBRANCH   7   9
ENDBRANCH   6   7
ENDBRANCH   5   6
ENDBRANCH   4   5
ENDBRANCH   3   4
ENDBRANCH   2   3
ENDBRANCH   1   2
BRANCH   1  32
ATOM     32  O   UNL A   1      40.933  21.205  27.710  1.00  0.00    -0.377 OA
BRANCH  32  33
ATOM     33  C   UNL A   1      42.248  20.954  27.228  1.00  0.00     0.188 C 
BRANCH  33  34
ATOM     34  C   UNL A   1      42.878  21.887  26.177  1.00  0.00     0.188 C 
BRANCH  34  35
ATOM     35  O   UNL A   1      43.751  22.880  26.701  1.00  0.00    -0.376 OA
BRANCH  35  36
ATOM     36  C   UNL A   1      44.456  23.667  25.750  1.00  0.00     0.202 C 
BRANCH  36  37
ATOM     37  C   UNL A   1      43.579  24.617  24.924  1.00  0.00     0.261 C 
BRANCH  37  38
ATOM     38  O   UNL A   1      43.209  25.835  25.587  1.00  0.00    -0.460 OA
BRANCH  38  39
ATOM     39  C   UNL A   1      41.915  25.967  25.955  1.00  0.00     0.338 C 
ATOM     40  O   UNL A   1      40.932  25.553  25.371  1.00  0.00    -0.246 OA
BRANCH  39  41
ATOM     41  C   UNL A   1      41.892  26.574  27.297  1.00  0.00     0.060 A 
ATOM     42  C   UNL A   1      40.932  26.140  28.219  1.00  0.00     0.016 A 
ATOM     43  C   UNL A   1      42.800  27.582  27.626  1.00  0.00     0.016 A 
ATOM     44  C   UNL A   1      40.851  26.750  29.469  1.00  0.00     0.010 A 
ATOM     45  C   UNL A   1      42.707  28.202  28.872  1.00  0.00     0.010 A 
ATOM     46  C   UNL A   1      41.710  27.814  29.783  1.00  0.00    -0.014 A 
BRANCH  46  47
ATOM     47  C   UNL A   1      41.436  28.655  30.970  1.00  0.00     0.031 A 
ATOM     48  C   UNL A   1      40.310  29.650  30.891  1.00  0.00     0.074 A 
ATOM     49  C   UNL A   1      42.164  28.536  32.093  1.00  0.00     0.049 A 
ATOM     50  N   UNL A   1      39.906  30.517  31.780  1.00  0.00    -0.248 NA
ATOM     51  C   UNL A   1      39.540  29.666  29.636  1.00  0.00     0.031 C 
ATOM     52  C   UNL A   1      43.256  27.587  32.299  1.00  0.00     0.029 A 
ATOM     53  N   UNL A   1      42.093  29.231  33.274  1.00  0.00    -0.354 N 
ATOM     54  C   UNL A   1      38.833  31.180  31.196  1.00  0.00     0.074 A 
ATOM     55  C   UNL A   1      38.670  30.639  29.865  1.00  0.00     0.031 C 
ATOM     56  C   UNL A   1      43.763  27.768  33.532  1.00  0.00     0.029 A 
ATOM     57  C   UNL A   1      43.048  28.862  34.190  1.00  0.00     0.049 A 
ATOM     58  H   UNL A   1      41.422  29.930  33.449  1.00  0.00     0.167 HD
ATOM     59  C   UNL A   1      38.047  32.147  31.726  1.00  0.00     0.037 A 
ATOM     60  C   UNL A   1      43.320  29.363  35.411  1.00  0.00     0.037 A 
ATOM     61  C   UNL A   1      38.221  32.695  33.043  1.00  0.00     0.049 A 
ATOM     62  C   UNL A   1      42.481  30.493  35.950  1.00  0.00     0.074 A 
ATOM     63  C   UNL A   1      37.476  33.675  33.674  1.00  0.00     0.029 A 
ATOM     64  N   UNL A   1      39.218  32.316  33.930  1.00  0.00    -0.354 N 
ATOM     65  N   UNL A   1      41.454  31.095  35.398  1.00  0.00    -0.248 NA
ATOM     66  C   UNL A   1      42.837  31.010  37.279  1.00  0.00     0.031 C 
ATOM     67  C   UNL A   1      38.049  33.918  34.928  1.00  0.00     0.029 A 
ATOM     68  C   UNL A   1      39.123  33.058  35.095  1.00  0.00     0.049 A 
ATOM     69  H   UNL A   1      39.894  31.622  33.756  1.00  0.00     0.167 HD
ATOM     70  C   UNL A   1      41.026  32.043  36.323  1.00  0.00     0.074 A 
ATOM     71  C   UNL A   1      41.901  31.930  37.473  1.00  0.00     0.031 C 
ATOM     72  C   UNL A   1      40.000  32.926  36.231  1.00  0.00     0.037 A 
BRANCH  59  73
ATOM     73  C   UNL A   1      36.945  32.686  30.859  1.00  0.00     0.058 A 
ATOM     74  C   UNL A   1      37.165  33.743  29.961  1.00  0.00     0.135 A 
ATOM     75  C   UNL A   1      35.654  32.137  30.924  1.00  0.00     0.135 A 
ATOM     76  F   UNL A   1      38.376  34.317  29.877  1.00  0.00    -0.206 F 
ATOM     77  C   UNL A   1      36.137  34.257  29.179  1.00  0.00     0.059 A 
ATOM     78  C   UNL A   1      34.617  32.621  30.132  1.00  0.00     0.059 A 
ATOM     79  F   UNL A   1      35.391  31.130  31.770  1.00  0.00    -0.206 F 
ATOM     80  C   UNL A   1      34.865  33.691  29.275  1.00  0.00     0.060 A 
BRANCH  80  81
ATOM     81  S   UNL A   1      33.536  34.377  28.262  1.00  0.00     0.124 S 
ATOM     82  O   UNL A   1      32.867  35.254  29.217  1.00  0.00    -0.237 OA
ATOM     83  O   UNL A   1      34.271  35.046  27.194  1.00  0.00    -0.237 OA
ATOM     84  O   UNL A   1      32.778  33.197  27.854  1.00  0.00    -0.744 OA
ENDBRANCH  80  81
ENDBRANCH  59  73
BRANCH  60  85
ATOM     85  C   UNL A   1      44.444  28.806  36.210  1.00  0.00     0.058 A 
ATOM     86  C   UNL A   1      44.262  27.683  37.029  1.00  0.00     0.135 A 
ATOM     87  C   UNL A   1      45.720  29.391  36.173  1.00  0.00     0.135 A 
ATOM     88  F   UNL A   1      43.058  27.097  37.106  1.00  0.00    -0.206 F 
ATOM     89  C   UNL A   1      45.303  27.162  37.792  1.00  0.00     0.059 A 
ATOM     90  C   UNL A   1      46.781  28.875  36.911  1.00  0.00     0.059 A 
ATOM     91  F   UNL A   1      45.947  30.463  35.399  1.00  0.00    -0.206 F 
ATOM     92  C   UNL A   1      46.560  27.765  37.725  1.00  0.00     0.060 A 
BRANCH  92  93
ATOM     93  S   UNL A   1      47.917  27.051  38.679  1.00  0.00     0.124 S 
ATOM     94  O   UNL A   1      47.801  27.774  39.940  1.00  0.00    -0.237 OA
ATOM     95  O   UNL A   1      47.555  25.637  38.716  1.00  0.00    -0.237 OA
ATOM     96  O   UNL A   1      49.093  27.366  37.874  1.00  0.00    -0.744 OA
ENDBRANCH  92  93
ENDBRANCH  60  85
BRANCH  72  97
ATOM     97  C   UNL A   1      39.742  33.818  37.414  1.00  0.00     0.058 A 
ATOM     98  C   UNL A   1      38.880  33.435  38.453  1.00  0.00     0.135 A 
ATOM     99  C   UNL A   1      40.414  35.046  37.537  1.00  0.00     0.135 A 
ATOM    100  F   UNL A   1      38.210  32.274  38.382  1.00  0.00    -0.206 F 
ATOM    101  C   UNL A   1      38.678  34.247  39.564  1.00  0.00     0.059 A 
ATOM    102  C   UNL A   1      40.245  35.862  38.651  1.00  0.00     0.059 A 
ATOM    103  F   UNL A   1      41.259  35.453  36.576  1.00  0.00    -0.206 F 
ATOM    104  C   UNL A   1      39.366  35.459  39.655  1.00  0.00     0.060 A 
BRANCH 104 105
ATOM    105  S   UNL A   1      39.124  36.487  41.120  1.00  0.00     0.124 S 
ATOM    106  O   UNL A   1      40.437  36.412  41.750  1.00  0.00    -0.237 OA
ATOM    107  O   UNL A   1      38.771  37.780  40.542  1.00  0.00    -0.237 OA
ATOM    108  O   UNL A   1      38.043  35.813  41.833  1.00  0.00    -0.744 OA
ENDBRANCH 104 105
ENDBRANCH  72  97
ENDBRANCH  46  47
ENDBRANCH  39  41
ENDBRANCH  38  39
ENDBRANCH  37  38
ENDBRANCH  36  37
ENDBRANCH  35  36
ENDBRANCH  34  35
ENDBRANCH  33  34
ENDBRANCH  32  33
ENDBRANCH   1  32
TORSDOF 27
ENDMDL
MODEL 2
REMARK VINA RESULT:      -9.4      1.387      7.946
REMARK SMILES CC(C)C(=O)Nc1ccc(NC(=O)[C@@H]2[C@@H](C(=O)OCCOCCOCCOCCOC(=O)c3ccc(-c4c5nc(c(-c6c(F)cc(S(=O)(=O)[O-])cc6F)c6ccc([nH]6)c(-c6c(F)cc(S(=O)(=O)[O-])cc6F)c6nc(c(-c7c(F)cc(S(=O)(=O)[O-])cc7F)c7ccc4[nH]7)C=C6)C=C5)cc3)C2(C)C)cc1Cl
REMARK SMILES IDX 23 1 22 2 21 3 20 4 19 5 18 6 16 7 17 8 15 9 14 10 99 11
REMARK SMILES IDX 100 12 101 13 12 14 11 15 13 17 10 18 7 19 8 20 103 21 9 22
REMARK SMILES IDX 102 23 104 24 6 25 4 26 5 27 2 29 1 30 3 31 24 32 25 33
REMARK SMILES IDX 26 34 27 35 28 36 29 37 30 38 31 39 32 40 33 41 34 42 98 43
REMARK SMILES IDX 35 44 97 45 36 46 37 47 38 48 91 49 39 50 96 51 90 52 92 53
REMARK SMILES IDX 40 54 95 55 89 56 88 57 41 59 75 60 54 61 74 62 55 63 58 64
REMARK SMILES IDX 73 65 93 66 56 67 57 68 72 70 94 71 59 72 42 73 43 74 52 75
REMARK SMILES IDX 44 76 45 77 51 78 53 79 46 80 47 81 48 82 49 83 50 84 76 85
REMARK SMILES IDX 77 86 86 87 78 88 79 89 85 90 87 91 80 92 81 93 82 94 83 95
REMARK SMILES IDX 84 96 60 97 61 98 70 99 62 100 63 101 69 102 71 103 64 104
REMARK SMILES IDX 65 105 66 106 67 107 68 108
REMARK H PARENT 11 16 6 28 92 58 58 69
REMARK Flexibility Score: inf
ROOT
ATOM      1  C   UNL A   1      40.412  22.645  27.071  1.00  0.00     0.188 C 
ENDROOT
BRANCH   1   2
ATOM      2  C   UNL A   1      39.313  22.325  26.047  1.00  0.00     0.188 C 
BRANCH   2   3
ATOM      3  O   UNL A   1      38.050  22.911  26.337  1.00  0.00    -0.376 OA
BRANCH   3   4
ATOM      4  C   UNL A   1      37.240  23.196  25.197  1.00  0.00     0.202 C 
BRANCH   4   5
ATOM      5  C   UNL A   1      37.027  22.015  24.245  1.00  0.00     0.261 C 
BRANCH   5   6
ATOM      6  O   UNL A   1      35.652  21.880  23.857  1.00  0.00    -0.463 OA
BRANCH   6   7
ATOM      7  C   UNL A   1      34.838  21.109  24.602  1.00  0.00     0.310 C 
ATOM      8  O   UNL A   1      35.180  20.146  25.272  1.00  0.00    -0.252 OA
BRANCH   7   9
ATOM      9  C   UNL A   1      33.455  21.643  24.654  1.00  0.00     0.118 C 
ATOM     10  C   UNL A   1      33.159  23.021  24.082  1.00  0.00     0.100 C 
ATOM     11  C   UNL A   1      32.917  22.742  25.568  1.00  0.00    -0.009 C 
ATOM     12  C   UNL A   1      33.819  23.492  26.536  1.00  0.00     0.013 C 
ATOM     13  C   UNL A   1      31.513  22.512  26.099  1.00  0.00     0.013 C 
BRANCH  10  14
ATOM     14  C   UNL A   1      32.135  23.088  23.007  1.00  0.00     0.228 C 
ATOM     15  N   UNL A   1      31.484  24.248  22.655  1.00  0.00    -0.326 N 
ATOM     16  H   UNL A   1      30.954  24.165  21.829  1.00  0.00     0.169 HD
ATOM     17  O   UNL A   1      31.856  22.062  22.389  1.00  0.00    -0.274 OA
BRANCH  15  18
ATOM     18  C   UNL A   1      31.422  25.524  23.233  1.00  0.00     0.042 A 
ATOM     19  C   UNL A   1      30.873  28.216  23.805  1.00  0.00     0.060 A 
ATOM     20  C   UNL A   1      30.299  27.199  24.568  1.00  0.00     0.030 A 
ATOM     21  C   UNL A   1      31.952  27.873  22.991  1.00  0.00     0.066 A 
ATOM     22  C   UNL A   1      30.615  25.863  24.306  1.00  0.00     0.028 A 
ATOM     23  C   UNL A   1      32.186  26.535  22.653  1.00  0.00     0.048 A 
ATOM     24  Cl  UNL A   1      33.205  29.008  22.624  1.00  0.00    -0.082 Cl
BRANCH  19  25
ATOM     25  N   UNL A   1      30.371  29.511  23.991  1.00  0.00    -0.325 N 
ATOM     26  C   UNL A   1      29.403  30.222  23.343  1.00  0.00     0.226 C 
ATOM     27  O   UNL A   1      29.275  31.406  23.685  1.00  0.00    -0.274 OA
ATOM     28  H   UNL A   1      30.798  30.002  24.732  1.00  0.00     0.169 HD
BRANCH  26  29
ATOM     29  C   UNL A   1      28.384  29.637  22.351  1.00  0.00     0.072 C 
ATOM     30  C   UNL A   1      27.183  28.928  22.950  1.00  0.00     0.018 C 
ATOM     31  C   UNL A   1      27.984  30.591  21.230  1.00  0.00     0.018 C 
ENDBRANCH  26  29
ENDBRANCH  19  25
ENDBRANCH  15  18
ENDBRANCH  10  14
ENDBRANCH   7   9
ENDBRANCH   6   7
ENDBRANCH   5   6
ENDBRANCH   4   5
ENDBRANCH   3   4
ENDBRANCH   2   3
ENDBRANCH   1   2
BRANCH   1  32
ATOM     32  O   UNL A   1      40.937  21.594  27.861  1.00  0.00    -0.377 OA
BRANCH  32  33
ATOM     33  C   UNL A   1      42.236  21.717  28.428  1.00  0.00     0.188 C 
BRANCH  33  34
ATOM     34  C   UNL A   1      43.359  22.421  27.646  1.00  0.00     0.188 C 
BRANCH  34  35
ATOM     35  O   UNL A   1      44.355  23.042  28.449  1.00  0.00    -0.376 OA
BRANCH  35  36
ATOM     36  C   UNL A   1      45.453  23.625  27.759  1.00  0.00     0.202 C 
BRANCH  36  37
ATOM     37  C   UNL A   1      45.160  24.026  26.308  1.00  0.00     0.261 C 
BRANCH  37  38
ATOM     38  O   UNL A   1      44.580  25.329  26.141  1.00  0.00    -0.460 OA
BRANCH  38  39
ATOM     39  C   UNL A   1      43.251  25.386  25.904  1.00  0.00     0.338 C 
ATOM     40  O   UNL A   1      42.609  24.721  25.113  1.00  0.00    -0.246 OA
BRANCH  39  41
ATOM     41  C   UNL A   1      42.658  26.297  26.898  1.00  0.00     0.060 A 
ATOM     42  C   UNL A   1      43.002  27.653  26.864  1.00  0.00     0.016 A 
ATOM     43  C   UNL A   1      41.787  25.801  27.871  1.00  0.00     0.016 A 
ATOM     44  C   UNL A   1      42.503  28.516  27.837  1.00  0.00     0.010 A 
ATOM     45  C   UNL A   1      41.302  26.664  28.854  1.00  0.00     0.010 A 
ATOM     46  C   UNL A   1      41.687  28.015  28.862  1.00  0.00    -0.014 A 
BRANCH  46  47
ATOM     47  C   UNL A   1      41.405  28.849  30.052  1.00  0.00     0.031 A 
ATOM     48  C   UNL A   1      42.283  28.678  31.263  1.00  0.00     0.074 A 
ATOM     49  C   UNL A   1      40.399  29.740  30.059  1.00  0.00     0.049 A 
ATOM     50  N   UNL A   1      42.210  29.263  32.429  1.00  0.00    -0.248 NA
ATOM     51  C   UNL A   1      43.389  27.715  31.138  1.00  0.00     0.031 C 
ATOM     52  C   UNL A   1      39.505  30.016  28.937  1.00  0.00     0.029 A 
ATOM     53  N   UNL A   1      39.959  30.574  31.055  1.00  0.00    -0.354 N 
ATOM     54  C   UNL A   1      43.261  28.743  33.175  1.00  0.00     0.074 A 
ATOM     55  C   UNL A   1      43.935  27.772  32.342  1.00  0.00     0.031 C 
ATOM     56  C   UNL A   1      38.611  30.949  29.312  1.00  0.00     0.029 A 
ATOM     57  C   UNL A   1      38.856  31.315  30.708  1.00  0.00     0.049 A 
ATOM     58  H   UNL A   1      40.392  30.635  31.937  1.00  0.00     0.167 HD
ATOM     59  C   UNL A   1      43.636  29.055  34.437  1.00  0.00     0.037 A 
ATOM     60  C   UNL A   1      38.122  32.177  31.440  1.00  0.00     0.037 A 
ATOM     61  C   UNL A   1      42.954  30.009  35.269  1.00  0.00     0.049 A 
ATOM     62  C   UNL A   1      38.513  32.450  32.869  1.00  0.00     0.074 A 
ATOM     63  C   UNL A   1      43.258  30.399  36.561  1.00  0.00     0.029 A 
ATOM     64  N   UNL A   1      41.823  30.718  34.891  1.00  0.00    -0.354 N 
ATOM     65  N   UNL A   1      39.523  31.971  33.556  1.00  0.00    -0.248 NA
ATOM     66  C   UNL A   1      37.664  33.384  33.624  1.00  0.00     0.031 C 
ATOM     67  C   UNL A   1      42.284  31.313  36.980  1.00  0.00     0.029 A 
ATOM     68  C   UNL A   1      41.402  31.527  35.933  1.00  0.00     0.049 A 
ATOM     69  H   UNL A   1      41.385  30.655  34.012  1.00  0.00     0.167 HD
ATOM     70  C   UNL A   1      39.446  32.564  34.813  1.00  0.00     0.074 A 
ATOM     71  C   UNL A   1      38.294  33.443  34.790  1.00  0.00     0.031 C 
ATOM     72  C   UNL A   1      40.256  32.400  35.888  1.00  0.00     0.037 A 
BRANCH  59  73
ATOM     73  C   UNL A   1      44.828  28.331  34.997  1.00  0.00     0.058 A 
ATOM     74  C   UNL A   1      44.696  27.102  35.663  1.00  0.00     0.135 A 
ATOM     75  C   UNL A   1      46.117  28.870  34.863  1.00  0.00     0.135 A 
ATOM     76  F   UNL A   1      43.482  26.555  35.837  1.00  0.00    -0.206 F 
ATOM     77  C   UNL A   1      45.797  26.446  36.203  1.00  0.00     0.059 A 
ATOM     78  C   UNL A   1      47.236  28.219  35.374  1.00  0.00     0.059 A 
ATOM     79  F   UNL A   1      46.297  30.045  34.240  1.00  0.00    -0.206 F 
ATOM     80  C   UNL A   1      47.062  27.016  36.057  1.00  0.00     0.060 A 
BRANCH  80  81
ATOM     81  S   UNL A   1      48.482  26.160  36.773  1.00  0.00     0.124 S 
ATOM     82  O   UNL A   1      47.827  25.206  37.661  1.00  0.00    -0.237 OA
ATOM     83  O   UNL A   1      49.130  25.589  35.596  1.00  0.00    -0.237 OA
ATOM     84  O   UNL A   1      49.224  27.229  37.435  1.00  0.00    -0.744 OA
ENDBRANCH  80  81
ENDBRANCH  59  73
BRANCH  60  85
ATOM     85  C   UNL A   1      36.936  32.841  30.839  1.00  0.00     0.058 A 
ATOM     86  C   UNL A   1      35.644  32.331  31.034  1.00  0.00     0.135 A 
ATOM     87  C   UNL A   1      37.072  33.997  30.053  1.00  0.00     0.135 A 
ATOM     88  F   UNL A   1      35.466  31.222  31.767  1.00  0.00    -0.206 F 
ATOM     89  C   UNL A   1      34.528  32.935  30.464  1.00  0.00     0.059 A 
ATOM     90  C   UNL A   1      35.968  34.632  29.491  1.00  0.00     0.059 A 
ATOM     91  F   UNL A   1      38.285  34.529  29.842  1.00  0.00    -0.206 F 
ATOM     92  C   UNL A   1      34.701  34.088  29.695  1.00  0.00     0.060 A 
BRANCH  92  93
ATOM     93  S   UNL A   1      33.241  34.896  29.002  1.00  0.00     0.124 S 
ATOM     94  O   UNL A   1      32.477  35.201  30.205  1.00  0.00    -0.237 OA
ATOM     95  O   UNL A   1      33.825  36.039  28.307  1.00  0.00    -0.237 OA
ATOM     96  O   UNL A   1      32.673  33.869  28.134  1.00  0.00    -0.744 OA
ENDBRANCH  92  93
ENDBRANCH  60  85
BRANCH  72  97
ATOM     97  C   UNL A   1      39.950  33.207  37.119  1.00  0.00     0.058 A 
ATOM     98  C   UNL A   1      40.645  34.390  37.416  1.00  0.00     0.135 A 
ATOM     99  C   UNL A   1      38.908  32.823  37.980  1.00  0.00     0.135 A 
ATOM    100  F   UNL A   1      41.652  34.798  36.630  1.00  0.00    -0.206 F 
ATOM    101  C   UNL A   1      40.329  35.155  38.535  1.00  0.00     0.059 A 
ATOM    102  C   UNL A   1      38.560  33.586  39.090  1.00  0.00     0.059 A 
ATOM    103  F   UNL A   1      38.205  31.706  37.733  1.00  0.00    -0.206 F 
ATOM    104  C   UNL A   1      39.284  34.745  39.366  1.00  0.00     0.060 A 
BRANCH 104 105
ATOM    105  S   UNL A   1      38.859  35.765  40.794  1.00  0.00     0.124 S 
ATOM    106  O   UNL A   1      37.686  35.070  41.312  1.00  0.00    -0.237 OA
ATOM    107  O   UNL A   1      40.063  35.675  41.615  1.00  0.00    -0.237 OA
ATOM    108  O   UNL A   1      38.606  37.079  40.210  1.00  0.00    -0.744 OA
ENDBRANCH 104 105
ENDBRANCH  72  97
ENDBRANCH  46  47
ENDBRANCH  39  41
ENDBRANCH  38  39
ENDBRANCH  37  38
ENDBRANCH  36  37
ENDBRANCH  35  36
ENDBRANCH  34  35
ENDBRANCH  33  34
ENDBRANCH  32  33
ENDBRANCH   1  32
TORSDOF 27
ENDMDL
MODEL 3
REMARK VINA RESULT:      -7.8      2.684      3.627
REMARK SMILES CC(C)C(=O)Nc1ccc(NC(=O)[C@@H]2[C@@H](C(=O)OCCOCCOCCOCCOC(=O)c3ccc(-c4c5nc(c(-c6c(F)cc(S(=O)(=O)[O-])cc6F)c6ccc([nH]6)c(-c6c(F)cc(S(=O)(=O)[O-])cc6F)c6nc(c(-c7c(F)cc(S(=O)(=O)[O-])cc7F)c7ccc4[nH]7)C=C6)C=C5)cc3)C2(C)C)cc1Cl
REMARK SMILES IDX 23 1 22 2 21 3 20 4 19 5 18 6 16 7 17 8 15 9 14 10 99 11
REMARK SMILES IDX 100 12 101 13 12 14 11 15 13 17 10 18 7 19 8 20 103 21 9 22
REMARK SMILES IDX 102 23 104 24 6 25 4 26 5 27 2 29 1 30 3 31 24 32 25 33
REMARK SMILES IDX 26 34 27 35 28 36 29 37 30 38 31 39 32 40 33 41 34 42 98 43
REMARK SMILES IDX 35 44 97 45 36 46 37 47 38 48 91 49 39 50 96 51 90 52 92 53
REMARK SMILES IDX 40 54 95 55 89 56 88 57 41 59 75 60 54 61 74 62 55 63 58 64
REMARK SMILES IDX 73 65 93 66 56 67 57 68 72 70 94 71 59 72 42 73 43 74 52 75
REMARK SMILES IDX 44 76 45 77 51 78 53 79 46 80 47 81 48 82 49 83 50 84 76 85
REMARK SMILES IDX 77 86 86 87 78 88 79 89 85 90 87 91 80 92 81 93 82 94 83 95
REMARK SMILES IDX 84 96 60 97 61 98 70 99 62 100 63 101 69 102 71 103 64 104
REMARK SMILES IDX 65 105 66 106 67 107 68 108
REMARK H PARENT 11 16 6 28 92 58 58 69
REMARK Flexibility Score: inf
ROOT
ATOM      1  C   UNL A   1      40.329  22.934  27.041  1.00  0.00     0.188 C 
ENDROOT
BRANCH   1   2
ATOM      2  C   UNL A   1      39.241  22.309  26.155  1.00  0.00     0.188 C 
BRANCH   2   3
ATOM      3  O   UNL A   1      37.921  22.757  26.440  1.00  0.00    -0.376 OA
BRANCH   3   4
ATOM      4  C   UNL A   1      37.186  23.228  25.310  1.00  0.00     0.202 C 
BRANCH   4   5
ATOM      5  C   UNL A   1      37.019  22.208  24.179  1.00  0.00     0.261 C 
BRANCH   5   6
ATOM      6  O   UNL A   1      35.645  22.051  23.797  1.00  0.00    -0.463 OA
BRANCH   6   7
ATOM      7  C   UNL A   1      34.852  21.251  24.536  1.00  0.00     0.310 C 
ATOM      8  O   UNL A   1      35.213  20.264  25.160  1.00  0.00    -0.252 OA
BRANCH   7   9
ATOM      9  C   UNL A   1      33.470  21.780  24.646  1.00  0.00     0.118 C 
ATOM     10  C   UNL A   1      33.162  23.185  24.150  1.00  0.00     0.100 C 
ATOM     11  C   UNL A   1      32.953  22.831  25.625  1.00  0.00    -0.009 C 
ATOM     12  C   UNL A   1      33.876  23.532  26.610  1.00  0.00     0.013 C 
ATOM     13  C   UNL A   1      31.561  22.573  26.175  1.00  0.00     0.013 C 
BRANCH  10  14
ATOM     14  C   UNL A   1      32.114  23.305  23.104  1.00  0.00     0.228 C 
ATOM     15  N   UNL A   1      31.500  24.494  22.780  1.00  0.00    -0.326 N 
ATOM     16  H   UNL A   1      30.947  24.441  21.968  1.00  0.00     0.169 HD
ATOM     17  O   UNL A   1      31.779  22.297  22.482  1.00  0.00    -0.274 OA
BRANCH  15  18
ATOM     18  C   UNL A   1      31.505  25.764  23.374  1.00  0.00     0.042 A 
ATOM     19  C   UNL A   1      31.012  28.446  24.037  1.00  0.00     0.060 A 
ATOM     20  C   UNL A   1      30.552  27.418  24.859  1.00  0.00     0.030 A 
ATOM     21  C   UNL A   1      31.979  28.120  23.086  1.00  0.00     0.066 A 
ATOM     22  C   UNL A   1      30.843  26.087  24.546  1.00  0.00     0.028 A 
ATOM     23  C   UNL A   1      32.178  26.787  22.708  1.00  0.00     0.048 A 
ATOM     24  Cl  UNL A   1      33.163  29.270  22.569  1.00  0.00    -0.082 Cl
BRANCH  19  25
ATOM     25  N   UNL A   1      30.529  29.735  24.300  1.00  0.00    -0.325 N 
ATOM     26  C   UNL A   1      29.535  30.476  23.728  1.00  0.00     0.226 C 
ATOM     27  O   UNL A   1      29.431  31.646  24.123  1.00  0.00    -0.274 OA
ATOM     28  H   UNL A   1      30.994  30.193  25.038  1.00  0.00     0.169 HD
BRANCH  26  29
ATOM     29  C   UNL A   1      28.465  29.936  22.765  1.00  0.00     0.072 C 
ATOM     30  C   UNL A   1      28.771  30.043  21.281  1.00  0.00     0.018 C 
ATOM     31  C   UNL A   1      27.924  28.560  23.138  1.00  0.00     0.018 C 
ENDBRANCH  26  29
ENDBRANCH  19  25
ENDBRANCH  15  18
ENDBRANCH  10  14
ENDBRANCH   7   9
ENDBRANCH   6   7
ENDBRANCH   5   6
ENDBRANCH   4   5
ENDBRANCH   3   4
ENDBRANCH   2   3
ENDBRANCH   1   2
BRANCH   1  32
ATOM     32  O   UNL A   1      41.180  22.079  27.782  1.00  0.00    -0.377 OA
BRANCH  32  33
ATOM     33  C   UNL A   1      42.549  22.424  27.959  1.00  0.00     0.188 C 
BRANCH  33  34
ATOM     34  C   UNL A   1      43.283  23.253  26.889  1.00  0.00     0.188 C 
BRANCH  34  35
ATOM     35  O   UNL A   1      44.436  23.947  27.350  1.00  0.00    -0.376 OA
BRANCH  35  36
ATOM     36  C   UNL A   1      45.169  24.676  26.374  1.00  0.00     0.202 C 
BRANCH  36  37
ATOM     37  C   UNL A   1      44.339  25.168  25.182  1.00  0.00     0.261 C 
BRANCH  37  38
ATOM     38  O   UNL A   1      43.802  26.493  25.319  1.00  0.00    -0.460 OA
BRANCH  38  39
ATOM     39  C   UNL A   1      42.492  26.597  25.632  1.00  0.00     0.338 C 
ATOM     40  O   UNL A   1      41.553  26.046  25.090  1.00  0.00    -0.246 OA
BRANCH  39  41
ATOM     41  C   UNL A   1      42.391  27.383  26.874  1.00  0.00     0.060 A 
ATOM     42  C   UNL A   1      42.853  28.704  26.878  1.00  0.00     0.016 A 
ATOM     43  C   UNL A   1      41.862  26.803  28.029  1.00  0.00     0.016 A 
ATOM     44  C   UNL A   1      42.828  29.440  28.061  1.00  0.00     0.010 A 
ATOM     45  C   UNL A   1      41.853  27.537  29.216  1.00  0.00     0.010 A 
ATOM     46  C   UNL A   1      42.368  28.844  29.244  1.00  0.00    -0.014 A 
BRANCH  46  47
ATOM     47  C   UNL A   1      42.616  29.505  30.545  1.00  0.00     0.031 A 
ATOM     48  C   UNL A   1      41.515  30.346  31.135  1.00  0.00     0.074 A 
ATOM     49  C   UNL A   1      43.785  29.360  31.192  1.00  0.00     0.049 A 
ATOM     50  N   UNL A   1      41.508  31.049  32.235  1.00  0.00    -0.248 NA
ATOM     51  C   UNL A   1      40.255  30.399  30.375  1.00  0.00     0.031 C 
ATOM     52  C   UNL A   1      44.910  28.546  30.736  1.00  0.00     0.029 A 
ATOM     53  N   UNL A   1      44.219  29.906  32.373  1.00  0.00    -0.354 N 
ATOM     54  C   UNL A   1      40.246  31.626  32.304  1.00  0.00     0.074 A 
ATOM     55  C   UNL A   1      39.526  31.217  31.118  1.00  0.00     0.031 C 
ATOM     56  C   UNL A   1      45.914  28.656  31.625  1.00  0.00     0.029 A 
ATOM     57  C   UNL A   1      45.510  29.567  32.696  1.00  0.00     0.049 A 
ATOM     58  H   UNL A   1      43.658  30.486  32.937  1.00  0.00     0.167 HD
ATOM     59  C   UNL A   1      39.729  32.416  33.273  1.00  0.00     0.037 A 
ATOM     60  C   UNL A   1      46.280  29.962  33.730  1.00  0.00     0.037 A 
ATOM     61  C   UNL A   1      40.453  32.834  34.443  1.00  0.00     0.049 A 
ATOM     62  C   UNL A   1      45.709  30.905  34.758  1.00  0.00     0.074 A 
ATOM     63  C   UNL A   1      40.017  33.632  35.487  1.00  0.00     0.029 A 
ATOM     64  N   UNL A   1      41.769  32.494  34.720  1.00  0.00    -0.354 N 
ATOM     65  N   UNL A   1      44.505  31.424  34.824  1.00  0.00    -0.248 NA
ATOM     66  C   UNL A   1      46.601  31.316  35.852  1.00  0.00     0.031 C 
ATOM     67  C   UNL A   1      41.086  33.809  36.374  1.00  0.00     0.029 A 
ATOM     68  C   UNL A   1      42.171  33.084  35.906  1.00  0.00     0.049 A 
ATOM     69  H   UNL A   1      42.334  31.919  34.156  1.00  0.00     0.167 HD
ATOM     70  C   UNL A   1      44.488  32.200  35.980  1.00  0.00     0.074 A 
ATOM     71  C   UNL A   1      45.799  32.078  36.585  1.00  0.00     0.031 C 
ATOM     72  C   UNL A   1      43.479  32.945  36.496  1.00  0.00     0.037 A 
BRANCH  59  73
ATOM     73  C   UNL A   1      38.319  32.897  33.086  1.00  0.00     0.058 A 
ATOM     74  C   UNL A   1      37.221  32.155  33.552  1.00  0.00     0.135 A 
ATOM     75  C   UNL A   1      38.060  34.115  32.438  1.00  0.00     0.135 A 
ATOM     76  F   UNL A   1      37.413  30.972  34.158  1.00  0.00    -0.206 F 
ATOM     77  C   UNL A   1      35.914  32.588  33.355  1.00  0.00     0.059 A 
ATOM     78  C   UNL A   1      36.761  34.580  32.252  1.00  0.00     0.059 A 
ATOM     79  F   UNL A   1      39.074  34.859  31.970  1.00  0.00    -0.206 F 
ATOM     80  C   UNL A   1      35.696  33.801  32.699  1.00  0.00     0.060 A 
BRANCH  80  81
ATOM     81  S   UNL A   1      33.994  34.347  32.440  1.00  0.00     0.124 S 
ATOM     82  O   UNL A   1      33.889  34.287  30.986  1.00  0.00    -0.237 OA
ATOM     83  O   UNL A   1      33.228  33.344  33.173  1.00  0.00    -0.237 OA
ATOM     84  O   UNL A   1      33.977  35.689  33.016  1.00  0.00    -0.744 OA
ENDBRANCH  80  81
ENDBRANCH  59  73
BRANCH  60  85
ATOM     85  C   UNL A   1      47.679  29.474  33.845  1.00  0.00     0.058 A 
ATOM     86  C   UNL A   1      48.740  30.170  33.248  1.00  0.00     0.135 A 
ATOM     87  C   UNL A   1      47.982  28.299  34.553  1.00  0.00     0.135 A 
ATOM     88  F   UNL A   1      48.498  31.291  32.552  1.00  0.00    -0.206 F 
ATOM     89  C   UNL A   1      50.051  29.714  33.336  1.00  0.00     0.059 A 
ATOM     90  C   UNL A   1      49.289  27.836  34.673  1.00  0.00     0.059 A 
ATOM     91  F   UNL A   1      47.004  27.601  35.149  1.00  0.00    -0.206 F 
ATOM     92  C   UNL A   1      50.316  28.546  34.054  1.00  0.00     0.060 A 
BRANCH  92  93
ATOM     93  S   UNL A   1      52.028  27.990  34.207  1.00  0.00     0.124 S 
ATOM     94  O   UNL A   1      52.580  28.991  35.112  1.00  0.00    -0.237 OA
ATOM     95  O   UNL A   1      51.866  26.648  34.759  1.00  0.00    -0.237 OA
ATOM     96  O   UNL A   1      52.518  28.038  32.833  1.00  0.00    -0.744 OA
ENDBRANCH  92  93
ENDBRANCH  60  85
BRANCH  72  97
ATOM     97  C   UNL A   1      43.735  33.660  37.793  1.00  0.00     0.058 A 
ATOM     98  C   UNL A   1      43.512  33.041  39.033  1.00  0.00     0.135 A 
ATOM     99  C   UNL A   1      44.267  34.960  37.795  1.00  0.00     0.135 A 
ATOM    100  F   UNL A   1      43.000  31.802  39.087  1.00  0.00    -0.206 F 
ATOM    101  C   UNL A   1      43.790  33.693  40.230  1.00  0.00     0.059 A 
ATOM    102  C   UNL A   1      44.576  35.621  38.979  1.00  0.00     0.059 A 
ATOM    103  F   UNL A   1      44.510  35.592  36.636  1.00  0.00    -0.206 F 
ATOM    104  C   UNL A   1      44.323  34.983  40.193  1.00  0.00     0.060 A 
BRANCH 104 105
ATOM    105  S   UNL A   1      44.715  35.806  41.753  1.00  0.00     0.124 S 
ATOM    106  O   UNL A   1      45.165  37.113  41.288  1.00  0.00    -0.237 OA
ATOM    107  O   UNL A   1      43.432  35.787  42.449  1.00  0.00    -0.237 OA
ATOM    108  O   UNL A   1      45.748  34.954  42.335  1.00  0.00    -0.744 OA
ENDBRANCH 104 105
ENDBRANCH  72  97
ENDBRANCH  46  47
ENDBRANCH  39  41
ENDBRANCH  38  39
ENDBRANCH  37  38
ENDBRANCH  36  37
ENDBRANCH  35  36
ENDBRANCH  34  35
ENDBRANCH  33  34
ENDBRANCH  32  33
ENDBRANCH   1  32
TORSDOF 27
ENDMDL
