MODEL 1
REMARK VINA RESULT:     -11.0      0.000      0.000
REMARK SMILES Cc1ccccc1[C@@H]1[NH2+][C@@H](C(=O)OCCOCCOCCOCCOC(=O)c2ccc(-c3c4nc(c(-c5c(F)cc(S(=O)(=O)[O-])cc5F)c5ccc([nH]5)c(-c5c(F)cc(S(=O)(=O)[O-])cc5F)c5nc(c(-c6c(F)cc(S(=O)(=O)[O-])cc6F)c6ccc3[nH]6)C=C5)C=C4)cc2)CC2=c3ccccc3=N[C@@H]21
REMARK SMILES IDX 20 1 19 2 18 3 17 4 16 5 15 6 14 7 13 8 11 9 12 10 10 11
REMARK SMILES IDX 8 12 9 13 103 14 95 17 102 18 94 19 96 20 101 21 97 22
REMARK SMILES IDX 100 23 98 24 99 25 7 26 1 27 2 28 3 29 4 30 6 31 5 32 21 33
REMARK SMILES IDX 22 34 23 35 24 36 25 37 26 38 27 39 28 40 29 41 93 42 30 43
REMARK SMILES IDX 92 44 31 45 32 46 33 47 86 48 34 49 91 50 85 51 87 52 35 53
REMARK SMILES IDX 90 54 84 55 83 56 36 58 70 59 49 60 69 61 50 62 53 63 68 64
REMARK SMILES IDX 88 65 51 66 52 67 67 69 89 70 54 71 37 72 38 73 47 74 39 75
REMARK SMILES IDX 40 76 46 77 48 78 41 79 42 80 43 81 44 82 45 83 71 84 72 85
REMARK SMILES IDX 81 86 73 87 74 88 80 89 82 90 75 91 76 92 77 93 78 94 79 95
REMARK SMILES IDX 55 96 56 97 65 98 57 99 58 100 64 101 66 102 59 103 60 104
REMARK SMILES IDX 61 105 62 106 63 107
REMARK H PARENT 9 15 9 16 87 57 53 68
REMARK Flexibility Score: inf
ROOT
ATOM      1  C   UNL A   1      44.925  30.534  27.807  1.00  0.00     0.188 C 
ENDROOT
BRANCH   1   2
ATOM      2  O   UNL A   1      43.972  29.466  27.978  1.00  0.00    -0.377 OA
BRANCH   2   3
ATOM      3  C   UNL A   1      42.625  29.736  28.510  1.00  0.00     0.188 C 
BRANCH   3   4
ATOM      4  C   UNL A   1      41.437  28.767  27.862  1.00  0.00     0.188 C 
BRANCH   4   5
ATOM      5  O   UNL A   1      40.934  27.104  28.053  1.00  0.00    -0.376 OA
BRANCH   5   6
ATOM      6  C   UNL A   1      39.408  26.189  27.578  1.00  0.00     0.202 C 
BRANCH   6   7
ATOM      7  C   UNL A   1      39.248  24.363  27.002  1.00  0.00     0.261 C 
BRANCH   7   8
ATOM      8  O   UNL A   1      37.812  23.759  26.001  1.00  0.00    -0.459 OA
BRANCH   8   9
ATOM      9  C   UNL A   1      37.039  22.430  25.375  1.00  0.00     0.365 C 
ATOM     10  O   UNL A   1      37.651  21.731  24.546  1.00  0.00    -0.245 OA
BRANCH   9  11
ATOM     11  C   UNL A   1      35.284  22.173  25.413  1.00  0.00     0.298 C 
ATOM     12  C   UNL A   1      32.883  23.137  24.764  1.00  0.00     0.243 C 
ATOM     13  N   UNL A   1      34.295  23.322  25.329  1.00  0.00    -0.326 N 
ATOM     14  C   UNL A   1      32.439  21.577  24.971  1.00  0.00     0.196 C 
ATOM     15  H   UNL A   1      34.179  23.670  26.281  1.00  0.00     0.347 HD
ATOM     16  H   UNL A   1      34.728  23.926  24.630  1.00  0.00     0.347 HD
ATOM     17  C   UNL A   1      33.505  20.609  25.562  1.00  0.00    -0.024 C 
ATOM     18  N   UNL A   1      31.963  20.855  23.766  1.00  0.00    -0.270 NA
ATOM     19  C   UNL A   1      34.679  21.146  26.378  1.00  0.00     0.111 C 
ATOM     20  C   UNL A   1      33.538  19.456  24.887  1.00  0.00     0.002 A 
ATOM     21  C   UNL A   1      32.561  19.697  23.809  1.00  0.00     0.066 A 
ATOM     22  C   UNL A   1      34.446  18.342  24.839  1.00  0.00     0.010 A 
ATOM     23  C   UNL A   1      32.428  18.587  22.821  1.00  0.00     0.028 A 
ATOM     24  C   UNL A   1      34.326  17.435  23.854  1.00  0.00     0.001 A 
ATOM     25  C   UNL A   1      33.284  17.551  22.853  1.00  0.00     0.002 A 
BRANCH  12  26
ATOM     26  C   UNL A   1      32.337  24.271  23.560  1.00  0.00     0.015 A 
ATOM     27  C   UNL A   1      30.672  25.405  25.120  1.00  0.00     0.045 C 
ATOM     28  C   UNL A   1      31.367  25.260  23.820  1.00  0.00    -0.042 A 
ATOM     29  C   UNL A   1      31.012  26.307  22.869  1.00  0.00     0.004 A 
ATOM     30  C   UNL A   1      31.607  26.480  21.635  1.00  0.00     0.000 A 
ATOM     31  C   UNL A   1      32.891  24.570  22.264  1.00  0.00     0.010 A 
ATOM     32  C   UNL A   1      32.570  25.588  21.329  1.00  0.00     0.001 A 
ENDBRANCH  12  26
ENDBRANCH   9  11
ENDBRANCH   8   9
ENDBRANCH   7   8
ENDBRANCH   6   7
ENDBRANCH   5   6
ENDBRANCH   4   5
ENDBRANCH   3   4
ENDBRANCH   2   3
ENDBRANCH   1   2
BRANCH   1  33
ATOM     33  C   UNL A   1      44.905  31.656  28.860  1.00  0.00     0.188 C 
BRANCH  33  34
ATOM     34  O   UNL A   1      44.554  32.909  28.280  1.00  0.00    -0.376 OA
BRANCH  34  35
ATOM     35  C   UNL A   1      44.799  34.057  29.106  1.00  0.00     0.202 C 
BRANCH  35  36
ATOM     36  C   UNL A   1      46.084  34.885  28.837  1.00  0.00     0.261 C 
BRANCH  36  37
ATOM     37  O   UNL A   1      46.347  35.884  29.852  1.00  0.00    -0.460 OA
BRANCH  37  38
ATOM     38  C   UNL A   1      45.667  37.080  29.721  1.00  0.00     0.338 C 
ATOM     39  O   UNL A   1      45.832  37.851  28.781  1.00  0.00    -0.246 OA
BRANCH  38  40
ATOM     40  C   UNL A   1      44.867  37.381  30.958  1.00  0.00     0.060 A 
ATOM     41  C   UNL A   1      44.089  38.486  31.284  1.00  0.00     0.016 A 
ATOM     42  C   UNL A   1      45.181  36.591  32.010  1.00  0.00     0.016 A 
ATOM     43  C   UNL A   1      43.773  38.800  32.681  1.00  0.00     0.010 A 
ATOM     44  C   UNL A   1      45.103  37.080  33.312  1.00  0.00     0.010 A 
ATOM     45  C   UNL A   1      44.344  38.113  33.796  1.00  0.00    -0.014 A 
BRANCH  45  46
ATOM     46  C   UNL A   1      44.017  37.994  35.520  1.00  0.00     0.031 A 
ATOM     47  C   UNL A   1      42.548  36.745  36.110  1.00  0.00     0.074 A 
ATOM     48  C   UNL A   1      44.754  39.080  36.407  1.00  0.00     0.049 A 
ATOM     49  N   UNL A   1      42.369  36.072  37.253  1.00  0.00    -0.248 NA
ATOM     50  C   UNL A   1      40.986  36.445  35.484  1.00  0.00     0.031 C 
ATOM     51  C   UNL A   1      44.910  39.319  38.032  1.00  0.00     0.029 A 
ATOM     52  N   UNL A   1      45.751  40.038  36.183  1.00  0.00    -0.354 N 
ATOM     53  C   UNL A   1      41.030  35.962  37.596  1.00  0.00     0.074 A 
ATOM     54  C   UNL A   1      40.188  36.268  36.500  1.00  0.00     0.031 C 
ATOM     55  C   UNL A   1      45.883  40.161  38.386  1.00  0.00     0.029 A 
ATOM     56  C   UNL A   1      46.144  40.895  37.209  1.00  0.00     0.049 A 
ATOM     57  H   UNL A   1      46.177  40.106  35.297  1.00  0.00     0.167 HD
ATOM     58  C   UNL A   1      40.483  36.032  38.824  1.00  0.00     0.037 A 
ATOM     59  C   UNL A   1      45.896  42.225  37.130  1.00  0.00     0.037 A 
ATOM     60  C   UNL A   1      41.205  36.986  39.684  1.00  0.00     0.049 A 
ATOM     61  C   UNL A   1      44.672  42.402  38.102  1.00  0.00     0.074 A 
ATOM     62  C   UNL A   1      42.285  36.835  40.527  1.00  0.00     0.029 A 
ATOM     63  N   UNL A   1      41.116  38.402  39.482  1.00  0.00    -0.354 N 
ATOM     64  N   UNL A   1      43.589  41.611  38.169  1.00  0.00    -0.248 NA
ATOM     65  C   UNL A   1      44.947  43.053  39.391  1.00  0.00     0.031 C 
ATOM     66  C   UNL A   1      42.917  38.115  40.707  1.00  0.00     0.029 A 
ATOM     67  C   UNL A   1      42.221  39.121  40.015  1.00  0.00     0.049 A 
ATOM     68  H   UNL A   1      40.362  38.834  39.019  1.00  0.00     0.167 HD
ATOM     69  C   UNL A   1      43.150  41.513  39.510  1.00  0.00     0.074 A 
ATOM     70  C   UNL A   1      44.065  42.444  40.201  1.00  0.00     0.031 C 
ATOM     71  C   UNL A   1      42.287  40.629  40.179  1.00  0.00     0.037 A 
BRANCH  58  72
ATOM     72  C   UNL A   1      39.506  34.833  39.013  1.00  0.00     0.058 A 
ATOM     73  C   UNL A   1      38.491  34.798  39.975  1.00  0.00     0.135 A 
ATOM     74  C   UNL A   1      39.617  33.587  38.279  1.00  0.00     0.135 A 
ATOM     75  F   UNL A   1      38.312  35.837  40.801  1.00  0.00    -0.206 F 
ATOM     76  C   UNL A   1      37.656  33.662  40.162  1.00  0.00     0.059 A 
ATOM     77  C   UNL A   1      38.761  32.502  38.386  1.00  0.00     0.059 A 
ATOM     78  F   UNL A   1      40.628  33.302  37.444  1.00  0.00    -0.206 F 
ATOM     79  C   UNL A   1      37.791  32.528  39.352  1.00  0.00     0.060 A 
BRANCH  79  80
ATOM     80  S   UNL A   1      36.763  31.057  39.553  1.00  0.00     0.124 S 
ATOM     81  O   UNL A   1      37.323  30.461  40.761  1.00  0.00    -0.237 OA
ATOM     82  O   UNL A   1      35.424  31.620  39.674  1.00  0.00    -0.237 OA
ATOM     83  O   UNL A   1      37.003  30.300  38.324  1.00  0.00    -0.744 OA
ENDBRANCH  79  80
ENDBRANCH  58  72
BRANCH  59  84
ATOM     84  C   UNL A   1      46.576  42.884  35.929  1.00  0.00     0.058 A 
ATOM     85  C   UNL A   1      48.007  42.928  35.927  1.00  0.00     0.135 A 
ATOM     86  C   UNL A   1      46.034  43.299  34.715  1.00  0.00     0.135 A 
ATOM     87  F   UNL A   1      48.642  42.823  37.095  1.00  0.00    -0.206 F 
ATOM     88  C   UNL A   1      48.833  43.090  34.796  1.00  0.00     0.059 A 
ATOM     89  C   UNL A   1      46.844  43.573  33.561  1.00  0.00     0.059 A 
ATOM     90  F   UNL A   1      44.704  43.390  34.579  1.00  0.00    -0.206 F 
ATOM     91  C   UNL A   1      48.240  43.397  33.589  1.00  0.00     0.060 A 
BRANCH  91  92
ATOM     92  S   UNL A   1      49.262  43.414  32.064  1.00  0.00     0.124 S 
ATOM     93  O   UNL A   1      48.250  43.292  31.018  1.00  0.00    -0.237 OA
ATOM     94  O   UNL A   1      49.939  44.709  32.096  1.00  0.00    -0.237 OA
ATOM     95  O   UNL A   1      50.127  42.247  32.216  1.00  0.00    -0.744 OA
ENDBRANCH  91  92
ENDBRANCH  59  84
BRANCH  71  96
ATOM     96  C   UNL A   1      41.416  41.180  41.331  1.00  0.00     0.058 A 
ATOM     97  C   UNL A   1      40.096  41.647  41.177  1.00  0.00     0.135 A 
ATOM     98  C   UNL A   1      41.831  41.040  42.684  1.00  0.00     0.135 A 
ATOM     99  F   UNL A   1      39.521  41.813  39.978  1.00  0.00    -0.206 F 
ATOM    100  C   UNL A   1      39.262  41.923  42.256  1.00  0.00     0.059 A 
ATOM    101  C   UNL A   1      40.987  41.226  43.769  1.00  0.00     0.059 A 
ATOM    102  F   UNL A   1      43.070  40.675  43.033  1.00  0.00    -0.206 F 
ATOM    103  C   UNL A   1      39.699  41.664  43.545  1.00  0.00     0.060 A 
BRANCH 103 104
ATOM    104  S   UNL A   1      38.544  41.800  44.908  1.00  0.00     0.124 S 
ATOM    105  O   UNL A   1      37.797  42.996  44.534  1.00  0.00    -0.237 OA
ATOM    106  O   UNL A   1      37.812  40.540  44.821  1.00  0.00    -0.237 OA
ATOM    107  O   UNL A   1      39.414  41.929  46.073  1.00  0.00    -0.744 OA
ENDBRANCH 103 104
ENDBRANCH  71  96
ENDBRANCH  45  46
ENDBRANCH  38  40
ENDBRANCH  37  38
ENDBRANCH  36  37
ENDBRANCH  35  36
ENDBRANCH  34  35
ENDBRANCH  33  34
ENDBRANCH   1  33
TORSDOF 24
ENDMDL
MODEL 2
REMARK VINA RESULT:     -10.9      9.062     14.786
REMARK SMILES Cc1ccccc1[C@@H]1[NH2+][C@@H](C(=O)OCCOCCOCCOCCOC(=O)c2ccc(-c3c4nc(c(-c5c(F)cc(S(=O)(=O)[O-])cc5F)c5ccc([nH]5)c(-c5c(F)cc(S(=O)(=O)[O-])cc5F)c5nc(c(-c6c(F)cc(S(=O)(=O)[O-])cc6F)c6ccc3[nH]6)C=C5)C=C4)cc2)CC2=c3ccccc3=N[C@@H]21
REMARK SMILES IDX 20 1 19 2 18 3 17 4 16 5 15 6 14 7 13 8 11 9 12 10 10 11
REMARK SMILES IDX 8 12 9 13 103 14 95 17 102 18 94 19 96 20 101 21 97 22
REMARK SMILES IDX 100 23 98 24 99 25 7 26 1 27 2 28 3 29 4 30 6 31 5 32 21 33
REMARK SMILES IDX 22 34 23 35 24 36 25 37 26 38 27 39 28 40 29 41 93 42 30 43
REMARK SMILES IDX 92 44 31 45 32 46 33 47 86 48 34 49 91 50 85 51 87 52 35 53
REMARK SMILES IDX 90 54 84 55 83 56 36 58 70 59 49 60 69 61 50 62 53 63 68 64
REMARK SMILES IDX 88 65 51 66 52 67 67 69 89 70 54 71 37 72 38 73 47 74 39 75
REMARK SMILES IDX 40 76 46 77 48 78 41 79 42 80 43 81 44 82 45 83 71 84 72 85
REMARK SMILES IDX 81 86 73 87 74 88 80 89 82 90 75 91 76 92 77 93 78 94 79 95
REMARK SMILES IDX 55 96 56 97 65 98 57 99 58 100 64 101 66 102 59 103 60 104
REMARK SMILES IDX 61 105 62 106 63 107
REMARK H PARENT 9 15 9 16 87 57 53 68
REMARK Flexibility Score: inf
ROOT
ATOM      1  C   UNL A   1      46.528  32.562  30.806  1.00  0.00     0.188 C 
ENDROOT
BRANCH   1   2
ATOM      2  O   UNL A   1      45.518  33.262  31.557  1.00  0.00    -0.377 OA
BRANCH   2   3
ATOM      3  C   UNL A   1      45.057  34.598  31.138  1.00  0.00     0.188 C 
BRANCH   3   4
ATOM      4  C   UNL A   1      43.451  34.651  30.702  1.00  0.00     0.188 C 
BRANCH   4   5
ATOM      5  O   UNL A   1      42.059  33.617  30.920  1.00  0.00    -0.376 OA
BRANCH   5   6
ATOM      6  C   UNL A   1      40.251  33.950  31.035  1.00  0.00     0.202 C 
BRANCH   6   7
ATOM      7  C   UNL A   1      39.156  34.987  29.845  1.00  0.00     0.261 C 
BRANCH   7   8
ATOM      8  O   UNL A   1      37.640  34.298  29.033  1.00  0.00    -0.459 OA
BRANCH   8   9
ATOM      9  C   UNL A   1      36.845  32.921  28.558  1.00  0.00     0.365 C 
ATOM     10  O   UNL A   1      35.962  33.024  27.687  1.00  0.00    -0.245 OA
BRANCH   9  11
ATOM     11  C   UNL A   1      36.800  31.411  29.489  1.00  0.00     0.298 C 
ATOM     12  C   UNL A   1      37.727  28.922  29.732  1.00  0.00     0.243 C 
ATOM     13  N   UNL A   1      37.180  30.073  28.882  1.00  0.00    -0.326 N 
ATOM     14  C   UNL A   1      37.174  29.095  31.261  1.00  0.00     0.196 C 
ATOM     15  H   UNL A   1      36.340  29.717  28.425  1.00  0.00     0.347 HD
ATOM     16  H   UNL A   1      37.989  30.320  28.310  1.00  0.00     0.347 HD
ATOM     17  C   UNL A   1      36.341  30.372  31.573  1.00  0.00    -0.024 C 
ATOM     18  N   UNL A   1      38.189  29.085  32.341  1.00  0.00    -0.270 NA
ATOM     19  C   UNL A   1      35.639  31.139  30.454  1.00  0.00     0.111 C 
ATOM     20  C   UNL A   1      36.725  30.930  32.725  1.00  0.00     0.002 A 
ATOM     21  C   UNL A   1      37.858  30.074  33.124  1.00  0.00     0.066 A 
ATOM     22  C   UNL A   1      36.483  32.197  33.361  1.00  0.00     0.010 A 
ATOM     23  C   UNL A   1      38.561  30.502  34.368  1.00  0.00     0.028 A 
ATOM     24  C   UNL A   1      37.231  32.558  34.419  1.00  0.00     0.001 A 
ATOM     25  C   UNL A   1      38.262  31.682  34.939  1.00  0.00     0.002 A 
BRANCH  12  26
ATOM     26  C   UNL A   1      39.180  28.131  29.186  1.00  0.00     0.015 A 
ATOM     27  C   UNL A   1      40.706  30.044  29.897  1.00  0.00     0.045 C 
ATOM     28  C   UNL A   1      40.463  28.699  29.325  1.00  0.00    -0.042 A 
ATOM     29  C   UNL A   1      41.695  27.987  29.010  1.00  0.00     0.004 A 
ATOM     30  C   UNL A   1      41.755  26.674  28.586  1.00  0.00     0.000 A 
ATOM     31  C   UNL A   1      39.378  26.770  28.760  1.00  0.00     0.010 A 
ATOM     32  C   UNL A   1      40.566  26.054  28.459  1.00  0.00     0.001 A 
ENDBRANCH  12  26
ENDBRANCH   9  11
ENDBRANCH   8   9
ENDBRANCH   7   8
ENDBRANCH   6   7
ENDBRANCH   5   6
ENDBRANCH   4   5
ENDBRANCH   3   4
ENDBRANCH   2   3
ENDBRANCH   1   2
BRANCH   1  33
ATOM     33  C   UNL A   1      46.727  32.992  29.341  1.00  0.00     0.188 C 
BRANCH  33  34
ATOM     34  O   UNL A   1      47.695  32.179  28.685  1.00  0.00    -0.376 OA
BRANCH  34  35
ATOM     35  C   UNL A   1      48.956  32.814  28.429  1.00  0.00     0.202 C 
BRANCH  35  36
ATOM     36  C   UNL A   1      49.536  32.726  26.992  1.00  0.00     0.261 C 
BRANCH  36  37
ATOM     37  O   UNL A   1      50.449  33.804  26.673  1.00  0.00    -0.460 OA
BRANCH  37  38
ATOM     38  C   UNL A   1      50.133  34.561  25.560  1.00  0.00     0.338 C 
ATOM     39  O   UNL A   1      50.693  34.434  24.477  1.00  0.00    -0.246 OA
BRANCH  38  40
ATOM     40  C   UNL A   1      49.172  35.662  25.914  1.00  0.00     0.060 A 
ATOM     41  C   UNL A   1      47.782  35.685  25.909  1.00  0.00     0.016 A 
ATOM     42  C   UNL A   1      49.750  36.884  25.975  1.00  0.00     0.016 A 
ATOM     43  C   UNL A   1      47.049  36.953  25.839  1.00  0.00     0.010 A 
ATOM     44  C   UNL A   1      49.032  38.025  25.622  1.00  0.00     0.010 A 
ATOM     45  C   UNL A   1      47.676  38.219  25.623  1.00  0.00    -0.014 A 
BRANCH  45  46
ATOM     46  C   UNL A   1      47.210  39.909  25.765  1.00  0.00     0.031 A 
ATOM     47  C   UNL A   1      46.585  40.852  24.097  1.00  0.00     0.074 A 
ATOM     48  C   UNL A   1      47.575  40.578  27.155  1.00  0.00     0.049 A 
ATOM     49  N   UNL A   1      45.750  41.884  23.927  1.00  0.00    -0.248 NA
ATOM     50  C   UNL A   1      47.168  40.833  22.490  1.00  0.00     0.031 C 
ATOM     51  C   UNL A   1      47.242  42.038  27.847  1.00  0.00     0.029 A 
ATOM     52  N   UNL A   1      48.042  40.112  28.391  1.00  0.00    -0.354 N 
ATOM     53  C   UNL A   1      46.120  42.693  22.864  1.00  0.00     0.074 A 
ATOM     54  C   UNL A   1      47.057  42.046  22.022  1.00  0.00     0.031 C 
ATOM     55  C   UNL A   1      47.453  42.098  29.163  1.00  0.00     0.029 A 
ATOM     56  C   UNL A   1      48.315  41.011  29.420  1.00  0.00     0.049 A 
ATOM     57  H   UNL A   1      48.179  39.147  28.533  1.00  0.00     0.167 HD
ATOM     58  C   UNL A   1      46.055  44.035  22.784  1.00  0.00     0.037 A 
ATOM     59  C   UNL A   1      49.585  41.198  29.855  1.00  0.00     0.037 A 
ATOM     60  C   UNL A   1      46.320  44.668  24.088  1.00  0.00     0.049 A 
ATOM     61  C   UNL A   1      49.970  42.575  29.201  1.00  0.00     0.074 A 
ATOM     62  C   UNL A   1      45.489  45.013  25.133  1.00  0.00     0.029 A 
ATOM     63  N   UNL A   1      47.632  44.692  24.662  1.00  0.00    -0.354 N 
ATOM     64  N   UNL A   1      49.728  42.949  27.935  1.00  0.00    -0.248 NA
ATOM     65  C   UNL A   1      50.039  43.733  30.103  1.00  0.00     0.031 C 
ATOM     66  C   UNL A   1      46.271  45.097  26.338  1.00  0.00     0.029 A 
ATOM     67  C   UNL A   1      47.629  44.852  26.075  1.00  0.00     0.049 A 
ATOM     68  H   UNL A   1      48.456  44.607  24.130  1.00  0.00     0.167 HD
ATOM     69  C   UNL A   1      49.439  44.333  27.891  1.00  0.00     0.074 A 
ATOM     70  C   UNL A   1      49.652  44.735  29.296  1.00  0.00     0.031 C 
ATOM     71  C   UNL A   1      48.849  45.164  26.924  1.00  0.00     0.037 A 
BRANCH  58  72
ATOM     72  C   UNL A   1      45.381  44.431  21.435  1.00  0.00     0.058 A 
ATOM     73  C   UNL A   1      45.956  45.298  20.501  1.00  0.00     0.135 A 
ATOM     74  C   UNL A   1      44.042  44.020  21.060  1.00  0.00     0.135 A 
ATOM     75  F   UNL A   1      47.158  45.842  20.739  1.00  0.00    -0.206 F 
ATOM     76  C   UNL A   1      45.287  45.686  19.308  1.00  0.00     0.059 A 
ATOM     77  C   UNL A   1      43.407  44.317  19.864  1.00  0.00     0.059 A 
ATOM     78  F   UNL A   1      43.212  43.350  21.873  1.00  0.00    -0.206 F 
ATOM     79  C   UNL A   1      44.021  45.178  18.993  1.00  0.00     0.060 A 
BRANCH  79  80
ATOM     80  S   UNL A   1      43.125  45.645  17.498  1.00  0.00     0.124 S 
ATOM     81  O   UNL A   1      44.138  46.392  16.760  1.00  0.00    -0.237 OA
ATOM     82  O   UNL A   1      42.745  44.353  16.939  1.00  0.00    -0.237 OA
ATOM     83  O   UNL A   1      42.011  46.448  18.001  1.00  0.00    -0.744 OA
ENDBRANCH  79  80
ENDBRANCH  58  72
BRANCH  59  84
ATOM     84  C   UNL A   1      50.213  39.920  30.414  1.00  0.00     0.058 A 
ATOM     85  C   UNL A   1      51.218  39.279  29.618  1.00  0.00     0.135 A 
ATOM     86  C   UNL A   1      50.105  39.354  31.682  1.00  0.00     0.135 A 
ATOM     87  F   UNL A   1      51.239  39.531  28.309  1.00  0.00    -0.206 F 
ATOM     88  C   UNL A   1      52.196  38.377  30.082  1.00  0.00     0.059 A 
ATOM     89  C   UNL A   1      51.021  38.358  32.164  1.00  0.00     0.059 A 
ATOM     90  F   UNL A   1      49.158  39.790  32.523  1.00  0.00    -0.206 F 
ATOM     91  C   UNL A   1      52.108  37.926  31.383  1.00  0.00     0.060 A 
BRANCH  91  92
ATOM     92  S   UNL A   1      53.474  36.915  32.078  1.00  0.00     0.124 S 
ATOM     93  O   UNL A   1      53.373  35.687  31.294  1.00  0.00    -0.237 OA
ATOM     94  O   UNL A   1      54.678  37.699  31.813  1.00  0.00    -0.237 OA
ATOM     95  O   UNL A   1      53.114  36.771  33.487  1.00  0.00    -0.744 OA
ENDBRANCH  91  92
ENDBRANCH  59  84
BRANCH  71  96
ATOM     96  C   UNL A   1      49.354  46.619  26.795  1.00  0.00     0.058 A 
ATOM     97  C   UNL A   1      50.354  47.037  25.894  1.00  0.00     0.135 A 
ATOM     98  C   UNL A   1      48.669  47.684  27.442  1.00  0.00     0.135 A 
ATOM     99  F   UNL A   1      51.083  46.178  25.171  1.00  0.00    -0.206 F 
ATOM    100  C   UNL A   1      50.628  48.378  25.640  1.00  0.00     0.059 A 
ATOM    101  C   UNL A   1      48.869  49.023  27.136  1.00  0.00     0.059 A 
ATOM    102  F   UNL A   1      47.736  47.488  28.380  1.00  0.00    -0.206 F 
ATOM    103  C   UNL A   1      49.849  49.361  26.229  1.00  0.00     0.060 A 
BRANCH 103 104
ATOM    104  S   UNL A   1      50.055  51.067  25.720  1.00  0.00     0.124 S 
ATOM    105  O   UNL A   1      48.930  51.705  26.392  1.00  0.00    -0.237 OA
ATOM    106  O   UNL A   1      51.378  51.390  26.248  1.00  0.00    -0.237 OA
ATOM    107  O   UNL A   1      49.973  50.995  24.265  1.00  0.00    -0.744 OA
ENDBRANCH 103 104
ENDBRANCH  71  96
ENDBRANCH  45  46
ENDBRANCH  38  40
ENDBRANCH  37  38
ENDBRANCH  36  37
ENDBRANCH  35  36
ENDBRANCH  34  35
ENDBRANCH  33  34
ENDBRANCH   1  33
TORSDOF 24
ENDMDL
MODEL 3
REMARK VINA RESULT:     -10.8      8.083     16.755
REMARK SMILES Cc1ccccc1[C@@H]1[NH2+][C@@H](C(=O)OCCOCCOCCOCCOC(=O)c2ccc(-c3c4nc(c(-c5c(F)cc(S(=O)(=O)[O-])cc5F)c5ccc([nH]5)c(-c5c(F)cc(S(=O)(=O)[O-])cc5F)c5nc(c(-c6c(F)cc(S(=O)(=O)[O-])cc6F)c6ccc3[nH]6)C=C5)C=C4)cc2)CC2=c3ccccc3=N[C@@H]21
REMARK SMILES IDX 20 1 19 2 18 3 17 4 16 5 15 6 14 7 13 8 11 9 12 10 10 11
REMARK SMILES IDX 8 12 9 13 103 14 95 17 102 18 94 19 96 20 101 21 97 22
REMARK SMILES IDX 100 23 98 24 99 25 7 26 1 27 2 28 3 29 4 30 6 31 5 32 21 33
REMARK SMILES IDX 22 34 23 35 24 36 25 37 26 38 27 39 28 40 29 41 93 42 30 43
REMARK SMILES IDX 92 44 31 45 32 46 33 47 86 48 34 49 91 50 85 51 87 52 35 53
REMARK SMILES IDX 90 54 84 55 83 56 36 58 70 59 49 60 69 61 50 62 53 63 68 64
REMARK SMILES IDX 88 65 51 66 52 67 67 69 89 70 54 71 37 72 38 73 47 74 39 75
REMARK SMILES IDX 40 76 46 77 48 78 41 79 42 80 43 81 44 82 45 83 71 84 72 85
REMARK SMILES IDX 81 86 73 87 74 88 80 89 82 90 75 91 76 92 77 93 78 94 79 95
REMARK SMILES IDX 55 96 56 97 65 98 57 99 58 100 64 101 66 102 59 103 60 104
REMARK SMILES IDX 61 105 62 106 63 107
REMARK H PARENT 9 15 9 16 87 57 53 68
REMARK Flexibility Score: inf
ROOT
ATOM      1  C   UNL A   1      45.176  36.376  34.714  1.00  0.00     0.188 C 
ENDROOT
BRANCH   1   2
ATOM      2  O   UNL A   1      46.186  36.398  35.741  1.00  0.00    -0.377 OA
BRANCH   2   3
ATOM      3  C   UNL A   1      46.705  37.676  36.261  1.00  0.00     0.188 C 
BRANCH   3   4
ATOM      4  C   UNL A   1      48.145  38.148  35.574  1.00  0.00     0.188 C 
BRANCH   4   5
ATOM      5  O   UNL A   1      48.940  37.903  34.037  1.00  0.00    -0.376 OA
BRANCH   5   6
ATOM      6  C   UNL A   1      49.577  36.405  33.175  1.00  0.00     0.202 C 
BRANCH   6   7
ATOM      7  C   UNL A   1      50.552  36.310  31.522  1.00  0.00     0.261 C 
BRANCH   7   8
ATOM      8  O   UNL A   1      49.720  36.403  29.870  1.00  0.00    -0.459 OA
BRANCH   8   9
ATOM      9  C   UNL A   1      48.343  36.836  29.051  1.00  0.00     0.365 C 
ATOM     10  O   UNL A   1      47.776  37.896  29.375  1.00  0.00    -0.245 OA
BRANCH   9  11
ATOM     11  C   UNL A   1      47.350  35.724  28.090  1.00  0.00     0.298 C 
ATOM     12  C   UNL A   1      46.569  33.201  27.715  1.00  0.00     0.243 C 
ATOM     13  N   UNL A   1      47.660  34.241  27.989  1.00  0.00    -0.326 N 
ATOM     14  C   UNL A   1      45.350  33.926  26.901  1.00  0.00     0.196 C 
ATOM     15  H   UNL A   1      48.344  34.143  27.239  1.00  0.00     0.347 HD
ATOM     16  H   UNL A   1      47.936  34.015  28.945  1.00  0.00     0.347 HD
ATOM     17  C   UNL A   1      45.467  35.460  26.668  1.00  0.00    -0.024 C 
ATOM     18  N   UNL A   1      43.989  33.776  27.468  1.00  0.00    -0.270 NA
ATOM     19  C   UNL A   1      46.827  36.155  26.714  1.00  0.00     0.111 C 
ATOM     20  C   UNL A   1      44.311  36.078  26.928  1.00  0.00     0.002 A 
ATOM     21  C   UNL A   1      43.466  34.969  27.409  1.00  0.00     0.066 A 
ATOM     22  C   UNL A   1      43.919  37.450  27.108  1.00  0.00     0.010 A 
ATOM     23  C   UNL A   1      42.101  35.368  27.858  1.00  0.00     0.028 A 
ATOM     24  C   UNL A   1      42.707  37.729  27.617  1.00  0.00     0.001 A 
ATOM     25  C   UNL A   1      41.781  36.670  27.968  1.00  0.00     0.002 A 
BRANCH  12  26
ATOM     26  C   UNL A   1      46.501  31.806  28.755  1.00  0.00     0.015 A 
ATOM     27  C   UNL A   1      48.329  30.553  27.497  1.00  0.00     0.045 C 
ATOM     28  C   UNL A   1      47.343  30.686  28.594  1.00  0.00    -0.042 A 
ATOM     29  C   UNL A   1      47.400  29.580  29.543  1.00  0.00     0.004 A 
ATOM     30  C   UNL A   1      46.680  29.520  30.720  1.00  0.00     0.000 A 
ATOM     31  C   UNL A   1      45.826  31.633  30.015  1.00  0.00     0.010 A 
ATOM     32  C   UNL A   1      45.875  30.573  30.959  1.00  0.00     0.001 A 
ENDBRANCH  12  26
ENDBRANCH   9  11
ENDBRANCH   8   9
ENDBRANCH   7   8
ENDBRANCH   6   7
ENDBRANCH   5   6
ENDBRANCH   4   5
ENDBRANCH   3   4
ENDBRANCH   2   3
ENDBRANCH   1   2
BRANCH   1  33
ATOM     33  C   UNL A   1      44.315  37.642  34.560  1.00  0.00     0.188 C 
BRANCH  33  34
ATOM     34  O   UNL A   1      42.940  37.373  34.818  1.00  0.00    -0.376 OA
BRANCH  34  35
ATOM     35  C   UNL A   1      42.634  36.012  35.152  1.00  0.00     0.202 C 
BRANCH  35  36
ATOM     36  C   UNL A   1      41.263  35.717  35.816  1.00  0.00     0.261 C 
BRANCH  36  37
ATOM     37  O   UNL A   1      41.006  34.304  36.002  1.00  0.00    -0.460 OA
BRANCH  37  38
ATOM     38  C   UNL A   1      39.693  33.898  35.854  1.00  0.00     0.338 C 
ATOM     39  O   UNL A   1      38.749  34.448  36.413  1.00  0.00    -0.246 OA
BRANCH  38  40
ATOM     40  C   UNL A   1      39.612  32.607  35.089  1.00  0.00     0.060 A 
ATOM     41  C   UNL A   1      38.879  31.452  35.338  1.00  0.00     0.016 A 
ATOM     42  C   UNL A   1      40.611  32.449  34.188  1.00  0.00     0.016 A 
ATOM     43  C   UNL A   1      39.275  30.166  34.755  1.00  0.00     0.010 A 
ATOM     44  C   UNL A   1      41.109  31.181  33.898  1.00  0.00     0.010 A 
ATOM     45  C   UNL A   1      40.491  29.966  34.033  1.00  0.00    -0.014 A 
BRANCH  45  46
ATOM     46  C   UNL A   1      41.153  28.723  32.979  1.00  0.00     0.031 A 
ATOM     47  C   UNL A   1      42.864  27.823  33.551  1.00  0.00     0.074 A 
ATOM     48  C   UNL A   1      40.456  28.623  31.559  1.00  0.00     0.049 A 
ATOM     49  N   UNL A   1      43.348  26.602  33.293  1.00  0.00    -0.248 NA
ATOM     50  C   UNL A   1      44.305  28.442  34.233  1.00  0.00     0.031 C 
ATOM     51  C   UNL A   1      40.580  27.574  30.291  1.00  0.00     0.029 A 
ATOM     52  N   UNL A   1      39.313  29.179  30.971  1.00  0.00    -0.354 N 
ATOM     53  C   UNL A   1      44.729  26.595  33.180  1.00  0.00     0.074 A 
ATOM     54  C   UNL A   1      45.298  27.780  33.706  1.00  0.00     0.031 C 
ATOM     55  C   UNL A   1      39.586  27.644  29.404  1.00  0.00     0.029 A 
ATOM     56  C   UNL A   1      39.009  28.910  29.638  1.00  0.00     0.049 A 
ATOM     57  H   UNL A   1      38.721  29.762  31.500  1.00  0.00     0.167 HD
ATOM     58  C   UNL A   1      45.484  25.885  32.322  1.00  0.00     0.037 A 
ATOM     59  C   UNL A   1      39.053  29.895  28.707  1.00  0.00     0.037 A 
ATOM     60  C   UNL A   1      44.816  25.722  31.019  1.00  0.00     0.049 A 
ATOM     61  C   UNL A   1      40.403  29.596  27.958  1.00  0.00     0.074 A 
ATOM     62  C   UNL A   1      43.946  24.764  30.541  1.00  0.00     0.029 A 
ATOM     63  N   UNL A   1      44.670  26.814  30.104  1.00  0.00    -0.354 N 
ATOM     64  N   UNL A   1      41.577  29.283  28.529  1.00  0.00    -0.248 NA
ATOM     65  C   UNL A   1      40.291  29.030  26.607  1.00  0.00     0.031 C 
ATOM     66  C   UNL A   1      43.191  25.326  29.453  1.00  0.00     0.029 A 
ATOM     67  C   UNL A   1      43.599  26.643  29.184  1.00  0.00     0.049 A 
ATOM     68  H   UNL A   1      45.255  27.606  30.111  1.00  0.00     0.167 HD
ATOM     69  C   UNL A   1      42.272  28.356  27.718  1.00  0.00     0.074 A 
ATOM     70  C   UNL A   1      41.386  28.254  26.540  1.00  0.00     0.031 C 
ATOM     71  C   UNL A   1      43.359  27.496  27.952  1.00  0.00     0.037 A 
BRANCH  58  72
ATOM     72  C   UNL A   1      46.635  25.191  33.113  1.00  0.00     0.058 A 
ATOM     73  C   UNL A   1      46.435  24.168  34.044  1.00  0.00     0.135 A 
ATOM     74  C   UNL A   1      48.021  25.610  33.038  1.00  0.00     0.135 A 
ATOM     75  F   UNL A   1      45.197  23.724  34.300  1.00  0.00    -0.206 F 
ATOM     76  C   UNL A   1      47.502  23.598  34.793  1.00  0.00     0.059 A 
ATOM     77  C   UNL A   1      49.087  25.013  33.694  1.00  0.00     0.059 A 
ATOM     78  F   UNL A   1      48.437  26.695  32.368  1.00  0.00    -0.206 F 
ATOM     79  C   UNL A   1      48.823  24.019  34.598  1.00  0.00     0.060 A 
BRANCH  79  80
ATOM     80  S   UNL A   1      50.212  23.336  35.528  1.00  0.00     0.124 S 
ATOM     81  O   UNL A   1      51.288  23.387  34.544  1.00  0.00    -0.237 OA
ATOM     82  O   UNL A   1      50.324  24.258  36.653  1.00  0.00    -0.237 OA
ATOM     83  O   UNL A   1      49.761  21.990  35.881  1.00  0.00    -0.744 OA
ENDBRANCH  79  80
ENDBRANCH  58  72
BRANCH  59  84
ATOM     84  C   UNL A   1      38.073  31.032  29.002  1.00  0.00     0.058 A 
ATOM     85  C   UNL A   1      36.675  30.742  28.882  1.00  0.00     0.135 A 
ATOM     86  C   UNL A   1      38.306  32.287  29.559  1.00  0.00     0.135 A 
ATOM     87  F   UNL A   1      36.309  29.708  28.124  1.00  0.00    -0.206 F 
ATOM     88  C   UNL A   1      35.623  31.462  29.482  1.00  0.00     0.059 A 
ATOM     89  C   UNL A   1      37.251  33.102  30.094  1.00  0.00     0.059 A 
ATOM     90  F   UNL A   1      39.561  32.741  29.667  1.00  0.00    -0.206 F 
ATOM     91  C   UNL A   1      35.919  32.651  30.117  1.00  0.00     0.060 A 
BRANCH  91  92
ATOM     92  S   UNL A   1      34.610  33.507  31.079  1.00  0.00     0.124 S 
ATOM     93  O   UNL A   1      33.671  33.902  30.032  1.00  0.00    -0.237 OA
ATOM     94  O   UNL A   1      34.100  32.483  31.988  1.00  0.00    -0.237 OA
ATOM     95  O   UNL A   1      35.319  34.615  31.714  1.00  0.00    -0.744 OA
ENDBRANCH  91  92
ENDBRANCH  59  84
BRANCH  71  96
ATOM     96  C   UNL A   1      44.349  27.230  26.794  1.00  0.00     0.058 A 
ATOM     97  C   UNL A   1      45.243  28.189  26.276  1.00  0.00     0.135 A 
ATOM     98  C   UNL A   1      44.572  25.908  26.321  1.00  0.00     0.135 A 
ATOM     99  F   UNL A   1      45.205  29.480  26.629  1.00  0.00    -0.206 F 
ATOM    100  C   UNL A   1      46.272  27.864  25.397  1.00  0.00     0.059 A 
ATOM    101  C   UNL A   1      45.644  25.552  25.516  1.00  0.00     0.059 A 
ATOM    102  F   UNL A   1      43.787  24.875  26.645  1.00  0.00    -0.206 F 
ATOM    103  C   UNL A   1      46.494  26.538  25.061  1.00  0.00     0.060 A 
BRANCH 103 104
ATOM    104  S   UNL A   1      47.955  26.103  24.120  1.00  0.00     0.124 S 
ATOM    105  O   UNL A   1      48.027  27.210  23.173  1.00  0.00    -0.237 OA
ATOM    106  O   UNL A   1      48.991  26.080  25.150  1.00  0.00    -0.237 OA
ATOM    107  O   UNL A   1      47.616  24.801  23.556  1.00  0.00    -0.744 OA
ENDBRANCH 103 104
ENDBRANCH  71  96
ENDBRANCH  45  46
ENDBRANCH  38  40
ENDBRANCH  37  38
ENDBRANCH  36  37
ENDBRANCH  35  36
ENDBRANCH  34  35
ENDBRANCH  33  34
ENDBRANCH   1  33
TORSDOF 24
ENDMDL
