MODEL 1
REMARK VINA RESULT:      -8.6      0.000      0.000
REMARK SMILES C[C@@H]1CCC[C@H](C)[N@H+]1Cc1cc2c(cc1Cl)C=C(C(=O)OCCOCCOCCOCCOC(=O)c1ccc(-c3c4nc(c(-c5c(F)cc(S(=O)(=O)[O-])cc5F)c5ccc([nH]5)c(-c5c(F)cc(S(=O)(=O)[O-])cc5F)c5nc(c(-c6c(F)cc(S(=O)(=O)[O-])cc6F)c6ccc3[nH]6)C=C5)C=C4)cc1)[C@@H](C(F)(F)F)O2
REMARK SMILES IDX 28 1 27 2 26 3 25 4 24 5 23 6 22 7 21 8 19 9 20 10 18 11
REMARK SMILES IDX 10 12 11 13 15 14 12 15 14 16 16 17 13 18 107 19 17 20
REMARK SMILES IDX 102 21 9 22 8 23 7 24 6 25 5 26 4 27 2 28 3 30 1 31 103 32
REMARK SMILES IDX 104 33 105 34 106 35 29 36 30 37 31 38 32 39 33 40 34 41
REMARK SMILES IDX 35 42 36 43 37 44 101 45 38 46 100 47 39 48 40 49 41 50
REMARK SMILES IDX 94 51 42 52 99 53 93 54 95 55 43 56 98 57 92 58 91 59 44 61
REMARK SMILES IDX 78 62 57 63 77 64 58 65 61 66 76 67 96 68 59 69 60 70 75 72
REMARK SMILES IDX 97 73 62 74 45 75 46 76 55 77 47 78 48 79 54 80 56 81 49 82
REMARK SMILES IDX 50 83 51 84 52 85 53 86 79 87 80 88 89 89 81 90 82 91 88 92
REMARK SMILES IDX 90 93 83 94 84 95 85 96 86 97 87 98 63 99 64 100 73 101
REMARK SMILES IDX 65 102 66 103 72 104 74 105 67 106 68 107 69 108 70 109
REMARK SMILES IDX 71 110
REMARK H PARENT 8 29 95 60 61 71
REMARK Flexibility Score: inf
ROOT
ATOM      1  C   UNL A   1      38.584  32.069  36.348  1.00  0.00     0.188 C 
ENDROOT
BRANCH   1   2
ATOM      2  O   UNL A   1      38.934  30.686  36.291  1.00  0.00    -0.377 OA
BRANCH   2   3
ATOM      3  C   UNL A   1      39.798  30.251  35.255  1.00  0.00     0.188 C 
BRANCH   3   4
ATOM      4  C   UNL A   1      41.266  30.120  35.693  1.00  0.00     0.188 C 
BRANCH   4   5
ATOM      5  O   UNL A   1      41.484  29.073  36.633  1.00  0.00    -0.376 OA
BRANCH   5   6
ATOM      6  C   UNL A   1      42.278  27.967  36.223  1.00  0.00     0.202 C 
BRANCH   6   7
ATOM      7  C   UNL A   1      41.660  26.953  35.242  1.00  0.00     0.261 C 
BRANCH   7   8
ATOM      8  O   UNL A   1      42.501  25.843  34.891  1.00  0.00    -0.460 OA
BRANCH   8   9
ATOM      9  C   UNL A   1      43.438  26.061  33.953  1.00  0.00     0.338 C 
ATOM     10  O   UNL A   1      43.428  26.940  33.107  1.00  0.00    -0.246 OA
BRANCH   9  11
ATOM     11  C   UNL A   1      44.590  25.169  34.209  1.00  0.00     0.087 C 
ATOM     12  C   UNL A   1      47.575  21.167  34.919  1.00  0.00     0.029 A 
ATOM     13  C   UNL A   1      47.799  22.557  34.800  1.00  0.00     0.058 A 
ATOM     14  C   UNL A   1      46.242  20.721  34.919  1.00  0.00     0.050 A 
ATOM     15  C   UNL A   1      46.739  23.447  34.586  1.00  0.00     0.128 A 
ATOM     16  C   UNL A   1      45.196  21.600  34.631  1.00  0.00     0.033 A 
ATOM     17  Cl  UNL A   1      45.782  19.100  35.304  1.00  0.00    -0.084 Cl
ATOM     18  C   UNL A   1      45.443  22.958  34.448  1.00  0.00     0.019 A 
ATOM     19  O   UNL A   1      47.044  24.776  34.479  1.00  0.00    -0.475 OA
ATOM     20  C   UNL A   1      44.350  23.855  34.133  1.00  0.00     0.027 C 
ATOM     21  C   UNL A   1      45.946  25.742  34.541  1.00  0.00     0.316 C 
BRANCH  12  22
ATOM     22  C   UNL A   1      48.762  20.225  35.025  1.00  0.00     0.301 C 
BRANCH  22  23
ATOM     23  N   UNL A   1      50.056  20.791  35.477  1.00  0.00    -0.327 N 
ATOM     24  C   UNL A   1      51.818  22.300  34.612  1.00  0.00     0.075 C 
ATOM     25  C   UNL A   1      51.057  20.979  34.416  1.00  0.00     0.181 C 
ATOM     26  C   UNL A   1      52.040  19.808  34.269  1.00  0.00     0.065 C 
ATOM     27  C   UNL A   1      52.633  19.353  35.595  1.00  0.00     0.012 C 
ATOM     28  C   UNL A   1      50.550  20.267  36.760  1.00  0.00     0.181 C 
ATOM     29  H   UNL A   1      49.828  21.754  35.722  1.00  0.00     0.348 HD
ATOM     30  C   UNL A   1      51.539  19.097  36.623  1.00  0.00     0.065 C 
ATOM     31  C   UNL A   1      51.135  21.372  37.654  1.00  0.00     0.075 C 
ENDBRANCH  22  23
ENDBRANCH  12  22
BRANCH  21  32
ATOM     32  C   UNL A   1      45.921  26.436  35.909  1.00  0.00     0.430 C 
ATOM     33  F   UNL A   1      45.792  27.776  35.785  1.00  0.00    -0.167 F 
ATOM     34  F   UNL A   1      44.887  26.000  36.664  1.00  0.00    -0.167 F 
ATOM     35  F   UNL A   1      47.057  26.199  36.607  1.00  0.00    -0.167 F 
ENDBRANCH  21  32
ENDBRANCH   9  11
ENDBRANCH   8   9
ENDBRANCH   7   8
ENDBRANCH   6   7
ENDBRANCH   5   6
ENDBRANCH   4   5
ENDBRANCH   3   4
ENDBRANCH   2   3
ENDBRANCH   1   2
BRANCH   1  36
ATOM     36  C   UNL A   1      37.479  32.685  35.457  1.00  0.00     0.188 C 
BRANCH  36  37
ATOM     37  O   UNL A   1      37.923  33.081  34.162  1.00  0.00    -0.376 OA
BRANCH  37  38
ATOM     38  C   UNL A   1      36.916  33.314  33.188  1.00  0.00     0.202 C 
BRANCH  38  39
ATOM     39  C   UNL A   1      36.083  32.073  32.845  1.00  0.00     0.261 C 
BRANCH  39  40
ATOM     40  O   UNL A   1      36.787  31.044  32.135  1.00  0.00    -0.460 OA
BRANCH  40  41
ATOM     41  C   UNL A   1      36.715  31.046  30.784  1.00  0.00     0.338 C 
ATOM     42  O   UNL A   1      35.852  31.563  30.096  1.00  0.00    -0.246 OA
BRANCH  41  43
ATOM     43  C   UNL A   1      37.984  30.486  30.275  1.00  0.00     0.060 A 
ATOM     44  C   UNL A   1      38.152  30.253  28.907  1.00  0.00     0.016 A 
ATOM     45  C   UNL A   1      39.000  30.154  31.181  1.00  0.00     0.016 A 
ATOM     46  C   UNL A   1      39.354  29.718  28.442  1.00  0.00     0.010 A 
ATOM     47  C   UNL A   1      40.200  29.612  30.713  1.00  0.00     0.010 A 
ATOM     48  C   UNL A   1      40.394  29.416  29.339  1.00  0.00    -0.014 A 
BRANCH  48  49
ATOM     49  C   UNL A   1      41.740  29.086  28.806  1.00  0.00     0.031 A 
ATOM     50  C   UNL A   1      42.839  30.100  28.723  1.00  0.00     0.074 A 
ATOM     51  C   UNL A   1      41.950  27.819  28.401  1.00  0.00     0.049 A 
ATOM     52  N   UNL A   1      44.087  29.922  28.369  1.00  0.00    -0.248 NA
ATOM     53  C   UNL A   1      42.504  31.486  29.075  1.00  0.00     0.031 C 
ATOM     54  C   UNL A   1      40.938  26.758  28.412  1.00  0.00     0.029 A 
ATOM     55  N   UNL A   1      43.074  27.202  27.917  1.00  0.00    -0.354 N 
ATOM     56  C   UNL A   1      44.697  31.165  28.479  1.00  0.00     0.074 A 
ATOM     57  C   UNL A   1      43.668  32.100  28.888  1.00  0.00     0.031 C 
ATOM     58  C   UNL A   1      41.495  25.617  27.982  1.00  0.00     0.029 A 
ATOM     59  C   UNL A   1      42.893  25.866  27.645  1.00  0.00     0.049 A 
ATOM     60  H   UNL A   1      43.928  27.670  27.776  1.00  0.00     0.167 HD
ATOM     61  C   UNL A   1      45.999  31.483  28.275  1.00  0.00     0.037 A 
ATOM     62  C   UNL A   1      43.757  24.942  27.184  1.00  0.00     0.037 A 
ATOM     63  C   UNL A   1      47.011  30.544  27.853  1.00  0.00     0.049 A 
ATOM     64  C   UNL A   1      45.181  25.336  26.921  1.00  0.00     0.074 A 
ATOM     65  C   UNL A   1      48.363  30.768  27.660  1.00  0.00     0.029 A 
ATOM     66  N   UNL A   1      46.783  29.209  27.546  1.00  0.00    -0.354 N 
ATOM     67  N   UNL A   1      45.761  26.499  27.107  1.00  0.00    -0.248 NA
ATOM     68  C   UNL A   1      46.073  24.296  26.392  1.00  0.00     0.031 C 
ATOM     69  C   UNL A   1      48.943  29.586  27.189  1.00  0.00     0.029 A 
ATOM     70  C   UNL A   1      47.962  28.608  27.136  1.00  0.00     0.049 A 
ATOM     71  H   UNL A   1      45.910  28.757  27.609  1.00  0.00     0.167 HD
ATOM     72  C   UNL A   1      47.088  26.324  26.735  1.00  0.00     0.074 A 
ATOM     73  C   UNL A   1      47.231  24.941  26.330  1.00  0.00     0.031 C 
ATOM     74  C   UNL A   1      48.095  27.230  26.732  1.00  0.00     0.037 A 
BRANCH  61  75
ATOM     75  C   UNL A   1      46.430  32.903  28.523  1.00  0.00     0.058 A 
ATOM     76  C   UNL A   1      46.330  33.879  27.519  1.00  0.00     0.135 A 
ATOM     77  C   UNL A   1      46.844  33.319  29.800  1.00  0.00     0.135 A 
ATOM     78  F   UNL A   1      45.947  33.536  26.280  1.00  0.00    -0.206 F 
ATOM     79  C   UNL A   1      46.631  35.214  27.769  1.00  0.00     0.059 A 
ATOM     80  C   UNL A   1      47.128  34.653  30.078  1.00  0.00     0.059 A 
ATOM     81  F   UNL A   1      46.953  32.428  30.798  1.00  0.00    -0.206 F 
ATOM     82  C   UNL A   1      47.024  35.594  29.054  1.00  0.00     0.060 A 
BRANCH  82  83
ATOM     83  S   UNL A   1      47.377  37.336  29.364  1.00  0.00     0.124 S 
ATOM     84  O   UNL A   1      48.832  37.364  29.244  1.00  0.00    -0.237 OA
ATOM     85  O   UNL A   1      46.640  37.999  28.294  1.00  0.00    -0.237 OA
ATOM     86  O   UNL A   1      46.858  37.556  30.711  1.00  0.00    -0.744 OA
ENDBRANCH  82  83
ENDBRANCH  61  75
BRANCH  62  87
ATOM     87  C   UNL A   1      43.296  23.545  26.976  1.00  0.00     0.058 A 
ATOM     88  C   UNL A   1      43.142  22.670  28.061  1.00  0.00     0.135 A 
ATOM     89  C   UNL A   1      42.978  23.066  25.696  1.00  0.00     0.135 A 
ATOM     90  F   UNL A   1      43.436  23.084  29.303  1.00  0.00    -0.206 F 
ATOM     91  C   UNL A   1      42.703  21.364  27.884  1.00  0.00     0.059 A 
ATOM     92  C   UNL A   1      42.513  21.771  25.495  1.00  0.00     0.059 A 
ATOM     93  F   UNL A   1      43.090  23.872  24.628  1.00  0.00    -0.206 F 
ATOM     94  C   UNL A   1      42.388  20.923  26.596  1.00  0.00     0.060 A 
BRANCH  94  95
ATOM     95  S   UNL A   1      41.782  19.237  26.386  1.00  0.00     0.124 S 
ATOM     96  O   UNL A   1      41.824  18.738  27.754  1.00  0.00    -0.237 OA
ATOM     97  O   UNL A   1      40.452  19.459  25.827  1.00  0.00    -0.237 OA
ATOM     98  O   UNL A   1      42.750  18.644  25.467  1.00  0.00    -0.744 OA
ENDBRANCH  94  95
ENDBRANCH  62  87
BRANCH  74  99
ATOM     99  C   UNL A   1      49.452  26.761  26.280  1.00  0.00     0.058 A 
ATOM    100  C   UNL A   1      49.900  26.975  24.968  1.00  0.00     0.135 A 
ATOM    101  C   UNL A   1      50.340  26.161  27.187  1.00  0.00     0.135 A 
ATOM    102  F   UNL A   1      49.087  27.534  24.058  1.00  0.00    -0.206 F 
ATOM    103  C   UNL A   1      51.179  26.603  24.568  1.00  0.00     0.059 A 
ATOM    104  C   UNL A   1      51.633  25.805  26.816  1.00  0.00     0.059 A 
ATOM    105  F   UNL A   1      49.962  25.938  28.456  1.00  0.00    -0.206 F 
ATOM    106  C   UNL A   1      52.043  26.027  25.502  1.00  0.00     0.060 A 
BRANCH 106 107
ATOM    107  S   UNL A   1      53.720  25.607  24.982  1.00  0.00     0.124 S 
ATOM    108  O   UNL A   1      53.898  24.292  25.590  1.00  0.00    -0.237 OA
ATOM    109  O   UNL A   1      53.605  25.622  23.526  1.00  0.00    -0.237 OA
ATOM    110  O   UNL A   1      54.533  26.677  25.552  1.00  0.00    -0.744 OA
ENDBRANCH 106 107
ENDBRANCH  74  99
ENDBRANCH  48  49
ENDBRANCH  41  43
ENDBRANCH  40  41
ENDBRANCH  39  40
ENDBRANCH  38  39
ENDBRANCH  37  38
ENDBRANCH  36  37
ENDBRANCH   1  36
TORSDOF 26
ENDMDL
MODEL 2
REMARK VINA RESULT:      -8.4      6.609     13.348
REMARK SMILES C[C@@H]1CCC[C@H](C)[N@H+]1Cc1cc2c(cc1Cl)C=C(C(=O)OCCOCCOCCOCCOC(=O)c1ccc(-c3c4nc(c(-c5c(F)cc(S(=O)(=O)[O-])cc5F)c5ccc([nH]5)c(-c5c(F)cc(S(=O)(=O)[O-])cc5F)c5nc(c(-c6c(F)cc(S(=O)(=O)[O-])cc6F)c6ccc3[nH]6)C=C5)C=C4)cc1)[C@@H](C(F)(F)F)O2
REMARK SMILES IDX 28 1 27 2 26 3 25 4 24 5 23 6 22 7 21 8 19 9 20 10 18 11
REMARK SMILES IDX 10 12 11 13 15 14 12 15 14 16 16 17 13 18 107 19 17 20
REMARK SMILES IDX 102 21 9 22 8 23 7 24 6 25 5 26 4 27 2 28 3 30 1 31 103 32
REMARK SMILES IDX 104 33 105 34 106 35 29 36 30 37 31 38 32 39 33 40 34 41
REMARK SMILES IDX 35 42 36 43 37 44 101 45 38 46 100 47 39 48 40 49 41 50
REMARK SMILES IDX 94 51 42 52 99 53 93 54 95 55 43 56 98 57 92 58 91 59 44 61
REMARK SMILES IDX 78 62 57 63 77 64 58 65 61 66 76 67 96 68 59 69 60 70 75 72
REMARK SMILES IDX 97 73 62 74 45 75 46 76 55 77 47 78 48 79 54 80 56 81 49 82
REMARK SMILES IDX 50 83 51 84 52 85 53 86 79 87 80 88 89 89 81 90 82 91 88 92
REMARK SMILES IDX 90 93 83 94 84 95 85 96 86 97 87 98 63 99 64 100 73 101
REMARK SMILES IDX 65 102 66 103 72 104 74 105 67 106 68 107 69 108 70 109
REMARK SMILES IDX 71 110
REMARK H PARENT 8 29 95 60 61 71
REMARK Flexibility Score: inf
ROOT
ATOM      1  C   UNL A   1      38.840  22.358  26.095  1.00  0.00     0.188 C 
ENDROOT
BRANCH   1   2
ATOM      2  O   UNL A   1      37.900  22.175  25.036  1.00  0.00    -0.377 OA
BRANCH   2   3
ATOM      3  C   UNL A   1      36.875  21.210  25.202  1.00  0.00     0.188 C 
BRANCH   3   4
ATOM      4  C   UNL A   1      37.244  19.821  24.655  1.00  0.00     0.188 C 
BRANCH   4   5
ATOM      5  O   UNL A   1      36.556  18.758  25.306  1.00  0.00    -0.376 OA
BRANCH   5   6
ATOM      6  C   UNL A   1      35.917  17.782  24.491  1.00  0.00     0.202 C 
BRANCH   6   7
ATOM      7  C   UNL A   1      34.410  17.939  24.219  1.00  0.00     0.261 C 
BRANCH   7   8
ATOM      8  O   UNL A   1      33.904  19.281  24.306  1.00  0.00    -0.460 OA
BRANCH   8   9
ATOM      9  C   UNL A   1      32.756  19.458  24.981  1.00  0.00     0.338 C 
ATOM     10  O   UNL A   1      32.181  18.628  25.666  1.00  0.00    -0.246 OA
BRANCH   9  11
ATOM     11  C   UNL A   1      32.372  20.884  24.908  1.00  0.00     0.087 C 
ATOM     12  C   UNL A   1      31.373  25.578  23.356  1.00  0.00     0.029 A 
ATOM     13  C   UNL A   1      31.195  24.880  24.572  1.00  0.00     0.058 A 
ATOM     14  C   UNL A   1      32.034  24.905  22.313  1.00  0.00     0.050 A 
ATOM     15  C   UNL A   1      31.568  23.537  24.700  1.00  0.00     0.128 A 
ATOM     16  C   UNL A   1      32.336  23.546  22.419  1.00  0.00     0.033 A 
ATOM     17  Cl  UNL A   1      32.555  25.684  20.860  1.00  0.00    -0.084 Cl
ATOM     18  C   UNL A   1      32.090  22.858  23.603  1.00  0.00     0.019 A 
ATOM     19  O   UNL A   1      31.357  22.938  25.911  1.00  0.00    -0.475 OA
ATOM     20  C   UNL A   1      32.393  21.443  23.693  1.00  0.00     0.027 C 
ATOM     21  C   UNL A   1      31.990  21.641  26.157  1.00  0.00     0.316 C 
BRANCH  12  22
ATOM     22  C   UNL A   1      30.841  26.994  23.220  1.00  0.00     0.301 C 
BRANCH  22  23
ATOM     23  N   UNL A   1      31.667  28.098  23.763  1.00  0.00    -0.327 N 
ATOM     24  C   UNL A   1      33.804  29.238  23.246  1.00  0.00     0.075 C 
ATOM     25  C   UNL A   1      33.120  27.914  23.624  1.00  0.00     0.181 C 
ATOM     26  C   UNL A   1      33.793  27.294  24.858  1.00  0.00     0.065 C 
ATOM     27  C   UNL A   1      33.384  27.962  26.163  1.00  0.00     0.012 C 
ATOM     28  C   UNL A   1      31.196  28.658  25.040  1.00  0.00     0.181 C 
ATOM     29  H   UNL A   1      31.492  28.871  23.122  1.00  0.00     0.348 HD
ATOM     30  C   UNL A   1      31.867  28.046  26.281  1.00  0.00     0.065 C 
ATOM     31  C   UNL A   1      31.287  30.192  25.072  1.00  0.00     0.075 C 
ENDBRANCH  22  23
ENDBRANCH  12  22
BRANCH  21  32
ATOM     32  C   UNL A   1      33.202  21.805  27.084  1.00  0.00     0.430 C 
ATOM     33  F   UNL A   1      33.570  20.626  27.634  1.00  0.00    -0.167 F 
ATOM     34  F   UNL A   1      34.273  22.289  26.414  1.00  0.00    -0.167 F 
ATOM     35  F   UNL A   1      32.939  22.663  28.098  1.00  0.00    -0.167 F 
ENDBRANCH  21  32
ENDBRANCH   9  11
ENDBRANCH   8   9
ENDBRANCH   7   8
ENDBRANCH   6   7
ENDBRANCH   5   6
ENDBRANCH   4   5
ENDBRANCH   3   4
ENDBRANCH   2   3
ENDBRANCH   1   2
BRANCH   1  36
ATOM     36  C   UNL A   1      39.951  21.329  26.409  1.00  0.00     0.188 C 
BRANCH  36  37
ATOM     37  O   UNL A   1      41.226  21.906  26.679  1.00  0.00    -0.376 OA
BRANCH  37  38
ATOM     38  C   UNL A   1      41.284  22.854  27.735  1.00  0.00     0.202 C 
BRANCH  38  39
ATOM     39  C   UNL A   1      42.192  24.055  27.442  1.00  0.00     0.261 C 
BRANCH  39  40
ATOM     40  O   UNL A   1      43.548  23.728  27.109  1.00  0.00    -0.460 OA
BRANCH  40  41
ATOM     41  C   UNL A   1      44.478  23.819  28.087  1.00  0.00     0.338 C 
ATOM     42  O   UNL A   1      44.640  23.051  29.020  1.00  0.00    -0.246 OA
BRANCH  41  43
ATOM     43  C   UNL A   1      45.405  24.908  27.715  1.00  0.00     0.060 A 
ATOM     44  C   UNL A   1      45.520  25.309  26.381  1.00  0.00     0.016 A 
ATOM     45  C   UNL A   1      46.194  25.506  28.706  1.00  0.00     0.016 A 
ATOM     46  C   UNL A   1      46.404  26.335  26.044  1.00  0.00     0.010 A 
ATOM     47  C   UNL A   1      47.083  26.529  28.365  1.00  0.00     0.010 A 
ATOM     48  C   UNL A   1      47.173  26.968  27.036  1.00  0.00    -0.014 A 
BRANCH  48  49
ATOM     49  C   UNL A   1      47.913  28.210  26.700  1.00  0.00     0.031 A 
ATOM     50  C   UNL A   1      47.268  29.561  26.737  1.00  0.00     0.074 A 
ATOM     51  C   UNL A   1      49.212  28.084  26.364  1.00  0.00     0.049 A 
ATOM     52  N   UNL A   1      47.823  30.734  26.560  1.00  0.00    -0.248 NA
ATOM     53  C   UNL A   1      45.823  29.610  27.001  1.00  0.00     0.031 C 
ATOM     54  C   UNL A   1      49.931  26.810  26.269  1.00  0.00     0.029 A 
ATOM     55  N   UNL A   1      50.158  29.026  26.054  1.00  0.00    -0.354 N 
ATOM     56  C   UNL A   1      46.804  31.666  26.716  1.00  0.00     0.074 A 
ATOM     57  C   UNL A   1      45.587  30.917  26.955  1.00  0.00     0.031 C 
ATOM     58  C   UNL A   1      51.211  27.053  25.952  1.00  0.00     0.029 A 
ATOM     59  C   UNL A   1      51.399  28.492  25.800  1.00  0.00     0.049 A 
ATOM     60  H   UNL A   1      49.967  29.990  26.016  1.00  0.00     0.167 HD
ATOM     61  C   UNL A   1      46.890  33.018  26.681  1.00  0.00     0.037 A 
ATOM     62  C   UNL A   1      52.562  29.094  25.487  1.00  0.00     0.037 A 
ATOM     63  C   UNL A   1      48.108  33.751  26.427  1.00  0.00     0.049 A 
ATOM     64  C   UNL A   1      52.615  30.592  25.408  1.00  0.00     0.074 A 
ATOM     65  C   UNL A   1      48.298  35.122  26.411  1.00  0.00     0.029 A 
ATOM     66  N   UNL A   1      49.337  33.178  26.130  1.00  0.00    -0.354 N 
ATOM     67  N   UNL A   1      51.660  31.462  25.636  1.00  0.00    -0.248 NA
ATOM     68  C   UNL A   1      53.902  31.194  25.034  1.00  0.00     0.031 C 
ATOM     69  C   UNL A   1      49.626  35.380  26.058  1.00  0.00     0.029 A 
ATOM     70  C   UNL A   1      50.280  34.168  25.901  1.00  0.00     0.049 A 
ATOM     71  H   UNL A   1      49.513  32.210  26.088  1.00  0.00     0.167 HD
ATOM     72  C   UNL A   1      52.235  32.713  25.452  1.00  0.00     0.074 A 
ATOM     73  C   UNL A   1      53.625  32.489  25.110  1.00  0.00     0.031 C 
ATOM     74  C   UNL A   1      51.662  33.936  25.559  1.00  0.00     0.037 A 
BRANCH  61  75
ATOM     75  C   UNL A   1      45.642  33.816  26.943  1.00  0.00     0.058 A 
ATOM     76  C   UNL A   1      45.399  34.394  28.200  1.00  0.00     0.135 A 
ATOM     77  C   UNL A   1      44.735  34.097  25.908  1.00  0.00     0.135 A 
ATOM     78  F   UNL A   1      46.230  34.154  29.225  1.00  0.00    -0.206 F 
ATOM     79  C   UNL A   1      44.299  35.216  28.422  1.00  0.00     0.059 A 
ATOM     80  C   UNL A   1      43.640  34.935  26.102  1.00  0.00     0.059 A 
ATOM     81  F   UNL A   1      44.921  33.574  24.686  1.00  0.00    -0.206 F 
ATOM     82  C   UNL A   1      43.427  35.486  27.366  1.00  0.00     0.060 A 
BRANCH  82  83
ATOM     83  S   UNL A   1      42.025  36.582  27.668  1.00  0.00     0.124 S 
ATOM     84  O   UNL A   1      42.201  37.577  26.613  1.00  0.00    -0.237 OA
ATOM     85  O   UNL A   1      40.887  35.683  27.508  1.00  0.00    -0.237 OA
ATOM     86  O   UNL A   1      42.254  37.065  29.026  1.00  0.00    -0.744 OA
ENDBRANCH  82  83
ENDBRANCH  61  75
BRANCH  62  87
ATOM     87  C   UNL A   1      53.777  28.270  25.259  1.00  0.00     0.058 A 
ATOM     88  C   UNL A   1      54.640  27.954  26.318  1.00  0.00     0.135 A 
ATOM     89  C   UNL A   1      54.087  27.763  23.987  1.00  0.00     0.135 A 
ATOM     90  F   UNL A   1      54.386  28.417  27.551  1.00  0.00    -0.206 F 
ATOM     91  C   UNL A   1      55.775  27.176  26.123  1.00  0.00     0.059 A 
ATOM     92  C   UNL A   1      55.202  26.962  23.771  1.00  0.00     0.059 A 
ATOM     93  F   UNL A   1      53.280  28.022  22.945  1.00  0.00    -0.206 F 
ATOM     94  C   UNL A   1      56.047  26.682  24.845  1.00  0.00     0.060 A 
BRANCH  94  95
ATOM     95  S   UNL A   1      57.503  25.642  24.614  1.00  0.00     0.124 S 
ATOM     96  O   UNL A   1      58.433  26.221  25.576  1.00  0.00    -0.237 OA
ATOM     97  O   UNL A   1      56.986  24.317  24.944  1.00  0.00    -0.237 OA
ATOM     98  O   UNL A   1      57.841  25.844  23.208  1.00  0.00    -0.744 OA
ENDBRANCH  94  95
ENDBRANCH  62  87
BRANCH  74  99
ATOM     99  C   UNL A   1      52.532  35.138  25.308  1.00  0.00     0.058 A 
ATOM    100  C   UNL A   1      53.236  35.761  26.350  1.00  0.00     0.135 A 
ATOM    101  C   UNL A   1      52.724  35.623  24.005  1.00  0.00     0.135 A 
ATOM    102  F   UNL A   1      53.079  35.343  27.616  1.00  0.00    -0.206 F 
ATOM    103  C   UNL A   1      54.093  36.829  26.110  1.00  0.00     0.059 A 
ATOM    104  C   UNL A   1      53.598  36.673  23.737  1.00  0.00     0.059 A 
ATOM    105  F   UNL A   1      52.079  35.059  22.971  1.00  0.00    -0.206 F 
ATOM    106  C   UNL A   1      54.275  37.272  24.799  1.00  0.00     0.060 A 
BRANCH 106 107
ATOM    107  S   UNL A   1      55.440  38.619  24.498  1.00  0.00     0.124 S 
ATOM    108  O   UNL A   1      54.539  39.726  24.194  1.00  0.00    -0.237 OA
ATOM    109  O   UNL A   1      56.146  38.709  25.773  1.00  0.00    -0.237 OA
ATOM    110  O   UNL A   1      56.240  38.136  23.377  1.00  0.00    -0.744 OA
ENDBRANCH 106 107
ENDBRANCH  74  99
ENDBRANCH  48  49
ENDBRANCH  41  43
ENDBRANCH  40  41
ENDBRANCH  39  40
ENDBRANCH  38  39
ENDBRANCH  37  38
ENDBRANCH  36  37
ENDBRANCH   1  36
TORSDOF 26
ENDMDL
MODEL 3
REMARK VINA RESULT:      -8.2      2.310      8.157
REMARK SMILES C[C@@H]1CCC[C@H](C)[N@H+]1Cc1cc2c(cc1Cl)C=C(C(=O)OCCOCCOCCOCCOC(=O)c1ccc(-c3c4nc(c(-c5c(F)cc(S(=O)(=O)[O-])cc5F)c5ccc([nH]5)c(-c5c(F)cc(S(=O)(=O)[O-])cc5F)c5nc(c(-c6c(F)cc(S(=O)(=O)[O-])cc6F)c6ccc3[nH]6)C=C5)C=C4)cc1)[C@@H](C(F)(F)F)O2
REMARK SMILES IDX 28 1 27 2 26 3 25 4 24 5 23 6 22 7 21 8 19 9 20 10 18 11
REMARK SMILES IDX 10 12 11 13 15 14 12 15 14 16 16 17 13 18 107 19 17 20
REMARK SMILES IDX 102 21 9 22 8 23 7 24 6 25 5 26 4 27 2 28 3 30 1 31 103 32
REMARK SMILES IDX 104 33 105 34 106 35 29 36 30 37 31 38 32 39 33 40 34 41
REMARK SMILES IDX 35 42 36 43 37 44 101 45 38 46 100 47 39 48 40 49 41 50
REMARK SMILES IDX 94 51 42 52 99 53 93 54 95 55 43 56 98 57 92 58 91 59 44 61
REMARK SMILES IDX 78 62 57 63 77 64 58 65 61 66 76 67 96 68 59 69 60 70 75 72
REMARK SMILES IDX 97 73 62 74 45 75 46 76 55 77 47 78 48 79 54 80 56 81 49 82
REMARK SMILES IDX 50 83 51 84 52 85 53 86 79 87 80 88 89 89 81 90 82 91 88 92
REMARK SMILES IDX 90 93 83 94 84 95 85 96 86 97 87 98 63 99 64 100 73 101
REMARK SMILES IDX 65 102 66 103 72 104 74 105 67 106 68 107 69 108 70 109
REMARK SMILES IDX 71 110
REMARK H PARENT 8 29 95 60 61 71
REMARK Flexibility Score: inf
ROOT
ATOM      1  C   UNL A   1      38.460  32.400  36.521  1.00  0.00     0.188 C 
ENDROOT
BRANCH   1   2
ATOM      2  O   UNL A   1      38.734  30.999  36.523  1.00  0.00    -0.377 OA
BRANCH   2   3
ATOM      3  C   UNL A   1      39.165  30.394  35.316  1.00  0.00     0.188 C 
BRANCH   3   4
ATOM      4  C   UNL A   1      40.694  30.273  35.201  1.00  0.00     0.188 C 
BRANCH   4   5
ATOM      5  O   UNL A   1      41.280  29.508  36.249  1.00  0.00    -0.376 OA
BRANCH   5   6
ATOM      6  C   UNL A   1      42.341  28.623  35.913  1.00  0.00     0.202 C 
BRANCH   6   7
ATOM      7  C   UNL A   1      41.980  27.193  35.470  1.00  0.00     0.261 C 
BRANCH   7   8
ATOM      8  O   UNL A   1      42.908  26.576  34.565  1.00  0.00    -0.460 OA
BRANCH   8   9
ATOM      9  C   UNL A   1      42.974  27.080  33.321  1.00  0.00     0.338 C 
ATOM     10  O   UNL A   1      42.089  27.677  32.732  1.00  0.00    -0.246 OA
BRANCH   9  11
ATOM     11  C   UNL A   1      44.362  26.952  32.825  1.00  0.00     0.087 C 
ATOM     12  C   UNL A   1      49.144  25.540  32.069  1.00  0.00     0.029 A 
ATOM     13  C   UNL A   1      48.260  26.427  31.413  1.00  0.00     0.058 A 
ATOM     14  C   UNL A   1      48.688  24.923  33.247  1.00  0.00     0.050 A 
ATOM     15  C   UNL A   1      46.946  26.605  31.861  1.00  0.00     0.128 A 
ATOM     16  C   UNL A   1      47.356  25.044  33.647  1.00  0.00     0.033 A 
ATOM     17  Cl  UNL A   1      49.714  24.015  34.302  1.00  0.00    -0.084 Cl
ATOM     18  C   UNL A   1      46.481  25.870  32.947  1.00  0.00     0.019 A 
ATOM     19  O   UNL A   1      46.157  27.480  31.166  1.00  0.00    -0.475 OA
ATOM     20  C   UNL A   1      45.096  25.973  33.365  1.00  0.00     0.027 C 
ATOM     21  C   UNL A   1      44.890  27.895  31.772  1.00  0.00     0.316 C 
BRANCH  12  22
ATOM     22  C   UNL A   1      50.519  25.281  31.478  1.00  0.00     0.301 C 
BRANCH  22  23
ATOM     23  N   UNL A   1      51.581  26.283  31.735  1.00  0.00    -0.327 N 
ATOM     24  C   UNL A   1      53.166  26.876  33.543  1.00  0.00     0.075 C 
ATOM     25  C   UNL A   1      51.692  26.727  33.133  1.00  0.00     0.181 C 
ATOM     26  C   UNL A   1      50.913  28.014  33.444  1.00  0.00     0.065 C 
ATOM     27  C   UNL A   1      51.159  29.122  32.430  1.00  0.00     0.012 C 
ATOM     28  C   UNL A   1      51.719  27.323  30.704  1.00  0.00     0.181 C 
ATOM     29  H   UNL A   1      52.447  25.756  31.614  1.00  0.00     0.348 HD
ATOM     30  C   UNL A   1      50.947  28.617  31.008  1.00  0.00     0.065 C 
ATOM     31  C   UNL A   1      53.190  27.630  30.379  1.00  0.00     0.075 C 
ENDBRANCH  22  23
ENDBRANCH  12  22
BRANCH  21  32
ATOM     32  C   UNL A   1      45.006  29.320  32.329  1.00  0.00     0.430 C 
ATOM     33  F   UNL A   1      46.085  29.963  31.828  1.00  0.00    -0.167 F 
ATOM     34  F   UNL A   1      43.917  30.060  32.020  1.00  0.00    -0.167 F 
ATOM     35  F   UNL A   1      45.124  29.318  33.678  1.00  0.00    -0.167 F 
ENDBRANCH  21  32
ENDBRANCH   9  11
ENDBRANCH   8   9
ENDBRANCH   7   8
ENDBRANCH   6   7
ENDBRANCH   5   6
ENDBRANCH   4   5
ENDBRANCH   3   4
ENDBRANCH   2   3
ENDBRANCH   1   2
BRANCH   1  36
ATOM     36  C   UNL A   1      37.413  33.042  35.581  1.00  0.00     0.188 C 
BRANCH  36  37
ATOM     37  O   UNL A   1      37.867  33.239  34.244  1.00  0.00    -0.376 OA
BRANCH  37  38
ATOM     38  C   UNL A   1      36.896  33.664  33.298  1.00  0.00     0.202 C 
BRANCH  38  39
ATOM     39  C   UNL A   1      35.882  32.579  32.919  1.00  0.00     0.261 C 
BRANCH  39  40
ATOM     40  O   UNL A   1      36.436  31.421  32.278  1.00  0.00    -0.460 OA
BRANCH  40  41
ATOM     41  C   UNL A   1      36.388  31.363  30.928  1.00  0.00     0.338 C 
ATOM     42  O   UNL A   1      35.549  31.866  30.201  1.00  0.00    -0.246 OA
BRANCH  41  43
ATOM     43  C   UNL A   1      37.652  30.750  30.468  1.00  0.00     0.060 A 
ATOM     44  C   UNL A   1      37.942  30.677  29.103  1.00  0.00     0.016 A 
ATOM     45  C   UNL A   1      38.534  30.208  31.411  1.00  0.00     0.016 A 
ATOM     46  C   UNL A   1      39.137  30.090  28.684  1.00  0.00     0.010 A 
ATOM     47  C   UNL A   1      39.726  29.614  30.988  1.00  0.00     0.010 A 
ATOM     48  C   UNL A   1      40.048  29.576  29.624  1.00  0.00    -0.014 A 
BRANCH  48  49
ATOM     49  C   UNL A   1      41.409  29.186  29.180  1.00  0.00     0.031 A 
ATOM     50  C   UNL A   1      41.736  27.798  28.725  1.00  0.00     0.074 A 
ATOM     51  C   UNL A   1      42.358  30.142  29.186  1.00  0.00     0.049 A 
ATOM     52  N   UNL A   1      42.858  27.348  28.222  1.00  0.00    -0.248 NA
ATOM     53  C   UNL A   1      40.682  26.782  28.852  1.00  0.00     0.031 C 
ATOM     54  C   UNL A   1      42.153  31.522  29.637  1.00  0.00     0.029 A 
ATOM     55  N   UNL A   1      43.672  30.111  28.796  1.00  0.00    -0.354 N 
ATOM     56  C   UNL A   1      42.642  26.003  27.946  1.00  0.00     0.074 A 
ATOM     57  C   UNL A   1      41.293  25.700  28.383  1.00  0.00     0.031 C 
ATOM     58  C   UNL A   1      43.291  32.211  29.472  1.00  0.00     0.029 A 
ATOM     59  C   UNL A   1      44.311  31.321  28.925  1.00  0.00     0.049 A 
ATOM     60  H   UNL A   1      44.115  29.300  28.457  1.00  0.00     0.167 HD
ATOM     61  C   UNL A   1      43.487  25.118  27.363  1.00  0.00     0.037 A 
ATOM     62  C   UNL A   1      45.575  31.679  28.630  1.00  0.00     0.037 A 
ATOM     63  C   UNL A   1      44.833  25.432  26.946  1.00  0.00     0.049 A 
ATOM     64  C   UNL A   1      46.504  30.663  28.031  1.00  0.00     0.074 A 
ATOM     65  C   UNL A   1      45.749  24.609  26.311  1.00  0.00     0.029 A 
ATOM     66  N   UNL A   1      45.462  26.655  27.132  1.00  0.00    -0.354 N 
ATOM     67  N   UNL A   1      46.258  29.416  27.703  1.00  0.00    -0.248 NA
ATOM     68  C   UNL A   1      47.879  31.099  27.755  1.00  0.00     0.031 C 
ATOM     69  C   UNL A   1      46.945  25.317  26.158  1.00  0.00     0.029 A 
ATOM     70  C   UNL A   1      46.762  26.598  26.652  1.00  0.00     0.049 A 
ATOM     71  H   UNL A   1      45.047  27.446  27.545  1.00  0.00     0.167 HD
ATOM     72  C   UNL A   1      47.442  28.926  27.165  1.00  0.00     0.074 A 
ATOM     73  C   UNL A   1      48.399  30.013  27.196  1.00  0.00     0.031 C 
ATOM     74  C   UNL A   1      47.709  27.686  26.689  1.00  0.00     0.037 A 
BRANCH  61  75
ATOM     75  C   UNL A   1      42.990  23.720  27.113  1.00  0.00     0.058 A 
ATOM     76  C   UNL A   1      42.734  23.262  25.811  1.00  0.00     0.135 A 
ATOM     77  C   UNL A   1      42.870  22.799  28.167  1.00  0.00     0.135 A 
ATOM     78  F   UNL A   1      42.826  24.102  24.769  1.00  0.00    -0.206 F 
ATOM     79  C   UNL A   1      42.371  21.942  25.563  1.00  0.00     0.059 A 
ATOM     80  C   UNL A   1      42.531  21.467  27.939  1.00  0.00     0.059 A 
ATOM     81  F   UNL A   1      43.108  23.183  29.431  1.00  0.00    -0.206 F 
ATOM     82  C   UNL A   1      42.278  21.049  26.632  1.00  0.00     0.060 A 
BRANCH  82  83
ATOM     83  S   UNL A   1      41.839  19.334  26.284  1.00  0.00     0.124 S 
ATOM     84  O   UNL A   1      42.398  18.649  27.446  1.00  0.00    -0.237 OA
ATOM     85  O   UNL A   1      40.382  19.391  26.223  1.00  0.00    -0.237 OA
ATOM     86  O   UNL A   1      42.508  19.059  25.016  1.00  0.00    -0.744 OA
ENDBRANCH  82  83
ENDBRANCH  61  75
BRANCH  62  87
ATOM     87  C   UNL A   1      46.018  33.076  28.870  1.00  0.00     0.058 A 
ATOM     88  C   UNL A   1      46.632  33.438  30.078  1.00  0.00     0.135 A 
ATOM     89  C   UNL A   1      45.861  34.068  27.890  1.00  0.00     0.135 A 
ATOM     90  F   UNL A   1      46.802  32.524  31.044  1.00  0.00    -0.206 F 
ATOM     91  C   UNL A   1      47.061  34.739  30.313  1.00  0.00     0.059 A 
ATOM     92  C   UNL A   1      46.305  35.371  28.091  1.00  0.00     0.059 A 
ATOM     93  F   UNL A   1      45.297  33.766  26.709  1.00  0.00    -0.206 F 
ATOM     94  C   UNL A   1      46.895  35.699  29.312  1.00  0.00     0.060 A 
BRANCH  94  95
ATOM     95  S   UNL A   1      47.493  37.374  29.616  1.00  0.00     0.124 S 
ATOM     96  O   UNL A   1      46.642  37.792  30.723  1.00  0.00    -0.237 OA
ATOM     97  O   UNL A   1      48.897  37.142  29.941  1.00  0.00    -0.237 OA
ATOM     98  O   UNL A   1      47.254  38.052  28.344  1.00  0.00    -0.744 OA
ENDBRANCH  94  95
ENDBRANCH  62  87
BRANCH  74  99
ATOM     99  C   UNL A   1      49.091  27.428  26.154  1.00  0.00     0.058 A 
ATOM    100  C   UNL A   1      49.380  27.549  24.786  1.00  0.00     0.135 A 
ATOM    101  C   UNL A   1      50.152  27.132  27.025  1.00  0.00     0.135 A 
ATOM    102  F   UNL A   1      48.401  27.819  23.910  1.00  0.00    -0.206 F 
ATOM    103  C   UNL A   1      50.672  27.378  24.299  1.00  0.00     0.059 A 
ATOM    104  C   UNL A   1      51.457  26.983  26.563  1.00  0.00     0.059 A 
ATOM    105  F   UNL A   1      49.930  27.010  28.344  1.00  0.00    -0.206 F 
ATOM    106  C   UNL A   1      51.706  27.105  25.197  1.00  0.00     0.060 A 
BRANCH 106 107
ATOM    107  S   UNL A   1      53.386  26.947  24.554  1.00  0.00     0.124 S 
ATOM    108  O   UNL A   1      54.160  27.641  25.579  1.00  0.00    -0.237 OA
ATOM    109  O   UNL A   1      53.562  25.499  24.499  1.00  0.00    -0.237 OA
ATOM    110  O   UNL A   1      53.321  27.616  23.258  1.00  0.00    -0.744 OA
ENDBRANCH 106 107
ENDBRANCH  74  99
ENDBRANCH  48  49
ENDBRANCH  41  43
ENDBRANCH  40  41
ENDBRANCH  39  40
ENDBRANCH  38  39
ENDBRANCH  37  38
ENDBRANCH  36  37
ENDBRANCH   1  36
TORSDOF 26
ENDMDL
