MODEL 1
REMARK VINA RESULT:      -8.5      0.000      0.000
REMARK SMILES CC[NH+]1CCC2(CC1)OC[C@H](C(=O)OCCOCCOCCOCCOC(=O)c1ccc(-c3c4nc(c(-c5c(F)cc(S(=O)(=O)[O-])cc5F)c5ccc([nH]5)c(-c5c(F)cc(S(=O)(=O)[O-])cc5F)c5nc(c(-c6c(F)cc(S(=O)(=O)[O-])cc6F)c6ccc3[nH]6)C=C5)C=C4)cc1)N2C(=O)c1ccc(F)cc1
REMARK SMILES IDX 21 1 20 2 19 3 18 4 17 5 16 6 15 7 14 8 12 9 13 10 11 11
REMARK SMILES IDX 3 12 4 13 8 14 5 16 7 17 6 18 9 19 95 20 10 21 2 22 1 23
REMARK SMILES IDX 96 24 97 25 98 26 99 27 104 28 100 29 103 30 101 31 102 32
REMARK SMILES IDX 22 33 23 34 24 35 25 36 26 37 27 38 28 39 29 40 30 41 94 42
REMARK SMILES IDX 31 43 93 44 32 45 33 46 34 47 87 48 35 49 92 50 86 51 88 52
REMARK SMILES IDX 36 53 91 54 85 55 84 56 37 58 71 59 50 60 70 61 51 62 54 63
REMARK SMILES IDX 69 64 89 65 52 66 53 67 68 69 90 70 55 71 38 72 39 73 48 74
REMARK SMILES IDX 40 75 41 76 47 77 49 78 42 79 43 80 44 81 45 82 46 83 72 84
REMARK SMILES IDX 73 85 82 86 74 87 75 88 81 89 83 90 76 91 77 92 78 93 79 94
REMARK SMILES IDX 80 95 56 96 57 97 66 98 58 99 59 100 65 101 67 102 60 103
REMARK SMILES IDX 61 104 62 105 63 106 64 107
REMARK H PARENT 3 15 88 57 54 68
REMARK Flexibility Score: inf
ROOT
ATOM      1  C   UNL A   1      36.080  32.011  31.069  1.00  0.00     0.188 C 
ENDROOT
BRANCH   1   2
ATOM      2  O   UNL A   1      36.570  32.801  29.988  1.00  0.00    -0.377 OA
BRANCH   2   3
ATOM      3  C   UNL A   1      37.304  32.151  28.967  1.00  0.00     0.188 C 
BRANCH   3   4
ATOM      4  C   UNL A   1      36.719  30.787  28.557  1.00  0.00     0.188 C 
BRANCH   4   5
ATOM      5  O   UNL A   1      35.747  30.867  27.524  1.00  0.00    -0.376 OA
BRANCH   5   6
ATOM      6  C   UNL A   1      34.402  31.233  27.780  1.00  0.00     0.202 C 
BRANCH   6   7
ATOM      7  C   UNL A   1      33.185  30.452  27.232  1.00  0.00     0.261 C 
BRANCH   7   8
ATOM      8  O   UNL A   1      33.220  30.012  25.870  1.00  0.00    -0.462 OA
BRANCH   8   9
ATOM      9  C   UNL A   1      32.233  29.162  25.511  1.00  0.00     0.331 C 
ATOM     10  O   UNL A   1      31.376  28.755  26.287  1.00  0.00    -0.250 OA
BRANCH   9  11
ATOM     11  C   UNL A   1      32.277  28.884  24.005  1.00  0.00     0.224 C 
ATOM     12  N   UNL A   1      32.170  23.867  24.353  1.00  0.00    -0.335 N 
ATOM     13  C   UNL A   1      32.180  24.858  25.418  1.00  0.00     0.267 C 
ATOM     14  C   UNL A   1      32.406  24.305  22.977  1.00  0.00     0.267 C 
ATOM     15  H   UNL A   1      31.170  23.673  24.322  1.00  0.00     0.348 HD
ATOM     16  C   UNL A   1      33.200  25.928  25.186  1.00  0.00     0.120 C 
ATOM     17  C   UNL A   1      33.159  25.607  22.745  1.00  0.00     0.120 C 
ATOM     18  C   UNL A   1      32.964  26.633  23.846  1.00  0.00     0.155 C 
ATOM     19  O   UNL A   1      34.131  27.520  23.736  1.00  0.00    -0.352 OA
ATOM     20  N   UNL A   1      31.799  27.540  23.714  1.00  0.00    -0.293 N 
ATOM     21  C   UNL A   1      33.684  28.859  23.507  1.00  0.00     0.200 C 
BRANCH  12  22
ATOM     22  C   UNL A   1      32.838  22.618  24.685  1.00  0.00     0.258 C 
ATOM     23  C   UNL A   1      31.804  21.687  25.298  1.00  0.00     0.071 C 
ENDBRANCH  12  22
BRANCH  20  24
ATOM     24  C   UNL A   1      30.448  27.426  23.376  1.00  0.00     0.256 C 
ATOM     25  O   UNL A   1      29.830  26.364  23.487  1.00  0.00    -0.269 OA
BRANCH  24  26
ATOM     26  C   UNL A   1      29.604  28.532  22.902  1.00  0.00     0.040 A 
ATOM     27  C   UNL A   1      28.269  28.619  23.320  1.00  0.00     0.017 A 
ATOM     28  C   UNL A   1      30.073  29.395  21.904  1.00  0.00     0.017 A 
ATOM     29  C   UNL A   1      27.484  29.702  22.905  1.00  0.00     0.040 A 
ATOM     30  C   UNL A   1      29.300  30.491  21.511  1.00  0.00     0.040 A 
ATOM     31  C   UNL A   1      28.026  30.654  22.043  1.00  0.00     0.123 A 
ATOM     32  F   UNL A   1      27.309  31.738  21.720  1.00  0.00    -0.207 F 
ENDBRANCH  24  26
ENDBRANCH  20  24
ENDBRANCH   9  11
ENDBRANCH   8   9
ENDBRANCH   7   8
ENDBRANCH   6   7
ENDBRANCH   5   6
ENDBRANCH   4   5
ENDBRANCH   3   4
ENDBRANCH   2   3
ENDBRANCH   1   2
BRANCH   1  33
ATOM     33  C   UNL A   1      34.809  32.392  31.876  1.00  0.00     0.188 C 
BRANCH  33  34
ATOM     34  O   UNL A   1      34.179  33.604  31.492  1.00  0.00    -0.376 OA
BRANCH  34  35
ATOM     35  C   UNL A   1      34.537  34.810  32.137  1.00  0.00     0.202 C 
BRANCH  35  36
ATOM     36  C   UNL A   1      34.921  34.720  33.620  1.00  0.00     0.261 C 
BRANCH  36  37
ATOM     37  O   UNL A   1      36.280  35.056  33.932  1.00  0.00    -0.460 OA
BRANCH  37  38
ATOM     38  C   UNL A   1      37.027  34.092  34.512  1.00  0.00     0.338 C 
ATOM     39  O   UNL A   1      36.712  33.403  35.471  1.00  0.00    -0.246 OA
BRANCH  38  40
ATOM     40  C   UNL A   1      38.210  33.855  33.662  1.00  0.00     0.060 A 
ATOM     41  C   UNL A   1      39.201  32.975  34.119  1.00  0.00     0.016 A 
ATOM     42  C   UNL A   1      38.331  34.470  32.413  1.00  0.00     0.016 A 
ATOM     43  C   UNL A   1      40.334  32.739  33.346  1.00  0.00     0.010 A 
ATOM     44  C   UNL A   1      39.483  34.254  31.652  1.00  0.00     0.010 A 
ATOM     45  C   UNL A   1      40.505  33.417  32.132  1.00  0.00    -0.014 A 
BRANCH  45  46
ATOM     46  C   UNL A   1      41.835  33.391  31.477  1.00  0.00     0.031 A 
ATOM     47  C   UNL A   1      42.179  32.213  30.605  1.00  0.00     0.074 A 
ATOM     48  C   UNL A   1      42.694  34.418  31.602  1.00  0.00     0.049 A 
ATOM     49  N   UNL A   1      43.266  31.977  29.918  1.00  0.00    -0.248 NA
ATOM     50  C   UNL A   1      41.155  31.160  30.492  1.00  0.00     0.031 C 
ATOM     51  C   UNL A   1      42.455  35.628  32.385  1.00  0.00     0.029 A 
ATOM     52  N   UNL A   1      43.943  34.604  31.065  1.00  0.00    -0.354 N 
ATOM     53  C   UNL A   1      43.059  30.752  29.294  1.00  0.00     0.074 A 
ATOM     54  C   UNL A   1      41.758  30.277  29.711  1.00  0.00     0.031 C 
ATOM     55  C   UNL A   1      43.530  36.432  32.284  1.00  0.00     0.029 A 
ATOM     56  C   UNL A   1      44.540  35.780  31.453  1.00  0.00     0.049 A 
ATOM     57  H   UNL A   1      44.371  33.957  30.460  1.00  0.00     0.167 HD
ATOM     58  C   UNL A   1      43.875  30.089  28.440  1.00  0.00     0.037 A 
ATOM     59  C   UNL A   1      45.769  36.263  31.181  1.00  0.00     0.037 A 
ATOM     60  C   UNL A   1      45.172  30.566  28.034  1.00  0.00     0.049 A 
ATOM     61  C   UNL A   1      46.689  35.473  30.283  1.00  0.00     0.074 A 
ATOM     62  C   UNL A   1      46.071  29.977  27.162  1.00  0.00     0.029 A 
ATOM     63  N   UNL A   1      45.761  31.741  28.480  1.00  0.00    -0.354 N 
ATOM     64  N   UNL A   1      46.471  34.329  29.675  1.00  0.00    -0.248 NA
ATOM     65  C   UNL A   1      48.018  36.044  30.028  1.00  0.00     0.031 C 
ATOM     66  C   UNL A   1      47.228  30.763  27.129  1.00  0.00     0.029 A 
ATOM     67  C   UNL A   1      47.026  31.877  27.927  1.00  0.00     0.049 A 
ATOM     68  H   UNL A   1      45.344  32.382  29.099  1.00  0.00     0.167 HD
ATOM     69  C   UNL A   1      47.628  34.057  28.948  1.00  0.00     0.074 A 
ATOM     70  C   UNL A   1      48.529  35.167  29.173  1.00  0.00     0.031 C 
ATOM     71  C   UNL A   1      47.918  32.985  28.167  1.00  0.00     0.037 A 
BRANCH  58  72
ATOM     72  C   UNL A   1      43.403  28.761  27.914  1.00  0.00     0.058 A 
ATOM     73  C   UNL A   1      42.684  28.648  26.714  1.00  0.00     0.135 A 
ATOM     74  C   UNL A   1      43.704  27.576  28.607  1.00  0.00     0.135 A 
ATOM     75  F   UNL A   1      42.349  29.748  26.020  1.00  0.00    -0.206 F 
ATOM     76  C   UNL A   1      42.260  27.413  26.231  1.00  0.00     0.059 A 
ATOM     77  C   UNL A   1      43.318  26.329  28.128  1.00  0.00     0.059 A 
ATOM     78  F   UNL A   1      44.384  27.624  29.764  1.00  0.00    -0.206 F 
ATOM     79  C   UNL A   1      42.586  26.258  26.944  1.00  0.00     0.060 A 
BRANCH  79  80
ATOM     80  S   UNL A   1      42.042  24.663  26.297  1.00  0.00     0.124 S 
ATOM     81  O   UNL A   1      40.598  24.860  26.211  1.00  0.00    -0.237 OA
ATOM     82  O   UNL A   1      42.748  24.590  25.022  1.00  0.00    -0.237 OA
ATOM     83  O   UNL A   1      42.486  23.713  27.313  1.00  0.00    -0.744 OA
ENDBRANCH  79  80
ENDBRANCH  58  72
BRANCH  59  84
ATOM     84  C   UNL A   1      46.211  37.555  31.772  1.00  0.00     0.058 A 
ATOM     85  C   UNL A   1      46.009  38.772  31.104  1.00  0.00     0.135 A 
ATOM     86  C   UNL A   1      46.856  37.596  33.019  1.00  0.00     0.135 A 
ATOM     87  F   UNL A   1      45.412  38.787  29.904  1.00  0.00    -0.206 F 
ATOM     88  C   UNL A   1      46.443  39.981  31.642  1.00  0.00     0.059 A 
ATOM     89  C   UNL A   1      47.272  38.794  33.591  1.00  0.00     0.059 A 
ATOM     90  F   UNL A   1      47.070  36.462  33.704  1.00  0.00    -0.206 F 
ATOM     91  C   UNL A   1      47.069  39.982  32.889  1.00  0.00     0.060 A 
BRANCH  91  92
ATOM     92  S   UNL A   1      47.579  41.561  33.603  1.00  0.00     0.124 S 
ATOM     93  O   UNL A   1      46.292  42.189  33.875  1.00  0.00    -0.237 OA
ATOM     94  O   UNL A   1      48.343  41.134  34.771  1.00  0.00    -0.237 OA
ATOM     95  O   UNL A   1      48.366  42.172  32.536  1.00  0.00    -0.744 OA
ENDBRANCH  91  92
ENDBRANCH  59  84
BRANCH  71  96
ATOM     96  C   UNL A   1      49.259  32.977  27.478  1.00  0.00     0.058 A 
ATOM     97  C   UNL A   1      49.447  33.559  26.214  1.00  0.00     0.135 A 
ATOM     98  C   UNL A   1      50.376  32.393  28.099  1.00  0.00     0.135 A 
ATOM     99  F   UNL A   1      48.414  34.130  25.574  1.00  0.00    -0.206 F 
ATOM    100  C   UNL A   1      50.679  33.517  25.570  1.00  0.00     0.059 A 
ATOM    101  C   UNL A   1      51.626  32.373  27.489  1.00  0.00     0.059 A 
ATOM    102  F   UNL A   1      50.261  31.836  29.316  1.00  0.00    -0.206 F 
ATOM    103  C   UNL A   1      51.762  32.919  26.214  1.00  0.00     0.060 A 
BRANCH 103 104
ATOM    104  S   UNL A   1      53.354  32.865  25.363  1.00  0.00     0.124 S 
ATOM    105  O   UNL A   1      54.220  32.306  26.395  1.00  0.00    -0.237 OA
ATOM    106  O   UNL A   1      53.071  31.989  24.229  1.00  0.00    -0.237 OA
ATOM    107  O   UNL A   1      53.605  34.261  25.020  1.00  0.00    -0.744 OA
ENDBRANCH 103 104
ENDBRANCH  71  96
ENDBRANCH  45  46
ENDBRANCH  38  40
ENDBRANCH  37  38
ENDBRANCH  36  37
ENDBRANCH  35  36
ENDBRANCH  34  35
ENDBRANCH  33  34
ENDBRANCH   1  33
TORSDOF 26
ENDMDL
MODEL 2
REMARK VINA RESULT:      -8.4      1.608      7.946
REMARK SMILES CC[NH+]1CCC2(CC1)OC[C@H](C(=O)OCCOCCOCCOCCOC(=O)c1ccc(-c3c4nc(c(-c5c(F)cc(S(=O)(=O)[O-])cc5F)c5ccc([nH]5)c(-c5c(F)cc(S(=O)(=O)[O-])cc5F)c5nc(c(-c6c(F)cc(S(=O)(=O)[O-])cc6F)c6ccc3[nH]6)C=C5)C=C4)cc1)N2C(=O)c1ccc(F)cc1
REMARK SMILES IDX 21 1 20 2 19 3 18 4 17 5 16 6 15 7 14 8 12 9 13 10 11 11
REMARK SMILES IDX 3 12 4 13 8 14 5 16 7 17 6 18 9 19 95 20 10 21 2 22 1 23
REMARK SMILES IDX 96 24 97 25 98 26 99 27 104 28 100 29 103 30 101 31 102 32
REMARK SMILES IDX 22 33 23 34 24 35 25 36 26 37 27 38 28 39 29 40 30 41 94 42
REMARK SMILES IDX 31 43 93 44 32 45 33 46 34 47 87 48 35 49 92 50 86 51 88 52
REMARK SMILES IDX 36 53 91 54 85 55 84 56 37 58 71 59 50 60 70 61 51 62 54 63
REMARK SMILES IDX 69 64 89 65 52 66 53 67 68 69 90 70 55 71 38 72 39 73 48 74
REMARK SMILES IDX 40 75 41 76 47 77 49 78 42 79 43 80 44 81 45 82 46 83 72 84
REMARK SMILES IDX 73 85 82 86 74 87 75 88 81 89 83 90 76 91 77 92 78 93 79 94
REMARK SMILES IDX 80 95 56 96 57 97 66 98 58 99 59 100 65 101 67 102 60 103
REMARK SMILES IDX 61 104 62 105 63 106 64 107
REMARK H PARENT 3 15 88 57 54 68
REMARK Flexibility Score: inf
ROOT
ATOM      1  C   UNL A   1      36.149  32.017  30.974  1.00  0.00     0.188 C 
ENDROOT
BRANCH   1   2
ATOM      2  O   UNL A   1      36.668  32.698  29.833  1.00  0.00    -0.377 OA
BRANCH   2   3
ATOM      3  C   UNL A   1      37.433  31.953  28.904  1.00  0.00     0.188 C 
BRANCH   3   4
ATOM      4  C   UNL A   1      36.859  30.554  28.610  1.00  0.00     0.188 C 
BRANCH   4   5
ATOM      5  O   UNL A   1      35.946  30.526  27.523  1.00  0.00    -0.376 OA
BRANCH   5   6
ATOM      6  C   UNL A   1      34.641  31.072  27.619  1.00  0.00     0.202 C 
BRANCH   6   7
ATOM      7  C   UNL A   1      33.362  30.305  27.212  1.00  0.00     0.261 C 
BRANCH   7   8
ATOM      8  O   UNL A   1      33.451  29.358  26.142  1.00  0.00    -0.462 OA
BRANCH   8   9
ATOM      9  C   UNL A   1      32.309  28.692  25.862  1.00  0.00     0.331 C 
ATOM     10  O   UNL A   1      31.427  28.487  26.687  1.00  0.00    -0.250 OA
BRANCH   9  11
ATOM     11  C   UNL A   1      32.235  28.344  24.372  1.00  0.00     0.224 C 
ATOM     12  N   UNL A   1      31.349  23.430  24.983  1.00  0.00    -0.335 N 
ATOM     13  C   UNL A   1      31.568  24.453  25.994  1.00  0.00     0.267 C 
ATOM     14  C   UNL A   1      31.584  23.763  23.577  1.00  0.00     0.267 C 
ATOM     15  H   UNL A   1      30.330  23.399  25.003  1.00  0.00     0.348 HD
ATOM     16  C   UNL A   1      32.733  25.334  25.666  1.00  0.00     0.120 C 
ATOM     17  C   UNL A   1      32.523  24.915  23.247  1.00  0.00     0.120 C 
ATOM     18  C   UNL A   1      32.547  26.007  24.301  1.00  0.00     0.155 C 
ATOM     19  O   UNL A   1      33.834  26.689  24.098  1.00  0.00    -0.352 OA
ATOM     20  N   UNL A   1      31.536  27.083  24.170  1.00  0.00    -0.293 N 
ATOM     21  C   UNL A   1      33.595  28.070  23.819  1.00  0.00     0.200 C 
BRANCH  12  22
ATOM     22  C   UNL A   1      31.825  22.107  25.351  1.00  0.00     0.258 C 
ATOM     23  C   UNL A   1      32.589  21.541  24.163  1.00  0.00     0.071 C 
ENDBRANCH  12  22
BRANCH  20  24
ATOM     24  C   UNL A   1      30.169  27.174  23.894  1.00  0.00     0.256 C 
ATOM     25  O   UNL A   1      29.359  26.339  24.306  1.00  0.00    -0.269 OA
BRANCH  24  26
ATOM     26  C   UNL A   1      29.535  28.263  23.139  1.00  0.00     0.040 A 
ATOM     27  C   UNL A   1      30.315  29.083  22.310  1.00  0.00     0.017 A 
ATOM     28  C   UNL A   1      28.196  28.595  23.376  1.00  0.00     0.017 A 
ATOM     29  C   UNL A   1      29.697  30.088  21.555  1.00  0.00     0.040 A 
ATOM     30  C   UNL A   1      27.575  29.578  22.601  1.00  0.00     0.040 A 
ATOM     31  C   UNL A   1      28.324  30.291  21.673  1.00  0.00     0.123 A 
ATOM     32  F   UNL A   1      27.718  31.187  20.883  1.00  0.00    -0.207 F 
ENDBRANCH  24  26
ENDBRANCH  20  24
ENDBRANCH   9  11
ENDBRANCH   8   9
ENDBRANCH   7   8
ENDBRANCH   6   7
ENDBRANCH   5   6
ENDBRANCH   4   5
ENDBRANCH   3   4
ENDBRANCH   2   3
ENDBRANCH   1   2
BRANCH   1  33
ATOM     33  C   UNL A   1      34.780  32.377  31.612  1.00  0.00     0.188 C 
BRANCH  33  34
ATOM     34  O   UNL A   1      34.079  33.448  30.998  1.00  0.00    -0.376 OA
BRANCH  34  35
ATOM     35  C   UNL A   1      34.191  34.752  31.533  1.00  0.00     0.202 C 
BRANCH  35  36
ATOM     36  C   UNL A   1      34.124  34.887  33.060  1.00  0.00     0.261 C 
BRANCH  36  37
ATOM     37  O   UNL A   1      35.333  35.321  33.699  1.00  0.00    -0.460 OA
BRANCH  37  38
ATOM     38  C   UNL A   1      35.982  34.409  34.455  1.00  0.00     0.338 C 
ATOM     39  O   UNL A   1      35.534  33.811  35.422  1.00  0.00    -0.246 OA
BRANCH  38  40
ATOM     40  C   UNL A   1      37.261  34.089  33.791  1.00  0.00     0.060 A 
ATOM     41  C   UNL A   1      38.071  33.086  34.339  1.00  0.00     0.016 A 
ATOM     42  C   UNL A   1      37.647  34.750  32.621  1.00  0.00     0.016 A 
ATOM     43  C   UNL A   1      39.289  32.769  33.743  1.00  0.00     0.010 A 
ATOM     44  C   UNL A   1      38.882  34.450  32.040  1.00  0.00     0.010 A 
ATOM     45  C   UNL A   1      39.724  33.484  32.620  1.00  0.00    -0.014 A 
BRANCH  45  46
ATOM     46  C   UNL A   1      41.135  33.348  32.185  1.00  0.00     0.031 A 
ATOM     47  C   UNL A   1      42.146  34.323  32.726  1.00  0.00     0.074 A 
ATOM     48  C   UNL A   1      41.521  32.345  31.377  1.00  0.00     0.049 A 
ATOM     49  N   UNL A   1      43.432  34.393  32.506  1.00  0.00    -0.248 NA
ATOM     50  C   UNL A   1      41.634  35.358  33.640  1.00  0.00     0.031 C 
ATOM     51  C   UNL A   1      40.641  31.318  30.824  1.00  0.00     0.029 A 
ATOM     52  N   UNL A   1      42.762  32.026  30.885  1.00  0.00    -0.354 N 
ATOM     53  C   UNL A   1      43.884  35.476  33.251  1.00  0.00     0.074 A 
ATOM     54  C   UNL A   1      42.729  36.055  33.901  1.00  0.00     0.031 C 
ATOM     55  C   UNL A   1      41.370  30.484  30.060  1.00  0.00     0.029 A 
ATOM     56  C   UNL A   1      42.760  30.936  30.049  1.00  0.00     0.049 A 
ATOM     57  H   UNL A   1      43.576  32.532  31.109  1.00  0.00     0.167 HD
ATOM     58  C   UNL A   1      45.150  35.938  33.391  1.00  0.00     0.037 A 
ATOM     59  C   UNL A   1      43.765  30.379  29.343  1.00  0.00     0.037 A 
ATOM     60  C   UNL A   1      46.294  35.359  32.736  1.00  0.00     0.049 A 
ATOM     61  C   UNL A   1      45.154  30.955  29.459  1.00  0.00     0.074 A 
ATOM     62  C   UNL A   1      47.621  35.744  32.822  1.00  0.00     0.029 A 
ATOM     63  N   UNL A   1      46.248  34.281  31.863  1.00  0.00    -0.354 N 
ATOM     64  N   UNL A   1      45.574  31.962  30.190  1.00  0.00    -0.248 NA
ATOM     65  C   UNL A   1      46.207  30.312  28.661  1.00  0.00     0.031 C 
ATOM     66  C   UNL A   1      48.367  34.938  31.955  1.00  0.00     0.029 A 
ATOM     67  C   UNL A   1      47.518  34.008  31.378  1.00  0.00     0.049 A 
ATOM     68  H   UNL A   1      45.433  33.784  31.622  1.00  0.00     0.167 HD
ATOM     69  C   UNL A   1      46.944  32.057  29.956  1.00  0.00     0.074 A 
ATOM     70  C   UNL A   1      47.283  30.991  29.037  1.00  0.00     0.031 C 
ATOM     71  C   UNL A   1      47.840  32.947  30.454  1.00  0.00     0.037 A 
BRANCH  58  72
ATOM     72  C   UNL A   1      45.358  37.149  34.260  1.00  0.00     0.058 A 
ATOM     73  C   UNL A   1      45.697  37.041  35.619  1.00  0.00     0.135 A 
ATOM     74  C   UNL A   1      45.249  38.439  33.716  1.00  0.00     0.135 A 
ATOM     75  F   UNL A   1      45.794  35.833  36.198  1.00  0.00    -0.206 F 
ATOM     76  C   UNL A   1      45.897  38.167  36.412  1.00  0.00     0.059 A 
ATOM     77  C   UNL A   1      45.475  39.578  34.482  1.00  0.00     0.059 A 
ATOM     78  F   UNL A   1      44.921  38.603  32.425  1.00  0.00    -0.206 F 
ATOM     79  C   UNL A   1      45.788  39.433  35.833  1.00  0.00     0.060 A 
BRANCH  79  80
ATOM     80  S   UNL A   1      46.065  40.883  36.871  1.00  0.00     0.124 S 
ATOM     81  O   UNL A   1      44.842  40.909  37.668  1.00  0.00    -0.237 OA
ATOM     82  O   UNL A   1      47.282  40.520  37.590  1.00  0.00    -0.237 OA
ATOM     83  O   UNL A   1      46.209  41.970  35.908  1.00  0.00    -0.744 OA
ENDBRANCH  79  80
ENDBRANCH  58  72
BRANCH  59  84
ATOM     84  C   UNL A   1      43.496  29.217  28.451  1.00  0.00     0.058 A 
ATOM     85  C   UNL A   1      43.469  27.906  28.948  1.00  0.00     0.135 A 
ATOM     86  C   UNL A   1      43.269  29.398  27.077  1.00  0.00     0.135 A 
ATOM     87  F   UNL A   1      43.695  27.677  30.250  1.00  0.00    -0.206 F 
ATOM     88  C   UNL A   1      43.244  26.814  28.114  1.00  0.00     0.059 A 
ATOM     89  C   UNL A   1      43.011  28.327  26.229  1.00  0.00     0.059 A 
ATOM     90  F   UNL A   1      43.278  30.633  26.550  1.00  0.00    -0.206 F 
ATOM     91  C   UNL A   1      43.010  27.036  26.755  1.00  0.00     0.060 A 
BRANCH  91  92
ATOM     92  S   UNL A   1      42.663  25.617  25.693  1.00  0.00     0.124 S 
ATOM     93  O   UNL A   1      41.509  26.091  24.937  1.00  0.00    -0.237 OA
ATOM     94  O   UNL A   1      43.909  25.487  24.944  1.00  0.00    -0.237 OA
ATOM     95  O   UNL A   1      42.397  24.542  26.644  1.00  0.00    -0.744 OA
ENDBRANCH  91  92
ENDBRANCH  59  84
BRANCH  71  96
ATOM     96  C   UNL A   1      49.278  32.787  30.034  1.00  0.00     0.058 A 
ATOM     97  C   UNL A   1      50.170  31.961  30.737  1.00  0.00     0.135 A 
ATOM     98  C   UNL A   1      49.768  33.457  28.900  1.00  0.00     0.135 A 
ATOM     99  F   UNL A   1      49.757  31.297  31.829  1.00  0.00    -0.206 F 
ATOM    100  C   UNL A   1      51.505  31.845  30.364  1.00  0.00     0.059 A 
ATOM    101  C   UNL A   1      51.090  33.327  28.486  1.00  0.00     0.059 A 
ATOM    102  F   UNL A   1      48.958  34.247  28.177  1.00  0.00    -0.206 F 
ATOM    103  C   UNL A   1      51.957  32.534  29.238  1.00  0.00     0.060 A 
BRANCH 103 104
ATOM    104  S   UNL A   1      53.693  32.381  28.768  1.00  0.00     0.124 S 
ATOM    105  O   UNL A   1      53.827  33.449  27.783  1.00  0.00    -0.237 OA
ATOM    106  O   UNL A   1      54.380  32.600  30.038  1.00  0.00    -0.237 OA
ATOM    107  O   UNL A   1      53.785  31.024  28.239  1.00  0.00    -0.744 OA
ENDBRANCH 103 104
ENDBRANCH  71  96
ENDBRANCH  45  46
ENDBRANCH  38  40
ENDBRANCH  37  38
ENDBRANCH  36  37
ENDBRANCH  35  36
ENDBRANCH  34  35
ENDBRANCH  33  34
ENDBRANCH   1  33
TORSDOF 26
ENDMDL
MODEL 3
REMARK VINA RESULT:      -7.9     11.139     16.968
REMARK SMILES CC[NH+]1CCC2(CC1)OC[C@H](C(=O)OCCOCCOCCOCCOC(=O)c1ccc(-c3c4nc(c(-c5c(F)cc(S(=O)(=O)[O-])cc5F)c5ccc([nH]5)c(-c5c(F)cc(S(=O)(=O)[O-])cc5F)c5nc(c(-c6c(F)cc(S(=O)(=O)[O-])cc6F)c6ccc3[nH]6)C=C5)C=C4)cc1)N2C(=O)c1ccc(F)cc1
REMARK SMILES IDX 21 1 20 2 19 3 18 4 17 5 16 6 15 7 14 8 12 9 13 10 11 11
REMARK SMILES IDX 3 12 4 13 8 14 5 16 7 17 6 18 9 19 95 20 10 21 2 22 1 23
REMARK SMILES IDX 96 24 97 25 98 26 99 27 104 28 100 29 103 30 101 31 102 32
REMARK SMILES IDX 22 33 23 34 24 35 25 36 26 37 27 38 28 39 29 40 30 41 94 42
REMARK SMILES IDX 31 43 93 44 32 45 33 46 34 47 87 48 35 49 92 50 86 51 88 52
REMARK SMILES IDX 36 53 91 54 85 55 84 56 37 58 71 59 50 60 70 61 51 62 54 63
REMARK SMILES IDX 69 64 89 65 52 66 53 67 68 69 90 70 55 71 38 72 39 73 48 74
REMARK SMILES IDX 40 75 41 76 47 77 49 78 42 79 43 80 44 81 45 82 46 83 72 84
REMARK SMILES IDX 73 85 82 86 74 87 75 88 81 89 83 90 76 91 77 92 78 93 79 94
REMARK SMILES IDX 80 95 56 96 57 97 66 98 58 99 59 100 65 101 67 102 60 103
REMARK SMILES IDX 61 104 62 105 63 106 64 107
REMARK H PARENT 3 15 88 57 54 68
REMARK Flexibility Score: inf
ROOT
ATOM      1  C   UNL A   1      50.733  22.254  38.462  1.00  0.00     0.188 C 
ENDROOT
BRANCH   1   2
ATOM      2  O   UNL A   1      51.178  21.036  37.868  1.00  0.00    -0.377 OA
BRANCH   2   3
ATOM      3  C   UNL A   1      50.274  20.330  37.038  1.00  0.00     0.188 C 
BRANCH   3   4
ATOM      4  C   UNL A   1      49.069  19.742  37.796  1.00  0.00     0.188 C 
BRANCH   4   5
ATOM      5  O   UNL A   1      49.186  19.824  39.209  1.00  0.00    -0.376 OA
BRANCH   5   6
ATOM      6  C   UNL A   1      49.260  18.668  40.028  1.00  0.00     0.202 C 
BRANCH   6   7
ATOM      7  C   UNL A   1      48.019  17.908  40.548  1.00  0.00     0.261 C 
BRANCH   7   8
ATOM      8  O   UNL A   1      47.885  17.715  41.961  1.00  0.00    -0.462 OA
BRANCH   8   9
ATOM      9  C   UNL A   1      46.989  18.521  42.573  1.00  0.00     0.331 C 
ATOM     10  O   UNL A   1      46.670  19.624  42.144  1.00  0.00    -0.250 OA
BRANCH   9  11
ATOM     11  C   UNL A   1      46.366  17.819  43.784  1.00  0.00     0.224 C 
ATOM     12  N   UNL A   1      43.099  15.008  41.189  1.00  0.00    -0.335 N 
ATOM     13  C   UNL A   1      44.056  15.988  40.697  1.00  0.00     0.267 C 
ATOM     14  C   UNL A   1      42.871  14.904  42.632  1.00  0.00     0.267 C 
ATOM     15  H   UNL A   1      43.637  14.159  41.021  1.00  0.00     0.348 HD
ATOM     16  C   UNL A   1      44.034  17.252  41.499  1.00  0.00     0.120 C 
ATOM     17  C   UNL A   1      43.188  16.107  43.509  1.00  0.00     0.120 C 
ATOM     18  C   UNL A   1      44.318  16.972  42.978  1.00  0.00     0.155 C 
ATOM     19  O   UNL A   1      44.103  18.285  43.604  1.00  0.00    -0.352 OA
ATOM     20  N   UNL A   1      45.693  16.593  43.381  1.00  0.00    -0.293 N 
ATOM     21  C   UNL A   1      45.261  18.638  44.365  1.00  0.00     0.200 C 
BRANCH  12  22
ATOM     22  C   UNL A   1      41.881  14.907  40.403  1.00  0.00     0.258 C 
ATOM     23  C   UNL A   1      41.261  13.546  40.681  1.00  0.00     0.071 C 
ENDBRANCH  12  22
BRANCH  20  24
ATOM     24  C   UNL A   1      46.442  15.418  43.481  1.00  0.00     0.256 C 
ATOM     25  O   UNL A   1      47.025  14.924  42.512  1.00  0.00    -0.269 OA
BRANCH  24  26
ATOM     26  C   UNL A   1      46.660  14.665  44.724  1.00  0.00     0.040 A 
ATOM     27  C   UNL A   1      47.491  15.193  45.723  1.00  0.00     0.017 A 
ATOM     28  C   UNL A   1      46.186  13.353  44.843  1.00  0.00     0.017 A 
ATOM     29  C   UNL A   1      47.656  14.495  46.925  1.00  0.00     0.040 A 
ATOM     30  C   UNL A   1      46.327  12.669  46.053  1.00  0.00     0.040 A 
ATOM     31  C   UNL A   1      47.030  13.261  47.096  1.00  0.00     0.123 A 
ATOM     32  F   UNL A   1      47.110  12.637  48.278  1.00  0.00    -0.207 F 
ENDBRANCH  24  26
ENDBRANCH  20  24
ENDBRANCH   9  11
ENDBRANCH   8   9
ENDBRANCH   7   8
ENDBRANCH   6   7
ENDBRANCH   5   6
ENDBRANCH   4   5
ENDBRANCH   3   4
ENDBRANCH   2   3
ENDBRANCH   1   2
BRANCH   1  33
ATOM     33  C   UNL A   1      50.066  23.391  37.643  1.00  0.00     0.188 C 
BRANCH  33  34
ATOM     34  O   UNL A   1      49.400  24.386  38.405  1.00  0.00    -0.376 OA
BRANCH  34  35
ATOM     35  C   UNL A   1      50.094  25.561  38.774  1.00  0.00     0.202 C 
BRANCH  35  36
ATOM     36  C   UNL A   1      49.751  26.844  38.005  1.00  0.00     0.261 C 
BRANCH  36  37
ATOM     37  O   UNL A   1      48.419  26.915  37.476  1.00  0.00    -0.460 OA
BRANCH  37  38
ATOM     38  C   UNL A   1      47.509  27.589  38.211  1.00  0.00     0.338 C 
ATOM     39  O   UNL A   1      47.627  27.944  39.375  1.00  0.00    -0.246 OA
BRANCH  38  40
ATOM     40  C   UNL A   1      46.421  28.021  37.311  1.00  0.00     0.060 A 
ATOM     41  C   UNL A   1      46.674  29.053  36.397  1.00  0.00     0.016 A 
ATOM     42  C   UNL A   1      45.171  27.397  37.345  1.00  0.00     0.016 A 
ATOM     43  C   UNL A   1      45.666  29.491  35.543  1.00  0.00     0.010 A 
ATOM     44  C   UNL A   1      44.152  27.858  36.507  1.00  0.00     0.010 A 
ATOM     45  C   UNL A   1      44.385  28.931  35.629  1.00  0.00    -0.014 A 
BRANCH  45  46
ATOM     46  C   UNL A   1      43.259  29.605  34.939  1.00  0.00     0.031 A 
ATOM     47  C   UNL A   1      42.854  29.107  33.578  1.00  0.00     0.074 A 
ATOM     48  C   UNL A   1      42.570  30.596  35.534  1.00  0.00     0.049 A 
ATOM     49  N   UNL A   1      41.896  29.521  32.792  1.00  0.00    -0.248 NA
ATOM     50  C   UNL A   1      43.639  27.987  33.030  1.00  0.00     0.031 C 
ATOM     51  C   UNL A   1      42.843  31.134  36.864  1.00  0.00     0.029 A 
ATOM     52  N   UNL A   1      41.494  31.322  35.089  1.00  0.00    -0.354 N 
ATOM     53  C   UNL A   1      41.961  28.717  31.660  1.00  0.00     0.074 A 
ATOM     54  C   UNL A   1      43.075  27.814  31.844  1.00  0.00     0.031 C 
ATOM     55  C   UNL A   1      41.959  32.114  37.127  1.00  0.00     0.029 A 
ATOM     56  C   UNL A   1      41.079  32.289  35.973  1.00  0.00     0.049 A 
ATOM     57  H   UNL A   1      41.062  31.166  34.218  1.00  0.00     0.167 HD
ATOM     58  C   UNL A   1      41.156  28.724  30.570  1.00  0.00     0.037 A 
ATOM     59  C   UNL A   1      40.111  33.220  35.853  1.00  0.00     0.037 A 
ATOM     60  C   UNL A   1      40.052  29.630  30.392  1.00  0.00     0.049 A 
ATOM     61  C   UNL A   1      39.272  33.253  34.599  1.00  0.00     0.074 A 
ATOM     62  C   UNL A   1      39.166  29.709  29.331  1.00  0.00     0.029 A 
ATOM     63  N   UNL A   1      39.687  30.624  31.289  1.00  0.00    -0.354 N 
ATOM     64  N   UNL A   1      39.325  32.468  33.547  1.00  0.00    -0.248 NA
ATOM     65  C   UNL A   1      38.238  34.293  34.521  1.00  0.00     0.031 C 
ATOM     66  C   UNL A   1      38.306  30.789  29.558  1.00  0.00     0.029 A 
ATOM     67  C   UNL A   1      38.611  31.342  30.791  1.00  0.00     0.049 A 
ATOM     68  H   UNL A   1      40.129  30.795  32.152  1.00  0.00     0.167 HD
ATOM     69  C   UNL A   1      38.316  32.907  32.693  1.00  0.00     0.074 A 
ATOM     70  C   UNL A   1      37.655  34.008  33.364  1.00  0.00     0.031 C 
ATOM     71  C   UNL A   1      37.968  32.444  31.466  1.00  0.00     0.037 A 
BRANCH  58  72
ATOM     72  C   UNL A   1      41.462  27.741  29.472  1.00  0.00     0.058 A 
ATOM     73  C   UNL A   1      40.664  26.610  29.241  1.00  0.00     0.135 A 
ATOM     74  C   UNL A   1      42.555  27.954  28.615  1.00  0.00     0.135 A 
ATOM     75  F   UNL A   1      39.619  26.345  30.042  1.00  0.00    -0.206 F 
ATOM     76  C   UNL A   1      40.949  25.713  28.216  1.00  0.00     0.059 A 
ATOM     77  C   UNL A   1      42.841  27.087  27.565  1.00  0.00     0.059 A 
ATOM     78  F   UNL A   1      43.357  29.016  28.793  1.00  0.00    -0.206 F 
ATOM     79  C   UNL A   1      42.040  25.962  27.380  1.00  0.00     0.060 A 
BRANCH  79  80
ATOM     80  S   UNL A   1      42.388  24.797  26.047  1.00  0.00     0.124 S 
ATOM     81  O   UNL A   1      42.507  25.693  24.900  1.00  0.00    -0.237 OA
ATOM     82  O   UNL A   1      43.630  24.176  26.496  1.00  0.00    -0.237 OA
ATOM     83  O   UNL A   1      41.219  23.924  26.042  1.00  0.00    -0.744 OA
ENDBRANCH  79  80
ENDBRANCH  58  72
BRANCH  59  84
ATOM     84  C   UNL A   1      39.886  34.207  36.944  1.00  0.00     0.058 A 
ATOM     85  C   UNL A   1      40.494  35.471  36.923  1.00  0.00     0.135 A 
ATOM     86  C   UNL A   1      39.062  33.898  38.039  1.00  0.00     0.135 A 
ATOM     87  F   UNL A   1      41.302  35.810  35.908  1.00  0.00    -0.206 F 
ATOM     88  C   UNL A   1      40.307  36.388  37.954  1.00  0.00     0.059 A 
ATOM     89  C   UNL A   1      38.836  34.809  39.066  1.00  0.00     0.059 A 
ATOM     90  F   UNL A   1      38.451  32.705  38.107  1.00  0.00    -0.206 F 
ATOM     91  C   UNL A   1      39.471  36.049  39.019  1.00  0.00     0.060 A 
BRANCH  91  92
ATOM     92  S   UNL A   1      39.192  37.267  40.323  1.00  0.00     0.124 S 
ATOM     93  O   UNL A   1      38.461  38.304  39.605  1.00  0.00    -0.237 OA
ATOM     94  O   UNL A   1      38.422  36.499  41.296  1.00  0.00    -0.237 OA
ATOM     95  O   UNL A   1      40.543  37.624  40.744  1.00  0.00    -0.744 OA
ENDBRANCH  91  92
ENDBRANCH  59  84
BRANCH  71  96
ATOM     96  C   UNL A   1      36.803  33.111  30.781  1.00  0.00     0.058 A 
ATOM     97  C   UNL A   1      36.984  34.009  29.717  1.00  0.00     0.135 A 
ATOM     98  C   UNL A   1      35.485  32.836  31.184  1.00  0.00     0.135 A 
ATOM     99  F   UNL A   1      38.221  34.310  29.290  1.00  0.00    -0.206 F 
ATOM    100  C   UNL A   1      35.906  34.647  29.111  1.00  0.00     0.059 A 
ATOM    101  C   UNL A   1      34.391  33.435  30.569  1.00  0.00     0.059 A 
ATOM    102  F   UNL A   1      35.249  31.972  32.186  1.00  0.00    -0.206 F 
ATOM    103  C   UNL A   1      34.613  34.356  29.547  1.00  0.00     0.060 A 
BRANCH 103 104
ATOM    104  S   UNL A   1      33.224  35.198  28.758  1.00  0.00     0.124 S 
ATOM    105  O   UNL A   1      32.435  35.610  29.914  1.00  0.00    -0.237 OA
ATOM    106  O   UNL A   1      33.886  36.273  28.025  1.00  0.00    -0.237 OA
ATOM    107  O   UNL A   1      32.623  34.159  27.926  1.00  0.00    -0.744 OA
ENDBRANCH 103 104
ENDBRANCH  71  96
ENDBRANCH  45  46
ENDBRANCH  38  40
ENDBRANCH  37  38
ENDBRANCH  36  37
ENDBRANCH  35  36
ENDBRANCH  34  35
ENDBRANCH  33  34
ENDBRANCH   1  33
TORSDOF 26
ENDMDL
