MODEL 1
REMARK VINA RESULT:      -7.0      0.000      0.000
REMARK SMILES COc1ccc([C@H]2CC(c3ccc(S(C)(=O)=O)cc3)=NN2c2ccc(C(=O)OCCOCCOCCOCCOC(=O)c3ccc(-c4c5nc(c(-c6c(F)cc(S(=O)(=O)[O-])cc6F)c6ccc([nH]6)c(-c6c(F)cc(S(=O)(=O)[O-])cc6F)c6nc(c(-c7c(F)cc(S(=O)(=O)[O-])cc7F)c7ccc4[nH]7)C=C6)C=C5)cc3)cc2)cc1
REMARK SMILES IDX 34 1 33 2 32 3 31 4 30 5 29 6 28 7 26 8 27 9 25 10 22 11
REMARK SMILES IDX 23 12 110 13 24 14 109 15 21 16 7 17 8 18 9 19 20 20 6 21
REMARK SMILES IDX 3 22 4 23 112 24 5 25 111 26 2 27 1 28 10 29 11 30 19 31
REMARK SMILES IDX 12 32 18 33 13 34 14 35 15 36 16 37 17 38 35 39 36 40 37 41
REMARK SMILES IDX 38 42 39 43 40 44 41 45 42 46 43 47 44 48 108 49 45 50
REMARK SMILES IDX 107 51 46 52 47 53 48 54 101 55 49 56 106 57 100 58 102 59
REMARK SMILES IDX 50 60 105 61 99 62 98 63 51 65 85 66 64 67 84 68 65 69 68 70
REMARK SMILES IDX 83 71 103 72 66 73 67 74 82 76 104 77 69 78 52 79 53 80
REMARK SMILES IDX 62 81 54 82 55 83 61 84 63 85 56 86 57 87 58 88 59 89 60 90
REMARK SMILES IDX 86 91 87 92 96 93 88 94 89 95 95 96 97 97 90 98 91 99 92 100
REMARK SMILES IDX 93 101 94 102 70 103 71 104 80 105 72 106 73 107 79 108
REMARK SMILES IDX 81 109 74 110 75 111 76 112 77 113 78 114
REMARK H PARENT 102 64 68 75
REMARK Flexibility Score: inf
ROOT
ATOM      1  O   UNL A   1      44.013  21.532  26.450  1.00  0.00    -0.377 OA
ENDROOT
BRANCH   1   2
ATOM      2  C   UNL A   1      42.694  21.458  26.970  1.00  0.00     0.188 C 
BRANCH   2   3
ATOM      3  C   UNL A   1      41.882  22.754  27.184  1.00  0.00     0.188 C 
BRANCH   3   4
ATOM      4  O   UNL A   1      42.244  23.486  28.339  1.00  0.00    -0.376 OA
BRANCH   4   5
ATOM      5  C   UNL A   1      42.819  24.771  28.196  1.00  0.00     0.202 C 
BRANCH   5   6
ATOM      6  C   UNL A   1      42.258  25.948  29.009  1.00  0.00     0.261 C 
BRANCH   6   7
ATOM      7  O   UNL A   1      42.093  27.188  28.311  1.00  0.00    -0.460 OA
BRANCH   7   8
ATOM      8  C   UNL A   1      40.824  27.593  28.085  1.00  0.00     0.338 C 
ATOM      9  O   UNL A   1      40.067  27.168  27.229  1.00  0.00    -0.246 OA
BRANCH   8  10
ATOM     10  C   UNL A   1      40.414  28.512  29.173  1.00  0.00     0.060 A 
ATOM     11  C   UNL A   1      39.460  30.287  31.156  1.00  0.00     0.060 A 
ATOM     12  C   UNL A   1      38.861  29.035  30.958  1.00  0.00     0.029 A 
ATOM     13  C   UNL A   1      40.612  30.580  30.408  1.00  0.00     0.029 A 
ATOM     14  C   UNL A   1      39.307  28.167  29.956  1.00  0.00     0.018 A 
ATOM     15  C   UNL A   1      41.103  29.695  29.437  1.00  0.00     0.018 A 
BRANCH  11  16
ATOM     16  N   UNL A   1      38.887  31.200  32.040  1.00  0.00    -0.257 N 
ATOM     17  C   UNL A   1      38.479  32.558  31.671  1.00  0.00     0.144 C 
ATOM     18  C   UNL A   1      38.036  33.151  33.009  1.00  0.00     0.091 C 
ATOM     19  C   UNL A   1      38.574  32.110  33.941  1.00  0.00     0.071 C 
ATOM     20  N   UNL A   1      39.005  31.016  33.395  1.00  0.00    -0.176 NA
BRANCH  17  21
ATOM     21  C   UNL A   1      37.340  32.637  30.667  1.00  0.00    -0.023 A 
ATOM     22  C   UNL A   1      35.290  33.181  28.811  1.00  0.00     0.118 A 
ATOM     23  C   UNL A   1      36.611  33.066  28.385  1.00  0.00     0.047 A 
ATOM     24  C   UNL A   1      34.974  32.943  30.147  1.00  0.00     0.047 A 
ATOM     25  C   UNL A   1      37.630  32.807  29.306  1.00  0.00     0.010 A 
ATOM     26  C   UNL A   1      35.991  32.663  31.067  1.00  0.00     0.010 A 
BRANCH  22  27
ATOM     27  O   UNL A   1      34.369  33.478  27.843  1.00  0.00    -0.497 OA
ATOM     28  C   UNL A   1      33.255  34.234  28.310  1.00  0.00     0.278 C 
ENDBRANCH  22  27
ENDBRANCH  17  21
BRANCH  19  29
ATOM     29  C   UNL A   1      38.561  32.388  35.377  1.00  0.00    -0.002 A 
ATOM     30  C   UNL A   1      37.757  31.613  36.218  1.00  0.00     0.011 A 
ATOM     31  C   UNL A   1      39.464  33.319  35.899  1.00  0.00     0.011 A 
ATOM     32  C   UNL A   1      37.875  31.755  37.603  1.00  0.00     0.021 A 
ATOM     33  C   UNL A   1      39.571  33.474  37.281  1.00  0.00     0.021 A 
ATOM     34  C   UNL A   1      38.782  32.686  38.127  1.00  0.00     0.067 A 
BRANCH  34  35
ATOM     35  S   UNL A   1      38.989  32.807  39.889  1.00  0.00     0.175 S 
ATOM     36  C   UNL A   1      38.658  34.507  40.259  1.00  0.00     0.163 C 
ATOM     37  O   UNL A   1      37.949  31.995  40.490  1.00  0.00    -0.224 OA
ATOM     38  O   UNL A   1      40.389  32.562  40.186  1.00  0.00    -0.224 OA
ENDBRANCH  34  35
ENDBRANCH  19  29
ENDBRANCH  11  16
ENDBRANCH   8  10
ENDBRANCH   7   8
ENDBRANCH   6   7
ENDBRANCH   5   6
ENDBRANCH   4   5
ENDBRANCH   3   4
ENDBRANCH   2   3
ENDBRANCH   1   2
BRANCH   1  39
ATOM     39  C   UNL A   1      44.254  22.102  25.167  1.00  0.00     0.188 C 
BRANCH  39  40
ATOM     40  C   UNL A   1      44.821  23.532  25.006  1.00  0.00     0.188 C 
BRANCH  40  41
ATOM     41  O   UNL A   1      43.846  24.560  25.026  1.00  0.00    -0.376 OA
BRANCH  41  42
ATOM     42  C   UNL A   1      44.300  25.899  25.031  1.00  0.00     0.202 C 
BRANCH  42  43
ATOM     43  C   UNL A   1      45.815  26.126  25.114  1.00  0.00     0.261 C 
BRANCH  43  44
ATOM     44  O   UNL A   1      46.253  27.221  25.930  1.00  0.00    -0.460 OA
BRANCH  44  45
ATOM     45  C   UNL A   1      46.259  28.452  25.363  1.00  0.00     0.338 C 
ATOM     46  O   UNL A   1      46.436  28.719  24.195  1.00  0.00    -0.246 OA
BRANCH  45  47
ATOM     47  C   UNL A   1      45.822  29.413  26.401  1.00  0.00     0.060 A 
ATOM     48  C   UNL A   1      46.786  30.164  27.087  1.00  0.00     0.016 A 
ATOM     49  C   UNL A   1      44.464  29.579  26.681  1.00  0.00     0.016 A 
ATOM     50  C   UNL A   1      46.392  31.060  28.083  1.00  0.00     0.010 A 
ATOM     51  C   UNL A   1      44.074  30.461  27.691  1.00  0.00     0.010 A 
ATOM     52  C   UNL A   1      45.038  31.179  28.420  1.00  0.00    -0.014 A 
BRANCH  52  53
ATOM     53  C   UNL A   1      44.643  31.896  29.657  1.00  0.00     0.031 A 
ATOM     54  C   UNL A   1      44.557  33.398  29.610  1.00  0.00     0.074 A 
ATOM     55  C   UNL A   1      44.358  31.235  30.794  1.00  0.00     0.049 A 
ATOM     56  N   UNL A   1      44.297  34.246  30.569  1.00  0.00    -0.248 NA
ATOM     57  C   UNL A   1      44.804  34.027  28.301  1.00  0.00     0.031 C 
ATOM     58  C   UNL A   1      44.371  29.783  30.953  1.00  0.00     0.029 A 
ATOM     59  N   UNL A   1      44.015  31.708  32.036  1.00  0.00    -0.354 N 
ATOM     60  C   UNL A   1      44.362  35.506  29.986  1.00  0.00     0.074 A 
ATOM     61  C   UNL A   1      44.713  35.314  28.596  1.00  0.00     0.031 C 
ATOM     62  C   UNL A   1      44.065  29.482  32.227  1.00  0.00     0.029 A 
ATOM     63  C   UNL A   1      43.871  30.721  32.981  1.00  0.00     0.049 A 
ATOM     64  H   UNL A   1      43.885  32.664  32.232  1.00  0.00     0.167 HD
ATOM     65  C   UNL A   1      44.144  36.714  30.557  1.00  0.00     0.037 A 
ATOM     66  C   UNL A   1      43.636  30.809  34.307  1.00  0.00     0.037 A 
ATOM     67  C   UNL A   1      43.792  36.896  31.941  1.00  0.00     0.049 A 
ATOM     68  C   UNL A   1      43.455  32.169  34.935  1.00  0.00     0.074 A 
ATOM     69  C   UNL A   1      43.523  38.076  32.610  1.00  0.00     0.029 A 
ATOM     70  N   UNL A   1      43.674  35.873  32.872  1.00  0.00    -0.354 N 
ATOM     71  N   UNL A   1      43.492  33.352  34.369  1.00  0.00    -0.248 NA
ATOM     72  C   UNL A   1      43.195  32.206  36.381  1.00  0.00     0.031 C 
ATOM     73  C   UNL A   1      43.305  37.775  33.958  1.00  0.00     0.029 A 
ATOM     74  C   UNL A   1      43.366  36.399  34.115  1.00  0.00     0.049 A 
ATOM     75  H   UNL A   1      43.791  34.916  32.676  1.00  0.00     0.167 HD
ATOM     76  C   UNL A   1      43.230  34.270  35.383  1.00  0.00     0.074 A 
ATOM     77  C   UNL A   1      43.026  33.504  36.593  1.00  0.00     0.031 C 
ATOM     78  C   UNL A   1      43.160  35.624  35.315  1.00  0.00     0.037 A 
BRANCH  65  79
ATOM     79  C   UNL A   1      44.313  37.937  29.697  1.00  0.00     0.058 A 
ATOM     80  C   UNL A   1      43.289  38.407  28.860  1.00  0.00     0.135 A 
ATOM     81  C   UNL A   1      45.509  38.672  29.742  1.00  0.00     0.135 A 
ATOM     82  F   UNL A   1      42.132  37.732  28.760  1.00  0.00    -0.206 F 
ATOM     83  C   UNL A   1      43.451  39.551  28.084  1.00  0.00     0.059 A 
ATOM     84  C   UNL A   1      45.682  39.836  29.000  1.00  0.00     0.059 A 
ATOM     85  F   UNL A   1      46.524  38.265  30.520  1.00  0.00    -0.206 F 
ATOM     86  C   UNL A   1      44.651  40.261  28.164  1.00  0.00     0.060 A 
BRANCH  86  87
ATOM     87  S   UNL A   1      44.837  41.753  27.166  1.00  0.00     0.124 S 
ATOM     88  O   UNL A   1      46.093  41.486  26.472  1.00  0.00    -0.237 OA
ATOM     89  O   UNL A   1      43.636  41.723  26.336  1.00  0.00    -0.237 OA
ATOM     90  O   UNL A   1      44.884  42.824  28.157  1.00  0.00    -0.744 OA
ENDBRANCH  86  87
ENDBRANCH  65  79
BRANCH  66  91
ATOM     91  C   UNL A   1      43.573  29.573  35.135  1.00  0.00     0.058 A 
ATOM     92  C   UNL A   1      44.721  29.044  35.743  1.00  0.00     0.135 A 
ATOM     93  C   UNL A   1      42.359  28.897  35.336  1.00  0.00     0.135 A 
ATOM     94  F   UNL A   1      45.909  29.643  35.568  1.00  0.00    -0.206 F 
ATOM     95  C   UNL A   1      44.671  27.887  36.514  1.00  0.00     0.059 A 
ATOM     96  C   UNL A   1      42.278  27.755  36.127  1.00  0.00     0.059 A 
ATOM     97  F   UNL A   1      41.229  29.364  34.781  1.00  0.00    -0.206 F 
ATOM     98  C   UNL A   1      43.442  27.253  36.706  1.00  0.00     0.060 A 
BRANCH  98  99
ATOM     99  S   UNL A   1      43.379  25.788  37.760  1.00  0.00     0.124 S 
ATOM    100  O   UNL A   1      41.962  25.448  37.709  1.00  0.00    -0.237 OA
ATOM    101  O   UNL A   1      44.280  24.875  37.066  1.00  0.00    -0.237 OA
ATOM    102  O   UNL A   1      43.863  26.279  39.047  1.00  0.00    -0.744 OA
ENDBRANCH  98  99
ENDBRANCH  66  91
BRANCH  78 103
ATOM    103  C   UNL A   1      42.805  36.372  36.573  1.00  0.00     0.058 A 
ATOM    104  C   UNL A   1      41.473  36.641  36.929  1.00  0.00     0.135 A 
ATOM    105  C   UNL A   1      43.812  36.772  37.467  1.00  0.00     0.135 A 
ATOM    106  F   UNL A   1      40.470  36.284  36.111  1.00  0.00    -0.206 F 
ATOM    107  C   UNL A   1      41.156  37.302  38.112  1.00  0.00     0.059 A 
ATOM    108  C   UNL A   1      43.516  37.404  38.670  1.00  0.00     0.059 A 
ATOM    109  F   UNL A   1      45.102  36.530  37.184  1.00  0.00    -0.206 F 
ATOM    110  C   UNL A   1      42.184  37.677  38.978  1.00  0.00     0.060 A 
BRANCH 110 111
ATOM    111  S   UNL A   1      41.756  38.506  40.523  1.00  0.00     0.124 S 
ATOM    112  O   UNL A   1      41.280  37.390  41.334  1.00  0.00    -0.237 OA
ATOM    113  O   UNL A   1      43.032  39.086  40.929  1.00  0.00    -0.237 OA
ATOM    114  O   UNL A   1      40.735  39.469  40.123  1.00  0.00    -0.744 OA
ENDBRANCH 110 111
ENDBRANCH  78 103
ENDBRANCH  52  53
ENDBRANCH  45  47
ENDBRANCH  44  45
ENDBRANCH  43  44
ENDBRANCH  42  43
ENDBRANCH  41  42
ENDBRANCH  40  41
ENDBRANCH  39  40
ENDBRANCH   1  39
TORSDOF 28
ENDMDL
MODEL 2
REMARK VINA RESULT:      -6.7      2.885      8.856
REMARK SMILES COc1ccc([C@H]2CC(c3ccc(S(C)(=O)=O)cc3)=NN2c2ccc(C(=O)OCCOCCOCCOCCOC(=O)c3ccc(-c4c5nc(c(-c6c(F)cc(S(=O)(=O)[O-])cc6F)c6ccc([nH]6)c(-c6c(F)cc(S(=O)(=O)[O-])cc6F)c6nc(c(-c7c(F)cc(S(=O)(=O)[O-])cc7F)c7ccc4[nH]7)C=C6)C=C5)cc3)cc2)cc1
REMARK SMILES IDX 34 1 33 2 32 3 31 4 30 5 29 6 28 7 26 8 27 9 25 10 22 11
REMARK SMILES IDX 23 12 110 13 24 14 109 15 21 16 7 17 8 18 9 19 20 20 6 21
REMARK SMILES IDX 3 22 4 23 112 24 5 25 111 26 2 27 1 28 10 29 11 30 19 31
REMARK SMILES IDX 12 32 18 33 13 34 14 35 15 36 16 37 17 38 35 39 36 40 37 41
REMARK SMILES IDX 38 42 39 43 40 44 41 45 42 46 43 47 44 48 108 49 45 50
REMARK SMILES IDX 107 51 46 52 47 53 48 54 101 55 49 56 106 57 100 58 102 59
REMARK SMILES IDX 50 60 105 61 99 62 98 63 51 65 85 66 64 67 84 68 65 69 68 70
REMARK SMILES IDX 83 71 103 72 66 73 67 74 82 76 104 77 69 78 52 79 53 80
REMARK SMILES IDX 62 81 54 82 55 83 61 84 63 85 56 86 57 87 58 88 59 89 60 90
REMARK SMILES IDX 86 91 87 92 96 93 88 94 89 95 95 96 97 97 90 98 91 99 92 100
REMARK SMILES IDX 93 101 94 102 70 103 71 104 80 105 72 106 73 107 79 108
REMARK SMILES IDX 81 109 74 110 75 111 76 112 77 113 78 114
REMARK H PARENT 102 64 68 75
REMARK Flexibility Score: inf
ROOT
ATOM      1  O   UNL A   1      47.281  24.095  26.541  1.00  0.00    -0.377 OA
ENDROOT
BRANCH   1   2
ATOM      2  C   UNL A   1      47.616  25.457  26.764  1.00  0.00     0.188 C 
BRANCH   2   3
ATOM      3  C   UNL A   1      46.967  26.222  27.938  1.00  0.00     0.188 C 
BRANCH   3   4
ATOM      4  O   UNL A   1      46.721  27.590  27.676  1.00  0.00    -0.376 OA
BRANCH   4   5
ATOM      5  C   UNL A   1      46.056  28.375  28.648  1.00  0.00     0.202 C 
BRANCH   5   6
ATOM      6  C   UNL A   1      45.289  29.633  28.213  1.00  0.00     0.261 C 
BRANCH   6   7
ATOM      7  O   UNL A   1      45.054  30.623  29.222  1.00  0.00    -0.460 OA
BRANCH   7   8
ATOM      8  C   UNL A   1      46.088  31.438  29.524  1.00  0.00     0.338 C 
ATOM      9  O   UNL A   1      46.977  31.794  28.770  1.00  0.00    -0.246 OA
BRANCH   8  10
ATOM     10  C   UNL A   1      45.874  32.001  30.879  1.00  0.00     0.060 A 
ATOM     11  C   UNL A   1      45.387  33.230  33.378  1.00  0.00     0.060 A 
ATOM     12  C   UNL A   1      44.328  32.833  32.549  1.00  0.00     0.029 A 
ATOM     13  C   UNL A   1      46.690  32.899  32.969  1.00  0.00     0.029 A 
ATOM     14  C   UNL A   1      44.564  32.255  31.297  1.00  0.00     0.018 A 
ATOM     15  C   UNL A   1      46.937  32.271  31.740  1.00  0.00     0.018 A 
BRANCH  11  16
ATOM     16  N   UNL A   1      45.127  33.959  34.537  1.00  0.00    -0.257 N 
ATOM     17  C   UNL A   1      45.550  35.345  34.750  1.00  0.00     0.144 C 
ATOM     18  C   UNL A   1      45.122  35.610  36.194  1.00  0.00     0.091 C 
ATOM     19  C   UNL A   1      44.815  34.211  36.630  1.00  0.00     0.071 C 
ATOM     20  N   UNL A   1      44.780  33.312  35.697  1.00  0.00    -0.176 NA
BRANCH  17  21
ATOM     21  C   UNL A   1      44.905  36.365  33.825  1.00  0.00    -0.023 A 
ATOM     22  C   UNL A   1      43.985  38.511  32.247  1.00  0.00     0.118 A 
ATOM     23  C   UNL A   1      45.054  37.729  31.815  1.00  0.00     0.047 A 
ATOM     24  C   UNL A   1      43.318  38.176  33.423  1.00  0.00     0.047 A 
ATOM     25  C   UNL A   1      45.518  36.671  32.601  1.00  0.00     0.010 A 
ATOM     26  C   UNL A   1      43.769  37.104  34.202  1.00  0.00     0.010 A 
BRANCH  22  27
ATOM     27  O   UNL A   1      43.630  39.550  31.429  1.00  0.00    -0.497 OA
ATOM     28  C   UNL A   1      44.175  40.809  31.816  1.00  0.00     0.278 C 
ENDBRANCH  22  27
ENDBRANCH  17  21
BRANCH  19  29
ATOM     29  C   UNL A   1      44.564  33.963  38.050  1.00  0.00    -0.002 A 
ATOM     30  C   UNL A   1      45.334  33.014  38.726  1.00  0.00     0.011 A 
ATOM     31  C   UNL A   1      43.665  34.785  38.735  1.00  0.00     0.011 A 
ATOM     32  C   UNL A   1      45.221  32.901  40.115  1.00  0.00     0.021 A 
ATOM     33  C   UNL A   1      43.538  34.662  40.119  1.00  0.00     0.021 A 
ATOM     34  C   UNL A   1      44.323  33.726  40.803  1.00  0.00     0.067 A 
BRANCH  34  35
ATOM     35  S   UNL A   1      44.239  33.638  42.578  1.00  0.00     0.175 S 
ATOM     36  C   UNL A   1      45.847  34.142  43.125  1.00  0.00     0.163 C 
ATOM     37  O   UNL A   1      43.276  34.635  43.002  1.00  0.00    -0.224 OA
ATOM     38  O   UNL A   1      44.073  32.242  42.942  1.00  0.00    -0.224 OA
ENDBRANCH  34  35
ENDBRANCH  19  29
ENDBRANCH  11  16
ENDBRANCH   8  10
ENDBRANCH   7   8
ENDBRANCH   6   7
ENDBRANCH   5   6
ENDBRANCH   4   5
ENDBRANCH   3   4
ENDBRANCH   2   3
ENDBRANCH   1   2
BRANCH   1  39
ATOM     39  C   UNL A   1      45.921  23.672  26.563  1.00  0.00     0.188 C 
BRANCH  39  40
ATOM     40  C   UNL A   1      45.493  22.282  26.035  1.00  0.00     0.188 C 
BRANCH  40  41
ATOM     41  O   UNL A   1      44.092  22.089  25.948  1.00  0.00    -0.376 OA
BRANCH  41  42
ATOM     42  C   UNL A   1      43.265  23.233  26.016  1.00  0.00     0.202 C 
BRANCH  42  43
ATOM     43  C   UNL A   1      41.909  23.080  26.718  1.00  0.00     0.261 C 
BRANCH  43  44
ATOM     44  O   UNL A   1      40.928  24.089  26.441  1.00  0.00    -0.460 OA
BRANCH  44  45
ATOM     45  C   UNL A   1      41.384  25.332  26.151  1.00  0.00     0.338 C 
ATOM     46  O   UNL A   1      41.660  25.774  25.057  1.00  0.00    -0.246 OA
BRANCH  45  47
ATOM     47  C   UNL A   1      41.313  26.126  27.399  1.00  0.00     0.060 A 
ATOM     48  C   UNL A   1      40.175  26.025  28.210  1.00  0.00     0.016 A 
ATOM     49  C   UNL A   1      42.376  26.952  27.769  1.00  0.00     0.016 A 
ATOM     50  C   UNL A   1      40.084  26.783  29.379  1.00  0.00     0.010 A 
ATOM     51  C   UNL A   1      42.274  27.724  28.928  1.00  0.00     0.010 A 
ATOM     52  C   UNL A   1      41.114  27.670  29.720  1.00  0.00    -0.014 A 
BRANCH  52  53
ATOM     53  C   UNL A   1      40.899  28.680  30.785  1.00  0.00     0.031 A 
ATOM     54  C   UNL A   1      41.746  28.593  32.026  1.00  0.00     0.074 A 
ATOM     55  C   UNL A   1      39.984  29.656  30.654  1.00  0.00     0.049 A 
ATOM     56  N   UNL A   1      41.703  29.316  33.113  1.00  0.00    -0.248 NA
ATOM     57  C   UNL A   1      42.778  27.542  32.042  1.00  0.00     0.031 C 
ATOM     58  C   UNL A   1      39.131  29.865  29.486  1.00  0.00     0.029 A 
ATOM     59  N   UNL A   1      39.611  30.650  31.525  1.00  0.00    -0.354 N 
ATOM     60  C   UNL A   1      42.688  28.802  33.948  1.00  0.00     0.074 A 
ATOM     61  C   UNL A   1      43.295  27.688  33.252  1.00  0.00     0.031 C 
ATOM     62  C   UNL A   1      38.322  30.913  29.719  1.00  0.00     0.029 A 
ATOM     63  C   UNL A   1      38.574  31.426  31.066  1.00  0.00     0.049 A 
ATOM     64  H   UNL A   1      40.046  30.792  32.397  1.00  0.00     0.167 HD
ATOM     65  C   UNL A   1      43.057  29.223  35.180  1.00  0.00     0.037 A 
ATOM     66  C   UNL A   1      37.890  32.418  31.674  1.00  0.00     0.037 A 
ATOM     67  C   UNL A   1      42.449  30.335  35.864  1.00  0.00     0.049 A 
ATOM     68  C   UNL A   1      38.279  32.833  33.071  1.00  0.00     0.074 A 
ATOM     69  C   UNL A   1      42.769  30.859  37.103  1.00  0.00     0.029 A 
ATOM     70  N   UNL A   1      41.389  31.084  35.374  1.00  0.00    -0.354 N 
ATOM     71  N   UNL A   1      39.231  32.357  33.840  1.00  0.00    -0.248 NA
ATOM     72  C   UNL A   1      37.505  33.922  33.683  1.00  0.00     0.031 C 
ATOM     73  C   UNL A   1      41.862  31.883  37.391  1.00  0.00     0.029 A 
ATOM     74  C   UNL A   1      41.023  32.047  36.301  1.00  0.00     0.049 A 
ATOM     75  H   UNL A   1      40.961  30.952  34.498  1.00  0.00     0.167 HD
ATOM     76  C   UNL A   1      39.189  33.110  35.011  1.00  0.00     0.074 A 
ATOM     77  C   UNL A   1      38.126  34.077  34.845  1.00  0.00     0.031 C 
ATOM     78  C   UNL A   1      39.964  33.010  36.121  1.00  0.00     0.037 A 
BRANCH  65  79
ATOM     79  C   UNL A   1      44.146  28.460  35.885  1.00  0.00     0.058 A 
ATOM     80  C   UNL A   1      43.866  27.390  36.748  1.00  0.00     0.135 A 
ATOM     81  C   UNL A   1      45.494  28.784  35.660  1.00  0.00     0.135 A 
ATOM     82  F   UNL A   1      42.595  27.050  37.018  1.00  0.00    -0.206 F 
ATOM     83  C   UNL A   1      44.883  26.680  37.380  1.00  0.00     0.059 A 
ATOM     84  C   UNL A   1      46.528  28.067  36.255  1.00  0.00     0.059 A 
ATOM     85  F   UNL A   1      45.819  29.803  34.849  1.00  0.00    -0.206 F 
ATOM     86  C   UNL A   1      46.212  27.024  37.122  1.00  0.00     0.060 A 
BRANCH  86  87
ATOM     87  S   UNL A   1      47.519  26.080  37.934  1.00  0.00     0.124 S 
ATOM     88  O   UNL A   1      48.626  27.030  37.907  1.00  0.00    -0.237 OA
ATOM     89  O   UNL A   1      46.940  25.817  39.249  1.00  0.00    -0.237 OA
ATOM     90  O   UNL A   1      47.678  24.910  37.077  1.00  0.00    -0.744 OA
ENDBRANCH  86  87
ENDBRANCH  65  79
BRANCH  66  91
ATOM     91  C   UNL A   1      36.757  33.079  30.970  1.00  0.00     0.058 A 
ATOM     92  C   UNL A   1      35.426  32.827  31.336  1.00  0.00     0.135 A 
ATOM     93  C   UNL A   1      36.984  33.980  29.917  1.00  0.00     0.135 A 
ATOM     94  F   UNL A   1      35.155  31.962  32.325  1.00  0.00    -0.206 F 
ATOM     95  C   UNL A   1      34.361  33.437  30.681  1.00  0.00     0.059 A 
ATOM     96  C   UNL A   1      35.937  34.625  29.266  1.00  0.00     0.059 A 
ATOM     97  F   UNL A   1      38.239  34.260  29.530  1.00  0.00    -0.206 F 
ATOM     98  C   UNL A   1      34.628  34.341  29.650  1.00  0.00     0.060 A 
BRANCH  98  99
ATOM     99  S   UNL A   1      33.241  35.175  28.849  1.00  0.00     0.124 S 
ATOM    100  O   UNL A   1      32.460  35.620  29.997  1.00  0.00    -0.237 OA
ATOM    101  O   UNL A   1      33.913  36.223  28.089  1.00  0.00    -0.237 OA
ATOM    102  O   UNL A   1      32.633  34.119  28.045  1.00  0.00    -0.744 OA
ENDBRANCH  98  99
ENDBRANCH  66  91
BRANCH  78 103
ATOM    103  C   UNL A   1      39.729  34.000  37.232  1.00  0.00     0.058 A 
ATOM    104  C   UNL A   1      38.937  33.689  38.350  1.00  0.00     0.135 A 
ATOM    105  C   UNL A   1      40.355  35.256  37.205  1.00  0.00     0.135 A 
ATOM    106  F   UNL A   1      38.311  32.504  38.427  1.00  0.00    -0.206 F 
ATOM    107  C   UNL A   1      38.755  34.599  39.387  1.00  0.00     0.059 A 
ATOM    108  C   UNL A   1      40.215  36.168  38.246  1.00  0.00     0.059 A 
ATOM    109  F   UNL A   1      41.133  35.602  36.167  1.00  0.00    -0.206 F 
ATOM    110  C   UNL A   1      39.401  35.835  39.328  1.00  0.00     0.060 A 
BRANCH 110 111
ATOM    111  S   UNL A   1      39.180  36.994  40.695  1.00  0.00     0.124 S 
ATOM    112  O   UNL A   1      38.484  36.165  41.674  1.00  0.00    -0.237 OA
ATOM    113  O   UNL A   1      40.556  37.348  41.028  1.00  0.00    -0.237 OA
ATOM    114  O   UNL A   1      38.387  38.069  40.107  1.00  0.00    -0.744 OA
ENDBRANCH 110 111
ENDBRANCH  78 103
ENDBRANCH  52  53
ENDBRANCH  45  47
ENDBRANCH  44  45
ENDBRANCH  43  44
ENDBRANCH  42  43
ENDBRANCH  41  42
ENDBRANCH  40  41
ENDBRANCH  39  40
ENDBRANCH   1  39
TORSDOF 28
ENDMDL
MODEL 3
REMARK VINA RESULT:      -6.3      5.744     11.085
REMARK SMILES COc1ccc([C@H]2CC(c3ccc(S(C)(=O)=O)cc3)=NN2c2ccc(C(=O)OCCOCCOCCOCCOC(=O)c3ccc(-c4c5nc(c(-c6c(F)cc(S(=O)(=O)[O-])cc6F)c6ccc([nH]6)c(-c6c(F)cc(S(=O)(=O)[O-])cc6F)c6nc(c(-c7c(F)cc(S(=O)(=O)[O-])cc7F)c7ccc4[nH]7)C=C6)C=C5)cc3)cc2)cc1
REMARK SMILES IDX 34 1 33 2 32 3 31 4 30 5 29 6 28 7 26 8 27 9 25 10 22 11
REMARK SMILES IDX 23 12 110 13 24 14 109 15 21 16 7 17 8 18 9 19 20 20 6 21
REMARK SMILES IDX 3 22 4 23 112 24 5 25 111 26 2 27 1 28 10 29 11 30 19 31
REMARK SMILES IDX 12 32 18 33 13 34 14 35 15 36 16 37 17 38 35 39 36 40 37 41
REMARK SMILES IDX 38 42 39 43 40 44 41 45 42 46 43 47 44 48 108 49 45 50
REMARK SMILES IDX 107 51 46 52 47 53 48 54 101 55 49 56 106 57 100 58 102 59
REMARK SMILES IDX 50 60 105 61 99 62 98 63 51 65 85 66 64 67 84 68 65 69 68 70
REMARK SMILES IDX 83 71 103 72 66 73 67 74 82 76 104 77 69 78 52 79 53 80
REMARK SMILES IDX 62 81 54 82 55 83 61 84 63 85 56 86 57 87 58 88 59 89 60 90
REMARK SMILES IDX 86 91 87 92 96 93 88 94 89 95 95 96 97 97 90 98 91 99 92 100
REMARK SMILES IDX 93 101 94 102 70 103 71 104 80 105 72 106 73 107 79 108
REMARK SMILES IDX 81 109 74 110 75 111 76 112 77 113 78 114
REMARK H PARENT 102 64 68 75
REMARK Flexibility Score: inf
ROOT
ATOM      1  O   UNL A   1      37.268  31.019  28.529  1.00  0.00    -0.377 OA
ENDROOT
BRANCH   1   2
ATOM      2  C   UNL A   1      35.848  31.062  28.551  1.00  0.00     0.188 C 
BRANCH   2   3
ATOM      3  C   UNL A   1      35.043  30.311  27.469  1.00  0.00     0.188 C 
BRANCH   3   4
ATOM      4  O   UNL A   1      33.792  30.895  27.163  1.00  0.00    -0.376 OA
BRANCH   4   5
ATOM      5  C   UNL A   1      32.639  30.077  27.099  1.00  0.00     0.202 C 
BRANCH   5   6
ATOM      6  C   UNL A   1      32.151  29.559  25.737  1.00  0.00     0.261 C 
BRANCH   6   7
ATOM      7  O   UNL A   1      31.152  28.532  25.761  1.00  0.00    -0.460 OA
BRANCH   7   8
ATOM      8  C   UNL A   1      31.078  27.732  24.676  1.00  0.00     0.338 C 
ATOM      9  O   UNL A   1      30.399  27.919  23.680  1.00  0.00    -0.246 OA
BRANCH   8  10
ATOM     10  C   UNL A   1      32.107  26.671  24.791  1.00  0.00     0.060 A 
ATOM     11  C   UNL A   1      34.139  24.741  25.166  1.00  0.00     0.060 A 
ATOM     12  C   UNL A   1      33.118  24.909  26.112  1.00  0.00     0.029 A 
ATOM     13  C   UNL A   1      34.055  25.492  23.981  1.00  0.00     0.029 A 
ATOM     14  C   UNL A   1      32.129  25.885  25.947  1.00  0.00     0.018 A 
ATOM     15  C   UNL A   1      33.038  26.436  23.779  1.00  0.00     0.018 A 
BRANCH  11  16
ATOM     16  N   UNL A   1      35.205  23.886  25.438  1.00  0.00    -0.257 N 
ATOM     17  C   UNL A   1      35.057  22.528  25.966  1.00  0.00     0.144 C 
ATOM     18  C   UNL A   1      36.507  22.092  26.185  1.00  0.00     0.091 C 
ATOM     19  C   UNL A   1      37.196  23.412  26.030  1.00  0.00     0.071 C 
ATOM     20  N   UNL A   1      36.475  24.389  25.577  1.00  0.00    -0.176 NA
BRANCH  17  21
ATOM     21  C   UNL A   1      34.358  21.549  25.037  1.00  0.00    -0.023 A 
ATOM     22  C   UNL A   1      32.783  19.703  23.603  1.00  0.00     0.118 A 
ATOM     23  C   UNL A   1      32.476  21.062  23.573  1.00  0.00     0.047 A 
ATOM     24  C   UNL A   1      33.922  19.270  24.277  1.00  0.00     0.047 A 
ATOM     25  C   UNL A   1      33.249  21.977  24.292  1.00  0.00     0.010 A 
ATOM     26  C   UNL A   1      34.710  20.188  24.981  1.00  0.00     0.010 A 
BRANCH  22  27
ATOM     27  O   UNL A   1      31.943  18.881  22.902  1.00  0.00    -0.497 OA
ATOM     28  C   UNL A   1      32.301  17.502  22.952  1.00  0.00     0.278 C 
ENDBRANCH  22  27
ENDBRANCH  17  21
BRANCH  19  29
ATOM     29  C   UNL A   1      38.615  23.502  26.379  1.00  0.00    -0.002 A 
ATOM     30  C   UNL A   1      39.395  22.343  26.379  1.00  0.00     0.011 A 
ATOM     31  C   UNL A   1      39.193  24.762  26.557  1.00  0.00     0.011 A 
ATOM     32  C   UNL A   1      40.780  22.447  26.535  1.00  0.00     0.021 A 
ATOM     33  C   UNL A   1      40.573  24.867  26.731  1.00  0.00     0.021 A 
ATOM     34  C   UNL A   1      41.361  23.710  26.711  1.00  0.00     0.067 A 
BRANCH  34  35
ATOM     35  S   UNL A   1      43.131  23.849  26.829  1.00  0.00     0.175 S 
ATOM     36  C   UNL A   1      43.703  23.658  25.164  1.00  0.00     0.163 C 
ATOM     37  O   UNL A   1      43.417  25.203  27.261  1.00  0.00    -0.224 OA
ATOM     38  O   UNL A   1      43.612  22.709  27.588  1.00  0.00    -0.224 OA
ENDBRANCH  34  35
ENDBRANCH  19  29
ENDBRANCH  11  16
ENDBRANCH   8  10
ENDBRANCH   7   8
ENDBRANCH   6   7
ENDBRANCH   5   6
ENDBRANCH   4   5
ENDBRANCH   3   4
ENDBRANCH   2   3
ENDBRANCH   1   2
BRANCH   1  39
ATOM     39  C   UNL A   1      37.973  30.002  29.234  1.00  0.00     0.188 C 
BRANCH  39  40
ATOM     40  C   UNL A   1      37.236  28.943  30.086  1.00  0.00     0.188 C 
BRANCH  40  41
ATOM     41  O   UNL A   1      36.728  29.426  31.318  1.00  0.00    -0.376 OA
BRANCH  41  42
ATOM     42  C   UNL A   1      37.316  28.939  32.508  1.00  0.00     0.202 C 
BRANCH  42  43
ATOM     43  C   UNL A   1      38.129  29.933  33.348  1.00  0.00     0.261 C 
BRANCH  43  44
ATOM     44  O   UNL A   1      39.556  29.851  33.230  1.00  0.00    -0.460 OA
BRANCH  44  45
ATOM     45  C   UNL A   1      40.292  30.522  34.149  1.00  0.00     0.338 C 
ATOM     46  O   UNL A   1      40.216  30.433  35.354  1.00  0.00    -0.246 OA
BRANCH  45  47
ATOM     47  C   UNL A   1      41.346  31.257  33.412  1.00  0.00     0.060 A 
ATOM     48  C   UNL A   1      41.217  31.432  32.028  1.00  0.00     0.016 A 
ATOM     49  C   UNL A   1      42.446  31.782  34.094  1.00  0.00     0.016 A 
ATOM     50  C   UNL A   1      42.213  32.106  31.317  1.00  0.00     0.010 A 
ATOM     51  C   UNL A   1      43.449  32.437  33.378  1.00  0.00     0.010 A 
ATOM     52  C   UNL A   1      43.354  32.571  31.982  1.00  0.00    -0.014 A 
BRANCH  52  53
ATOM     53  C   UNL A   1      44.534  33.018  31.202  1.00  0.00     0.031 A 
ATOM     54  C   UNL A   1      44.769  34.498  31.055  1.00  0.00     0.074 A 
ATOM     55  C   UNL A   1      45.384  32.138  30.644  1.00  0.00     0.049 A 
ATOM     56  N   UNL A   1      45.688  35.131  30.375  1.00  0.00    -0.248 NA
ATOM     57  C   UNL A   1      43.834  35.383  31.772  1.00  0.00     0.031 C 
ATOM     58  C   UNL A   1      45.283  30.684  30.746  1.00  0.00     0.029 A 
ATOM     59  N   UNL A   1      46.496  32.345  29.865  1.00  0.00    -0.354 N 
ATOM     60  C   UNL A   1      45.435  36.484  30.567  1.00  0.00     0.074 A 
ATOM     61  C   UNL A   1      44.261  36.582  31.406  1.00  0.00     0.031 C 
ATOM     62  C   UNL A   1      46.284  30.127  30.043  1.00  0.00     0.029 A 
ATOM     63  C   UNL A   1      47.074  31.183  29.411  1.00  0.00     0.049 A 
ATOM     64  H   UNL A   1      46.846  33.240  29.653  1.00  0.00     0.167 HD
ATOM     65  C   UNL A   1      46.123  37.548  30.092  1.00  0.00     0.037 A 
ATOM     66  C   UNL A   1      48.106  30.996  28.561  1.00  0.00     0.037 A 
ATOM     67  C   UNL A   1      47.293  37.441  29.259  1.00  0.00     0.049 A 
ATOM     68  C   UNL A   1      48.822  32.198  27.995  1.00  0.00     0.074 A 
ATOM     69  C   UNL A   1      48.079  38.458  28.749  1.00  0.00     0.029 A 
ATOM     70  N   UNL A   1      47.837  36.248  28.804  1.00  0.00    -0.354 N 
ATOM     71  N   UNL A   1      48.592  33.472  28.206  1.00  0.00    -0.248 NA
ATOM     72  C   UNL A   1      49.942  31.936  27.080  1.00  0.00     0.031 C 
ATOM     73  C   UNL A   1      49.059  37.885  27.933  1.00  0.00     0.029 A 
ATOM     74  C   UNL A   1      48.930  36.506  27.994  1.00  0.00     0.049 A 
ATOM     75  H   UNL A   1      47.497  35.352  29.026  1.00  0.00     0.167 HD
ATOM     76  C   UNL A   1      49.556  34.162  27.475  1.00  0.00     0.074 A 
ATOM     77  C   UNL A   1      50.377  33.163  26.826  1.00  0.00     0.031 C 
ATOM     78  C   UNL A   1      49.745  35.501  27.357  1.00  0.00     0.037 A 
BRANCH  65  79
ATOM     79  C   UNL A   1      45.611  38.922  30.430  1.00  0.00     0.058 A 
ATOM     80  C   UNL A   1      44.601  39.546  29.682  1.00  0.00     0.135 A 
ATOM     81  C   UNL A   1      46.116  39.608  31.547  1.00  0.00     0.135 A 
ATOM     82  F   UNL A   1      44.097  38.946  28.592  1.00  0.00    -0.206 F 
ATOM     83  C   UNL A   1      44.122  40.808  30.017  1.00  0.00     0.059 A 
ATOM     84  C   UNL A   1      45.630  40.858  31.920  1.00  0.00     0.059 A 
ATOM     85  F   UNL A   1      47.088  39.062  32.294  1.00  0.00    -0.206 F 
ATOM     86  C   UNL A   1      44.641  41.455  31.141  1.00  0.00     0.060 A 
BRANCH  86  87
ATOM     87  S   UNL A   1      43.995  43.084  31.572  1.00  0.00     0.124 S 
ATOM     88  O   UNL A   1      44.971  43.963  30.935  1.00  0.00    -0.237 OA
ATOM     89  O   UNL A   1      42.669  43.063  30.964  1.00  0.00    -0.237 OA
ATOM     90  O   UNL A   1      44.013  43.083  33.032  1.00  0.00    -0.744 OA
ENDBRANCH  86  87
ENDBRANCH  65  79
BRANCH  66  91
ATOM     91  C   UNL A   1      48.515  29.616  28.181  1.00  0.00     0.058 A 
ATOM     92  C   UNL A   1      48.008  28.997  27.028  1.00  0.00     0.135 A 
ATOM     93  C   UNL A   1      49.426  28.889  28.964  1.00  0.00     0.135 A 
ATOM     94  F   UNL A   1      47.121  29.643  26.255  1.00  0.00    -0.206 F 
ATOM     95  C   UNL A   1      48.381  27.707  26.669  1.00  0.00     0.059 A 
ATOM     96  C   UNL A   1      49.838  27.608  28.609  1.00  0.00     0.059 A 
ATOM     97  F   UNL A   1      49.946  29.437  30.074  1.00  0.00    -0.206 F 
ATOM     98  C   UNL A   1      49.304  27.022  27.463  1.00  0.00     0.060 A 
BRANCH  98  99
ATOM     99  S   UNL A   1      49.829  25.372  26.952  1.00  0.00     0.124 S 
ATOM    100  O   UNL A   1      48.609  24.599  27.149  1.00  0.00    -0.237 OA
ATOM    101  O   UNL A   1      50.228  25.595  25.567  1.00  0.00    -0.237 OA
ATOM    102  O   UNL A   1      50.922  25.068  27.871  1.00  0.00    -0.744 OA
ENDBRANCH  98  99
ENDBRANCH  66  91
BRANCH  78 103
ATOM    103  C   UNL A   1      50.913  35.973  26.530  1.00  0.00     0.058 A 
ATOM    104  C   UNL A   1      50.761  36.391  25.198  1.00  0.00     0.135 A 
ATOM    105  C   UNL A   1      52.193  36.067  27.101  1.00  0.00     0.135 A 
ATOM    106  F   UNL A   1      49.561  36.320  24.600  1.00  0.00    -0.206 F 
ATOM    107  C   UNL A   1      51.841  36.859  24.455  1.00  0.00     0.059 A 
ATOM    108  C   UNL A   1      53.279  36.563  26.388  1.00  0.00     0.059 A 
ATOM    109  F   UNL A   1      52.394  35.694  28.375  1.00  0.00    -0.206 F 
ATOM    110  C   UNL A   1      53.096  36.944  25.060  1.00  0.00     0.060 A 
BRANCH 110 111
ATOM    111  S   UNL A   1      54.481  37.582  24.094  1.00  0.00     0.124 S 
ATOM    112  O   UNL A   1      53.837  38.633  23.314  1.00  0.00    -0.237 OA
ATOM    113  O   UNL A   1      55.402  38.035  25.132  1.00  0.00    -0.237 OA
ATOM    114  O   UNL A   1      54.929  36.421  23.331  1.00  0.00    -0.744 OA
ENDBRANCH 110 111
ENDBRANCH  78 103
ENDBRANCH  52  53
ENDBRANCH  45  47
ENDBRANCH  44  45
ENDBRANCH  43  44
ENDBRANCH  42  43
ENDBRANCH  41  42
ENDBRANCH  40  41
ENDBRANCH  39  40
ENDBRANCH   1  39
TORSDOF 28
ENDMDL
