MODEL 1
REMARK VINA RESULT:     -13.3      0.000      0.000
REMARK SMILES Cc1ccc(CCC(=O)N2CCC3(CC2)[C@H](C(=O)OCCOCCOCCOCCOC(=O)c2ccc(-c4c5nc(c(-c6c(F)cc(S(=O)(=O)[O-])cc6F)c6ccc([nH]6)c(-c6c(F)cc(S(=O)(=O)[O-])cc6F)c6nc(c(-c7c(F)cc(S(=O)(=O)[O-])cc7F)c7ccc4[nH]7)C=C6)C=C5)cc2)CC(=O)N3C)cc1
REMARK SMILES IDX 25 1 24 2 23 3 22 4 21 5 20 6 19 7 17 8 18 9 16 10 8 11 9 12
REMARK SMILES IDX 10 13 11 14 15 15 12 16 14 17 13 18 103 19 100 20 101 21
REMARK SMILES IDX 104 22 102 23 7 24 6 25 5 26 1 27 2 28 3 29 106 30 4 31
REMARK SMILES IDX 105 32 26 33 27 34 28 35 29 36 30 37 31 38 32 39 33 40 34 41
REMARK SMILES IDX 35 42 99 43 36 44 98 45 37 46 38 47 39 48 92 49 40 50 97 51
REMARK SMILES IDX 91 52 93 53 41 54 96 55 90 56 89 57 42 59 76 60 55 61 75 62
REMARK SMILES IDX 56 63 59 64 74 65 94 66 57 67 58 68 73 70 95 71 60 72 43 73
REMARK SMILES IDX 44 74 53 75 45 76 46 77 52 78 54 79 47 80 48 81 49 82 50 83
REMARK SMILES IDX 51 84 77 85 78 86 87 87 79 88 80 89 86 90 88 91 81 92 82 93
REMARK SMILES IDX 83 94 84 95 85 96 61 97 62 98 71 99 63 100 64 101 70 102
REMARK SMILES IDX 72 103 65 104 66 105 67 106 68 107 69 108
REMARK H PARENT 93 58 59 69
REMARK Flexibility Score: inf
ROOT
ATOM      1  O   UNL A   1      43.983  22.043  25.339  1.00  0.00    -0.377 OA
ENDROOT
BRANCH   1   2
ATOM      2  C   UNL A   1      42.372  22.629  26.010  1.00  0.00     0.188 C 
BRANCH   2   3
ATOM      3  C   UNL A   1      40.941  21.850  26.706  1.00  0.00     0.188 C 
BRANCH   3   4
ATOM      4  O   UNL A   1      39.635  22.444  27.003  1.00  0.00    -0.376 OA
BRANCH   4   5
ATOM      5  C   UNL A   1      38.948  23.577  26.437  1.00  0.00     0.202 C 
BRANCH   5   6
ATOM      6  C   UNL A   1      37.501  23.539  25.923  1.00  0.00     0.261 C 
BRANCH   6   7
ATOM      7  O   UNL A   1      37.012  24.054  24.738  1.00  0.00    -0.463 OA
BRANCH   7   8
ATOM      8  C   UNL A   1      36.499  23.084  23.985  1.00  0.00     0.311 C 
ATOM      9  O   UNL A   1      36.842  22.893  22.825  1.00  0.00    -0.252 OA
BRANCH   8  10
ATOM     10  C   UNL A   1      35.268  22.484  24.628  1.00  0.00     0.134 C 
ATOM     11  C   UNL A   1      30.632  25.459  25.944  1.00  0.00     0.222 C 
ATOM     12  O   UNL A   1      29.516  25.770  25.522  1.00  0.00    -0.275 OA
ATOM     13  N   UNL A   1      31.255  24.290  25.527  1.00  0.00    -0.343 N 
ATOM     14  C   UNL A   1      31.054  23.591  24.280  1.00  0.00     0.122 C 
ATOM     15  C   UNL A   1      32.027  23.522  26.418  1.00  0.00     0.122 C 
ATOM     16  C   UNL A   1      32.430  23.081  23.680  1.00  0.00     0.051 C 
ATOM     17  C   UNL A   1      33.424  23.447  25.918  1.00  0.00     0.051 C 
ATOM     18  C   UNL A   1      33.610  22.568  24.670  1.00  0.00     0.060 C 
ATOM     19  N   UNL A   1      33.326  21.115  24.903  1.00  0.00    -0.339 N 
ATOM     20  C   UNL A   1      35.673  21.020  24.764  1.00  0.00     0.118 C 
ATOM     21  C   UNL A   1      34.418  20.266  24.863  1.00  0.00     0.223 C 
ATOM     22  C   UNL A   1      32.032  20.488  24.742  1.00  0.00     0.147 C 
ATOM     23  O   UNL A   1      34.378  19.044  24.871  1.00  0.00    -0.275 OA
BRANCH  11  24
ATOM     24  C   UNL A   1      31.491  26.488  26.753  1.00  0.00     0.105 C 
BRANCH  24  25
ATOM     25  C   UNL A   1      32.398  27.590  26.145  1.00  0.00     0.045 C 
BRANCH  25  26
ATOM     26  C   UNL A   1      32.712  27.480  24.657  1.00  0.00    -0.047 A 
ATOM     27  C   UNL A   1      32.606  25.593  20.818  1.00  0.00     0.044 C 
ATOM     28  C   UNL A   1      32.816  26.455  22.038  1.00  0.00    -0.051 A 
ATOM     29  C   UNL A   1      33.839  26.169  22.951  1.00  0.00     0.004 A 
ATOM     30  C   UNL A   1      31.857  27.419  22.381  1.00  0.00     0.004 A 
ATOM     31  C   UNL A   1      33.827  26.736  24.233  1.00  0.00     0.004 A 
ATOM     32  C   UNL A   1      31.793  27.914  23.692  1.00  0.00     0.004 A 
ENDBRANCH  25  26
ENDBRANCH  24  25
ENDBRANCH  11  24
ENDBRANCH   8  10
ENDBRANCH   7   8
ENDBRANCH   6   7
ENDBRANCH   5   6
ENDBRANCH   4   5
ENDBRANCH   3   4
ENDBRANCH   2   3
ENDBRANCH   1   2
BRANCH   1  33
ATOM     33  C   UNL A   1      45.575  23.251  24.841  1.00  0.00     0.188 C 
BRANCH  33  34
ATOM     34  C   UNL A   1      44.721  25.129  25.104  1.00  0.00     0.188 C 
BRANCH  34  35
ATOM     35  O   UNL A   1      45.376  25.932  26.737  1.00  0.00    -0.376 OA
BRANCH  35  36
ATOM     36  C   UNL A   1      44.044  26.833  27.724  1.00  0.00     0.202 C 
BRANCH  36  37
ATOM     37  C   UNL A   1      44.421  28.762  27.827  1.00  0.00     0.261 C 
BRANCH  37  38
ATOM     38  O   UNL A   1      46.168  29.455  27.789  1.00  0.00    -0.460 OA
BRANCH  38  39
ATOM     39  C   UNL A   1      47.479  30.397  27.226  1.00  0.00     0.338 C 
ATOM     40  O   UNL A   1      48.176  29.723  26.441  1.00  0.00    -0.246 OA
BRANCH  39  41
ATOM     41  C   UNL A   1      48.449  31.929  27.776  1.00  0.00     0.060 A 
ATOM     42  C   UNL A   1      48.608  32.326  29.123  1.00  0.00     0.016 A 
ATOM     43  C   UNL A   1      48.790  33.159  27.115  1.00  0.00     0.016 A 
ATOM     44  C   UNL A   1      48.396  33.804  29.652  1.00  0.00     0.010 A 
ATOM     45  C   UNL A   1      48.377  34.622  27.640  1.00  0.00     0.010 A 
ATOM     46  C   UNL A   1      47.827  34.930  28.915  1.00  0.00    -0.014 A 
BRANCH  46  47
ATOM     47  C   UNL A   1      46.275  35.965  29.230  1.00  0.00     0.031 A 
ATOM     48  C   UNL A   1      46.219  37.226  28.268  1.00  0.00     0.074 A 
ATOM     49  C   UNL A   1      45.043  35.777  30.193  1.00  0.00     0.049 A 
ATOM     50  N   UNL A   1      45.949  38.471  28.622  1.00  0.00    -0.248 NA
ATOM     51  C   UNL A   1      46.437  37.133  26.828  1.00  0.00     0.031 C 
ATOM     52  C   UNL A   1      43.379  35.617  30.546  1.00  0.00     0.029 A 
ATOM     53  N   UNL A   1      44.983  35.070  31.312  1.00  0.00    -0.354 N 
ATOM     54  C   UNL A   1      45.537  39.185  27.477  1.00  0.00     0.074 A 
ATOM     55  C   UNL A   1      46.062  38.349  26.402  1.00  0.00     0.031 C 
ATOM     56  C   UNL A   1      43.035  35.406  31.868  1.00  0.00     0.029 A 
ATOM     57  C   UNL A   1      44.175  34.829  32.363  1.00  0.00     0.049 A 
ATOM     58  H   UNL A   1      45.808  34.541  31.408  1.00  0.00     0.167 HD
ATOM     59  C   UNL A   1      44.643  40.264  27.499  1.00  0.00     0.037 A 
ATOM     60  C   UNL A   1      45.008  34.491  33.322  1.00  0.00     0.037 A 
ATOM     61  C   UNL A   1      43.967  40.532  28.871  1.00  0.00     0.049 A 
ATOM     62  C   UNL A   1      45.112  36.343  33.508  1.00  0.00     0.074 A 
ATOM     63  C   UNL A   1      42.624  40.644  29.268  1.00  0.00     0.029 A 
ATOM     64  N   UNL A   1      44.650  40.417  30.097  1.00  0.00    -0.354 N 
ATOM     65  N   UNL A   1      44.438  37.351  32.872  1.00  0.00    -0.248 NA
ATOM     66  C   UNL A   1      45.852  37.026  34.585  1.00  0.00     0.031 C 
ATOM     67  C   UNL A   1      42.525  40.648  30.723  1.00  0.00     0.029 A 
ATOM     68  C   UNL A   1      43.808  40.365  31.255  1.00  0.00     0.049 A 
ATOM     69  H   UNL A   1      45.632  40.376  30.154  1.00  0.00     0.167 HD
ATOM     70  C   UNL A   1      44.740  38.693  33.243  1.00  0.00     0.074 A 
ATOM     71  C   UNL A   1      45.579  38.355  34.421  1.00  0.00     0.031 C 
ATOM     72  C   UNL A   1      44.433  39.996  32.650  1.00  0.00     0.037 A 
BRANCH  59  73
ATOM     73  C   UNL A   1      44.103  41.039  26.194  1.00  0.00     0.058 A 
ATOM     74  C   UNL A   1      42.779  40.847  25.707  1.00  0.00     0.135 A 
ATOM     75  C   UNL A   1      44.781  42.037  25.440  1.00  0.00     0.135 A 
ATOM     76  F   UNL A   1      41.914  40.026  26.312  1.00  0.00    -0.206 F 
ATOM     77  C   UNL A   1      42.212  41.526  24.606  1.00  0.00     0.059 A 
ATOM     78  C   UNL A   1      44.237  42.731  24.331  1.00  0.00     0.059 A 
ATOM     79  F   UNL A   1      45.993  42.483  25.767  1.00  0.00    -0.206 F 
ATOM     80  C   UNL A   1      42.942  42.477  23.922  1.00  0.00     0.060 A 
BRANCH  80  81
ATOM     81  S   UNL A   1      42.152  43.428  22.603  1.00  0.00     0.124 S 
ATOM     82  O   UNL A   1      43.045  43.193  21.474  1.00  0.00    -0.237 OA
ATOM     83  O   UNL A   1      40.837  42.802  22.512  1.00  0.00    -0.237 OA
ATOM     84  O   UNL A   1      42.149  44.796  23.120  1.00  0.00    -0.744 OA
ENDBRANCH  80  81
ENDBRANCH  59  73
BRANCH  60  85
ATOM     85  C   UNL A   1      45.594  33.079  32.188  1.00  0.00     0.058 A 
ATOM     86  C   UNL A   1      47.170  32.430  32.300  1.00  0.00     0.135 A 
ATOM     87  C   UNL A   1      44.451  31.820  32.061  1.00  0.00     0.135 A 
ATOM     88  F   UNL A   1      48.167  33.329  32.429  1.00  0.00    -0.206 F 
ATOM     89  C   UNL A   1      47.708  30.718  32.393  1.00  0.00     0.059 A 
ATOM     90  C   UNL A   1      44.675  30.038  32.615  1.00  0.00     0.059 A 
ATOM     91  F   UNL A   1      43.274  32.478  31.897  1.00  0.00    -0.206 F 
ATOM     92  C   UNL A   1      46.523  29.317  32.471  1.00  0.00     0.060 A 
BRANCH  92  93
ATOM     93  S   UNL A   1      46.765  27.015  31.458  1.00  0.00     0.124 S 
ATOM     94  O   UNL A   1      45.674  26.131  31.891  1.00  0.00    -0.237 OA
ATOM     95  O   UNL A   1      46.797  27.052  29.979  1.00  0.00    -0.237 OA
ATOM     96  O   UNL A   1      48.035  26.375  31.915  1.00  0.00    -0.744 OA
ENDBRANCH  92  93
ENDBRANCH  60  85
BRANCH  72  97
ATOM     97  C   UNL A   1      44.894  41.317  33.276  1.00  0.00     0.058 A 
ATOM     98  C   UNL A   1      44.067  42.217  33.946  1.00  0.00     0.135 A 
ATOM     99  C   UNL A   1      46.252  41.741  33.143  1.00  0.00     0.135 A 
ATOM    100  F   UNL A   1      42.732  42.101  33.896  1.00  0.00    -0.206 F 
ATOM    101  C   UNL A   1      44.598  43.295  34.659  1.00  0.00     0.059 A 
ATOM    102  C   UNL A   1      46.794  42.810  33.812  1.00  0.00     0.059 A 
ATOM    103  F   UNL A   1      47.146  41.172  32.329  1.00  0.00    -0.206 F 
ATOM    104  C   UNL A   1      45.971  43.550  34.618  1.00  0.00     0.060 A 
BRANCH 104 105
ATOM    105  S   UNL A   1      46.680  44.910  35.536  1.00  0.00     0.124 S 
ATOM    106  O   UNL A   1      46.404  44.514  36.914  1.00  0.00    -0.237 OA
ATOM    107  O   UNL A   1      48.074  44.844  35.115  1.00  0.00    -0.237 OA
ATOM    108  O   UNL A   1      45.935  46.074  35.061  1.00  0.00    -0.744 OA
ENDBRANCH 104 105
ENDBRANCH  72  97
ENDBRANCH  46  47
ENDBRANCH  39  41
ENDBRANCH  38  39
ENDBRANCH  37  38
ENDBRANCH  36  37
ENDBRANCH  35  36
ENDBRANCH  34  35
ENDBRANCH  33  34
ENDBRANCH   1  33
TORSDOF 26
ENDMDL
MODEL 2
REMARK VINA RESULT:     -13.1      7.063     14.180
REMARK SMILES Cc1ccc(CCC(=O)N2CCC3(CC2)[C@H](C(=O)OCCOCCOCCOCCOC(=O)c2ccc(-c4c5nc(c(-c6c(F)cc(S(=O)(=O)[O-])cc6F)c6ccc([nH]6)c(-c6c(F)cc(S(=O)(=O)[O-])cc6F)c6nc(c(-c7c(F)cc(S(=O)(=O)[O-])cc7F)c7ccc4[nH]7)C=C6)C=C5)cc2)CC(=O)N3C)cc1
REMARK SMILES IDX 25 1 24 2 23 3 22 4 21 5 20 6 19 7 17 8 18 9 16 10 8 11 9 12
REMARK SMILES IDX 10 13 11 14 15 15 12 16 14 17 13 18 103 19 100 20 101 21
REMARK SMILES IDX 104 22 102 23 7 24 6 25 5 26 1 27 2 28 3 29 106 30 4 31
REMARK SMILES IDX 105 32 26 33 27 34 28 35 29 36 30 37 31 38 32 39 33 40 34 41
REMARK SMILES IDX 35 42 99 43 36 44 98 45 37 46 38 47 39 48 92 49 40 50 97 51
REMARK SMILES IDX 91 52 93 53 41 54 96 55 90 56 89 57 42 59 76 60 55 61 75 62
REMARK SMILES IDX 56 63 59 64 74 65 94 66 57 67 58 68 73 70 95 71 60 72 43 73
REMARK SMILES IDX 44 74 53 75 45 76 46 77 52 78 54 79 47 80 48 81 49 82 50 83
REMARK SMILES IDX 51 84 77 85 78 86 87 87 79 88 80 89 86 90 88 91 81 92 82 93
REMARK SMILES IDX 83 94 84 95 85 96 61 97 62 98 71 99 63 100 64 101 70 102
REMARK SMILES IDX 72 103 65 104 66 105 67 106 68 107 69 108
REMARK H PARENT 93 58 59 69
REMARK Flexibility Score: inf
ROOT
ATOM      1  O   UNL A   1      39.333  29.680  30.691  1.00  0.00    -0.377 OA
ENDROOT
BRANCH   1   2
ATOM      2  C   UNL A   1      38.696  31.162  29.806  1.00  0.00     0.188 C 
BRANCH   2   3
ATOM      3  C   UNL A   1      37.249  31.534  28.853  1.00  0.00     0.188 C 
BRANCH   3   4
ATOM      4  O   UNL A   1      35.939  30.878  28.895  1.00  0.00    -0.376 OA
BRANCH   4   5
ATOM      5  C   UNL A   1      35.157  30.234  27.870  1.00  0.00     0.202 C 
BRANCH   5   6
ATOM      6  C   UNL A   1      33.833  30.786  27.322  1.00  0.00     0.261 C 
BRANCH   6   7
ATOM      7  O   UNL A   1      33.190  30.433  26.151  1.00  0.00    -0.463 OA
BRANCH   7   8
ATOM      8  C   UNL A   1      32.435  29.354  26.339  1.00  0.00     0.311 C 
ATOM      9  O   UNL A   1      31.757  29.186  27.344  1.00  0.00    -0.252 OA
BRANCH   8  10
ATOM     10  C   UNL A   1      32.764  28.274  25.332  1.00  0.00     0.134 C 
ATOM     11  C   UNL A   1      31.435  22.812  26.022  1.00  0.00     0.222 C 
ATOM     12  O   UNL A   1      30.581  21.968  25.739  1.00  0.00    -0.275 OA
ATOM     13  N   UNL A   1      31.633  23.928  25.220  1.00  0.00    -0.343 N 
ATOM     14  C   UNL A   1      30.666  24.566  24.357  1.00  0.00     0.122 C 
ATOM     15  C   UNL A   1      32.923  24.446  25.002  1.00  0.00     0.122 C 
ATOM     16  C   UNL A   1      30.761  26.144  24.456  1.00  0.00     0.051 C 
ATOM     17  C   UNL A   1      32.983  25.842  25.507  1.00  0.00     0.051 C 
ATOM     18  C   UNL A   1      32.203  26.862  24.660  1.00  0.00     0.060 C 
ATOM     19  N   UNL A   1      32.751  27.048  23.278  1.00  0.00    -0.339 N 
ATOM     20  C   UNL A   1      33.466  29.073  24.240  1.00  0.00     0.118 C 
ATOM     21  C   UNL A   1      33.349  28.269  23.018  1.00  0.00     0.223 C 
ATOM     22  C   UNL A   1      32.351  26.281  22.118  1.00  0.00     0.147 C 
ATOM     23  O   UNL A   1      33.711  28.672  21.921  1.00  0.00    -0.275 OA
BRANCH  11  24
ATOM     24  C   UNL A   1      32.139  22.791  27.420  1.00  0.00     0.105 C 
BRANCH  24  25
ATOM     25  C   UNL A   1      33.481  22.086  27.751  1.00  0.00     0.045 C 
BRANCH  25  26
ATOM     26  C   UNL A   1      34.424  21.820  26.583  1.00  0.00    -0.047 A 
ATOM     27  C   UNL A   1      37.793  19.993  24.679  1.00  0.00     0.044 C 
ATOM     28  C   UNL A   1      36.579  20.785  25.097  1.00  0.00    -0.051 A 
ATOM     29  C   UNL A   1      36.715  21.993  25.793  1.00  0.00     0.004 A 
ATOM     30  C   UNL A   1      35.304  20.213  24.983  1.00  0.00     0.004 A 
ATOM     31  C   UNL A   1      35.622  22.547  26.475  1.00  0.00     0.004 A 
ATOM     32  C   UNL A   1      34.235  20.717  25.739  1.00  0.00     0.004 A 
ENDBRANCH  25  26
ENDBRANCH  24  25
ENDBRANCH  11  24
ENDBRANCH   8  10
ENDBRANCH   7   8
ENDBRANCH   6   7
ENDBRANCH   5   6
ENDBRANCH   4   5
ENDBRANCH   3   4
ENDBRANCH   2   3
ENDBRANCH   1   2
BRANCH   1  33
ATOM     33  C   UNL A   1      38.563  27.776  30.532  1.00  0.00     0.188 C 
BRANCH  33  34
ATOM     34  C   UNL A   1      39.334  27.210  28.685  1.00  0.00     0.188 C 
BRANCH  34  35
ATOM     35  O   UNL A   1      39.719  25.314  28.681  1.00  0.00    -0.376 OA
BRANCH  35  36
ATOM     36  C   UNL A   1      39.447  24.491  27.006  1.00  0.00     0.202 C 
BRANCH  36  37
ATOM     37  C   UNL A   1      40.913  23.249  26.580  1.00  0.00     0.261 C 
BRANCH  37  38
ATOM     38  O   UNL A   1      42.720  23.681  26.865  1.00  0.00    -0.460 OA
BRANCH  38  39
ATOM     39  C   UNL A   1      44.117  24.117  27.749  1.00  0.00     0.338 C 
ATOM     40  O   UNL A   1      43.868  24.090  28.971  1.00  0.00    -0.246 OA
BRANCH  39  41
ATOM     41  C   UNL A   1      45.729  25.067  27.454  1.00  0.00     0.060 A 
ATOM     42  C   UNL A   1      47.017  24.493  27.542  1.00  0.00     0.016 A 
ATOM     43  C   UNL A   1      46.074  26.460  27.548  1.00  0.00     0.016 A 
ATOM     44  C   UNL A   1      48.235  25.140  28.320  1.00  0.00     0.010 A 
ATOM     45  C   UNL A   1      47.222  27.052  28.507  1.00  0.00     0.010 A 
ATOM     46  C   UNL A   1      48.195  26.294  29.215  1.00  0.00    -0.014 A 
BRANCH  46  47
ATOM     47  C   UNL A   1      48.597  26.454  31.057  1.00  0.00     0.031 A 
ATOM     48  C   UNL A   1      49.832  25.541  31.458  1.00  0.00     0.074 A 
ATOM     49  C   UNL A   1      47.992  27.342  32.208  1.00  0.00     0.049 A 
ATOM     50  N   UNL A   1      49.902  24.731  32.501  1.00  0.00    -0.248 NA
ATOM     51  C   UNL A   1      51.082  25.525  30.704  1.00  0.00     0.031 C 
ATOM     52  C   UNL A   1      48.079  28.500  33.462  1.00  0.00     0.029 A 
ATOM     53  N   UNL A   1      46.789  27.892  32.268  1.00  0.00    -0.354 N 
ATOM     54  C   UNL A   1      51.261  24.474  32.779  1.00  0.00     0.074 A 
ATOM     55  C   UNL A   1      51.896  24.830  31.514  1.00  0.00     0.031 C 
ATOM     56  C   UNL A   1      46.893  28.836  34.088  1.00  0.00     0.029 A 
ATOM     57  C   UNL A   1      45.973  28.551  33.115  1.00  0.00     0.049 A 
ATOM     58  H   UNL A   1      46.337  27.781  31.401  1.00  0.00     0.167 HD
ATOM     59  C   UNL A   1      51.766  24.196  34.057  1.00  0.00     0.037 A 
ATOM     60  C   UNL A   1      44.769  28.258  32.675  1.00  0.00     0.037 A 
ATOM     61  C   UNL A   1      50.750  24.367  35.218  1.00  0.00     0.049 A 
ATOM     62  C   UNL A   1      45.052  26.748  33.729  1.00  0.00     0.074 A 
ATOM     63  C   UNL A   1      50.778  25.111  36.411  1.00  0.00     0.029 A 
ATOM     64  N   UNL A   1      49.398  23.986  35.117  1.00  0.00    -0.354 N 
ATOM     65  N   UNL A   1      46.087  26.409  34.558  1.00  0.00    -0.248 NA
ATOM     66  C   UNL A   1      44.030  25.715  33.987  1.00  0.00     0.031 C 
ATOM     67  C   UNL A   1      49.459  25.121  37.032  1.00  0.00     0.029 A 
ATOM     68  C   UNL A   1      48.542  24.517  36.135  1.00  0.00     0.049 A 
ATOM     69  H   UNL A   1      49.067  23.399  34.399  1.00  0.00     0.167 HD
ATOM     70  C   UNL A   1      46.011  25.163  35.247  1.00  0.00     0.074 A 
ATOM     71  C   UNL A   1      44.604  24.860  34.885  1.00  0.00     0.031 C 
ATOM     72  C   UNL A   1      46.984  24.364  35.993  1.00  0.00     0.037 A 
BRANCH  59  73
ATOM     73  C   UNL A   1      53.324  23.977  34.403  1.00  0.00     0.058 A 
ATOM     74  C   UNL A   1      53.814  22.729  34.882  1.00  0.00     0.135 A 
ATOM     75  C   UNL A   1      54.391  24.897  34.201  1.00  0.00     0.135 A 
ATOM     76  F   UNL A   1      53.011  21.675  35.059  1.00  0.00    -0.206 F 
ATOM     77  C   UNL A   1      55.169  22.438  35.155  1.00  0.00     0.059 A 
ATOM     78  C   UNL A   1      55.757  24.632  34.469  1.00  0.00     0.059 A 
ATOM     79  F   UNL A   1      54.210  26.095  33.649  1.00  0.00    -0.206 F 
ATOM     80  C   UNL A   1      56.143  23.392  34.940  1.00  0.00     0.060 A 
BRANCH  80  81
ATOM     81  S   UNL A   1      57.883  22.956  35.167  1.00  0.00     0.124 S 
ATOM     82  O   UNL A   1      58.365  22.880  33.793  1.00  0.00    -0.237 OA
ATOM     83  O   UNL A   1      58.385  24.078  35.954  1.00  0.00    -0.237 OA
ATOM     84  O   UNL A   1      57.828  21.681  35.880  1.00  0.00    -0.744 OA
ENDBRANCH  80  81
ENDBRANCH  59  73
BRANCH  60  85
ATOM     85  C   UNL A   1      45.291  29.026  31.012  1.00  0.00     0.058 A 
ATOM     86  C   UNL A   1      44.494  28.638  29.552  1.00  0.00     0.135 A 
ATOM     87  C   UNL A   1      45.538  30.710  31.114  1.00  0.00     0.135 A 
ATOM     88  F   UNL A   1      44.219  27.332  29.363  1.00  0.00    -0.206 F 
ATOM     89  C   UNL A   1      43.851  29.718  28.268  1.00  0.00     0.059 A 
ATOM     90  C   UNL A   1      44.570  32.045  30.212  1.00  0.00     0.059 A 
ATOM     91  F   UNL A   1      46.244  30.856  32.265  1.00  0.00    -0.206 F 
ATOM     92  C   UNL A   1      43.896  31.549  28.408  1.00  0.00     0.060 A 
BRANCH  92  93
ATOM     93  S   UNL A   1      44.236  33.243  26.565  1.00  0.00     0.124 S 
ATOM     94  O   UNL A   1      43.241  34.320  26.649  1.00  0.00    -0.237 OA
ATOM     95  O   UNL A   1      45.592  33.836  26.589  1.00  0.00    -0.237 OA
ATOM     96  O   UNL A   1      44.055  32.602  25.227  1.00  0.00    -0.744 OA
ENDBRANCH  92  93
ENDBRANCH  60  85
BRANCH  72  97
ATOM     97  C   UNL A   1      46.622  23.027  36.650  1.00  0.00     0.058 A 
ATOM     98  C   UNL A   1      46.280  21.864  35.963  1.00  0.00     0.135 A 
ATOM     99  C   UNL A   1      46.555  22.919  38.073  1.00  0.00     0.135 A 
ATOM    100  F   UNL A   1      46.015  21.889  34.648  1.00  0.00    -0.206 F 
ATOM    101  C   UNL A   1      46.161  20.640  36.625  1.00  0.00     0.059 A 
ATOM    102  C   UNL A   1      46.415  21.733  38.750  1.00  0.00     0.059 A 
ATOM    103  F   UNL A   1      46.588  23.958  38.913  1.00  0.00    -0.206 F 
ATOM    104  C   UNL A   1      46.276  20.585  38.016  1.00  0.00     0.060 A 
BRANCH 104 105
ATOM    105  S   UNL A   1      46.148  19.030  38.888  1.00  0.00     0.124 S 
ATOM    106  O   UNL A   1      45.322  18.245  37.977  1.00  0.00    -0.237 OA
ATOM    107  O   UNL A   1      47.550  18.639  38.984  1.00  0.00    -0.237 OA
ATOM    108  O   UNL A   1      45.511  19.393  40.151  1.00  0.00    -0.744 OA
ENDBRANCH 104 105
ENDBRANCH  72  97
ENDBRANCH  46  47
ENDBRANCH  39  41
ENDBRANCH  38  39
ENDBRANCH  37  38
ENDBRANCH  36  37
ENDBRANCH  35  36
ENDBRANCH  34  35
ENDBRANCH  33  34
ENDBRANCH   1  33
TORSDOF 26
ENDMDL
MODEL 3
REMARK VINA RESULT:     -13.1      1.126      2.064
REMARK SMILES Cc1ccc(CCC(=O)N2CCC3(CC2)[C@H](C(=O)OCCOCCOCCOCCOC(=O)c2ccc(-c4c5nc(c(-c6c(F)cc(S(=O)(=O)[O-])cc6F)c6ccc([nH]6)c(-c6c(F)cc(S(=O)(=O)[O-])cc6F)c6nc(c(-c7c(F)cc(S(=O)(=O)[O-])cc7F)c7ccc4[nH]7)C=C6)C=C5)cc2)CC(=O)N3C)cc1
REMARK SMILES IDX 25 1 24 2 23 3 22 4 21 5 20 6 19 7 17 8 18 9 16 10 8 11 9 12
REMARK SMILES IDX 10 13 11 14 15 15 12 16 14 17 13 18 103 19 100 20 101 21
REMARK SMILES IDX 104 22 102 23 7 24 6 25 5 26 1 27 2 28 3 29 106 30 4 31
REMARK SMILES IDX 105 32 26 33 27 34 28 35 29 36 30 37 31 38 32 39 33 40 34 41
REMARK SMILES IDX 35 42 99 43 36 44 98 45 37 46 38 47 39 48 92 49 40 50 97 51
REMARK SMILES IDX 91 52 93 53 41 54 96 55 90 56 89 57 42 59 76 60 55 61 75 62
REMARK SMILES IDX 56 63 59 64 74 65 94 66 57 67 58 68 73 70 95 71 60 72 43 73
REMARK SMILES IDX 44 74 53 75 45 76 46 77 52 78 54 79 47 80 48 81 49 82 50 83
REMARK SMILES IDX 51 84 77 85 78 86 87 87 79 88 80 89 86 90 88 91 81 92 82 93
REMARK SMILES IDX 83 94 84 95 85 96 61 97 62 98 71 99 63 100 64 101 70 102
REMARK SMILES IDX 72 103 65 104 66 105 67 106 68 107 69 108
REMARK H PARENT 93 58 59 69
REMARK Flexibility Score: inf
ROOT
ATOM      1  O   UNL A   1      44.022  21.720  25.395  1.00  0.00    -0.377 OA
ENDROOT
BRANCH   1   2
ATOM      2  C   UNL A   1      42.371  22.269  25.995  1.00  0.00     0.188 C 
BRANCH   2   3
ATOM      3  C   UNL A   1      40.974  21.473  26.739  1.00  0.00     0.188 C 
BRANCH   3   4
ATOM      4  O   UNL A   1      39.624  22.005  26.940  1.00  0.00    -0.376 OA
BRANCH   4   5
ATOM      5  C   UNL A   1      38.837  22.936  26.172  1.00  0.00     0.202 C 
BRANCH   5   6
ATOM      6  C   UNL A   1      37.338  22.765  25.883  1.00  0.00     0.261 C 
BRANCH   6   7
ATOM      7  O   UNL A   1      36.753  22.193  24.770  1.00  0.00    -0.463 OA
BRANCH   7   8
ATOM      8  C   UNL A   1      35.681  21.485  25.118  1.00  0.00     0.311 C 
ATOM      9  O   UNL A   1      35.557  20.296  24.856  1.00  0.00    -0.252 OA
BRANCH   8  10
ATOM     10  C   UNL A   1      34.557  22.387  25.580  1.00  0.00     0.134 C 
ATOM     11  C   UNL A   1      32.027  26.219  22.264  1.00  0.00     0.222 C 
ATOM     12  O   UNL A   1      31.048  26.388  21.533  1.00  0.00    -0.275 OA
ATOM     13  N   UNL A   1      32.000  25.288  23.294  1.00  0.00    -0.343 N 
ATOM     14  C   UNL A   1      31.193  24.092  23.369  1.00  0.00     0.122 C 
ATOM     15  C   UNL A   1      32.636  25.546  24.523  1.00  0.00     0.122 C 
ATOM     16  C   UNL A   1      32.028  22.872  23.941  1.00  0.00     0.051 C 
ATOM     17  C   UNL A   1      33.686  24.521  24.756  1.00  0.00     0.051 C 
ATOM     18  C   UNL A   1      33.148  23.119  25.090  1.00  0.00     0.060 C 
ATOM     19  N   UNL A   1      32.405  23.049  26.389  1.00  0.00    -0.339 N 
ATOM     20  C   UNL A   1      34.384  21.947  27.029  1.00  0.00     0.118 C 
ATOM     21  C   UNL A   1      33.022  22.342  27.407  1.00  0.00     0.223 C 
ATOM     22  C   UNL A   1      30.983  23.265  26.542  1.00  0.00     0.147 C 
ATOM     23  O   UNL A   1      32.516  22.036  28.478  1.00  0.00    -0.275 OA
BRANCH  11  24
ATOM     24  C   UNL A   1      33.411  26.852  21.897  1.00  0.00     0.105 C 
BRANCH  24  25
ATOM     25  C   UNL A   1      33.882  28.283  22.269  1.00  0.00     0.045 C 
BRANCH  25  26
ATOM     26  C   UNL A   1      33.434  28.824  23.622  1.00  0.00    -0.047 A 
ATOM     27  C   UNL A   1      31.738  28.511  27.538  1.00  0.00     0.044 C 
ATOM     28  C   UNL A   1      32.347  28.909  26.217  1.00  0.00    -0.051 A 
ATOM     29  C   UNL A   1      31.539  29.167  25.102  1.00  0.00     0.004 A 
ATOM     30  C   UNL A   1      33.735  28.815  26.035  1.00  0.00     0.004 A 
ATOM     31  C   UNL A   1      32.093  29.196  23.815  1.00  0.00     0.004 A 
ATOM     32  C   UNL A   1      34.274  28.753  24.742  1.00  0.00     0.004 A 
ENDBRANCH  25  26
ENDBRANCH  24  25
ENDBRANCH  11  24
ENDBRANCH   8  10
ENDBRANCH   7   8
ENDBRANCH   6   7
ENDBRANCH   5   6
ENDBRANCH   4   5
ENDBRANCH   3   4
ENDBRANCH   2   3
ENDBRANCH   1   2
BRANCH   1  33
ATOM     33  C   UNL A   1      45.632  22.954  25.044  1.00  0.00     0.188 C 
BRANCH  33  34
ATOM     34  C   UNL A   1      44.695  24.810  25.056  1.00  0.00     0.188 C 
BRANCH  34  35
ATOM     35  O   UNL A   1      44.883  25.637  26.794  1.00  0.00    -0.376 OA
BRANCH  35  36
ATOM     36  C   UNL A   1      43.340  26.558  27.365  1.00  0.00     0.202 C 
BRANCH  36  37
ATOM     37  C   UNL A   1      43.618  28.506  27.320  1.00  0.00     0.261 C 
BRANCH  37  38
ATOM     38  O   UNL A   1      45.330  29.283  27.339  1.00  0.00    -0.460 OA
BRANCH  38  39
ATOM     39  C   UNL A   1      46.616  30.280  26.813  1.00  0.00     0.338 C 
ATOM     40  O   UNL A   1      47.205  29.737  25.857  1.00  0.00    -0.246 OA
BRANCH  39  41
ATOM     41  C   UNL A   1      47.694  31.671  27.512  1.00  0.00     0.060 A 
ATOM     42  C   UNL A   1      47.883  31.913  28.891  1.00  0.00     0.016 A 
ATOM     43  C   UNL A   1      48.123  32.936  26.980  1.00  0.00     0.016 A 
ATOM     44  C   UNL A   1      47.778  33.338  29.573  1.00  0.00     0.010 A 
ATOM     45  C   UNL A   1      47.817  34.362  27.659  1.00  0.00     0.010 A 
ATOM     46  C   UNL A   1      47.292  34.573  28.963  1.00  0.00    -0.014 A 
BRANCH  46  47
ATOM     47  C   UNL A   1      45.819  35.679  29.398  1.00  0.00     0.031 A 
ATOM     48  C   UNL A   1      45.753  36.950  28.449  1.00  0.00     0.074 A 
ATOM     49  C   UNL A   1      44.653  35.541  30.448  1.00  0.00     0.049 A 
ATOM     50  N   UNL A   1      45.570  38.204  28.830  1.00  0.00    -0.248 NA
ATOM     51  C   UNL A   1      45.861  36.860  26.997  1.00  0.00     0.031 C 
ATOM     52  C   UNL A   1      43.013  35.457  30.921  1.00  0.00     0.029 A 
ATOM     53  N   UNL A   1      44.641  34.827  31.564  1.00  0.00    -0.354 N 
ATOM     54  C   UNL A   1      45.111  38.946  27.722  1.00  0.00     0.074 A 
ATOM     55  C   UNL A   1      45.514  38.097  26.607  1.00  0.00     0.031 C 
ATOM     56  C   UNL A   1      42.758  35.251  32.264  1.00  0.00     0.029 A 
ATOM     57  C   UNL A   1      43.901  34.616  32.670  1.00  0.00     0.049 A 
ATOM     58  H   UNL A   1      45.444  34.259  31.596  1.00  0.00     0.167 HD
ATOM     59  C   UNL A   1      44.274  40.067  27.816  1.00  0.00     0.037 A 
ATOM     60  C   UNL A   1      44.785  34.229  33.564  1.00  0.00     0.037 A 
ATOM     61  C   UNL A   1      43.715  40.354  29.236  1.00  0.00     0.049 A 
ATOM     62  C   UNL A   1      44.992  36.072  33.751  1.00  0.00     0.074 A 
ATOM     63  C   UNL A   1      42.410  40.526  29.732  1.00  0.00     0.029 A 
ATOM     64  N   UNL A   1      44.478  40.195  30.408  1.00  0.00    -0.354 N 
ATOM     65  N   UNL A   1      44.322  37.117  33.173  1.00  0.00    -0.248 NA
ATOM     66  C   UNL A   1      45.841  36.709  34.776  1.00  0.00     0.031 C 
ATOM     67  C   UNL A   1      42.419  40.522  31.190  1.00  0.00     0.029 A 
ATOM     68  C   UNL A   1      43.723  40.172  31.625  1.00  0.00     0.049 A 
ATOM     69  H   UNL A   1      45.459  40.106  30.392  1.00  0.00     0.167 HD
ATOM     70  C   UNL A   1      44.715  38.440  33.529  1.00  0.00     0.074 A 
ATOM     71  C   UNL A   1      45.621  38.051  34.639  1.00  0.00     0.031 C 
ATOM     72  C   UNL A   1      44.429  39.761  32.967  1.00  0.00     0.037 A 
BRANCH  59  73
ATOM     73  C   UNL A   1      43.678  40.879  26.559  1.00  0.00     0.058 A 
ATOM     74  C   UNL A   1      44.496  41.737  25.770  1.00  0.00     0.135 A 
ATOM     75  C   UNL A   1      42.365  40.791  26.019  1.00  0.00     0.135 A 
ATOM     76  F   UNL A   1      45.797  41.905  26.024  1.00  0.00    -0.206 F 
ATOM     77  C   UNL A   1      44.066  42.439  24.622  1.00  0.00     0.059 A 
ATOM     78  C   UNL A   1      41.908  41.486  24.871  1.00  0.00     0.059 A 
ATOM     79  F   UNL A   1      41.442  39.963  26.505  1.00  0.00    -0.206 F 
ATOM     80  C   UNL A   1      42.769  42.305  24.168  1.00  0.00     0.060 A 
BRANCH  80  81
ATOM     81  S   UNL A   1      42.280  43.105  22.623  1.00  0.00     0.124 S 
ATOM     82  O   UNL A   1      42.574  44.507  22.893  1.00  0.00    -0.237 OA
ATOM     83  O   UNL A   1      43.147  42.453  21.646  1.00  0.00    -0.237 OA
ATOM     84  O   UNL A   1      40.860  42.779  22.500  1.00  0.00    -0.744 OA
ENDBRANCH  80  81
ENDBRANCH  59  73
BRANCH  60  85
ATOM     85  C   UNL A   1      45.217  32.801  32.381  1.00  0.00     0.058 A 
ATOM     86  C   UNL A   1      46.764  32.075  32.374  1.00  0.00     0.135 A 
ATOM     87  C   UNL A   1      44.007  31.600  32.330  1.00  0.00     0.135 A 
ATOM     88  F   UNL A   1      47.810  32.923  32.436  1.00  0.00    -0.206 F 
ATOM     89  C   UNL A   1      47.221  30.339  32.418  1.00  0.00     0.059 A 
ATOM     90  C   UNL A   1      44.183  29.804  32.855  1.00  0.00     0.059 A 
ATOM     91  F   UNL A   1      42.856  32.316  32.255  1.00  0.00    -0.206 F 
ATOM     92  C   UNL A   1      45.978  28.996  32.573  1.00  0.00     0.060 A 
BRANCH  92  93
ATOM     93  S   UNL A   1      46.033  26.695  31.531  1.00  0.00     0.124 S 
ATOM     94  O   UNL A   1      46.092  26.782  30.065  1.00  0.00    -0.237 OA
ATOM     95  O   UNL A   1      47.176  25.887  32.011  1.00  0.00    -0.237 OA
ATOM     96  O   UNL A   1      44.786  25.942  31.861  1.00  0.00    -0.744 OA
ENDBRANCH  92  93
ENDBRANCH  60  85
BRANCH  72  97
ATOM     97  C   UNL A   1      44.998  41.053  33.566  1.00  0.00     0.058 A 
ATOM     98  C   UNL A   1      44.242  42.062  34.158  1.00  0.00     0.135 A 
ATOM     99  C   UNL A   1      46.398  41.327  33.485  1.00  0.00     0.135 A 
ATOM    100  F   UNL A   1      42.905  42.083  34.045  1.00  0.00    -0.206 F 
ATOM    101  C   UNL A   1      44.850  43.108  34.856  1.00  0.00     0.059 A 
ATOM    102  C   UNL A   1      47.019  42.361  34.140  1.00  0.00     0.059 A 
ATOM    103  F   UNL A   1      47.264  40.632  32.740  1.00  0.00    -0.206 F 
ATOM    104  C   UNL A   1      46.242  43.217  34.875  1.00  0.00     0.060 A 
BRANCH 104 105
ATOM    105  S   UNL A   1      47.048  44.534  35.776  1.00  0.00     0.124 S 
ATOM    106  O   UNL A   1      47.014  44.023  37.142  1.00  0.00    -0.237 OA
ATOM    107  O   UNL A   1      48.357  44.563  35.132  1.00  0.00    -0.237 OA
ATOM    108  O   UNL A   1      46.199  45.696  35.523  1.00  0.00    -0.744 OA
ENDBRANCH 104 105
ENDBRANCH  72  97
ENDBRANCH  46  47
ENDBRANCH  39  41
ENDBRANCH  38  39
ENDBRANCH  37  38
ENDBRANCH  36  37
ENDBRANCH  35  36
ENDBRANCH  34  35
ENDBRANCH  33  34
ENDBRANCH   1  33
TORSDOF 26
ENDMDL
