MODEL 1
REMARK VINA RESULT:      -8.8      0.000      0.000
REMARK SMILES CS(=O)(=O)c1ccc(-n2nc(C(F)(F)F)cc2-c2ccc(CC(=O)OCCOCCOCCOCCOC(=O)c3ccc(-c4c5nc(c(-c6c(F)cc(S(=O)(=O)[O-])cc6F)c6ccc([nH]6)c(-c6c(F)cc(S(=O)(=O)[O-])cc6F)c6nc(c(-c7c(F)cc(S(=O)(=O)[O-])cc7F)c7ccc4[nH]7)C=C6)C=C5)cc3)cc2)cc1
REMARK SMILES IDX 30 1 29 2 28 3 27 4 26 5 25 6 23 7 24 8 22 9 21 10 18 11
REMARK SMILES IDX 19 12 107 13 20 14 106 15 17 16 9 17 10 18 11 19 16 20 8 21
REMARK SMILES IDX 5 22 6 23 109 24 7 25 108 26 2 27 1 28 3 29 4 30 12 31 13 32
REMARK SMILES IDX 14 33 15 34 31 35 32 36 33 37 34 38 35 39 36 40 37 41 38 42
REMARK SMILES IDX 39 43 40 44 41 45 105 46 42 47 104 48 43 49 44 50 45 51
REMARK SMILES IDX 98 52 46 53 103 54 97 55 99 56 47 57 102 58 96 59 95 60
REMARK SMILES IDX 48 62 82 63 61 64 81 65 62 66 65 67 80 68 100 69 63 70 64 71
REMARK SMILES IDX 79 73 101 74 66 75 49 76 50 77 59 78 51 79 52 80 58 81 60 82
REMARK SMILES IDX 53 83 54 84 55 85 56 86 57 87 83 88 84 89 93 90 85 91 86 92
REMARK SMILES IDX 92 93 94 94 87 95 88 96 89 97 90 98 91 99 67 100 68 101
REMARK SMILES IDX 77 102 69 103 70 104 76 105 78 106 71 107 72 108 73 109
REMARK SMILES IDX 74 110 75 111
REMARK H PARENT 99 61 65 72
REMARK Flexibility Score: inf
ROOT
ATOM      1  C   UNL A   1      36.225  23.002  25.514  1.00  0.00     0.188 C 
ENDROOT
BRANCH   1   2
ATOM      2  C   UNL A   1      34.943  23.516  26.173  1.00  0.00     0.188 C 
BRANCH   2   3
ATOM      3  O   UNL A   1      34.057  22.546  26.665  1.00  0.00    -0.376 OA
BRANCH   3   4
ATOM      4  C   UNL A   1      32.679  22.827  26.774  1.00  0.00     0.202 C 
BRANCH   4   5
ATOM      5  C   UNL A   1      32.015  24.211  26.533  1.00  0.00     0.261 C 
BRANCH   5   6
ATOM      6  O   UNL A   1      31.500  24.570  25.225  1.00  0.00    -0.463 OA
BRANCH   6   7
ATOM      7  C   UNL A   1      32.174  25.478  24.491  1.00  0.00     0.310 C 
ATOM      8  O   UNL A   1      33.110  25.151  23.761  1.00  0.00    -0.252 OA
BRANCH   7   9
ATOM      9  C   UNL A   1      31.680  26.937  24.522  1.00  0.00     0.158 C 
BRANCH   9  10
ATOM     10  C   UNL A   1      32.144  28.071  25.459  1.00  0.00    -0.037 A 
ATOM     11  C   UNL A   1      33.144  30.345  27.003  1.00  0.00     0.000 A 
ATOM     12  C   UNL A   1      31.941  30.413  26.293  1.00  0.00     0.010 A 
ATOM     13  C   UNL A   1      33.842  29.123  26.908  1.00  0.00     0.010 A 
ATOM     14  C   UNL A   1      31.469  29.313  25.519  1.00  0.00     0.005 A 
ATOM     15  C   UNL A   1      33.347  28.005  26.172  1.00  0.00     0.005 A 
BRANCH  11  16
ATOM     16  C   UNL A   1      33.739  31.539  27.688  1.00  0.00     0.075 A 
ATOM     17  N   UNL A   1      34.913  31.643  28.478  1.00  0.00    -0.233 N 
ATOM     18  N   UNL A   1      35.011  32.846  29.083  1.00  0.00    -0.163 NA
ATOM     19  C   UNL A   1      34.028  33.600  28.582  1.00  0.00     0.167 A 
ATOM     20  C   UNL A   1      33.170  32.809  27.778  1.00  0.00     0.064 A 
BRANCH  17  21
ATOM     21  C   UNL A   1      36.002  30.749  28.665  1.00  0.00     0.065 A 
ATOM     22  C   UNL A   1      38.258  28.972  29.077  1.00  0.00     0.067 A 
ATOM     23  C   UNL A   1      37.217  29.222  29.973  1.00  0.00     0.022 A 
ATOM     24  C   UNL A   1      38.022  29.524  27.840  1.00  0.00     0.022 A 
ATOM     25  C   UNL A   1      36.149  30.124  29.862  1.00  0.00     0.030 A 
ATOM     26  C   UNL A   1      36.882  30.363  27.622  1.00  0.00     0.030 A 
BRANCH  22  27
ATOM     27  S   UNL A   1      39.635  27.761  29.417  1.00  0.00     0.175 S 
ATOM     28  C   UNL A   1      41.236  28.169  28.856  1.00  0.00     0.163 C 
ATOM     29  O   UNL A   1      39.353  26.561  28.628  1.00  0.00    -0.224 OA
ATOM     30  O   UNL A   1      39.813  27.681  30.823  1.00  0.00    -0.224 OA
ENDBRANCH  22  27
ENDBRANCH  17  21
BRANCH  19  31
ATOM     31  C   UNL A   1      33.908  35.071  28.905  1.00  0.00     0.435 C 
ATOM     32  F   UNL A   1      32.681  35.578  28.639  1.00  0.00    -0.164 F 
ATOM     33  F   UNL A   1      34.182  35.320  30.213  1.00  0.00    -0.164 F 
ATOM     34  F   UNL A   1      34.800  35.806  28.183  1.00  0.00    -0.164 F 
ENDBRANCH  19  31
ENDBRANCH  11  16
ENDBRANCH   9  10
ENDBRANCH   7   9
ENDBRANCH   6   7
ENDBRANCH   5   6
ENDBRANCH   4   5
ENDBRANCH   3   4
ENDBRANCH   2   3
ENDBRANCH   1   2
BRANCH   1  35
ATOM     35  O   UNL A   1      36.334  21.726  24.925  1.00  0.00    -0.377 OA
BRANCH  35  36
ATOM     36  C   UNL A   1      37.543  20.986  24.893  1.00  0.00     0.188 C 
BRANCH  36  37
ATOM     37  C   UNL A   1      38.785  21.425  25.686  1.00  0.00     0.188 C 
BRANCH  37  38
ATOM     38  O   UNL A   1      39.791  20.447  25.794  1.00  0.00    -0.376 OA
BRANCH  38  39
ATOM     39  C   UNL A   1      40.951  20.902  26.438  1.00  0.00     0.202 C 
BRANCH  39  40
ATOM     40  C   UNL A   1      41.470  22.330  26.183  1.00  0.00     0.261 C 
BRANCH  40  41
ATOM     41  O   UNL A   1      42.566  22.849  25.291  1.00  0.00    -0.460 OA
BRANCH  41  42
ATOM     42  C   UNL A   1      43.193  24.064  25.128  1.00  0.00     0.338 C 
ATOM     43  O   UNL A   1      42.604  25.084  24.795  1.00  0.00    -0.246 OA
BRANCH  42  44
ATOM     44  C   UNL A   1      44.738  24.060  25.303  1.00  0.00     0.060 A 
ATOM     45  C   UNL A   1      45.198  23.130  26.239  1.00  0.00     0.016 A 
ATOM     46  C   UNL A   1      45.498  25.220  25.197  1.00  0.00     0.016 A 
ATOM     47  C   UNL A   1      45.897  23.587  27.377  1.00  0.00     0.010 A 
ATOM     48  C   UNL A   1      46.100  25.713  26.376  1.00  0.00     0.010 A 
ATOM     49  C   UNL A   1      46.148  24.960  27.557  1.00  0.00    -0.014 A 
BRANCH  49  50
ATOM     50  C   UNL A   1      46.906  25.489  28.741  1.00  0.00     0.031 A 
ATOM     51  C   UNL A   1      45.831  25.801  29.702  1.00  0.00     0.074 A 
ATOM     52  C   UNL A   1      48.214  25.619  29.123  1.00  0.00     0.049 A 
ATOM     53  N   UNL A   1      45.198  26.930  29.759  1.00  0.00    -0.248 NA
ATOM     54  C   UNL A   1      45.077  24.663  30.263  1.00  0.00     0.031 C 
ATOM     55  C   UNL A   1      49.447  25.292  28.435  1.00  0.00     0.029 A 
ATOM     56  N   UNL A   1      48.748  26.095  30.316  1.00  0.00    -0.354 N 
ATOM     57  C   UNL A   1      44.156  26.665  30.628  1.00  0.00     0.074 A 
ATOM     58  C   UNL A   1      43.911  25.260  30.511  1.00  0.00     0.031 C 
ATOM     59  C   UNL A   1      50.529  25.272  29.244  1.00  0.00     0.029 A 
ATOM     60  C   UNL A   1      50.117  25.763  30.531  1.00  0.00     0.049 A 
ATOM     61  H   UNL A   1      48.220  26.621  30.960  1.00  0.00     0.167 HD
ATOM     62  C   UNL A   1      43.972  27.471  31.706  1.00  0.00     0.037 A 
ATOM     63  C   UNL A   1      50.901  25.987  31.631  1.00  0.00     0.037 A 
ATOM     64  C   UNL A   1      44.601  28.758  31.471  1.00  0.00     0.049 A 
ATOM     65  C   UNL A   1      50.212  27.048  32.408  1.00  0.00     0.074 A 
ATOM     66  C   UNL A   1      44.520  29.698  30.459  1.00  0.00     0.029 A 
ATOM     67  N   UNL A   1      45.795  28.996  32.111  1.00  0.00    -0.354 N 
ATOM     68  N   UNL A   1      50.101  28.277  31.979  1.00  0.00    -0.248 NA
ATOM     69  C   UNL A   1      49.165  26.582  33.304  1.00  0.00     0.031 C 
ATOM     70  C   UNL A   1      45.860  30.139  30.248  1.00  0.00     0.029 A 
ATOM     71  C   UNL A   1      46.673  29.558  31.220  1.00  0.00     0.049 A 
ATOM     72  H   UNL A   1      45.988  28.796  33.056  1.00  0.00     0.167 HD
ATOM     73  C   UNL A   1      48.755  28.572  32.151  1.00  0.00     0.074 A 
ATOM     74  C   UNL A   1      48.230  27.477  32.972  1.00  0.00     0.031 C 
ATOM     75  C   UNL A   1      48.112  29.483  31.362  1.00  0.00     0.037 A 
BRANCH  62  76
ATOM     76  C   UNL A   1      43.689  26.924  33.092  1.00  0.00     0.058 A 
ATOM     77  C   UNL A   1      42.599  27.465  33.794  1.00  0.00     0.135 A 
ATOM     78  C   UNL A   1      44.549  26.102  33.869  1.00  0.00     0.135 A 
ATOM     79  F   UNL A   1      41.700  28.238  33.163  1.00  0.00    -0.206 F 
ATOM     80  C   UNL A   1      42.432  27.291  35.167  1.00  0.00     0.059 A 
ATOM     81  C   UNL A   1      44.383  25.888  35.226  1.00  0.00     0.059 A 
ATOM     82  F   UNL A   1      45.639  25.493  33.400  1.00  0.00    -0.206 F 
ATOM     83  C   UNL A   1      43.342  26.511  35.875  1.00  0.00     0.060 A 
BRANCH  83  84
ATOM     84  S   UNL A   1      43.164  26.318  37.649  1.00  0.00     0.124 S 
ATOM     85  O   UNL A   1      43.904  27.471  38.143  1.00  0.00    -0.237 OA
ATOM     86  O   UNL A   1      41.713  26.368  37.803  1.00  0.00    -0.237 OA
ATOM     87  O   UNL A   1      43.770  25.015  37.910  1.00  0.00    -0.744 OA
ENDBRANCH  83  84
ENDBRANCH  62  76
BRANCH  63  88
ATOM     88  C   UNL A   1      51.941  25.092  32.254  1.00  0.00     0.058 A 
ATOM     89  C   UNL A   1      53.223  25.564  32.619  1.00  0.00     0.135 A 
ATOM     90  C   UNL A   1      51.593  23.835  32.784  1.00  0.00     0.135 A 
ATOM     91  F   UNL A   1      53.664  26.748  32.162  1.00  0.00    -0.206 F 
ATOM     92  C   UNL A   1      54.064  24.874  33.514  1.00  0.00     0.059 A 
ATOM     93  C   UNL A   1      52.410  23.131  33.676  1.00  0.00     0.059 A 
ATOM     94  F   UNL A   1      50.401  23.282  32.518  1.00  0.00    -0.206 F 
ATOM     95  C   UNL A   1      53.630  23.669  34.066  1.00  0.00     0.060 A 
BRANCH  95  96
ATOM     96  S   UNL A   1      54.596  22.865  35.376  1.00  0.00     0.124 S 
ATOM     97  O   UNL A   1      55.609  22.143  34.614  1.00  0.00    -0.237 OA
ATOM     98  O   UNL A   1      55.078  24.002  36.154  1.00  0.00    -0.237 OA
ATOM     99  O   UNL A   1      53.615  22.023  36.055  1.00  0.00    -0.744 OA
ENDBRANCH  95  96
ENDBRANCH  63  88
BRANCH  75 100
ATOM    100  C   UNL A   1      48.926  30.400  30.481  1.00  0.00     0.058 A 
ATOM    101  C   UNL A   1      49.545  31.599  30.885  1.00  0.00     0.135 A 
ATOM    102  C   UNL A   1      49.228  29.931  29.194  1.00  0.00     0.135 A 
ATOM    103  F   UNL A   1      49.382  32.072  32.131  1.00  0.00    -0.206 F 
ATOM    104  C   UNL A   1      50.402  32.308  30.030  1.00  0.00     0.059 A 
ATOM    105  C   UNL A   1      50.097  30.600  28.342  1.00  0.00     0.059 A 
ATOM    106  F   UNL A   1      48.713  28.766  28.769  1.00  0.00    -0.206 F 
ATOM    107  C   UNL A   1      50.671  31.797  28.757  1.00  0.00     0.060 A 
BRANCH 107 108
ATOM    108  S   UNL A   1      51.797  32.675  27.649  1.00  0.00     0.124 S 
ATOM    109  O   UNL A   1      50.958  33.760  27.152  1.00  0.00    -0.237 OA
ATOM    110  O   UNL A   1      52.883  33.071  28.541  1.00  0.00    -0.237 OA
ATOM    111  O   UNL A   1      52.158  31.667  26.655  1.00  0.00    -0.744 OA
ENDBRANCH 107 108
ENDBRANCH  75 100
ENDBRANCH  49  50
ENDBRANCH  42  44
ENDBRANCH  41  42
ENDBRANCH  40  41
ENDBRANCH  39  40
ENDBRANCH  38  39
ENDBRANCH  37  38
ENDBRANCH  36  37
ENDBRANCH  35  36
ENDBRANCH   1  35
TORSDOF 28
ENDMDL
MODEL 2
REMARK VINA RESULT:      -8.5      3.712      6.087
REMARK SMILES CS(=O)(=O)c1ccc(-n2nc(C(F)(F)F)cc2-c2ccc(CC(=O)OCCOCCOCCOCCOC(=O)c3ccc(-c4c5nc(c(-c6c(F)cc(S(=O)(=O)[O-])cc6F)c6ccc([nH]6)c(-c6c(F)cc(S(=O)(=O)[O-])cc6F)c6nc(c(-c7c(F)cc(S(=O)(=O)[O-])cc7F)c7ccc4[nH]7)C=C6)C=C5)cc3)cc2)cc1
REMARK SMILES IDX 30 1 29 2 28 3 27 4 26 5 25 6 23 7 24 8 22 9 21 10 18 11
REMARK SMILES IDX 19 12 107 13 20 14 106 15 17 16 9 17 10 18 11 19 16 20 8 21
REMARK SMILES IDX 5 22 6 23 109 24 7 25 108 26 2 27 1 28 3 29 4 30 12 31 13 32
REMARK SMILES IDX 14 33 15 34 31 35 32 36 33 37 34 38 35 39 36 40 37 41 38 42
REMARK SMILES IDX 39 43 40 44 41 45 105 46 42 47 104 48 43 49 44 50 45 51
REMARK SMILES IDX 98 52 46 53 103 54 97 55 99 56 47 57 102 58 96 59 95 60
REMARK SMILES IDX 48 62 82 63 61 64 81 65 62 66 65 67 80 68 100 69 63 70 64 71
REMARK SMILES IDX 79 73 101 74 66 75 49 76 50 77 59 78 51 79 52 80 58 81 60 82
REMARK SMILES IDX 53 83 54 84 55 85 56 86 57 87 83 88 84 89 93 90 85 91 86 92
REMARK SMILES IDX 92 93 94 94 87 95 88 96 89 97 90 98 91 99 67 100 68 101
REMARK SMILES IDX 77 102 69 103 70 104 76 105 78 106 71 107 72 108 73 109
REMARK SMILES IDX 74 110 75 111
REMARK H PARENT 99 61 65 72
REMARK Flexibility Score: inf
ROOT
ATOM      1  C   UNL A   1      38.959  29.580  30.252  1.00  0.00     0.188 C 
ENDROOT
BRANCH   1   2
ATOM      2  C   UNL A   1      38.092  30.776  30.649  1.00  0.00     0.188 C 
BRANCH   2   3
ATOM      3  O   UNL A   1      36.737  30.718  30.287  1.00  0.00    -0.376 OA
BRANCH   3   4
ATOM      4  C   UNL A   1      36.095  31.849  29.741  1.00  0.00     0.202 C 
BRANCH   4   5
ATOM      5  C   UNL A   1      34.746  32.448  30.227  1.00  0.00     0.261 C 
BRANCH   5   6
ATOM      6  O   UNL A   1      34.452  32.563  31.643  1.00  0.00    -0.463 OA
BRANCH   6   7
ATOM      7  C   UNL A   1      34.369  33.794  32.188  1.00  0.00     0.310 C 
ATOM      8  O   UNL A   1      33.656  34.670  31.699  1.00  0.00    -0.252 OA
BRANCH   7   9
ATOM      9  C   UNL A   1      35.129  34.048  33.503  1.00  0.00     0.158 C 
BRANCH   9  10
ATOM     10  C   UNL A   1      36.517  33.510  33.911  1.00  0.00    -0.037 A 
ATOM     11  C   UNL A   1      39.231  32.542  34.412  1.00  0.00     0.000 A 
ATOM     12  C   UNL A   1      38.918  33.904  34.459  1.00  0.00     0.010 A 
ATOM     13  C   UNL A   1      38.161  31.680  34.090  1.00  0.00     0.010 A 
ATOM     14  C   UNL A   1      37.600  34.377  34.189  1.00  0.00     0.005 A 
ATOM     15  C   UNL A   1      36.832  32.147  33.866  1.00  0.00     0.005 A 
BRANCH  11  16
ATOM     16  C   UNL A   1      40.638  32.037  34.532  1.00  0.00     0.075 A 
ATOM     17  N   UNL A   1      41.717  32.122  33.614  1.00  0.00    -0.233 N 
ATOM     18  N   UNL A   1      42.772  31.377  34.005  1.00  0.00    -0.163 NA
ATOM     19  C   UNL A   1      42.490  30.940  35.236  1.00  0.00     0.167 A 
ATOM     20  C   UNL A   1      41.150  31.258  35.569  1.00  0.00     0.064 A 
BRANCH  17  21
ATOM     21  C   UNL A   1      41.890  32.897  32.436  1.00  0.00     0.065 A 
ATOM     22  C   UNL A   1      42.186  34.509  30.042  1.00  0.00     0.067 A 
ATOM     23  C   UNL A   1      42.561  34.864  31.340  1.00  0.00     0.022 A 
ATOM     24  C   UNL A   1      41.813  33.189  29.952  1.00  0.00     0.022 A 
ATOM     25  C   UNL A   1      42.372  34.163  32.540  1.00  0.00     0.030 A 
ATOM     26  C   UNL A   1      41.713  32.378  31.128  1.00  0.00     0.030 A 
BRANCH  22  27
ATOM     27  S   UNL A   1      42.476  35.599  28.558  1.00  0.00     0.175 S 
ATOM     28  C   UNL A   1      42.895  37.270  28.843  1.00  0.00     0.163 C 
ATOM     29  O   UNL A   1      41.190  35.740  27.873  1.00  0.00    -0.224 OA
ATOM     30  O   UNL A   1      43.616  35.111  27.868  1.00  0.00    -0.224 OA
ENDBRANCH  22  27
ENDBRANCH  17  21
BRANCH  19  31
ATOM     31  C   UNL A   1      43.506  30.197  36.070  1.00  0.00     0.435 C 
ATOM     32  F   UNL A   1      42.947  29.317  36.935  1.00  0.00    -0.164 F 
ATOM     33  F   UNL A   1      44.384  29.508  35.294  1.00  0.00    -0.164 F 
ATOM     34  F   UNL A   1      44.253  31.058  36.817  1.00  0.00    -0.164 F 
ENDBRANCH  19  31
ENDBRANCH  11  16
ENDBRANCH   9  10
ENDBRANCH   7   9
ENDBRANCH   6   7
ENDBRANCH   5   6
ENDBRANCH   4   5
ENDBRANCH   3   4
ENDBRANCH   2   3
ENDBRANCH   1   2
BRANCH   1  35
ATOM     35  O   UNL A   1      38.436  28.402  29.678  1.00  0.00    -0.377 OA
BRANCH  35  36
ATOM     36  C   UNL A   1      38.782  27.952  28.379  1.00  0.00     0.188 C 
BRANCH  36  37
ATOM     37  C   UNL A   1      40.030  27.090  28.123  1.00  0.00     0.188 C 
BRANCH  37  38
ATOM     38  O   UNL A   1      40.051  25.863  28.810  1.00  0.00    -0.376 OA
BRANCH  38  39
ATOM     39  C   UNL A   1      40.439  24.778  28.012  1.00  0.00     0.202 C 
BRANCH  39  40
ATOM     40  C   UNL A   1      41.639  24.908  27.055  1.00  0.00     0.261 C 
BRANCH  40  41
ATOM     41  O   UNL A   1      41.934  24.260  25.729  1.00  0.00    -0.460 OA
BRANCH  41  42
ATOM     42  C   UNL A   1      42.864  23.351  25.277  1.00  0.00     0.338 C 
ATOM     43  O   UNL A   1      42.586  22.197  24.981  1.00  0.00    -0.246 OA
BRANCH  42  44
ATOM     44  C   UNL A   1      44.338  23.846  25.245  1.00  0.00     0.060 A 
ATOM     45  C   UNL A   1      45.218  23.049  25.982  1.00  0.00     0.016 A 
ATOM     46  C   UNL A   1      44.664  25.197  25.194  1.00  0.00     0.016 A 
ATOM     47  C   UNL A   1      45.917  23.617  27.069  1.00  0.00     0.010 A 
ATOM     48  C   UNL A   1      45.269  25.764  26.338  1.00  0.00     0.010 A 
ATOM     49  C   UNL A   1      45.749  24.976  27.393  1.00  0.00    -0.014 A 
BRANCH  49  50
ATOM     50  C   UNL A   1      46.488  25.628  28.526  1.00  0.00     0.031 A 
ATOM     51  C   UNL A   1      45.395  26.135  29.378  1.00  0.00     0.074 A 
ATOM     52  C   UNL A   1      47.784  25.742  28.950  1.00  0.00     0.049 A 
ATOM     53  N   UNL A   1      44.830  27.293  29.243  1.00  0.00    -0.248 NA
ATOM     54  C   UNL A   1      44.551  25.133  30.057  1.00  0.00     0.031 C 
ATOM     55  C   UNL A   1      49.022  25.252  28.378  1.00  0.00     0.029 A 
ATOM     56  N   UNL A   1      48.296  26.356  30.088  1.00  0.00    -0.354 N 
ATOM     57  C   UNL A   1      43.738  27.213  30.088  1.00  0.00     0.074 A 
ATOM     58  C   UNL A   1      43.414  25.822  30.159  1.00  0.00     0.031 C 
ATOM     59  C   UNL A   1      50.067  25.290  29.234  1.00  0.00     0.029 A 
ATOM     60  C   UNL A   1      49.632  25.983  30.416  1.00  0.00     0.049 A 
ATOM     61  H   UNL A   1      47.776  26.997  30.625  1.00  0.00     0.167 HD
ATOM     62  C   UNL A   1      43.560  28.176  31.030  1.00  0.00     0.037 A 
ATOM     63  C   UNL A   1      50.382  26.321  31.511  1.00  0.00     0.037 A 
ATOM     64  C   UNL A   1      44.275  29.379  30.647  1.00  0.00     0.049 A 
ATOM     65  C   UNL A   1      49.728  27.520  32.094  1.00  0.00     0.074 A 
ATOM     66  C   UNL A   1      44.294  30.166  29.508  1.00  0.00     0.029 A 
ATOM     67  N   UNL A   1      45.454  29.642  31.304  1.00  0.00    -0.354 N 
ATOM     68  N   UNL A   1      49.710  28.678  31.490  1.00  0.00    -0.248 NA
ATOM     69  C   UNL A   1      48.618  27.246  32.994  1.00  0.00     0.031 C 
ATOM     70  C   UNL A   1      45.665  30.498  29.303  1.00  0.00     0.029 A 
ATOM     71  C   UNL A   1      46.401  30.021  30.387  1.00  0.00     0.049 A 
ATOM     72  H   UNL A   1      45.595  29.570  32.276  1.00  0.00     0.167 HD
ATOM     73  C   UNL A   1      48.379  29.068  31.551  1.00  0.00     0.074 A 
ATOM     74  C   UNL A   1      47.754  28.133  32.493  1.00  0.00     0.031 C 
ATOM     75  C   UNL A   1      47.826  29.889  30.610  1.00  0.00     0.037 A 
BRANCH  62  76
ATOM     76  C   UNL A   1      43.187  27.851  32.464  1.00  0.00     0.058 A 
ATOM     77  C   UNL A   1      44.038  26.988  33.177  1.00  0.00     0.135 A 
ATOM     78  C   UNL A   1      41.943  28.116  33.095  1.00  0.00     0.135 A 
ATOM     79  F   UNL A   1      45.253  26.681  32.696  1.00  0.00    -0.206 F 
ATOM     80  C   UNL A   1      43.648  26.364  34.360  1.00  0.00     0.059 A 
ATOM     81  C   UNL A   1      41.550  27.533  34.288  1.00  0.00     0.059 A 
ATOM     82  F   UNL A   1      40.993  28.905  32.592  1.00  0.00    -0.206 F 
ATOM     83  C   UNL A   1      42.394  26.633  34.898  1.00  0.00     0.060 A 
BRANCH  83  84
ATOM     84  S   UNL A   1      41.864  25.801  36.395  1.00  0.00     0.124 S 
ATOM     85  O   UNL A   1      43.073  25.864  37.206  1.00  0.00    -0.237 OA
ATOM     86  O   UNL A   1      40.756  26.649  36.823  1.00  0.00    -0.237 OA
ATOM     87  O   UNL A   1      41.483  24.472  35.927  1.00  0.00    -0.744 OA
ENDBRANCH  83  84
ENDBRANCH  62  76
BRANCH  63  88
ATOM     88  C   UNL A   1      51.339  25.470  32.305  1.00  0.00     0.058 A 
ATOM     89  C   UNL A   1      50.900  24.416  33.140  1.00  0.00     0.135 A 
ATOM     90  C   UNL A   1      52.719  25.475  32.024  1.00  0.00     0.135 A 
ATOM     91  F   UNL A   1      49.605  24.320  33.482  1.00  0.00    -0.206 F 
ATOM     92  C   UNL A   1      51.757  23.394  33.593  1.00  0.00     0.059 A 
ATOM     93  C   UNL A   1      53.589  24.470  32.461  1.00  0.00     0.059 A 
ATOM     94  F   UNL A   1      53.257  26.418  31.238  1.00  0.00    -0.206 F 
ATOM     95  C   UNL A   1      53.099  23.412  33.217  1.00  0.00     0.060 A 
BRANCH  95  96
ATOM     96  S   UNL A   1      54.176  22.004  33.609  1.00  0.00     0.124 S 
ATOM     97  O   UNL A   1      55.482  22.643  33.739  1.00  0.00    -0.237 OA
ATOM     98  O   UNL A   1      53.593  21.497  34.846  1.00  0.00    -0.237 OA
ATOM     99  O   UNL A   1      54.028  21.128  32.450  1.00  0.00    -0.744 OA
ENDBRANCH  95  96
ENDBRANCH  63  88
BRANCH  75 100
ATOM    100  C   UNL A   1      48.730  30.623  29.650  1.00  0.00     0.058 A 
ATOM    101  C   UNL A   1      49.213  30.124  28.425  1.00  0.00     0.135 A 
ATOM    102  C   UNL A   1      48.973  31.978  29.925  1.00  0.00     0.135 A 
ATOM    103  F   UNL A   1      48.949  28.865  28.043  1.00  0.00    -0.206 F 
ATOM    104  C   UNL A   1      49.929  30.935  27.532  1.00  0.00     0.059 A 
ATOM    105  C   UNL A   1      49.653  32.807  29.042  1.00  0.00     0.059 A 
ATOM    106  F   UNL A   1      48.491  32.528  31.051  1.00  0.00    -0.206 F 
ATOM    107  C   UNL A   1      50.143  32.279  27.852  1.00  0.00     0.060 A 
BRANCH 107 108
ATOM    108  S   UNL A   1      51.035  33.352  26.703  1.00  0.00     0.124 S 
ATOM    109  O   UNL A   1      50.551  32.888  25.408  1.00  0.00    -0.237 OA
ATOM    110  O   UNL A   1      50.598  34.686  27.104  1.00  0.00    -0.237 OA
ATOM    111  O   UNL A   1      52.440  33.058  26.980  1.00  0.00    -0.744 OA
ENDBRANCH 107 108
ENDBRANCH  75 100
ENDBRANCH  49  50
ENDBRANCH  42  44
ENDBRANCH  41  42
ENDBRANCH  40  41
ENDBRANCH  39  40
ENDBRANCH  38  39
ENDBRANCH  37  38
ENDBRANCH  36  37
ENDBRANCH  35  36
ENDBRANCH   1  35
TORSDOF 28
ENDMDL
MODEL 3
REMARK VINA RESULT:      -8.2      1.427      1.971
REMARK SMILES CS(=O)(=O)c1ccc(-n2nc(C(F)(F)F)cc2-c2ccc(CC(=O)OCCOCCOCCOCCOC(=O)c3ccc(-c4c5nc(c(-c6c(F)cc(S(=O)(=O)[O-])cc6F)c6ccc([nH]6)c(-c6c(F)cc(S(=O)(=O)[O-])cc6F)c6nc(c(-c7c(F)cc(S(=O)(=O)[O-])cc7F)c7ccc4[nH]7)C=C6)C=C5)cc3)cc2)cc1
REMARK SMILES IDX 30 1 29 2 28 3 27 4 26 5 25 6 23 7 24 8 22 9 21 10 18 11
REMARK SMILES IDX 19 12 107 13 20 14 106 15 17 16 9 17 10 18 11 19 16 20 8 21
REMARK SMILES IDX 5 22 6 23 109 24 7 25 108 26 2 27 1 28 3 29 4 30 12 31 13 32
REMARK SMILES IDX 14 33 15 34 31 35 32 36 33 37 34 38 35 39 36 40 37 41 38 42
REMARK SMILES IDX 39 43 40 44 41 45 105 46 42 47 104 48 43 49 44 50 45 51
REMARK SMILES IDX 98 52 46 53 103 54 97 55 99 56 47 57 102 58 96 59 95 60
REMARK SMILES IDX 48 62 82 63 61 64 81 65 62 66 65 67 80 68 100 69 63 70 64 71
REMARK SMILES IDX 79 73 101 74 66 75 49 76 50 77 59 78 51 79 52 80 58 81 60 82
REMARK SMILES IDX 53 83 54 84 55 85 56 86 57 87 83 88 84 89 93 90 85 91 86 92
REMARK SMILES IDX 92 93 94 94 87 95 88 96 89 97 90 98 91 99 67 100 68 101
REMARK SMILES IDX 77 102 69 103 70 104 76 105 78 106 71 107 72 108 73 109
REMARK SMILES IDX 74 110 75 111
REMARK H PARENT 99 61 65 72
REMARK Flexibility Score: inf
ROOT
ATOM      1  C   UNL A   1      36.569  22.696  24.091  1.00  0.00     0.188 C 
ENDROOT
BRANCH   1   2
ATOM      2  C   UNL A   1      35.333  23.563  23.844  1.00  0.00     0.188 C 
BRANCH   2   3
ATOM      3  O   UNL A   1      34.097  22.900  23.809  1.00  0.00    -0.376 OA
BRANCH   3   4
ATOM      4  C   UNL A   1      33.088  23.317  22.916  1.00  0.00     0.202 C 
BRANCH   4   5
ATOM      5  C   UNL A   1      31.562  23.089  23.103  1.00  0.00     0.261 C 
BRANCH   5   6
ATOM      6  O   UNL A   1      30.701  24.162  23.564  1.00  0.00    -0.463 OA
BRANCH   6   7
ATOM      7  C   UNL A   1      31.267  25.323  23.952  1.00  0.00     0.310 C 
ATOM      8  O   UNL A   1      31.374  26.278  23.183  1.00  0.00    -0.252 OA
BRANCH   7   9
ATOM      9  C   UNL A   1      31.697  25.454  25.426  1.00  0.00     0.158 C 
BRANCH   9  10
ATOM     10  C   UNL A   1      32.343  26.673  26.115  1.00  0.00    -0.037 A 
ATOM     11  C   UNL A   1      33.443  29.149  27.220  1.00  0.00     0.000 A 
ATOM     12  C   UNL A   1      32.147  28.723  27.524  1.00  0.00     0.010 A 
ATOM     13  C   UNL A   1      34.168  28.319  26.338  1.00  0.00     0.010 A 
ATOM     14  C   UNL A   1      31.602  27.530  26.963  1.00  0.00     0.005 A 
ATOM     15  C   UNL A   1      33.642  27.101  25.814  1.00  0.00     0.005 A 
BRANCH  11  16
ATOM     16  C   UNL A   1      33.977  30.477  27.666  1.00  0.00     0.075 A 
ATOM     17  N   UNL A   1      35.259  30.821  28.167  1.00  0.00    -0.233 N 
ATOM     18  N   UNL A   1      35.294  32.083  28.644  1.00  0.00    -0.163 NA
ATOM     19  C   UNL A   1      34.124  32.641  28.319  1.00  0.00     0.167 A 
ATOM     20  C   UNL A   1      33.250  31.661  27.785  1.00  0.00     0.064 A 
BRANCH  17  21
ATOM     21  C   UNL A   1      36.487  30.106  28.174  1.00  0.00     0.065 A 
ATOM     22  C   UNL A   1      38.970  28.606  28.147  1.00  0.00     0.067 A 
ATOM     23  C   UNL A   1      38.593  29.613  27.255  1.00  0.00     0.022 A 
ATOM     24  C   UNL A   1      38.104  28.502  29.209  1.00  0.00     0.022 A 
ATOM     25  C   UNL A   1      37.381  30.314  27.172  1.00  0.00     0.030 A 
ATOM     26  C   UNL A   1      36.901  29.278  29.248  1.00  0.00     0.030 A 
BRANCH  22  27
ATOM     27  S   UNL A   1      40.621  27.742  28.076  1.00  0.00     0.175 S 
ATOM     28  C   UNL A   1      41.003  26.609  29.347  1.00  0.00     0.163 C 
ATOM     29  O   UNL A   1      41.648  28.763  28.286  1.00  0.00    -0.224 OA
ATOM     30  O   UNL A   1      40.640  26.921  26.918  1.00  0.00    -0.224 OA
ENDBRANCH  22  27
ENDBRANCH  17  21
BRANCH  19  31
ATOM     31  C   UNL A   1      33.849  34.108  28.550  1.00  0.00     0.435 C 
ATOM     32  F   UNL A   1      33.554  34.400  29.839  1.00  0.00    -0.164 F 
ATOM     33  F   UNL A   1      34.908  34.879  28.186  1.00  0.00    -0.164 F 
ATOM     34  F   UNL A   1      32.793  34.533  27.801  1.00  0.00    -0.164 F 
ENDBRANCH  19  31
ENDBRANCH  11  16
ENDBRANCH   9  10
ENDBRANCH   7   9
ENDBRANCH   6   7
ENDBRANCH   5   6
ENDBRANCH   4   5
ENDBRANCH   3   4
ENDBRANCH   2   3
ENDBRANCH   1   2
BRANCH   1  35
ATOM     35  O   UNL A   1      36.514  21.294  24.238  1.00  0.00    -0.377 OA
BRANCH  35  36
ATOM     36  C   UNL A   1      37.501  20.547  24.929  1.00  0.00     0.188 C 
BRANCH  36  37
ATOM     37  C   UNL A   1      38.651  21.228  25.689  1.00  0.00     0.188 C 
BRANCH  37  38
ATOM     38  O   UNL A   1      39.714  20.374  26.039  1.00  0.00    -0.376 OA
BRANCH  38  39
ATOM     39  C   UNL A   1      40.792  21.036  26.641  1.00  0.00     0.202 C 
BRANCH  39  40
ATOM     40  C   UNL A   1      41.280  22.389  26.087  1.00  0.00     0.261 C 
BRANCH  40  41
ATOM     41  O   UNL A   1      42.546  22.777  25.373  1.00  0.00    -0.460 OA
BRANCH  41  42
ATOM     42  C   UNL A   1      43.275  23.939  25.249  1.00  0.00     0.338 C 
ATOM     43  O   UNL A   1      42.771  25.023  24.990  1.00  0.00    -0.246 OA
BRANCH  42  44
ATOM     44  C   UNL A   1      44.819  23.788  25.368  1.00  0.00     0.060 A 
ATOM     45  C   UNL A   1      45.231  23.060  26.487  1.00  0.00     0.016 A 
ATOM     46  C   UNL A   1      45.694  24.788  24.956  1.00  0.00     0.016 A 
ATOM     47  C   UNL A   1      46.046  23.686  27.455  1.00  0.00     0.010 A 
ATOM     48  C   UNL A   1      46.419  25.471  25.958  1.00  0.00     0.010 A 
ATOM     49  C   UNL A   1      46.457  25.021  27.285  1.00  0.00    -0.014 A 
BRANCH  49  50
ATOM     50  C   UNL A   1      47.341  25.721  28.277  1.00  0.00     0.031 A 
ATOM     51  C   UNL A   1      46.376  26.223  29.274  1.00  0.00     0.074 A 
ATOM     52  C   UNL A   1      48.683  25.876  28.497  1.00  0.00     0.049 A 
ATOM     53  N   UNL A   1      45.765  27.363  29.201  1.00  0.00    -0.248 NA
ATOM     54  C   UNL A   1      45.673  25.219  30.096  1.00  0.00     0.031 C 
ATOM     55  C   UNL A   1      49.833  25.402  27.754  1.00  0.00     0.029 A 
ATOM     56  N   UNL A   1      49.344  26.532  29.530  1.00  0.00    -0.354 N 
ATOM     57  C   UNL A   1      44.817  27.279  30.204  1.00  0.00     0.074 A 
ATOM     58  C   UNL A   1      44.546  25.883  30.355  1.00  0.00     0.031 C 
ATOM     59  C   UNL A   1      50.994  25.488  28.440  1.00  0.00     0.029 A 
ATOM     60  C   UNL A   1      50.724  26.201  29.658  1.00  0.00     0.049 A 
ATOM     61  H   UNL A   1      48.893  27.174  30.124  1.00  0.00     0.167 HD
ATOM     62  C   UNL A   1      44.757  28.261  31.140  1.00  0.00     0.037 A 
ATOM     63  C   UNL A   1      51.622  26.586  30.619  1.00  0.00     0.037 A 
ATOM     64  C   UNL A   1      45.372  29.471  30.625  1.00  0.00     0.049 A 
ATOM     65  C   UNL A   1      51.030  27.783  31.268  1.00  0.00     0.074 A 
ATOM     66  C   UNL A   1      45.196  30.228  29.480  1.00  0.00     0.029 A 
ATOM     67  N   UNL A   1      46.629  29.780  31.090  1.00  0.00    -0.354 N 
ATOM     68  N   UNL A   1      50.888  28.924  30.647  1.00  0.00    -0.248 NA
ATOM     69  C   UNL A   1      50.078  27.506  32.332  1.00  0.00     0.031 C 
ATOM     70  C   UNL A   1      46.510  30.587  29.062  1.00  0.00     0.029 A 
ATOM     71  C   UNL A   1      47.415  30.157  30.031  1.00  0.00     0.049 A 
ATOM     72  H   UNL A   1      46.917  29.737  32.031  1.00  0.00     0.167 HD
ATOM     73  C   UNL A   1      49.572  29.283  30.902  1.00  0.00     0.074 A 
ATOM     74  C   UNL A   1      49.123  28.358  31.948  1.00  0.00     0.031 C 
ATOM     75  C   UNL A   1      48.860  30.066  30.038  1.00  0.00     0.037 A 
BRANCH  62  76
ATOM     76  C   UNL A   1      44.615  27.965  32.621  1.00  0.00     0.058 A 
ATOM     77  C   UNL A   1      43.585  28.621  33.319  1.00  0.00     0.135 A 
ATOM     78  C   UNL A   1      45.558  27.293  33.443  1.00  0.00     0.135 A 
ATOM     79  F   UNL A   1      42.618  29.270  32.652  1.00  0.00    -0.206 F 
ATOM     80  C   UNL A   1      43.552  28.690  34.710  1.00  0.00     0.059 A 
ATOM     81  C   UNL A   1      45.524  27.320  34.827  1.00  0.00     0.059 A 
ATOM     82  F   UNL A   1      46.609  26.612  32.986  1.00  0.00    -0.206 F 
ATOM     83  C   UNL A   1      44.537  28.047  35.454  1.00  0.00     0.060 A 
BRANCH  83  84
ATOM     84  S   UNL A   1      44.529  28.167  37.243  1.00  0.00     0.124 S 
ATOM     85  O   UNL A   1      43.703  27.024  37.607  1.00  0.00    -0.237 OA
ATOM     86  O   UNL A   1      45.952  28.058  37.548  1.00  0.00    -0.237 OA
ATOM     87  O   UNL A   1      43.941  29.480  37.491  1.00  0.00    -0.744 OA
ENDBRANCH  83  84
ENDBRANCH  62  76
BRANCH  63  88
ATOM     88  C   UNL A   1      52.712  25.780  31.277  1.00  0.00     0.058 A 
ATOM     89  C   UNL A   1      54.071  26.169  31.234  1.00  0.00     0.135 A 
ATOM     90  C   UNL A   1      52.406  24.779  32.219  1.00  0.00     0.135 A 
ATOM     91  F   UNL A   1      54.478  27.109  30.365  1.00  0.00    -0.206 F 
ATOM     92  C   UNL A   1      55.038  25.660  32.123  1.00  0.00     0.059 A 
ATOM     93  C   UNL A   1      53.348  24.259  33.113  1.00  0.00     0.059 A 
ATOM     94  F   UNL A   1      51.151  24.329  32.361  1.00  0.00    -0.206 F 
ATOM     95  C   UNL A   1      54.657  24.727  33.084  1.00  0.00     0.060 A 
BRANCH  95  96
ATOM     96  S   UNL A   1      55.829  24.211  34.372  1.00  0.00     0.124 S 
ATOM     97  O   UNL A   1      57.095  24.725  33.860  1.00  0.00    -0.237 OA
ATOM     98  O   UNL A   1      55.307  24.880  35.558  1.00  0.00    -0.237 OA
ATOM     99  O   UNL A   1      55.710  22.756  34.379  1.00  0.00    -0.744 OA
ENDBRANCH  95  96
ENDBRANCH  63  88
BRANCH  75 100
ATOM    100  C   UNL A   1      49.587  30.796  28.935  1.00  0.00     0.058 A 
ATOM    101  C   UNL A   1      50.030  30.232  27.723  1.00  0.00     0.135 A 
ATOM    102  C   UNL A   1      49.681  32.191  29.059  1.00  0.00     0.135 A 
ATOM    103  F   UNL A   1      49.894  28.918  27.485  1.00  0.00    -0.206 F 
ATOM    104  C   UNL A   1      50.567  31.023  26.697  1.00  0.00     0.059 A 
ATOM    105  C   UNL A   1      50.181  32.997  28.044  1.00  0.00     0.059 A 
ATOM    106  F   UNL A   1      49.226  32.796  30.168  1.00  0.00    -0.206 F 
ATOM    107  C   UNL A   1      50.637  32.409  26.870  1.00  0.00     0.060 A 
BRANCH 107 108
ATOM    108  S   UNL A   1      51.296  33.453  25.549  1.00  0.00     0.124 S 
ATOM    109  O   UNL A   1      50.247  34.455  25.395  1.00  0.00    -0.237 OA
ATOM    110  O   UNL A   1      52.553  33.933  26.116  1.00  0.00    -0.237 OA
ATOM    111  O   UNL A   1      51.443  32.532  24.424  1.00  0.00    -0.744 OA
ENDBRANCH 107 108
ENDBRANCH  75 100
ENDBRANCH  49  50
ENDBRANCH  42  44
ENDBRANCH  41  42
ENDBRANCH  40  41
ENDBRANCH  39  40
ENDBRANCH  38  39
ENDBRANCH  37  38
ENDBRANCH  36  37
ENDBRANCH  35  36
ENDBRANCH   1  35
TORSDOF 28
ENDMDL
