MODEL 1
REMARK VINA RESULT:     -10.2      0.000      0.000
REMARK SMILES C=C(C)COc1ccc2nc(C)n(-c3cccc(C(=O)OCCOCCOCCOCCOC(=O)c4ccc(-c5c6nc(c(-c7c(F)cc(S(=O)(=O)[O-])cc7F)c7ccc([nH]7)c(-c7c(F)cc(S(=O)(=O)[O-])cc7F)c7nc(c(-c8c(F)cc(S(=O)(=O)[O-])cc8F)c8ccc5[nH]8)C=C7)C=C6)cc4)c3)c(=O)c2c1
REMARK SMILES IDX 26 1 25 2 24 3 23 4 22 5 21 6 19 7 20 8 18 9 14 10 15 11
REMARK SMILES IDX 102 12 16 13 17 14 13 15 6 16 7 17 106 18 8 19 105 20 9 21
REMARK SMILES IDX 103 22 10 23 104 24 11 25 12 26 5 27 4 28 2 29 1 30 3 31
REMARK SMILES IDX 27 32 28 33 29 34 30 35 31 36 32 37 33 38 34 39 35 40 36 41
REMARK SMILES IDX 37 42 101 43 38 44 100 45 39 46 40 47 41 48 94 49 42 50
REMARK SMILES IDX 99 51 93 52 95 53 43 54 98 55 92 56 91 57 44 59 78 60 57 61
REMARK SMILES IDX 77 62 58 63 61 64 76 65 96 66 59 67 60 68 75 70 97 71 62 72
REMARK SMILES IDX 45 73 46 74 55 75 47 76 48 77 54 78 56 79 49 80 50 81 51 82
REMARK SMILES IDX 52 83 53 84 79 85 80 86 89 87 81 88 82 89 88 90 90 91 83 92
REMARK SMILES IDX 84 93 85 94 86 95 87 96 63 97 64 98 73 99 65 100 66 101
REMARK SMILES IDX 72 102 74 103 67 104 68 105 69 106 70 107 71 108
REMARK H PARENT 95 58 61 69
REMARK Flexibility Score: inf
ROOT
ATOM      1  C   UNL A   1      44.068  22.838  26.574  1.00  0.00     0.188 C 
ENDROOT
BRANCH   1   2
ATOM      2  C   UNL A   1      43.317  21.723  25.818  1.00  0.00     0.188 C 
BRANCH   2   3
ATOM      3  O   UNL A   1      42.577  20.857  26.660  1.00  0.00    -0.376 OA
BRANCH   3   4
ATOM      4  C   UNL A   1      41.495  21.380  27.410  1.00  0.00     0.202 C 
BRANCH   4   5
ATOM      5  C   UNL A   1      40.064  21.257  26.865  1.00  0.00     0.261 C 
BRANCH   5   6
ATOM      6  O   UNL A   1      39.679  22.225  25.884  1.00  0.00    -0.460 OA
BRANCH   6   7
ATOM      7  C   UNL A   1      38.721  23.119  26.218  1.00  0.00     0.338 C 
ATOM      8  O   UNL A   1      38.892  24.237  26.669  1.00  0.00    -0.246 OA
BRANCH   7   9
ATOM      9  C   UNL A   1      37.435  22.610  25.676  1.00  0.00     0.062 A 
ATOM     10  C   UNL A   1      35.013  22.772  25.448  1.00  0.00     0.051 A 
ATOM     11  C   UNL A   1      35.003  21.482  24.896  1.00  0.00     0.027 A 
ATOM     12  C   UNL A   1      36.244  23.332  25.827  1.00  0.00     0.042 A 
ATOM     13  C   UNL A   1      36.191  20.760  24.743  1.00  0.00     0.003 A 
ATOM     14  C   UNL A   1      37.407  21.325  25.127  1.00  0.00     0.016 A 
BRANCH  10  15
ATOM     15  N   UNL A   1      33.806  23.533  25.593  1.00  0.00    -0.264 N 
ATOM     16  C   UNL A   1      30.644  26.784  23.858  1.00  0.00     0.120 A 
ATOM     17  C   UNL A   1      29.806  26.478  24.930  1.00  0.00     0.049 A 
ATOM     18  C   UNL A   1      31.852  26.115  23.704  1.00  0.00     0.062 A 
ATOM     19  C   UNL A   1      30.207  25.554  25.893  1.00  0.00     0.033 A 
ATOM     20  C   UNL A   1      32.236  25.175  24.671  1.00  0.00     0.070 A 
ATOM     21  C   UNL A   1      31.428  24.896  25.768  1.00  0.00     0.078 A 
ATOM     22  C   UNL A   1      33.488  24.415  24.544  1.00  0.00     0.266 A 
ATOM     23  N   UNL A   1      31.801  23.995  26.763  1.00  0.00    -0.234 NA
ATOM     24  O   UNL A   1      34.136  24.548  23.505  1.00  0.00    -0.268 OA
ATOM     25  C   UNL A   1      32.944  23.390  26.670  1.00  0.00     0.113 A 
ATOM     26  C   UNL A   1      33.304  22.539  27.871  1.00  0.00     0.088 C 
BRANCH  16  27
ATOM     27  O   UNL A   1      30.246  27.671  22.894  1.00  0.00    -0.489 OA
BRANCH  27  28
ATOM     28  C   UNL A   1      30.198  29.025  23.388  1.00  0.00     0.260 C 
BRANCH  28  29
ATOM     29  C   UNL A   1      28.831  29.650  23.192  1.00  0.00    -0.043 C 
ATOM     30  C   UNL A   1      28.637  30.980  23.211  1.00  0.00     0.011 C 
ATOM     31  C   UNL A   1      27.711  28.690  22.901  1.00  0.00     0.042 C 
ENDBRANCH  28  29
ENDBRANCH  27  28
ENDBRANCH  16  27
ENDBRANCH  10  15
ENDBRANCH   7   9
ENDBRANCH   6   7
ENDBRANCH   5   6
ENDBRANCH   4   5
ENDBRANCH   3   4
ENDBRANCH   2   3
ENDBRANCH   1   2
BRANCH   1  32
ATOM     32  O   UNL A   1      45.486  22.854  26.540  1.00  0.00    -0.377 OA
BRANCH  32  33
ATOM     33  C   UNL A   1      46.198  23.958  27.095  1.00  0.00     0.188 C 
BRANCH  33  34
ATOM     34  C   UNL A   1      47.341  24.666  26.325  1.00  0.00     0.188 C 
BRANCH  34  35
ATOM     35  O   UNL A   1      46.938  25.793  25.563  1.00  0.00    -0.376 OA
BRANCH  35  36
ATOM     36  C   UNL A   1      45.602  25.828  25.098  1.00  0.00     0.202 C 
BRANCH  36  37
ATOM     37  C   UNL A   1      44.761  27.044  25.508  1.00  0.00     0.261 C 
BRANCH  37  38
ATOM     38  O   UNL A   1      43.412  27.071  25.020  1.00  0.00    -0.460 OA
BRANCH  38  39
ATOM     39  C   UNL A   1      42.487  26.345  25.696  1.00  0.00     0.338 C 
ATOM     40  O   UNL A   1      42.006  25.287  25.365  1.00  0.00    -0.246 OA
BRANCH  39  41
ATOM     41  C   UNL A   1      42.329  26.987  27.026  1.00  0.00     0.060 A 
ATOM     42  C   UNL A   1      42.787  28.288  27.237  1.00  0.00     0.016 A 
ATOM     43  C   UNL A   1      41.766  26.255  28.079  1.00  0.00     0.016 A 
ATOM     44  C   UNL A   1      42.650  28.869  28.500  1.00  0.00     0.010 A 
ATOM     45  C   UNL A   1      41.636  26.837  29.345  1.00  0.00     0.010 A 
ATOM     46  C   UNL A   1      42.051  28.159  29.558  1.00  0.00    -0.014 A 
BRANCH  46  47
ATOM     47  C   UNL A   1      41.682  28.881  30.802  1.00  0.00     0.031 A 
ATOM     48  C   UNL A   1      42.468  28.755  32.073  1.00  0.00     0.074 A 
ATOM     49  C   UNL A   1      40.594  29.674  30.758  1.00  0.00     0.049 A 
ATOM     50  N   UNL A   1      42.323  29.423  33.190  1.00  0.00    -0.248 NA
ATOM     51  C   UNL A   1      43.542  27.753  32.106  1.00  0.00     0.031 C 
ATOM     52  C   UNL A   1      39.724  29.829  29.590  1.00  0.00     0.029 A 
ATOM     53  N   UNL A   1      40.042  30.506  31.696  1.00  0.00    -0.354 N 
ATOM     54  C   UNL A   1      43.302  28.945  34.053  1.00  0.00     0.074 A 
ATOM     55  C   UNL A   1      43.999  27.890  33.346  1.00  0.00     0.031 C 
ATOM     56  C   UNL A   1      38.774  30.734  29.865  1.00  0.00     0.029 A 
ATOM     57  C   UNL A   1      38.950  31.204  31.237  1.00  0.00     0.049 A 
ATOM     58  H   UNL A   1      40.392  30.595  32.612  1.00  0.00     0.167 HD
ATOM     59  C   UNL A   1      43.599  29.368  35.307  1.00  0.00     0.037 A 
ATOM     60  C   UNL A   1      38.179  32.129  31.841  1.00  0.00     0.037 A 
ATOM     61  C   UNL A   1      42.881  30.408  36.004  1.00  0.00     0.049 A 
ATOM     62  C   UNL A   1      38.511  32.554  33.244  1.00  0.00     0.074 A 
ATOM     63  C   UNL A   1      43.140  30.936  37.259  1.00  0.00     0.029 A 
ATOM     64  N   UNL A   1      41.759  31.067  35.523  1.00  0.00    -0.354 N 
ATOM     65  N   UNL A   1      39.502  32.164  34.008  1.00  0.00    -0.248 NA
ATOM     66  C   UNL A   1      37.624  33.547  33.866  1.00  0.00     0.031 C 
ATOM     67  C   UNL A   1      42.142  31.869  37.558  1.00  0.00     0.029 A 
ATOM     68  C   UNL A   1      41.295  31.970  36.467  1.00  0.00     0.049 A 
ATOM     69  H   UNL A   1      41.352  30.916  34.638  1.00  0.00     0.167 HD
ATOM     70  C   UNL A   1      39.371  32.878  35.194  1.00  0.00     0.074 A 
ATOM     71  C   UNL A   1      38.214  33.736  35.039  1.00  0.00     0.031 C 
ATOM     72  C   UNL A   1      40.142  32.823  36.307  1.00  0.00     0.037 A 
BRANCH  59  73
ATOM     73  C   UNL A   1      44.764  28.729  36.016  1.00  0.00     0.058 A 
ATOM     74  C   UNL A   1      44.592  27.587  36.816  1.00  0.00     0.135 A 
ATOM     75  C   UNL A   1      46.075  29.194  35.817  1.00  0.00     0.135 A 
ATOM     76  F   UNL A   1      43.362  27.098  37.042  1.00  0.00    -0.206 F 
ATOM     77  C   UNL A   1      45.674  26.942  37.408  1.00  0.00     0.059 A 
ATOM     78  C   UNL A   1      47.174  28.549  36.378  1.00  0.00     0.059 A 
ATOM     79  F   UNL A   1      46.300  30.276  35.055  1.00  0.00    -0.206 F 
ATOM     80  C   UNL A   1      46.962  27.428  37.180  1.00  0.00     0.060 A 
BRANCH  80  81
ATOM     81  S   UNL A   1      48.352  26.565  37.944  1.00  0.00     0.124 S 
ATOM     82  O   UNL A   1      49.319  26.549  36.850  1.00  0.00    -0.237 OA
ATOM     83  O   UNL A   1      48.679  27.439  39.066  1.00  0.00    -0.237 OA
ATOM     84  O   UNL A   1      47.793  25.266  38.303  1.00  0.00    -0.744 OA
ENDBRANCH  80  81
ENDBRANCH  59  73
BRANCH  60  85
ATOM     85  C   UNL A   1      37.049  32.741  31.096  1.00  0.00     0.058 A 
ATOM     86  C   UNL A   1      37.265  33.799  30.202  1.00  0.00     0.135 A 
ATOM     87  C   UNL A   1      35.739  32.254  31.229  1.00  0.00     0.135 A 
ATOM     88  F   UNL A   1      38.499  34.301  30.041  1.00  0.00    -0.206 F 
ATOM     89  C   UNL A   1      36.222  34.361  29.473  1.00  0.00     0.059 A 
ATOM     90  C   UNL A   1      34.685  32.778  30.490  1.00  0.00     0.059 A 
ATOM     91  F   UNL A   1      35.483  31.228  32.057  1.00  0.00    -0.206 F 
ATOM     92  C   UNL A   1      34.936  33.838  29.619  1.00  0.00     0.060 A 
BRANCH  92  93
ATOM     93  S   UNL A   1      33.602  34.543  28.628  1.00  0.00     0.124 S 
ATOM     94  O   UNL A   1      34.258  35.701  28.033  1.00  0.00    -0.237 OA
ATOM     95  O   UNL A   1      33.290  33.447  27.716  1.00  0.00    -0.237 OA
ATOM     96  O   UNL A   1      32.569  34.842  29.616  1.00  0.00    -0.744 OA
ENDBRANCH  92  93
ENDBRANCH  60  85
BRANCH  72  97
ATOM     97  C   UNL A   1      39.775  33.718  37.461  1.00  0.00     0.058 A 
ATOM     98  C   UNL A   1      38.842  33.320  38.431  1.00  0.00     0.135 A 
ATOM     99  C   UNL A   1      40.437  34.943  37.654  1.00  0.00     0.135 A 
ATOM    100  F   UNL A   1      38.172  32.166  38.291  1.00  0.00    -0.206 F 
ATOM    101  C   UNL A   1      38.579  34.103  39.551  1.00  0.00     0.059 A 
ATOM    102  C   UNL A   1      40.210  35.729  38.780  1.00  0.00     0.059 A 
ATOM    103  F   UNL A   1      41.342  35.370  36.758  1.00  0.00    -0.206 F 
ATOM    104  C   UNL A   1      39.279  35.300  39.723  1.00  0.00     0.060 A 
BRANCH 104 105
ATOM    105  S   UNL A   1      38.979  36.263  41.222  1.00  0.00     0.124 S 
ATOM    106  O   UNL A   1      37.833  35.566  41.797  1.00  0.00    -0.237 OA
ATOM    107  O   UNL A   1      40.239  36.112  41.942  1.00  0.00    -0.237 OA
ATOM    108  O   UNL A   1      38.708  37.605  40.716  1.00  0.00    -0.744 OA
ENDBRANCH 104 105
ENDBRANCH  72  97
ENDBRANCH  46  47
ENDBRANCH  39  41
ENDBRANCH  38  39
ENDBRANCH  37  38
ENDBRANCH  36  37
ENDBRANCH  35  36
ENDBRANCH  34  35
ENDBRANCH  33  34
ENDBRANCH  32  33
ENDBRANCH   1  32
TORSDOF 27
ENDMDL
MODEL 2
REMARK VINA RESULT:      -8.4      7.524     12.402
REMARK SMILES C=C(C)COc1ccc2nc(C)n(-c3cccc(C(=O)OCCOCCOCCOCCOC(=O)c4ccc(-c5c6nc(c(-c7c(F)cc(S(=O)(=O)[O-])cc7F)c7ccc([nH]7)c(-c7c(F)cc(S(=O)(=O)[O-])cc7F)c7nc(c(-c8c(F)cc(S(=O)(=O)[O-])cc8F)c8ccc5[nH]8)C=C7)C=C6)cc4)c3)c(=O)c2c1
REMARK SMILES IDX 26 1 25 2 24 3 23 4 22 5 21 6 19 7 20 8 18 9 14 10 15 11
REMARK SMILES IDX 102 12 16 13 17 14 13 15 6 16 7 17 106 18 8 19 105 20 9 21
REMARK SMILES IDX 103 22 10 23 104 24 11 25 12 26 5 27 4 28 2 29 1 30 3 31
REMARK SMILES IDX 27 32 28 33 29 34 30 35 31 36 32 37 33 38 34 39 35 40 36 41
REMARK SMILES IDX 37 42 101 43 38 44 100 45 39 46 40 47 41 48 94 49 42 50
REMARK SMILES IDX 99 51 93 52 95 53 43 54 98 55 92 56 91 57 44 59 78 60 57 61
REMARK SMILES IDX 77 62 58 63 61 64 76 65 96 66 59 67 60 68 75 70 97 71 62 72
REMARK SMILES IDX 45 73 46 74 55 75 47 76 48 77 54 78 56 79 49 80 50 81 51 82
REMARK SMILES IDX 52 83 53 84 79 85 80 86 89 87 81 88 82 89 88 90 90 91 83 92
REMARK SMILES IDX 84 93 85 94 86 95 87 96 63 97 64 98 73 99 65 100 66 101
REMARK SMILES IDX 72 102 74 103 67 104 68 105 69 106 70 107 71 108
REMARK H PARENT 95 58 61 69
REMARK Flexibility Score: inf
ROOT
ATOM      1  C   UNL A   1      44.608  25.005  31.739  1.00  0.00     0.188 C 
ENDROOT
BRANCH   1   2
ATOM      2  C   UNL A   1      44.236  26.442  32.158  1.00  0.00     0.188 C 
BRANCH   2   3
ATOM      3  O   UNL A   1      44.633  26.776  33.476  1.00  0.00    -0.376 OA
BRANCH   3   4
ATOM      4  C   UNL A   1      44.017  26.119  34.570  1.00  0.00     0.202 C 
BRANCH   4   5
ATOM      5  C   UNL A   1      42.956  26.858  35.400  1.00  0.00     0.261 C 
BRANCH   5   6
ATOM      6  O   UNL A   1      42.670  28.202  34.999  1.00  0.00    -0.460 OA
BRANCH   6   7
ATOM      7  C   UNL A   1      41.473  28.725  35.349  1.00  0.00     0.338 C 
ATOM      8  O   UNL A   1      41.060  28.913  36.479  1.00  0.00    -0.246 OA
BRANCH   7   9
ATOM      9  C   UNL A   1      40.864  29.293  34.118  1.00  0.00     0.062 A 
ATOM     10  C   UNL A   1      40.794  29.520  31.692  1.00  0.00     0.051 A 
ATOM     11  C   UNL A   1      39.900  30.590  31.841  1.00  0.00     0.027 A 
ATOM     12  C   UNL A   1      41.264  28.868  32.845  1.00  0.00     0.042 A 
ATOM     13  C   UNL A   1      39.498  31.014  33.111  1.00  0.00     0.003 A 
ATOM     14  C   UNL A   1      39.975  30.364  34.249  1.00  0.00     0.016 A 
BRANCH  10  15
ATOM     15  N   UNL A   1      41.200  29.059  30.396  1.00  0.00    -0.264 N 
ATOM     16  C   UNL A   1      40.614  26.069  26.614  1.00  0.00     0.120 A 
ATOM     17  C   UNL A   1      41.578  26.811  25.932  1.00  0.00     0.049 A 
ATOM     18  C   UNL A   1      40.227  26.439  27.897  1.00  0.00     0.062 A 
ATOM     19  C   UNL A   1      42.211  27.883  26.558  1.00  0.00     0.033 A 
ATOM     20  C   UNL A   1      40.860  27.530  28.509  1.00  0.00     0.070 A 
ATOM     21  C   UNL A   1      41.854  28.249  27.854  1.00  0.00     0.078 A 
ATOM     22  C   UNL A   1      40.469  27.987  29.851  1.00  0.00     0.266 A 
ATOM     23  N   UNL A   1      42.525  29.314  28.451  1.00  0.00    -0.234 NA
ATOM     24  O   UNL A   1      39.493  27.451  30.376  1.00  0.00    -0.268 OA
ATOM     25  C   UNL A   1      42.217  29.653  29.663  1.00  0.00     0.113 A 
ATOM     26  C   UNL A   1      43.101  30.731  30.258  1.00  0.00     0.088 C 
BRANCH  16  27
ATOM     27  O   UNL A   1      39.970  25.031  25.998  1.00  0.00    -0.489 OA
BRANCH  27  28
ATOM     28  C   UNL A   1      39.256  24.200  26.935  1.00  0.00     0.260 C 
BRANCH  28  29
ATOM     29  C   UNL A   1      38.540  23.055  26.245  1.00  0.00    -0.043 C 
ATOM     30  C   UNL A   1      37.305  23.183  25.730  1.00  0.00     0.011 C 
ATOM     31  C   UNL A   1      39.328  21.783  26.109  1.00  0.00     0.042 C 
ENDBRANCH  28  29
ENDBRANCH  27  28
ENDBRANCH  16  27
ENDBRANCH  10  15
ENDBRANCH   7   9
ENDBRANCH   6   7
ENDBRANCH   5   6
ENDBRANCH   4   5
ENDBRANCH   3   4
ENDBRANCH   2   3
ENDBRANCH   1   2
BRANCH   1  32
ATOM     32  O   UNL A   1      44.729  24.704  30.358  1.00  0.00    -0.377 OA
BRANCH  32  33
ATOM     33  C   UNL A   1      44.406  23.397  29.884  1.00  0.00     0.188 C 
BRANCH  33  34
ATOM     34  C   UNL A   1      43.023  23.068  29.271  1.00  0.00     0.188 C 
BRANCH  34  35
ATOM     35  O   UNL A   1      42.839  23.515  27.937  1.00  0.00    -0.376 OA
BRANCH  35  36
ATOM     36  C   UNL A   1      42.966  22.559  26.901  1.00  0.00     0.202 C 
BRANCH  36  37
ATOM     37  C   UNL A   1      43.148  23.105  25.479  1.00  0.00     0.261 C 
BRANCH  37  38
ATOM     38  O   UNL A   1      44.368  22.743  24.816  1.00  0.00    -0.460 OA
BRANCH  38  39
ATOM     39  C   UNL A   1      45.473  22.576  25.586  1.00  0.00     0.338 C 
ATOM     40  O   UNL A   1      45.964  21.530  25.939  1.00  0.00    -0.246 OA
BRANCH  39  41
ATOM     41  C   UNL A   1      46.091  23.917  25.741  1.00  0.00     0.060 A 
ATOM     42  C   UNL A   1      46.530  24.349  26.994  1.00  0.00     0.016 A 
ATOM     43  C   UNL A   1      46.180  24.765  24.629  1.00  0.00     0.016 A 
ATOM     44  C   UNL A   1      47.090  25.621  27.126  1.00  0.00     0.010 A 
ATOM     45  C   UNL A   1      46.735  26.042  24.765  1.00  0.00     0.010 A 
ATOM     46  C   UNL A   1      47.221  26.469  26.009  1.00  0.00    -0.014 A 
BRANCH  46  47
ATOM     47  C   UNL A   1      48.048  27.697  26.121  1.00  0.00     0.031 A 
ATOM     48  C   UNL A   1      49.524  27.705  25.860  1.00  0.00     0.074 A 
ATOM     49  C   UNL A   1      47.420  28.836  26.473  1.00  0.00     0.049 A 
ATOM     50  N   UNL A   1      50.338  28.730  25.805  1.00  0.00    -0.248 NA
ATOM     51  C   UNL A   1      50.177  26.407  25.643  1.00  0.00     0.031 C 
ATOM     52  C   UNL A   1      45.996  28.934  26.804  1.00  0.00     0.029 A 
ATOM     53  N   UNL A   1      47.878  30.122  26.596  1.00  0.00    -0.354 N 
ATOM     54  C   UNL A   1      51.594  28.209  25.520  1.00  0.00     0.074 A 
ATOM     55  C   UNL A   1      51.444  26.769  25.470  1.00  0.00     0.031 C 
ATOM     56  C   UNL A   1      45.688  30.216  27.048  1.00  0.00     0.029 A 
ATOM     57  C   UNL A   1      46.895  31.027  26.920  1.00  0.00     0.049 A 
ATOM     58  H   UNL A   1      48.821  30.374  26.465  1.00  0.00     0.167 HD
ATOM     59  C   UNL A   1      52.753  28.878  25.302  1.00  0.00     0.037 A 
ATOM     60  C   UNL A   1      46.949  32.363  27.084  1.00  0.00     0.037 A 
ATOM     61  C   UNL A   1      52.889  30.313  25.375  1.00  0.00     0.049 A 
ATOM     62  C   UNL A   1      48.255  33.075  26.869  1.00  0.00     0.074 A 
ATOM     63  C   UNL A   1      54.013  31.083  25.123  1.00  0.00     0.029 A 
ATOM     64  N   UNL A   1      51.882  31.195  25.742  1.00  0.00    -0.354 N 
ATOM     65  N   UNL A   1      49.411  32.577  26.501  1.00  0.00    -0.248 NA
ATOM     66  C   UNL A   1      48.266  34.528  27.085  1.00  0.00     0.031 C 
ATOM     67  C   UNL A   1      53.702  32.419  25.393  1.00  0.00     0.029 A 
ATOM     68  C   UNL A   1      52.367  32.493  25.755  1.00  0.00     0.049 A 
ATOM     69  H   UNL A   1      50.957  30.935  25.960  1.00  0.00     0.167 HD
ATOM     70  C   UNL A   1      50.282  33.658  26.422  1.00  0.00     0.074 A 
ATOM     71  C   UNL A   1      49.515  34.838  26.765  1.00  0.00     0.031 C 
ATOM     72  C   UNL A   1      51.598  33.666  26.096  1.00  0.00     0.037 A 
BRANCH  59  73
ATOM     73  C   UNL A   1      53.977  28.079  24.939  1.00  0.00     0.058 A 
ATOM     74  C   UNL A   1      54.397  27.957  23.604  1.00  0.00     0.135 A 
ATOM     75  C   UNL A   1      54.794  27.515  25.934  1.00  0.00     0.135 A 
ATOM     76  F   UNL A   1      53.656  28.474  22.611  1.00  0.00    -0.206 F 
ATOM     77  C   UNL A   1      55.571  27.290  23.267  1.00  0.00     0.059 A 
ATOM     78  C   UNL A   1      55.987  26.867  25.622  1.00  0.00     0.059 A 
ATOM     79  F   UNL A   1      54.448  27.609  27.226  1.00  0.00    -0.206 F 
ATOM     80  C   UNL A   1      56.363  26.752  24.284  1.00  0.00     0.060 A 
BRANCH  80  81
ATOM     81  S   UNL A   1      57.890  25.907  23.824  1.00  0.00     0.124 S 
ATOM     82  O   UNL A   1      58.890  26.731  24.498  1.00  0.00    -0.237 OA
ATOM     83  O   UNL A   1      57.687  24.575  24.384  1.00  0.00    -0.237 OA
ATOM     84  O   UNL A   1      57.898  25.980  22.367  1.00  0.00    -0.744 OA
ENDBRANCH  80  81
ENDBRANCH  59  73
BRANCH  60  85
ATOM     85  C   UNL A   1      45.712  33.110  27.429  1.00  0.00     0.058 A 
ATOM     86  C   UNL A   1      45.368  33.356  28.766  1.00  0.00     0.135 A 
ATOM     87  C   UNL A   1      44.872  33.630  26.431  1.00  0.00     0.135 A 
ATOM     88  F   UNL A   1      46.138  32.877  29.756  1.00  0.00    -0.206 F 
ATOM     89  C   UNL A   1      44.231  34.082  29.104  1.00  0.00     0.059 A 
ATOM     90  C   UNL A   1      43.746  34.383  26.742  1.00  0.00     0.059 A 
ATOM     91  F   UNL A   1      45.169  33.440  25.136  1.00  0.00    -0.206 F 
ATOM     92  C   UNL A   1      43.430  34.597  28.083  1.00  0.00     0.060 A 
BRANCH  92  93
ATOM     93  S   UNL A   1      41.985  35.581  28.537  1.00  0.00     0.124 S 
ATOM     94  O   UNL A   1      42.606  36.757  29.134  1.00  0.00    -0.237 OA
ATOM     95  O   UNL A   1      41.340  35.786  27.243  1.00  0.00    -0.237 OA
ATOM     96  O   UNL A   1      41.262  34.711  29.460  1.00  0.00    -0.744 OA
ENDBRANCH  92  93
ENDBRANCH  60  85
BRANCH  72  97
ATOM     97  C   UNL A   1      52.311  34.992  26.083  1.00  0.00     0.058 A 
ATOM     98  C   UNL A   1      52.214  35.866  24.990  1.00  0.00     0.135 A 
ATOM     99  C   UNL A   1      53.017  35.434  27.215  1.00  0.00     0.135 A 
ATOM    100  F   UNL A   1      51.562  35.491  23.879  1.00  0.00    -0.206 F 
ATOM    101  C   UNL A   1      52.789  37.134  25.019  1.00  0.00     0.059 A 
ATOM    102  C   UNL A   1      53.576  36.707  27.277  1.00  0.00     0.059 A 
ATOM    103  F   UNL A   1      53.138  34.638  28.290  1.00  0.00    -0.206 F 
ATOM    104  C   UNL A   1      53.457  37.550  26.174  1.00  0.00     0.060 A 
BRANCH 104 105
ATOM    105  S   UNL A   1      54.129  39.225  26.221  1.00  0.00     0.124 S 
ATOM    106  O   UNL A   1      53.868  39.688  24.861  1.00  0.00    -0.237 OA
ATOM    107  O   UNL A   1      53.326  39.851  27.267  1.00  0.00    -0.237 OA
ATOM    108  O   UNL A   1      55.535  39.020  26.554  1.00  0.00    -0.744 OA
ENDBRANCH 104 105
ENDBRANCH  72  97
ENDBRANCH  46  47
ENDBRANCH  39  41
ENDBRANCH  38  39
ENDBRANCH  37  38
ENDBRANCH  36  37
ENDBRANCH  35  36
ENDBRANCH  34  35
ENDBRANCH  33  34
ENDBRANCH  32  33
ENDBRANCH   1  32
TORSDOF 27
ENDMDL
MODEL 3
REMARK VINA RESULT:      -8.3      6.529     15.113
REMARK SMILES C=C(C)COc1ccc2nc(C)n(-c3cccc(C(=O)OCCOCCOCCOCCOC(=O)c4ccc(-c5c6nc(c(-c7c(F)cc(S(=O)(=O)[O-])cc7F)c7ccc([nH]7)c(-c7c(F)cc(S(=O)(=O)[O-])cc7F)c7nc(c(-c8c(F)cc(S(=O)(=O)[O-])cc8F)c8ccc5[nH]8)C=C7)C=C6)cc4)c3)c(=O)c2c1
REMARK SMILES IDX 26 1 25 2 24 3 23 4 22 5 21 6 19 7 20 8 18 9 14 10 15 11
REMARK SMILES IDX 102 12 16 13 17 14 13 15 6 16 7 17 106 18 8 19 105 20 9 21
REMARK SMILES IDX 103 22 10 23 104 24 11 25 12 26 5 27 4 28 2 29 1 30 3 31
REMARK SMILES IDX 27 32 28 33 29 34 30 35 31 36 32 37 33 38 34 39 35 40 36 41
REMARK SMILES IDX 37 42 101 43 38 44 100 45 39 46 40 47 41 48 94 49 42 50
REMARK SMILES IDX 99 51 93 52 95 53 43 54 98 55 92 56 91 57 44 59 78 60 57 61
REMARK SMILES IDX 77 62 58 63 61 64 76 65 96 66 59 67 60 68 75 70 97 71 62 72
REMARK SMILES IDX 45 73 46 74 55 75 47 76 48 77 54 78 56 79 49 80 50 81 51 82
REMARK SMILES IDX 52 83 53 84 79 85 80 86 89 87 81 88 82 89 88 90 90 91 83 92
REMARK SMILES IDX 84 93 85 94 86 95 87 96 63 97 64 98 73 99 65 100 66 101
REMARK SMILES IDX 72 102 74 103 67 104 68 105 69 106 70 107 71 108
REMARK H PARENT 95 58 61 69
REMARK Flexibility Score: inf
ROOT
ATOM      1  C   UNL A   1      46.391  40.254  32.478  1.00  0.00     0.188 C 
ENDROOT
BRANCH   1   2
ATOM      2  C   UNL A   1      45.073  41.028  32.680  1.00  0.00     0.188 C 
BRANCH   2   3
ATOM      3  O   UNL A   1      44.096  40.764  31.688  1.00  0.00    -0.376 OA
BRANCH   3   4
ATOM      4  C   UNL A   1      43.841  41.739  30.692  1.00  0.00     0.202 C 
BRANCH   4   5
ATOM      5  C   UNL A   1      42.994  41.367  29.466  1.00  0.00     0.261 C 
BRANCH   5   6
ATOM      6  O   UNL A   1      42.694  39.977  29.306  1.00  0.00    -0.460 OA
BRANCH   6   7
ATOM      7  C   UNL A   1      42.018  39.598  28.199  1.00  0.00     0.338 C 
ATOM      8  O   UNL A   1      41.555  40.327  27.340  1.00  0.00    -0.246 OA
BRANCH   7   9
ATOM      9  C   UNL A   1      42.181  38.127  28.065  1.00  0.00     0.062 A 
ATOM     10  C   UNL A   1      42.799  35.964  29.003  1.00  0.00     0.051 A 
ATOM     11  C   UNL A   1      42.760  35.419  27.711  1.00  0.00     0.027 A 
ATOM     12  C   UNL A   1      42.496  37.325  29.169  1.00  0.00     0.042 A 
ATOM     13  C   UNL A   1      42.444  36.217  26.607  1.00  0.00     0.003 A 
ATOM     14  C   UNL A   1      42.150  37.569  26.783  1.00  0.00     0.016 A 
BRANCH  10  15
ATOM     15  N   UNL A   1      43.101  35.154  30.148  1.00  0.00    -0.264 N 
ATOM     16  C   UNL A   1      41.635  32.294  33.789  1.00  0.00     0.120 A 
ATOM     17  C   UNL A   1      42.976  32.018  34.055  1.00  0.00     0.049 A 
ATOM     18  C   UNL A   1      41.292  33.121  32.726  1.00  0.00     0.062 A 
ATOM     19  C   UNL A   1      43.981  32.626  33.304  1.00  0.00     0.033 A 
ATOM     20  C   UNL A   1      42.311  33.712  31.967  1.00  0.00     0.070 A 
ATOM     21  C   UNL A   1      43.652  33.478  32.253  1.00  0.00     0.078 A 
ATOM     22  C   UNL A   1      42.007  34.569  30.811  1.00  0.00     0.266 A 
ATOM     23  N   UNL A   1      44.686  34.081  31.540  1.00  0.00    -0.234 NA
ATOM     24  O   UNL A   1      40.830  34.662  30.462  1.00  0.00    -0.268 OA
ATOM     25  C   UNL A   1      44.395  34.892  30.572  1.00  0.00     0.113 A 
ATOM     26  C   UNL A   1      45.591  35.592  29.958  1.00  0.00     0.088 C 
BRANCH  16  27
ATOM     27  O   UNL A   1      40.643  31.682  34.505  1.00  0.00    -0.489 OA
BRANCH  27  28
ATOM     28  C   UNL A   1      39.460  31.455  33.712  1.00  0.00     0.260 C 
BRANCH  28  29
ATOM     29  C   UNL A   1      38.192  31.710  34.501  1.00  0.00    -0.043 C 
ATOM     30  C   UNL A   1      37.031  32.047  33.912  1.00  0.00     0.011 C 
ATOM     31  C   UNL A   1      38.293  31.491  35.985  1.00  0.00     0.042 C 
ENDBRANCH  28  29
ENDBRANCH  27  28
ENDBRANCH  16  27
ENDBRANCH  10  15
ENDBRANCH   7   9
ENDBRANCH   6   7
ENDBRANCH   5   6
ENDBRANCH   4   5
ENDBRANCH   3   4
ENDBRANCH   2   3
ENDBRANCH   1   2
BRANCH   1  32
ATOM     32  O   UNL A   1      46.944  40.169  31.174  1.00  0.00    -0.377 OA
BRANCH  32  33
ATOM     33  C   UNL A   1      46.836  38.955  30.432  1.00  0.00     0.188 C 
BRANCH  33  34
ATOM     34  C   UNL A   1      46.084  38.886  29.080  1.00  0.00     0.188 C 
BRANCH  34  35
ATOM     35  O   UNL A   1      46.897  38.581  27.959  1.00  0.00    -0.376 OA
BRANCH  35  36
ATOM     36  C   UNL A   1      48.206  39.120  27.931  1.00  0.00     0.202 C 
BRANCH  36  37
ATOM     37  C   UNL A   1      49.301  38.308  28.635  1.00  0.00     0.261 C 
BRANCH  37  38
ATOM     38  O   UNL A   1      49.104  36.887  28.675  1.00  0.00    -0.460 OA
BRANCH  38  39
ATOM     39  C   UNL A   1      49.320  36.193  27.530  1.00  0.00     0.338 C 
ATOM     40  O   UNL A   1      50.109  36.458  26.654  1.00  0.00    -0.246 OA
BRANCH  39  41
ATOM     41  C   UNL A   1      48.554  34.926  27.647  1.00  0.00     0.060 A 
ATOM     42  C   UNL A   1      47.617  34.577  26.673  1.00  0.00     0.016 A 
ATOM     43  C   UNL A   1      48.740  34.113  28.773  1.00  0.00     0.016 A 
ATOM     44  C   UNL A   1      46.890  33.393  26.810  1.00  0.00     0.010 A 
ATOM     45  C   UNL A   1      48.005  32.931  28.912  1.00  0.00     0.010 A 
ATOM     46  C   UNL A   1      47.095  32.547  27.917  1.00  0.00    -0.014 A 
BRANCH  46  47
ATOM     47  C   UNL A   1      46.509  31.183  27.908  1.00  0.00     0.031 A 
ATOM     48  C   UNL A   1      45.058  30.924  28.186  1.00  0.00     0.074 A 
ATOM     49  C   UNL A   1      47.336  30.156  27.636  1.00  0.00     0.049 A 
ATOM     50  N   UNL A   1      44.398  29.797  28.090  1.00  0.00    -0.248 NA
ATOM     51  C   UNL A   1      44.245  32.061  28.636  1.00  0.00     0.031 C 
ATOM     52  C   UNL A   1      48.777  30.286  27.403  1.00  0.00     0.029 A 
ATOM     53  N   UNL A   1      47.097  28.814  27.490  1.00  0.00    -0.354 N 
ATOM     54  C   UNL A   1      43.086  30.089  28.441  1.00  0.00     0.074 A 
ATOM     55  C   UNL A   1      43.057  31.491  28.806  1.00  0.00     0.031 C 
ATOM     56  C   UNL A   1      49.285  29.083  27.101  1.00  0.00     0.029 A 
ATOM     57  C   UNL A   1      48.215  28.091  27.145  1.00  0.00     0.049 A 
ATOM     58  H   UNL A   1      46.210  28.407  27.620  1.00  0.00     0.167 HD
ATOM     59  C   UNL A   1      42.009  29.265  28.435  1.00  0.00     0.037 A 
ATOM     60  C   UNL A   1      48.366  26.779  26.880  1.00  0.00     0.037 A 
ATOM     61  C   UNL A   1      42.060  27.865  28.087  1.00  0.00     0.049 A 
ATOM     62  C   UNL A   1      47.160  25.882  26.914  1.00  0.00     0.074 A 
ATOM     63  C   UNL A   1      41.012  26.962  28.006  1.00  0.00     0.029 A 
ATOM     64  N   UNL A   1      43.214  27.158  27.778  1.00  0.00    -0.354 N 
ATOM     65  N   UNL A   1      45.909  26.195  27.149  1.00  0.00    -0.248 NA
ATOM     66  C   UNL A   1      47.384  24.455  26.642  1.00  0.00     0.031 C 
ATOM     67  C   UNL A   1      41.538  25.701  27.708  1.00  0.00     0.029 A 
ATOM     68  C   UNL A   1      42.908  25.827  27.541  1.00  0.00     0.049 A 
ATOM     69  H   UNL A   1      44.118  27.547  27.734  1.00  0.00     0.167 HD
ATOM     70  C   UNL A   1      45.193  25.009  27.034  1.00  0.00     0.074 A 
ATOM     71  C   UNL A   1      46.148  23.975  26.693  1.00  0.00     0.031 C 
ATOM     72  C   UNL A   1      43.864  24.801  27.200  1.00  0.00     0.037 A 
BRANCH  59  73
ATOM     73  C   UNL A   1      40.667  29.846  28.795  1.00  0.00     0.058 A 
ATOM     74  C   UNL A   1      39.641  29.954  27.841  1.00  0.00     0.135 A 
ATOM     75  C   UNL A   1      40.365  30.204  30.120  1.00  0.00     0.135 A 
ATOM     76  F   UNL A   1      39.872  29.628  26.559  1.00  0.00    -0.206 F 
ATOM     77  C   UNL A   1      38.373  30.413  28.183  1.00  0.00     0.059 A 
ATOM     78  C   UNL A   1      39.095  30.640  30.490  1.00  0.00     0.059 A 
ATOM     79  F   UNL A   1      41.303  30.112  31.075  1.00  0.00    -0.206 F 
ATOM     80  C   UNL A   1      38.108  30.750  29.512  1.00  0.00     0.060 A 
BRANCH  80  81
ATOM     81  S   UNL A   1      36.450  31.326  29.936  1.00  0.00     0.124 S 
ATOM     82  O   UNL A   1      36.011  30.287  30.863  1.00  0.00    -0.237 OA
ATOM     83  O   UNL A   1      36.720  32.631  30.530  1.00  0.00    -0.237 OA
ATOM     84  O   UNL A   1      35.757  31.352  28.652  1.00  0.00    -0.744 OA
ENDBRANCH  80  81
ENDBRANCH  59  73
BRANCH  60  85
ATOM     85  C   UNL A   1      49.708  26.255  26.517  1.00  0.00     0.058 A 
ATOM     86  C   UNL A   1      50.115  26.184  25.177  1.00  0.00     0.135 A 
ATOM     87  C   UNL A   1      50.626  25.855  27.501  1.00  0.00     0.135 A 
ATOM     88  F   UNL A   1      49.272  26.553  24.199  1.00  0.00    -0.206 F 
ATOM     89  C   UNL A   1      51.380  25.727  24.823  1.00  0.00     0.059 A 
ATOM     90  C   UNL A   1      51.906  25.423  27.175  1.00  0.00     0.059 A 
ATOM     91  F   UNL A   1      50.292  25.924  28.800  1.00  0.00    -0.206 F 
ATOM     92  C   UNL A   1      52.271  25.355  25.832  1.00  0.00     0.060 A 
BRANCH  92  93
ATOM     93  S   UNL A   1      53.927  24.812  25.359  1.00  0.00     0.124 S 
ATOM     94  O   UNL A   1      54.619  24.827  26.643  1.00  0.00    -0.237 OA
ATOM     95  O   UNL A   1      53.663  23.493  24.792  1.00  0.00    -0.237 OA
ATOM     96  O   UNL A   1      54.354  25.827  24.400  1.00  0.00    -0.744 OA
ENDBRANCH  92  93
ENDBRANCH  60  85
BRANCH  72  97
ATOM     97  C   UNL A   1      43.342  23.401  27.010  1.00  0.00     0.058 A 
ATOM     98  C   UNL A   1      43.109  22.873  25.731  1.00  0.00     0.135 A 
ATOM     99  C   UNL A   1      43.169  22.548  28.113  1.00  0.00     0.135 A 
ATOM    100  F   UNL A   1      43.247  23.646  24.643  1.00  0.00    -0.206 F 
ATOM    101  C   UNL A   1      42.724  21.547  25.552  1.00  0.00     0.059 A 
ATOM    102  C   UNL A   1      42.812  21.212  27.956  1.00  0.00     0.059 A 
ATOM    103  F   UNL A   1      43.382  23.002  29.359  1.00  0.00    -0.206 F 
ATOM    104  C   UNL A   1      42.592  20.721  26.670  1.00  0.00     0.060 A 
BRANCH 104 105
ATOM    105  S   UNL A   1      42.167  18.984  26.411  1.00  0.00     0.124 S 
ATOM    106  O   UNL A   1      43.033  18.320  27.380  1.00  0.00    -0.237 OA
ATOM    107  O   UNL A   1      40.741  18.966  26.720  1.00  0.00    -0.237 OA
ATOM    108  O   UNL A   1      42.505  18.756  25.009  1.00  0.00    -0.744 OA
ENDBRANCH 104 105
ENDBRANCH  72  97
ENDBRANCH  46  47
ENDBRANCH  39  41
ENDBRANCH  38  39
ENDBRANCH  37  38
ENDBRANCH  36  37
ENDBRANCH  35  36
ENDBRANCH  34  35
ENDBRANCH  33  34
ENDBRANCH  32  33
ENDBRANCH   1  32
TORSDOF 27
ENDMDL
