MODEL 1
REMARK VINA RESULT:      -9.4      0.000      0.000
REMARK SMILES Cc1cc(C[NH+]2C[C@@H](C)[C@H](C)C2)oc1C(=O)OCCOCCOCCOCCOC(=O)c1ccc(-c2c3nc(c(-c4c(F)cc(S(=O)(=O)[O-])cc4F)c4ccc([nH]4)c(-c4c(F)cc(S(=O)(=O)[O-])cc4F)c4nc(c(-c5c(F)cc(S(=O)(=O)[O-])cc5F)c5ccc2[nH]5)C=C4)C=C3)cc1
REMARK SMILES IDX 24 1 23 2 22 3 21 4 20 5 19 6 18 7 17 8 15 9 16 10 14 11
REMARK SMILES IDX 1 12 2 13 3 14 4 15 13 16 5 17 6 18 7 19 12 20 8 22 10 23
REMARK SMILES IDX 9 24 11 25 25 26 26 27 27 28 28 29 29 30 30 31 31 32 32 33
REMARK SMILES IDX 33 34 97 35 34 36 96 37 35 38 36 39 37 40 90 41 38 42 95 43
REMARK SMILES IDX 89 44 91 45 39 46 94 47 88 48 87 49 40 51 74 52 53 53 73 54
REMARK SMILES IDX 54 55 57 56 72 57 92 58 55 59 56 60 71 62 93 63 58 64 41 65
REMARK SMILES IDX 42 66 51 67 43 68 44 69 50 70 52 71 45 72 46 73 47 74 48 75
REMARK SMILES IDX 49 76 75 77 76 78 85 79 77 80 78 81 84 82 86 83 79 84 80 85
REMARK SMILES IDX 81 86 82 87 83 88 59 89 60 90 69 91 61 92 62 93 68 94 70 95
REMARK SMILES IDX 63 96 64 97 65 98 66 99 67 100
REMARK H PARENT 6 21 91 50 57 61
REMARK Flexibility Score: inf
ROOT
ATOM      1  C   UNL A   1      42.231  19.274  26.282  1.00  0.00     0.188 C 
ENDROOT
BRANCH   1   2
ATOM      2  O   UNL A   1      42.788  18.957  25.007  1.00  0.00    -0.377 OA
BRANCH   2   3
ATOM      3  C   UNL A   1      44.183  19.114  24.825  1.00  0.00     0.188 C 
BRANCH   3   4
ATOM      4  C   UNL A   1      44.708  20.509  25.198  1.00  0.00     0.188 C 
BRANCH   4   5
ATOM      5  O   UNL A   1      45.118  21.277  24.065  1.00  0.00    -0.376 OA
BRANCH   5   6
ATOM      6  C   UNL A   1      44.463  22.530  23.892  1.00  0.00     0.202 C 
BRANCH   6   7
ATOM      7  C   UNL A   1      43.395  22.853  24.945  1.00  0.00     0.261 C 
BRANCH   7   8
ATOM      8  O   UNL A   1      43.546  24.121  25.597  1.00  0.00    -0.457 OA
BRANCH   8   9
ATOM      9  C   UNL A   1      44.296  24.188  26.727  1.00  0.00     0.374 C 
ATOM     10  O   UNL A   1      44.367  23.299  27.563  1.00  0.00    -0.242 OA
BRANCH   9  11
ATOM     11  C   UNL A   1      45.095  25.399  26.680  1.00  0.00     0.215 A 
ATOM     12  C   UNL A   1      45.033  26.432  29.061  1.00  0.00     0.049 C 
ATOM     13  C   UNL A   1      45.392  26.381  27.619  1.00  0.00     0.003 A 
ATOM     14  C   UNL A   1      46.114  27.387  26.917  1.00  0.00     0.056 A 
ATOM     15  C   UNL A   1      46.181  27.001  25.597  1.00  0.00     0.159 A 
ATOM     16  O   UNL A   1      45.602  25.771  25.458  1.00  0.00    -0.448 OA
BRANCH  15  17
ATOM     17  C   UNL A   1      46.728  27.613  24.345  1.00  0.00     0.338 C 
BRANCH  17  18
ATOM     18  N   UNL A   1      47.957  27.026  23.803  1.00  0.00    -0.328 N 
ATOM     19  C   UNL A   1      48.484  27.649  22.590  1.00  0.00     0.266 C 
ATOM     20  C   UNL A   1      49.044  26.797  24.754  1.00  0.00     0.266 C 
ATOM     21  H   UNL A   1      47.594  26.109  23.542  1.00  0.00     0.348 HD
ATOM     22  C   UNL A   1      49.944  27.193  22.572  1.00  0.00     0.049 C 
ATOM     23  C   UNL A   1      50.311  27.298  24.053  1.00  0.00     0.049 C 
ATOM     24  C   UNL A   1      50.814  28.039  21.655  1.00  0.00     0.014 C 
ATOM     25  C   UNL A   1      51.556  26.523  24.453  1.00  0.00     0.014 C 
ENDBRANCH  17  18
ENDBRANCH  15  17
ENDBRANCH   9  11
ENDBRANCH   8   9
ENDBRANCH   7   8
ENDBRANCH   6   7
ENDBRANCH   5   6
ENDBRANCH   4   5
ENDBRANCH   3   4
ENDBRANCH   2   3
ENDBRANCH   1   2
BRANCH   1  26
ATOM     26  C   UNL A   1      40.960  20.140  26.437  1.00  0.00     0.188 C 
BRANCH  26  27
ATOM     27  O   UNL A   1      40.797  20.732  27.726  1.00  0.00    -0.376 OA
BRANCH  27  28
ATOM     28  C   UNL A   1      40.817  22.153  27.772  1.00  0.00     0.202 C 
BRANCH  28  29
ATOM     29  C   UNL A   1      40.202  22.806  26.530  1.00  0.00     0.261 C 
BRANCH  29  30
ATOM     30  O   UNL A   1      39.594  24.083  26.771  1.00  0.00    -0.460 OA
BRANCH  30  31
ATOM     31  C   UNL A   1      40.331  25.172  26.454  1.00  0.00     0.338 C 
ATOM     32  O   UNL A   1      40.728  25.496  25.351  1.00  0.00    -0.246 OA
BRANCH  31  33
ATOM     33  C   UNL A   1      40.437  26.013  27.659  1.00  0.00     0.060 A 
ATOM     34  C   UNL A   1      39.433  25.926  28.632  1.00  0.00     0.016 A 
ATOM     35  C   UNL A   1      41.509  26.895  27.814  1.00  0.00     0.016 A 
ATOM     36  C   UNL A   1      39.479  26.760  29.749  1.00  0.00     0.010 A 
ATOM     37  C   UNL A   1      41.547  27.738  28.925  1.00  0.00     0.010 A 
ATOM     38  C   UNL A   1      40.514  27.697  29.876  1.00  0.00    -0.014 A 
BRANCH  38  39
ATOM     39  C   UNL A   1      40.423  28.768  30.895  1.00  0.00     0.031 A 
ATOM     40  C   UNL A   1      41.329  28.689  32.093  1.00  0.00     0.074 A 
ATOM     41  C   UNL A   1      39.548  29.779  30.765  1.00  0.00     0.049 A 
ATOM     42  N   UNL A   1      41.397  29.475  33.135  1.00  0.00    -0.248 NA
ATOM     43  C   UNL A   1      42.283  27.566  32.120  1.00  0.00     0.031 C 
ATOM     44  C   UNL A   1      38.635  29.969  29.640  1.00  0.00     0.029 A 
ATOM     45  N   UNL A   1      39.277  30.830  31.604  1.00  0.00    -0.354 N 
ATOM     46  C   UNL A   1      42.398  28.947  33.940  1.00  0.00     0.074 A 
ATOM     47  C   UNL A   1      42.891  27.756  33.281  1.00  0.00     0.031 C 
ATOM     48  C   UNL A   1      37.890  31.066  29.867  1.00  0.00     0.029 A 
ATOM     49  C   UNL A   1      38.258  31.638  31.162  1.00  0.00     0.049 A 
ATOM     50  H   UNL A   1      39.767  30.992  32.442  1.00  0.00     0.167 HD
ATOM     51  C   UNL A   1      42.872  29.416  35.117  1.00  0.00     0.037 A 
ATOM     52  C   UNL A   1      37.680  32.706  31.747  1.00  0.00     0.037 A 
ATOM     53  C   UNL A   1      42.370  30.590  35.777  1.00  0.00     0.049 A 
ATOM     54  C   UNL A   1      38.184  33.177  33.087  1.00  0.00     0.074 A 
ATOM     55  C   UNL A   1      42.788  31.155  36.969  1.00  0.00     0.029 A 
ATOM     56  N   UNL A   1      41.331  31.377  35.303  1.00  0.00    -0.354 N 
ATOM     57  N   UNL A   1      39.154  32.688  33.823  1.00  0.00    -0.248 NA
ATOM     58  C   UNL A   1      37.516  34.347  33.676  1.00  0.00     0.031 C 
ATOM     59  C   UNL A   1      41.976  32.263  37.234  1.00  0.00     0.029 A 
ATOM     60  C   UNL A   1      41.079  32.412  36.188  1.00  0.00     0.049 A 
ATOM     61  H   UNL A   1      40.843  31.223  34.461  1.00  0.00     0.167 HD
ATOM     62  C   UNL A   1      39.228  33.505  34.948  1.00  0.00     0.074 A 
ATOM     63  C   UNL A   1      38.211  34.523  34.792  1.00  0.00     0.031 C 
ATOM     64  C   UNL A   1      40.066  33.421  36.011  1.00  0.00     0.037 A 
BRANCH  51  65
ATOM     65  C   UNL A   1      43.976  28.639  35.772  1.00  0.00     0.058 A 
ATOM     66  C   UNL A   1      45.326  28.918  35.507  1.00  0.00     0.135 A 
ATOM     67  C   UNL A   1      43.684  27.609  36.680  1.00  0.00     0.135 A 
ATOM     68  F   UNL A   1      45.658  29.877  34.627  1.00  0.00    -0.206 F 
ATOM     69  C   UNL A   1      46.349  28.187  36.100  1.00  0.00     0.059 A 
ATOM     70  C   UNL A   1      44.691  26.879  37.304  1.00  0.00     0.059 A 
ATOM     71  F   UNL A   1      42.409  27.299  36.963  1.00  0.00    -0.206 F 
ATOM     72  C   UNL A   1      46.021  27.166  36.995  1.00  0.00     0.060 A 
BRANCH  72  73
ATOM     73  S   UNL A   1      47.358  26.220  37.755  1.00  0.00     0.124 S 
ATOM     74  O   UNL A   1      47.596  26.984  38.976  1.00  0.00    -0.237 OA
ATOM     75  O   UNL A   1      46.750  24.906  37.938  1.00  0.00    -0.237 OA
ATOM     76  O   UNL A   1      48.424  26.280  36.759  1.00  0.00    -0.744 OA
ENDBRANCH  72  73
ENDBRANCH  51  65
BRANCH  52  77
ATOM     77  C   UNL A   1      36.552  33.402  31.074  1.00  0.00     0.058 A 
ATOM     78  C   UNL A   1      36.767  34.208  29.948  1.00  0.00     0.135 A 
ATOM     79  C   UNL A   1      35.237  33.274  31.547  1.00  0.00     0.135 A 
ATOM     80  F   UNL A   1      38.009  34.370  29.466  1.00  0.00    -0.206 F 
ATOM     81  C   UNL A   1      35.721  34.876  29.319  1.00  0.00     0.059 A 
ATOM     82  C   UNL A   1      34.171  33.914  30.923  1.00  0.00     0.059 A 
ATOM     83  F   UNL A   1      34.978  32.506  32.617  1.00  0.00    -0.206 F 
ATOM     84  C   UNL A   1      34.425  34.721  29.814  1.00  0.00     0.060 A 
BRANCH  84  85
ATOM     85  S   UNL A   1      33.064  35.548  28.962  1.00  0.00     0.124 S 
ATOM     86  O   UNL A   1      32.536  34.469  28.136  1.00  0.00    -0.237 OA
ATOM     87  O   UNL A   1      32.220  35.976  30.073  1.00  0.00    -0.237 OA
ATOM     88  O   UNL A   1      33.731  36.629  28.240  1.00  0.00    -0.744 OA
ENDBRANCH  84  85
ENDBRANCH  52  77
BRANCH  64  89
ATOM     89  C   UNL A   1      39.942  34.473  37.077  1.00  0.00     0.058 A 
ATOM     90  C   UNL A   1      40.561  35.726  36.950  1.00  0.00     0.135 A 
ATOM     91  C   UNL A   1      39.141  34.246  38.209  1.00  0.00     0.135 A 
ATOM     92  F   UNL A   1      41.340  35.990  35.889  1.00  0.00    -0.206 F 
ATOM     93  C   UNL A   1      40.404  36.714  37.918  1.00  0.00     0.059 A 
ATOM     94  C   UNL A   1      38.953  35.227  39.177  1.00  0.00     0.059 A 
ATOM     95  F   UNL A   1      38.518  33.069  38.370  1.00  0.00    -0.206 F 
ATOM     96  C   UNL A   1      39.597  36.455  39.028  1.00  0.00     0.060 A 
BRANCH  96  97
ATOM     97  S   UNL A   1      39.367  37.756  40.258  1.00  0.00     0.124 S 
ATOM     98  O   UNL A   1      38.227  38.482  39.707  1.00  0.00    -0.237 OA
ATOM     99  O   UNL A   1      39.105  36.995  41.476  1.00  0.00    -0.237 OA
ATOM    100  O   UNL A   1      40.639  38.472  40.237  1.00  0.00    -0.744 OA
ENDBRANCH  96  97
ENDBRANCH  64  89
ENDBRANCH  38  39
ENDBRANCH  31  33
ENDBRANCH  30  31
ENDBRANCH  29  30
ENDBRANCH  28  29
ENDBRANCH  27  28
ENDBRANCH  26  27
ENDBRANCH   1  26
TORSDOF 25
ENDMDL
MODEL 2
REMARK VINA RESULT:      -9.2      1.560      2.564
REMARK SMILES Cc1cc(C[NH+]2C[C@@H](C)[C@H](C)C2)oc1C(=O)OCCOCCOCCOCCOC(=O)c1ccc(-c2c3nc(c(-c4c(F)cc(S(=O)(=O)[O-])cc4F)c4ccc([nH]4)c(-c4c(F)cc(S(=O)(=O)[O-])cc4F)c4nc(c(-c5c(F)cc(S(=O)(=O)[O-])cc5F)c5ccc2[nH]5)C=C4)C=C3)cc1
REMARK SMILES IDX 24 1 23 2 22 3 21 4 20 5 19 6 18 7 17 8 15 9 16 10 14 11
REMARK SMILES IDX 1 12 2 13 3 14 4 15 13 16 5 17 6 18 7 19 12 20 8 22 10 23
REMARK SMILES IDX 9 24 11 25 25 26 26 27 27 28 28 29 29 30 30 31 31 32 32 33
REMARK SMILES IDX 33 34 97 35 34 36 96 37 35 38 36 39 37 40 90 41 38 42 95 43
REMARK SMILES IDX 89 44 91 45 39 46 94 47 88 48 87 49 40 51 74 52 53 53 73 54
REMARK SMILES IDX 54 55 57 56 72 57 92 58 55 59 56 60 71 62 93 63 58 64 41 65
REMARK SMILES IDX 42 66 51 67 43 68 44 69 50 70 52 71 45 72 46 73 47 74 48 75
REMARK SMILES IDX 49 76 75 77 76 78 85 79 77 80 78 81 84 82 86 83 79 84 80 85
REMARK SMILES IDX 81 86 82 87 83 88 59 89 60 90 69 91 61 92 62 93 68 94 70 95
REMARK SMILES IDX 63 96 64 97 65 98 66 99 67 100
REMARK H PARENT 6 21 91 50 57 61
REMARK Flexibility Score: inf
ROOT
ATOM      1  C   UNL A   1      42.217  19.198  26.302  1.00  0.00     0.188 C 
ENDROOT
BRANCH   1   2
ATOM      2  O   UNL A   1      42.777  18.884  25.029  1.00  0.00    -0.377 OA
BRANCH   2   3
ATOM      3  C   UNL A   1      44.158  19.123  24.824  1.00  0.00     0.188 C 
BRANCH   3   4
ATOM      4  C   UNL A   1      44.647  20.469  25.380  1.00  0.00     0.188 C 
BRANCH   4   5
ATOM      5  O   UNL A   1      46.048  20.679  25.194  1.00  0.00    -0.376 OA
BRANCH   5   6
ATOM      6  C   UNL A   1      46.415  21.904  24.568  1.00  0.00     0.202 C 
BRANCH   6   7
ATOM      7  C   UNL A   1      45.281  22.615  23.818  1.00  0.00     0.261 C 
BRANCH   7   8
ATOM      8  O   UNL A   1      45.135  24.010  24.115  1.00  0.00    -0.457 OA
BRANCH   8   9
ATOM      9  C   UNL A   1      44.170  24.393  24.990  1.00  0.00     0.374 C 
ATOM     10  O   UNL A   1      43.140  23.768  25.199  1.00  0.00    -0.242 OA
BRANCH   9  11
ATOM     11  C   UNL A   1      44.644  25.552  25.722  1.00  0.00     0.215 A 
ATOM     12  C   UNL A   1      43.107  27.537  25.061  1.00  0.00     0.049 C 
ATOM     13  C   UNL A   1      44.254  26.887  25.748  1.00  0.00     0.003 A 
ATOM     14  C   UNL A   1      45.206  27.557  26.567  1.00  0.00     0.056 A 
ATOM     15  C   UNL A   1      46.142  26.625  26.957  1.00  0.00     0.159 A 
ATOM     16  O   UNL A   1      45.778  25.396  26.482  1.00  0.00    -0.448 OA
BRANCH  15  17
ATOM     17  C   UNL A   1      47.410  26.671  27.753  1.00  0.00     0.338 C 
BRANCH  17  18
ATOM     18  N   UNL A   1      47.402  25.990  29.050  1.00  0.00    -0.328 N 
ATOM     19  C   UNL A   1      48.616  26.131  29.854  1.00  0.00     0.266 C 
ATOM     20  C   UNL A   1      46.225  26.204  29.891  1.00  0.00     0.266 C 
ATOM     21  H   UNL A   1      47.362  25.025  28.724  1.00  0.00     0.348 HD
ATOM     22  C   UNL A   1      48.138  25.785  31.266  1.00  0.00     0.049 C 
ATOM     23  C   UNL A   1      46.770  26.468  31.298  1.00  0.00     0.049 C 
ATOM     24  C   UNL A   1      49.098  26.262  32.346  1.00  0.00     0.014 C 
ATOM     25  C   UNL A   1      45.843  25.975  32.397  1.00  0.00     0.014 C 
ENDBRANCH  17  18
ENDBRANCH  15  17
ENDBRANCH   9  11
ENDBRANCH   8   9
ENDBRANCH   7   8
ENDBRANCH   6   7
ENDBRANCH   5   6
ENDBRANCH   4   5
ENDBRANCH   3   4
ENDBRANCH   2   3
ENDBRANCH   1   2
BRANCH   1  26
ATOM     26  C   UNL A   1      40.943  20.061  26.456  1.00  0.00     0.188 C 
BRANCH  26  27
ATOM     27  O   UNL A   1      40.785  20.665  27.740  1.00  0.00    -0.376 OA
BRANCH  27  28
ATOM     28  C   UNL A   1      40.796  22.087  27.771  1.00  0.00     0.202 C 
BRANCH  28  29
ATOM     29  C   UNL A   1      40.059  22.722  26.587  1.00  0.00     0.261 C 
BRANCH  29  30
ATOM     30  O   UNL A   1      39.452  23.989  26.878  1.00  0.00    -0.460 OA
BRANCH  30  31
ATOM     31  C   UNL A   1      40.161  25.090  26.543  1.00  0.00     0.338 C 
ATOM     32  O   UNL A   1      40.527  25.419  25.431  1.00  0.00    -0.246 OA
BRANCH  31  33
ATOM     33  C   UNL A   1      40.280  25.935  27.745  1.00  0.00     0.060 A 
ATOM     34  C   UNL A   1      39.284  25.853  28.727  1.00  0.00     0.016 A 
ATOM     35  C   UNL A   1      41.355  26.814  27.888  1.00  0.00     0.016 A 
ATOM     36  C   UNL A   1      39.342  26.690  29.841  1.00  0.00     0.010 A 
ATOM     37  C   UNL A   1      41.405  27.660  28.995  1.00  0.00     0.010 A 
ATOM     38  C   UNL A   1      40.381  27.625  29.956  1.00  0.00    -0.014 A 
BRANCH  38  39
ATOM     39  C   UNL A   1      40.301  28.699  30.972  1.00  0.00     0.031 A 
ATOM     40  C   UNL A   1      41.201  28.610  32.174  1.00  0.00     0.074 A 
ATOM     41  C   UNL A   1      39.441  29.723  30.837  1.00  0.00     0.049 A 
ATOM     42  N   UNL A   1      41.276  29.397  33.214  1.00  0.00    -0.248 NA
ATOM     43  C   UNL A   1      42.138  27.474  32.207  1.00  0.00     0.031 C 
ATOM     44  C   UNL A   1      38.534  29.923  29.708  1.00  0.00     0.029 A 
ATOM     45  N   UNL A   1      39.182  30.780  31.672  1.00  0.00    -0.354 N 
ATOM     46  C   UNL A   1      42.267  28.857  34.024  1.00  0.00     0.074 A 
ATOM     47  C   UNL A   1      42.745  27.657  33.370  1.00  0.00     0.031 C 
ATOM     48  C   UNL A   1      37.804  31.031  29.930  1.00  0.00     0.029 A 
ATOM     49  C   UNL A   1      38.176  31.601  31.225  1.00  0.00     0.049 A 
ATOM     50  H   UNL A   1      39.671  30.936  32.512  1.00  0.00     0.167 HD
ATOM     51  C   UNL A   1      42.743  29.321  35.202  1.00  0.00     0.037 A 
ATOM     52  C   UNL A   1      37.611  32.678  31.806  1.00  0.00     0.037 A 
ATOM     53  C   UNL A   1      42.255  30.504  35.857  1.00  0.00     0.049 A 
ATOM     54  C   UNL A   1      38.116  33.145  33.146  1.00  0.00     0.074 A 
ATOM     55  C   UNL A   1      42.677  31.065  37.050  1.00  0.00     0.029 A 
ATOM     56  N   UNL A   1      41.229  31.305  35.378  1.00  0.00    -0.354 N 
ATOM     57  N   UNL A   1      39.077  32.643  33.887  1.00  0.00    -0.248 NA
ATOM     58  C   UNL A   1      37.463  34.325  33.730  1.00  0.00     0.031 C 
ATOM     59  C   UNL A   1      41.879  32.185  37.310  1.00  0.00     0.029 A 
ATOM     60  C   UNL A   1      40.989  32.345  36.260  1.00  0.00     0.049 A 
ATOM     61  H   UNL A   1      40.742  31.155  34.535  1.00  0.00     0.167 HD
ATOM     62  C   UNL A   1      39.158  33.461  35.010  1.00  0.00     0.074 A 
ATOM     63  C   UNL A   1      38.156  34.493  34.849  1.00  0.00     0.031 C 
ATOM     64  C   UNL A   1      39.991  33.367  36.077  1.00  0.00     0.037 A 
BRANCH  51  65
ATOM     65  C   UNL A   1      43.833  28.530  35.863  1.00  0.00     0.058 A 
ATOM     66  C   UNL A   1      43.546  27.431  36.687  1.00  0.00     0.135 A 
ATOM     67  C   UNL A   1      45.181  28.870  35.667  1.00  0.00     0.135 A 
ATOM     68  F   UNL A   1      42.271  27.080  36.926  1.00  0.00    -0.206 F 
ATOM     69  C   UNL A   1      44.555  26.709  37.314  1.00  0.00     0.059 A 
ATOM     70  C   UNL A   1      46.209  28.148  36.265  1.00  0.00     0.059 A 
ATOM     71  F   UNL A   1      45.509  29.917  34.894  1.00  0.00    -0.206 F 
ATOM     72  C   UNL A   1      45.884  27.078  37.100  1.00  0.00     0.060 A 
BRANCH  72  73
ATOM     73  S   UNL A   1      47.186  26.136  37.923  1.00  0.00     0.124 S 
ATOM     74  O   UNL A   1      46.415  25.077  38.566  1.00  0.00    -0.237 OA
ATOM     75  O   UNL A   1      48.028  25.719  36.807  1.00  0.00    -0.237 OA
ATOM     76  O   UNL A   1      47.789  27.111  38.827  1.00  0.00    -0.744 OA
ENDBRANCH  72  73
ENDBRANCH  51  65
BRANCH  52  77
ATOM     77  C   UNL A   1      36.495  33.388  31.127  1.00  0.00     0.058 A 
ATOM     78  C   UNL A   1      36.719  34.152  29.972  1.00  0.00     0.135 A 
ATOM     79  C   UNL A   1      35.184  33.318  31.622  1.00  0.00     0.135 A 
ATOM     80  F   UNL A   1      37.958  34.258  29.469  1.00  0.00    -0.206 F 
ATOM     81  C   UNL A   1      35.685  34.833  29.338  1.00  0.00     0.059 A 
ATOM     82  C   UNL A   1      34.130  33.972  30.994  1.00  0.00     0.059 A 
ATOM     83  F   UNL A   1      34.917  32.593  32.719  1.00  0.00    -0.206 F 
ATOM     84  C   UNL A   1      34.392  34.735  29.856  1.00  0.00     0.060 A 
BRANCH  84  85
ATOM     85  S   UNL A   1      33.046  35.579  28.997  1.00  0.00     0.124 S 
ATOM     86  O   UNL A   1      32.542  34.520  28.130  1.00  0.00    -0.237 OA
ATOM     87  O   UNL A   1      32.175  35.971  30.101  1.00  0.00    -0.237 OA
ATOM     88  O   UNL A   1      33.722  36.683  28.321  1.00  0.00    -0.744 OA
ENDBRANCH  84  85
ENDBRANCH  52  77
BRANCH  64  89
ATOM     89  C   UNL A   1      39.877  34.424  37.140  1.00  0.00     0.058 A 
ATOM     90  C   UNL A   1      40.468  35.688  36.989  1.00  0.00     0.135 A 
ATOM     91  C   UNL A   1      39.116  34.188  38.297  1.00  0.00     0.135 A 
ATOM     92  F   UNL A   1      41.210  35.961  35.903  1.00  0.00    -0.206 F 
ATOM     93  C   UNL A   1      40.320  36.678  37.955  1.00  0.00     0.059 A 
ATOM     94  C   UNL A   1      38.937  35.171  39.265  1.00  0.00     0.059 A 
ATOM     95  F   UNL A   1      38.521  33.000  38.483  1.00  0.00    -0.206 F 
ATOM     96  C   UNL A   1      39.551  36.410  39.090  1.00  0.00     0.060 A 
BRANCH  96  97
ATOM     97  S   UNL A   1      39.333  37.714  40.319  1.00  0.00     0.124 S 
ATOM     98  O   UNL A   1      38.332  38.558  39.676  1.00  0.00    -0.237 OA
ATOM     99  O   UNL A   1      38.877  36.970  41.489  1.00  0.00    -0.237 OA
ATOM    100  O   UNL A   1      40.666  38.297  40.436  1.00  0.00    -0.744 OA
ENDBRANCH  96  97
ENDBRANCH  64  89
ENDBRANCH  38  39
ENDBRANCH  31  33
ENDBRANCH  30  31
ENDBRANCH  29  30
ENDBRANCH  28  29
ENDBRANCH  27  28
ENDBRANCH  26  27
ENDBRANCH   1  26
TORSDOF 25
ENDMDL
MODEL 3
REMARK VINA RESULT:      -9.2      3.898      7.227
REMARK SMILES Cc1cc(C[NH+]2C[C@@H](C)[C@H](C)C2)oc1C(=O)OCCOCCOCCOCCOC(=O)c1ccc(-c2c3nc(c(-c4c(F)cc(S(=O)(=O)[O-])cc4F)c4ccc([nH]4)c(-c4c(F)cc(S(=O)(=O)[O-])cc4F)c4nc(c(-c5c(F)cc(S(=O)(=O)[O-])cc5F)c5ccc2[nH]5)C=C4)C=C3)cc1
REMARK SMILES IDX 24 1 23 2 22 3 21 4 20 5 19 6 18 7 17 8 15 9 16 10 14 11
REMARK SMILES IDX 1 12 2 13 3 14 4 15 13 16 5 17 6 18 7 19 12 20 8 22 10 23
REMARK SMILES IDX 9 24 11 25 25 26 26 27 27 28 28 29 29 30 30 31 31 32 32 33
REMARK SMILES IDX 33 34 97 35 34 36 96 37 35 38 36 39 37 40 90 41 38 42 95 43
REMARK SMILES IDX 89 44 91 45 39 46 94 47 88 48 87 49 40 51 74 52 53 53 73 54
REMARK SMILES IDX 54 55 57 56 72 57 92 58 55 59 56 60 71 62 93 63 58 64 41 65
REMARK SMILES IDX 42 66 51 67 43 68 44 69 50 70 52 71 45 72 46 73 47 74 48 75
REMARK SMILES IDX 49 76 75 77 76 78 85 79 77 80 78 81 84 82 86 83 79 84 80 85
REMARK SMILES IDX 81 86 82 87 83 88 59 89 60 90 69 91 61 92 62 93 68 94 70 95
REMARK SMILES IDX 63 96 64 97 65 98 66 99 67 100
REMARK H PARENT 6 21 91 50 57 61
REMARK Flexibility Score: inf
ROOT
ATOM      1  C   UNL A   1      40.099  20.484  25.802  1.00  0.00     0.188 C 
ENDROOT
BRANCH   1   2
ATOM      2  O   UNL A   1      39.112  19.464  25.658  1.00  0.00    -0.377 OA
BRANCH   2   3
ATOM      3  C   UNL A   1      38.022  19.701  24.785  1.00  0.00     0.188 C 
BRANCH   3   4
ATOM      4  C   UNL A   1      36.864  20.477  25.431  1.00  0.00     0.188 C 
BRANCH   4   5
ATOM      5  O   UNL A   1      36.196  21.352  24.520  1.00  0.00    -0.376 OA
BRANCH   5   6
ATOM      6  C   UNL A   1      36.972  22.432  24.013  1.00  0.00     0.202 C 
BRANCH   6   7
ATOM      7  C   UNL A   1      36.229  23.370  23.054  1.00  0.00     0.261 C 
BRANCH   7   8
ATOM      8  O   UNL A   1      35.111  24.064  23.624  1.00  0.00    -0.457 OA
BRANCH   8   9
ATOM      9  C   UNL A   1      33.897  23.948  23.027  1.00  0.00     0.374 C 
ATOM     10  O   UNL A   1      33.570  24.536  22.007  1.00  0.00    -0.242 OA
BRANCH   9  11
ATOM     11  C   UNL A   1      33.146  22.909  23.707  1.00  0.00     0.215 A 
ATOM     12  C   UNL A   1      32.155  23.984  25.852  1.00  0.00     0.049 C 
ATOM     13  C   UNL A   1      32.441  22.874  24.905  1.00  0.00     0.003 A 
ATOM     14  C   UNL A   1      32.043  21.519  25.086  1.00  0.00     0.056 A 
ATOM     15  C   UNL A   1      32.556  20.796  24.032  1.00  0.00     0.159 A 
ATOM     16  O   UNL A   1      33.188  21.646  23.169  1.00  0.00    -0.448 OA
BRANCH  15  17
ATOM     17  C   UNL A   1      32.565  19.348  23.651  1.00  0.00     0.338 C 
BRANCH  17  18
ATOM     18  N   UNL A   1      33.051  18.401  24.659  1.00  0.00    -0.328 N 
ATOM     19  C   UNL A   1      32.187  17.252  24.927  1.00  0.00     0.266 C 
ATOM     20  C   UNL A   1      34.437  17.956  24.520  1.00  0.00     0.266 C 
ATOM     21  H   UNL A   1      33.016  19.007  25.478  1.00  0.00     0.348 HD
ATOM     22  C   UNL A   1      33.139  16.248  25.581  1.00  0.00     0.049 C 
ATOM     23  C   UNL A   1      34.403  16.441  24.742  1.00  0.00     0.049 C 
ATOM     24  C   UNL A   1      32.595  14.827  25.569  1.00  0.00     0.014 C 
ATOM     25  C   UNL A   1      35.674  15.906  25.381  1.00  0.00     0.014 C 
ENDBRANCH  17  18
ENDBRANCH  15  17
ENDBRANCH   9  11
ENDBRANCH   8   9
ENDBRANCH   7   8
ENDBRANCH   6   7
ENDBRANCH   5   6
ENDBRANCH   4   5
ENDBRANCH   3   4
ENDBRANCH   2   3
ENDBRANCH   1   2
BRANCH   1  26
ATOM     26  C   UNL A   1      40.019  21.563  26.906  1.00  0.00     0.188 C 
BRANCH  26  27
ATOM     27  O   UNL A   1      41.270  21.892  27.509  1.00  0.00    -0.376 OA
BRANCH  27  28
ATOM     28  C   UNL A   1      42.419  21.259  26.959  1.00  0.00     0.202 C 
BRANCH  28  29
ATOM     29  C   UNL A   1      43.478  22.252  26.468  1.00  0.00     0.261 C 
BRANCH  29  30
ATOM     30  O   UNL A   1      43.422  23.539  27.100  1.00  0.00    -0.460 OA
BRANCH  30  31
ATOM     31  C   UNL A   1      42.965  24.564  26.345  1.00  0.00     0.338 C 
ATOM     32  O   UNL A   1      42.843  24.588  25.135  1.00  0.00    -0.246 OA
BRANCH  31  33
ATOM     33  C   UNL A   1      42.471  25.612  27.255  1.00  0.00     0.060 A 
ATOM     34  C   UNL A   1      43.090  26.868  27.235  1.00  0.00     0.016 A 
ATOM     35  C   UNL A   1      41.419  25.346  28.135  1.00  0.00     0.016 A 
ATOM     36  C   UNL A   1      42.682  27.854  28.133  1.00  0.00     0.010 A 
ATOM     37  C   UNL A   1      41.022  26.328  29.042  1.00  0.00     0.010 A 
ATOM     38  C   UNL A   1      41.675  27.571  29.067  1.00  0.00    -0.014 A 
BRANCH  38  39
ATOM     39  C   UNL A   1      41.432  28.497  30.197  1.00  0.00     0.031 A 
ATOM     40  C   UNL A   1      42.294  28.365  31.423  1.00  0.00     0.074 A 
ATOM     41  C   UNL A   1      40.462  29.424  30.140  1.00  0.00     0.049 A 
ATOM     42  N   UNL A   1      42.237  29.022  32.551  1.00  0.00    -0.248 NA
ATOM     43  C   UNL A   1      43.358  27.348  31.368  1.00  0.00     0.031 C 
ATOM     44  C   UNL A   1      39.578  29.657  28.999  1.00  0.00     0.029 A 
ATOM     45  N   UNL A   1      40.049  30.335  31.080  1.00  0.00    -0.354 N 
ATOM     46  C   UNL A   1      43.257  28.504  33.339  1.00  0.00     0.074 A 
ATOM     47  C   UNL A   1      43.897  27.456  32.574  1.00  0.00     0.031 C 
ATOM     48  C   UNL A   1      38.714  30.638  29.313  1.00  0.00     0.029 A 
ATOM     49  C   UNL A   1      38.969  31.085  30.682  1.00  0.00     0.049 A 
ATOM     50  H   UNL A   1      40.486  30.442  31.955  1.00  0.00     0.167 HD
ATOM     51  C   UNL A   1      43.632  28.872  34.586  1.00  0.00     0.037 A 
ATOM     52  C   UNL A   1      38.259  32.011  31.357  1.00  0.00     0.037 A 
ATOM     53  C   UNL A   1      42.984  29.903  35.350  1.00  0.00     0.049 A 
ATOM     54  C   UNL A   1      38.658  32.365  32.767  1.00  0.00     0.074 A 
ATOM     55  C   UNL A   1      43.294  30.359  36.619  1.00  0.00     0.029 A 
ATOM     56  N   UNL A   1      41.887  30.634  34.918  1.00  0.00    -0.354 N 
ATOM     57  N   UNL A   1      39.645  31.890  33.490  1.00  0.00    -0.248 NA
ATOM     58  C   UNL A   1      37.848  33.383  33.452  1.00  0.00     0.031 C 
ATOM     59  C   UNL A   1      42.359  31.340  36.970  1.00  0.00     0.029 A 
ATOM     60  C   UNL A   1      41.494  31.524  35.903  1.00  0.00     0.049 A 
ATOM     61  H   UNL A   1      41.451  30.534  34.040  1.00  0.00     0.167 HD
ATOM     62  C   UNL A   1      39.588  32.568  34.704  1.00  0.00     0.074 A 
ATOM     63  C   UNL A   1      38.476  33.491  34.616  1.00  0.00     0.031 C 
ATOM     64  C   UNL A   1      40.388  32.441  35.792  1.00  0.00     0.037 A 
BRANCH  51  65
ATOM     65  C   UNL A   1      44.785  28.136  35.202  1.00  0.00     0.058 A 
ATOM     66  C   UNL A   1      44.591  26.967  35.955  1.00  0.00     0.135 A 
ATOM     67  C   UNL A   1      46.100  28.600  35.036  1.00  0.00     0.135 A 
ATOM     68  F   UNL A   1      43.351  26.496  36.163  1.00  0.00    -0.206 F 
ATOM     69  C   UNL A   1      45.658  26.295  36.541  1.00  0.00     0.059 A 
ATOM     70  C   UNL A   1      47.185  27.931  35.594  1.00  0.00     0.059 A 
ATOM     71  F   UNL A   1      46.338  29.717  34.332  1.00  0.00    -0.206 F 
ATOM     72  C   UNL A   1      46.951  26.788  36.358  1.00  0.00     0.060 A 
BRANCH  72  73
ATOM     73  S   UNL A   1      48.328  25.909  37.129  1.00  0.00     0.124 S 
ATOM     74  O   UNL A   1      47.622  24.929  37.949  1.00  0.00    -0.237 OA
ATOM     75  O   UNL A   1      49.044  25.373  35.976  1.00  0.00    -0.237 OA
ATOM     76  O   UNL A   1      49.028  26.957  37.866  1.00  0.00    -0.744 OA
ENDBRANCH  72  73
ENDBRANCH  51  65
BRANCH  52  77
ATOM     77  C   UNL A   1      37.091  32.667  30.712  1.00  0.00     0.058 A 
ATOM     78  C   UNL A   1      35.795  32.157  30.873  1.00  0.00     0.135 A 
ATOM     79  C   UNL A   1      37.251  33.815  29.922  1.00  0.00     0.135 A 
ATOM     80  F   UNL A   1      35.595  31.054  31.611  1.00  0.00    -0.206 F 
ATOM     81  C   UNL A   1      34.697  32.754  30.263  1.00  0.00     0.059 A 
ATOM     82  C   UNL A   1      36.167  34.443  29.319  1.00  0.00     0.059 A 
ATOM     83  F   UNL A   1      38.471  34.346  29.746  1.00  0.00    -0.206 F 
ATOM     84  C   UNL A   1      34.893  33.899  29.487  1.00  0.00     0.060 A 
BRANCH  84  85
ATOM     85  S   UNL A   1      33.457  34.700  28.740  1.00  0.00     0.124 S 
ATOM     86  O   UNL A   1      32.586  34.877  29.896  1.00  0.00    -0.237 OA
ATOM     87  O   UNL A   1      34.038  35.918  28.183  1.00  0.00    -0.237 OA
ATOM     88  O   UNL A   1      33.007  33.722  27.753  1.00  0.00    -0.744 OA
ENDBRANCH  84  85
ENDBRANCH  52  77
BRANCH  64  89
ATOM     89  C   UNL A   1      40.112  33.340  36.965  1.00  0.00     0.058 A 
ATOM     90  C   UNL A   1      40.831  34.528  37.167  1.00  0.00     0.135 A 
ATOM     91  C   UNL A   1      39.074  33.038  37.861  1.00  0.00     0.135 A 
ATOM     92  F   UNL A   1      41.836  34.858  36.341  1.00  0.00    -0.206 F 
ATOM     93  C   UNL A   1      40.539  35.380  38.228  1.00  0.00     0.059 A 
ATOM     94  C   UNL A   1      38.751  33.886  38.915  1.00  0.00     0.059 A 
ATOM     95  F   UNL A   1      38.349  31.920  37.704  1.00  0.00    -0.206 F 
ATOM     96  C   UNL A   1      39.497  35.051  39.097  1.00  0.00     0.060 A 
BRANCH  96  97
ATOM     97  S   UNL A   1      39.100  36.182  40.447  1.00  0.00     0.124 S 
ATOM     98  O   UNL A   1      38.552  37.323  39.721  1.00  0.00    -0.237 OA
ATOM     99  O   UNL A   1      38.142  35.410  41.233  1.00  0.00    -0.237 OA
ATOM    100  O   UNL A   1      40.391  36.407  41.090  1.00  0.00    -0.744 OA
ENDBRANCH  96  97
ENDBRANCH  64  89
ENDBRANCH  38  39
ENDBRANCH  31  33
ENDBRANCH  30  31
ENDBRANCH  29  30
ENDBRANCH  28  29
ENDBRANCH  27  28
ENDBRANCH  26  27
ENDBRANCH   1  26
TORSDOF 25
ENDMDL
