MODEL 1
REMARK VINA RESULT:      -9.2      0.000      0.000
REMARK SMILES Cc1cc(=O)c(Oc2ccc(C(=O)OCCOCCOCCOCCOC(=O)c3ccc(-c4c5nc(c(-c6c(F)cc(S(=O)(=O)[O-])cc6F)c6ccc([nH]6)c(-c6c(F)cc(S(=O)(=O)[O-])cc6F)c6nc(c(-c7c(F)cc(S(=O)(=O)[O-])cc7F)c7ccc4[nH]7)C=C6)C=C5)cc3)cc2)c(-c2ccc(S(C)(=O)=O)cc2)o1
REMARK SMILES IDX 19 1 18 2 17 3 16 4 15 5 14 6 12 7 13 8 11 9 8 10 9 11 96 12
REMARK SMILES IDX 10 13 95 14 7 15 6 16 1 17 2 18 3 19 108 20 4 21 97 22 5 23
REMARK SMILES IDX 98 24 99 25 107 26 100 27 106 28 101 29 102 30 103 31 104 32
REMARK SMILES IDX 105 33 20 34 21 35 22 36 23 37 24 38 25 39 26 40 27 41 28 42
REMARK SMILES IDX 29 43 30 44 94 45 31 46 93 47 32 48 33 49 34 50 87 51 35 52
REMARK SMILES IDX 92 53 86 54 88 55 36 56 91 57 85 58 84 59 37 61 71 62 50 63
REMARK SMILES IDX 70 64 51 65 54 66 69 67 89 68 52 69 53 70 68 72 90 73 55 74
REMARK SMILES IDX 38 75 39 76 48 77 40 78 41 79 47 80 49 81 42 82 43 83 44 84
REMARK SMILES IDX 45 85 46 86 72 87 73 88 82 89 74 90 75 91 81 92 83 93 76 94
REMARK SMILES IDX 77 95 78 96 79 97 80 98 56 99 57 100 66 101 58 102 59 103
REMARK SMILES IDX 65 104 67 105 60 106 61 107 62 108 63 109 64 110
REMARK H PARENT 88 60 54 71
REMARK Flexibility Score: inf
ROOT
ATOM      1  C   UNL A   1      37.489  22.854  25.819  1.00  0.00     0.188 C 
ENDROOT
BRANCH   1   2
ATOM      2  C   UNL A   1      36.009  22.616  25.707  1.00  0.00     0.188 C 
BRANCH   2   3
ATOM      3  O   UNL A   1      35.184  23.691  26.137  1.00  0.00    -0.376 OA
BRANCH   3   4
ATOM      4  C   UNL A   1      34.125  23.997  25.236  1.00  0.00     0.202 C 
BRANCH   4   5
ATOM      5  C   UNL A   1      32.971  24.824  25.844  1.00  0.00     0.261 C 
BRANCH   5   6
ATOM      6  O   UNL A   1      33.346  26.156  26.253  1.00  0.00    -0.460 OA
BRANCH   6   7
ATOM      7  C   UNL A   1      32.334  26.957  26.689  1.00  0.00     0.338 C 
ATOM      8  O   UNL A   1      31.209  26.594  26.993  1.00  0.00    -0.246 OA
BRANCH   7   9
ATOM      9  C   UNL A   1      32.843  28.349  26.941  1.00  0.00     0.060 A 
ATOM     10  C   UNL A   1      33.917  30.957  27.162  1.00  0.00     0.127 A 
ATOM     11  C   UNL A   1      34.769  29.860  27.070  1.00  0.00     0.048 A 
ATOM     12  C   UNL A   1      32.531  30.747  27.179  1.00  0.00     0.048 A 
ATOM     13  C   UNL A   1      34.233  28.566  26.937  1.00  0.00     0.019 A 
ATOM     14  C   UNL A   1      31.994  29.455  27.068  1.00  0.00     0.019 A 
BRANCH  10  15
ATOM     15  O   UNL A   1      34.337  32.213  27.499  1.00  0.00    -0.449 OA
BRANCH  15  16
ATOM     16  C   UNL A   1      34.526  32.743  28.762  1.00  0.00     0.217 A 
ATOM     17  C   UNL A   1      35.047  35.073  32.374  1.00  0.00     0.088 C 
ATOM     18  C   UNL A   1      34.716  34.315  31.128  1.00  0.00     0.105 A 
ATOM     19  C   UNL A   1      33.841  34.740  30.216  1.00  0.00     0.098 A 
ATOM     20  O   UNL A   1      35.412  33.138  30.981  1.00  0.00    -0.457 OA
ATOM     21  C   UNL A   1      33.622  33.920  29.014  1.00  0.00     0.228 A 
ATOM     22  C   UNL A   1      35.367  32.431  29.780  1.00  0.00     0.180 A 
ATOM     23  O   UNL A   1      32.726  34.239  28.238  1.00  0.00    -0.285 OA
BRANCH  22  24
ATOM     24  C   UNL A   1      36.375  31.367  29.837  1.00  0.00     0.021 A 
ATOM     25  C   UNL A   1      37.430  31.357  28.905  1.00  0.00     0.013 A 
ATOM     26  C   UNL A   1      36.214  30.279  30.691  1.00  0.00     0.013 A 
ATOM     27  C   UNL A   1      38.351  30.306  28.869  1.00  0.00     0.021 A 
ATOM     28  C   UNL A   1      37.124  29.224  30.638  1.00  0.00     0.021 A 
ATOM     29  C   UNL A   1      38.197  29.240  29.748  1.00  0.00     0.067 A 
BRANCH  29  30
ATOM     30  S   UNL A   1      39.443  27.967  29.826  1.00  0.00     0.175 S 
ATOM     31  C   UNL A   1      40.693  28.620  30.893  1.00  0.00     0.163 C 
ATOM     32  O   UNL A   1      38.849  26.820  30.483  1.00  0.00    -0.224 OA
ATOM     33  O   UNL A   1      40.017  27.842  28.503  1.00  0.00    -0.224 OA
ENDBRANCH  29  30
ENDBRANCH  22  24
ENDBRANCH  15  16
ENDBRANCH  10  15
ENDBRANCH   7   9
ENDBRANCH   6   7
ENDBRANCH   5   6
ENDBRANCH   4   5
ENDBRANCH   3   4
ENDBRANCH   2   3
ENDBRANCH   1   2
BRANCH   1  34
ATOM     34  O   UNL A   1      38.263  21.774  25.340  1.00  0.00    -0.377 OA
BRANCH  34  35
ATOM     35  C   UNL A   1      39.461  21.607  26.091  1.00  0.00     0.188 C 
BRANCH  35  36
ATOM     36  C   UNL A   1      40.044  20.176  26.079  1.00  0.00     0.188 C 
BRANCH  36  37
ATOM     37  O   UNL A   1      41.331  19.920  26.667  1.00  0.00    -0.376 OA
BRANCH  37  38
ATOM     38  C   UNL A   1      42.433  19.490  25.877  1.00  0.00     0.202 C 
BRANCH  38  39
ATOM     39  C   UNL A   1      43.511  20.527  25.594  1.00  0.00     0.261 C 
BRANCH  39  40
ATOM     40  O   UNL A   1      43.249  21.681  26.389  1.00  0.00    -0.460 OA
BRANCH  40  41
ATOM     41  C   UNL A   1      43.310  22.862  25.732  1.00  0.00     0.338 C 
ATOM     42  O   UNL A   1      43.029  23.067  24.568  1.00  0.00    -0.246 OA
BRANCH  41  43
ATOM     43  C   UNL A   1      43.499  23.911  26.757  1.00  0.00     0.060 A 
ATOM     44  C   UNL A   1      42.426  24.376  27.528  1.00  0.00     0.016 A 
ATOM     45  C   UNL A   1      44.759  24.516  26.851  1.00  0.00     0.016 A 
ATOM     46  C   UNL A   1      42.623  25.432  28.410  1.00  0.00     0.010 A 
ATOM     47  C   UNL A   1      44.954  25.581  27.723  1.00  0.00     0.010 A 
ATOM     48  C   UNL A   1      43.895  26.014  28.532  1.00  0.00    -0.014 A 
BRANCH  48  49
ATOM     49  C   UNL A   1      44.180  26.846  29.715  1.00  0.00     0.031 A 
ATOM     50  C   UNL A   1      44.092  28.332  29.695  1.00  0.00     0.074 A 
ATOM     51  C   UNL A   1      44.521  26.171  30.828  1.00  0.00     0.049 A 
ATOM     52  N   UNL A   1      44.208  29.162  30.697  1.00  0.00    -0.248 NA
ATOM     53  C   UNL A   1      43.850  28.973  28.396  1.00  0.00     0.031 C 
ATOM     54  C   UNL A   1      44.656  24.712  30.909  1.00  0.00     0.029 A 
ATOM     55  N   UNL A   1      44.801  26.603  32.093  1.00  0.00    -0.354 N 
ATOM     56  C   UNL A   1      44.035  30.430  30.162  1.00  0.00     0.074 A 
ATOM     57  C   UNL A   1      43.846  30.259  28.734  1.00  0.00     0.031 C 
ATOM     58  C   UNL A   1      44.965  24.368  32.165  1.00  0.00     0.029 A 
ATOM     59  C   UNL A   1      45.075  25.580  32.967  1.00  0.00     0.049 A 
ATOM     60  H   UNL A   1      44.807  27.552  32.353  1.00  0.00     0.167 HD
ATOM     61  C   UNL A   1      44.027  31.616  30.817  1.00  0.00     0.037 A 
ATOM     62  C   UNL A   1      45.375  25.612  34.276  1.00  0.00     0.037 A 
ATOM     63  C   UNL A   1      44.254  31.745  32.238  1.00  0.00     0.049 A 
ATOM     64  C   UNL A   1      45.389  26.939  34.969  1.00  0.00     0.074 A 
ATOM     65  C   UNL A   1      44.229  32.891  33.013  1.00  0.00     0.029 A 
ATOM     66  N   UNL A   1      44.573  30.696  33.092  1.00  0.00    -0.354 N 
ATOM     67  N   UNL A   1      45.139  28.126  34.469  1.00  0.00    -0.248 NA
ATOM     68  C   UNL A   1      45.717  26.936  36.398  1.00  0.00     0.031 C 
ATOM     69  C   UNL A   1      44.591  32.544  34.319  1.00  0.00     0.029 A 
ATOM     70  C   UNL A   1      44.785  31.173  34.377  1.00  0.00     0.049 A 
ATOM     71  H   UNL A   1      44.638  29.750  32.824  1.00  0.00     0.167 HD
ATOM     72  C   UNL A   1      45.273  29.017  35.524  1.00  0.00     0.074 A 
ATOM     73  C   UNL A   1      45.603  28.224  36.695  1.00  0.00     0.031 C 
ATOM     74  C   UNL A   1      45.139  30.367  35.524  1.00  0.00     0.037 A 
BRANCH  61  75
ATOM     75  C   UNL A   1      43.781  32.862  30.011  1.00  0.00     0.058 A 
ATOM     76  C   UNL A   1      42.488  33.381  29.833  1.00  0.00     0.135 A 
ATOM     77  C   UNL A   1      44.851  33.575  29.446  1.00  0.00     0.135 A 
ATOM     78  F   UNL A   1      41.425  32.740  30.344  1.00  0.00    -0.206 F 
ATOM     79  C   UNL A   1      42.263  34.543  29.101  1.00  0.00     0.059 A 
ATOM     80  C   UNL A   1      44.652  34.753  28.731  1.00  0.00     0.059 A 
ATOM     81  F   UNL A   1      46.109  33.128  29.587  1.00  0.00    -0.206 F 
ATOM     82  C   UNL A   1      43.352  35.221  28.551  1.00  0.00     0.060 A 
BRANCH  82  83
ATOM     83  S   UNL A   1      43.037  36.718  27.593  1.00  0.00     0.124 S 
ATOM     84  O   UNL A   1      42.043  36.243  26.634  1.00  0.00    -0.237 OA
ATOM     85  O   UNL A   1      42.545  37.641  28.611  1.00  0.00    -0.237 OA
ATOM     86  O   UNL A   1      44.343  37.046  27.030  1.00  0.00    -0.744 OA
ENDBRANCH  82  83
ENDBRANCH  61  75
BRANCH  62  87
ATOM     87  C   UNL A   1      45.633  24.335  34.985  1.00  0.00     0.058 A 
ATOM     88  C   UNL A   1      44.577  23.488  35.346  1.00  0.00     0.135 A 
ATOM     89  C   UNL A   1      46.945  23.884  35.209  1.00  0.00     0.135 A 
ATOM     90  F   UNL A   1      43.308  23.873  35.143  1.00  0.00    -0.206 F 
ATOM     91  C   UNL A   1      44.811  22.234  35.899  1.00  0.00     0.059 A 
ATOM     92  C   UNL A   1      47.204  22.625  35.736  1.00  0.00     0.059 A 
ATOM     93  F   UNL A   1      47.988  24.649  34.851  1.00  0.00    -0.206 F 
ATOM     94  C   UNL A   1      46.129  21.806  36.077  1.00  0.00     0.060 A 
BRANCH  94  95
ATOM     95  S   UNL A   1      46.415  20.138  36.706  1.00  0.00     0.124 S 
ATOM     96  O   UNL A   1      45.608  19.337  35.793  1.00  0.00    -0.237 OA
ATOM     97  O   UNL A   1      47.862  20.006  36.564  1.00  0.00    -0.237 OA
ATOM     98  O   UNL A   1      45.931  20.208  38.081  1.00  0.00    -0.744 OA
ENDBRANCH  94  95
ENDBRANCH  62  87
BRANCH  74  99
ATOM     99  C   UNL A   1      45.368  31.074  36.831  1.00  0.00     0.058 A 
ATOM    100  C   UNL A   1      46.622  31.613  37.161  1.00  0.00     0.135 A 
ATOM    101  C   UNL A   1      44.314  31.256  37.740  1.00  0.00     0.135 A 
ATOM    102  F   UNL A   1      47.665  31.456  36.331  1.00  0.00    -0.206 F 
ATOM    103  C   UNL A   1      46.827  32.294  38.355  1.00  0.00     0.059 A 
ATOM    104  C   UNL A   1      44.490  31.960  38.928  1.00  0.00     0.059 A 
ATOM    105  F   UNL A   1      43.095  30.764  37.471  1.00  0.00    -0.206 F 
ATOM    106  C   UNL A   1      45.752  32.467  39.230  1.00  0.00     0.060 A 
BRANCH 106 107
ATOM    107  S   UNL A   1      46.029  33.385  40.759  1.00  0.00     0.124 S 
ATOM    108  O   UNL A   1      45.412  32.505  41.746  1.00  0.00    -0.237 OA
ATOM    109  O   UNL A   1      47.485  33.472  40.810  1.00  0.00    -0.237 OA
ATOM    110  O   UNL A   1      45.337  34.649  40.527  1.00  0.00    -0.744 OA
ENDBRANCH 106 107
ENDBRANCH  74  99
ENDBRANCH  48  49
ENDBRANCH  41  43
ENDBRANCH  40  41
ENDBRANCH  39  40
ENDBRANCH  38  39
ENDBRANCH  37  38
ENDBRANCH  36  37
ENDBRANCH  35  36
ENDBRANCH  34  35
ENDBRANCH   1  34
TORSDOF 27
ENDMDL
MODEL 2
REMARK VINA RESULT:      -9.1      3.708      9.396
REMARK SMILES Cc1cc(=O)c(Oc2ccc(C(=O)OCCOCCOCCOCCOC(=O)c3ccc(-c4c5nc(c(-c6c(F)cc(S(=O)(=O)[O-])cc6F)c6ccc([nH]6)c(-c6c(F)cc(S(=O)(=O)[O-])cc6F)c6nc(c(-c7c(F)cc(S(=O)(=O)[O-])cc7F)c7ccc4[nH]7)C=C6)C=C5)cc3)cc2)c(-c2ccc(S(C)(=O)=O)cc2)o1
REMARK SMILES IDX 19 1 18 2 17 3 16 4 15 5 14 6 12 7 13 8 11 9 8 10 9 11 96 12
REMARK SMILES IDX 10 13 95 14 7 15 6 16 1 17 2 18 3 19 108 20 4 21 97 22 5 23
REMARK SMILES IDX 98 24 99 25 107 26 100 27 106 28 101 29 102 30 103 31 104 32
REMARK SMILES IDX 105 33 20 34 21 35 22 36 23 37 24 38 25 39 26 40 27 41 28 42
REMARK SMILES IDX 29 43 30 44 94 45 31 46 93 47 32 48 33 49 34 50 87 51 35 52
REMARK SMILES IDX 92 53 86 54 88 55 36 56 91 57 85 58 84 59 37 61 71 62 50 63
REMARK SMILES IDX 70 64 51 65 54 66 69 67 89 68 52 69 53 70 68 72 90 73 55 74
REMARK SMILES IDX 38 75 39 76 48 77 40 78 41 79 47 80 49 81 42 82 43 83 44 84
REMARK SMILES IDX 45 85 46 86 72 87 73 88 82 89 74 90 75 91 81 92 83 93 76 94
REMARK SMILES IDX 77 95 78 96 79 97 80 98 56 99 57 100 66 101 58 102 59 103
REMARK SMILES IDX 65 104 67 105 60 106 61 107 62 108 63 109 64 110
REMARK H PARENT 88 60 54 71
REMARK Flexibility Score: inf
ROOT
ATOM      1  C   UNL A   1      45.213  24.479  26.090  1.00  0.00     0.188 C 
ENDROOT
BRANCH   1   2
ATOM      2  C   UNL A   1      44.329  23.886  25.029  1.00  0.00     0.188 C 
BRANCH   2   3
ATOM      3  O   UNL A   1      42.985  24.349  25.024  1.00  0.00    -0.376 OA
BRANCH   3   4
ATOM      4  C   UNL A   1      42.512  24.751  26.304  1.00  0.00     0.202 C 
BRANCH   4   5
ATOM      5  C   UNL A   1      41.730  26.083  26.321  1.00  0.00     0.261 C 
BRANCH   5   6
ATOM      6  O   UNL A   1      40.796  26.210  27.413  1.00  0.00    -0.460 OA
BRANCH   6   7
ATOM      7  C   UNL A   1      41.229  26.916  28.494  1.00  0.00     0.338 C 
ATOM      8  O   UNL A   1      42.221  26.672  29.162  1.00  0.00    -0.246 OA
BRANCH   7   9
ATOM      9  C   UNL A   1      40.427  28.178  28.647  1.00  0.00     0.060 A 
ATOM     10  C   UNL A   1      38.688  30.392  28.929  1.00  0.00     0.127 A 
ATOM     11  C   UNL A   1      38.670  29.639  27.759  1.00  0.00     0.048 A 
ATOM     12  C   UNL A   1      39.599  30.061  29.942  1.00  0.00     0.048 A 
ATOM     13  C   UNL A   1      39.520  28.524  27.630  1.00  0.00     0.019 A 
ATOM     14  C   UNL A   1      40.462  28.962  29.807  1.00  0.00     0.019 A 
BRANCH  10  15
ATOM     15  O   UNL A   1      38.059  31.598  29.060  1.00  0.00    -0.449 OA
BRANCH  15  16
ATOM     16  C   UNL A   1      37.318  32.065  30.131  1.00  0.00     0.217 A 
ATOM     17  C   UNL A   1      34.472  33.688  32.961  1.00  0.00     0.088 C 
ATOM     18  C   UNL A   1      35.356  33.006  31.966  1.00  0.00     0.105 A 
ATOM     19  C   UNL A   1      34.896  32.287  30.942  1.00  0.00     0.098 A 
ATOM     20  O   UNL A   1      36.700  33.198  32.180  1.00  0.00    -0.457 OA
ATOM     21  C   UNL A   1      35.866  31.688  30.011  1.00  0.00     0.228 A 
ATOM     22  C   UNL A   1      37.636  32.803  31.224  1.00  0.00     0.180 A 
ATOM     23  O   UNL A   1      35.455  30.920  29.145  1.00  0.00    -0.285 OA
BRANCH  22  24
ATOM     24  C   UNL A   1      38.943  33.342  31.612  1.00  0.00     0.021 A 
ATOM     25  C   UNL A   1      39.250  33.513  32.975  1.00  0.00     0.013 A 
ATOM     26  C   UNL A   1      39.821  33.840  30.651  1.00  0.00     0.013 A 
ATOM     27  C   UNL A   1      40.447  34.114  33.375  1.00  0.00     0.021 A 
ATOM     28  C   UNL A   1      41.004  34.457  31.056  1.00  0.00     0.021 A 
ATOM     29  C   UNL A   1      41.329  34.580  32.407  1.00  0.00     0.067 A 
BRANCH  29  30
ATOM     30  S   UNL A   1      42.926  35.208  32.889  1.00  0.00     0.175 S 
ATOM     31  C   UNL A   1      42.592  36.319  34.224  1.00  0.00     0.163 C 
ATOM     32  O   UNL A   1      43.688  34.093  33.416  1.00  0.00    -0.224 OA
ATOM     33  O   UNL A   1      43.435  35.990  31.783  1.00  0.00    -0.224 OA
ENDBRANCH  29  30
ENDBRANCH  22  24
ENDBRANCH  15  16
ENDBRANCH  10  15
ENDBRANCH   7   9
ENDBRANCH   6   7
ENDBRANCH   5   6
ENDBRANCH   4   5
ENDBRANCH   3   4
ENDBRANCH   2   3
ENDBRANCH   1   2
BRANCH   1  34
ATOM     34  O   UNL A   1      46.516  24.767  25.631  1.00  0.00    -0.377 OA
BRANCH  34  35
ATOM     35  C   UNL A   1      46.918  26.090  25.974  1.00  0.00     0.188 C 
BRANCH  35  36
ATOM     36  C   UNL A   1      47.945  26.730  25.013  1.00  0.00     0.188 C 
BRANCH  36  37
ATOM     37  O   UNL A   1      49.203  26.077  24.768  1.00  0.00    -0.376 OA
BRANCH  37  38
ATOM     38  C   UNL A   1      50.347  26.810  24.347  1.00  0.00     0.202 C 
BRANCH  38  39
ATOM     39  C   UNL A   1      51.513  26.869  25.324  1.00  0.00     0.261 C 
BRANCH  39  40
ATOM     40  O   UNL A   1      51.665  25.584  25.926  1.00  0.00    -0.460 OA
BRANCH  40  41
ATOM     41  C   UNL A   1      52.221  25.586  27.158  1.00  0.00     0.338 C 
ATOM     42  O   UNL A   1      53.406  25.576  27.426  1.00  0.00    -0.246 OA
BRANCH  41  43
ATOM     43  C   UNL A   1      51.138  25.895  28.115  1.00  0.00     0.060 A 
ATOM     44  C   UNL A   1      51.324  26.818  29.151  1.00  0.00     0.016 A 
ATOM     45  C   UNL A   1      49.956  25.146  28.032  1.00  0.00     0.016 A 
ATOM     46  C   UNL A   1      50.317  27.008  30.090  1.00  0.00     0.010 A 
ATOM     47  C   UNL A   1      48.953  25.326  28.978  1.00  0.00     0.010 A 
ATOM     48  C   UNL A   1      49.117  26.285  29.985  1.00  0.00    -0.014 A 
BRANCH  48  49
ATOM     49  C   UNL A   1      47.939  26.762  30.731  1.00  0.00     0.031 A 
ATOM     50  C   UNL A   1      47.532  26.191  32.045  1.00  0.00     0.074 A 
ATOM     51  C   UNL A   1      47.250  27.760  30.149  1.00  0.00     0.049 A 
ATOM     52  N   UNL A   1      46.586  26.602  32.846  1.00  0.00    -0.248 NA
ATOM     53  C   UNL A   1      48.268  25.013  32.522  1.00  0.00     0.031 C 
ATOM     54  C   UNL A   1      47.577  28.347  28.844  1.00  0.00     0.029 A 
ATOM     55  N   UNL A   1      46.157  28.464  30.566  1.00  0.00    -0.354 N 
ATOM     56  C   UNL A   1      46.617  25.748  33.939  1.00  0.00     0.074 A 
ATOM     57  C   UNL A   1      47.654  24.769  33.676  1.00  0.00     0.031 C 
ATOM     58  C   UNL A   1      46.721  29.341  28.582  1.00  0.00     0.029 A 
ATOM     59  C   UNL A   1      45.773  29.443  29.684  1.00  0.00     0.049 A 
ATOM     60  H   UNL A   1      45.690  28.288  31.415  1.00  0.00     0.167 HD
ATOM     61  C   UNL A   1      45.850  25.797  35.056  1.00  0.00     0.037 A 
ATOM     62  C   UNL A   1      44.769  30.333  29.756  1.00  0.00     0.037 A 
ATOM     63  C   UNL A   1      44.803  26.771  35.263  1.00  0.00     0.049 A 
ATOM     64  C   UNL A   1      43.919  30.346  30.988  1.00  0.00     0.074 A 
ATOM     65  C   UNL A   1      43.992  26.938  36.372  1.00  0.00     0.029 A 
ATOM     66  N   UNL A   1      44.405  27.724  34.333  1.00  0.00    -0.354 N 
ATOM     67  N   UNL A   1      44.012  29.588  32.055  1.00  0.00    -0.248 NA
ATOM     68  C   UNL A   1      42.835  31.332  31.033  1.00  0.00     0.031 C 
ATOM     69  C   UNL A   1      43.067  27.950  36.088  1.00  0.00     0.029 A 
ATOM     70  C   UNL A   1      43.336  28.456  34.826  1.00  0.00     0.049 A 
ATOM     71  H   UNL A   1      44.822  27.859  33.451  1.00  0.00     0.167 HD
ATOM     72  C   UNL A   1      43.001  30.007  32.907  1.00  0.00     0.074 A 
ATOM     73  C   UNL A   1      42.325  31.104  32.238  1.00  0.00     0.031 C 
ATOM     74  C   UNL A   1      42.660  29.528  34.130  1.00  0.00     0.037 A 
BRANCH  61  75
ATOM     75  C   UNL A   1      46.101  24.770  36.126  1.00  0.00     0.058 A 
ATOM     76  C   UNL A   1      46.939  25.038  37.221  1.00  0.00     0.135 A 
ATOM     77  C   UNL A   1      45.464  23.519  36.085  1.00  0.00     0.135 A 
ATOM     78  F   UNL A   1      47.581  26.213  37.311  1.00  0.00    -0.206 F 
ATOM     79  C   UNL A   1      47.159  24.093  38.220  1.00  0.00     0.059 A 
ATOM     80  C   UNL A   1      45.649  22.568  37.085  1.00  0.00     0.059 A 
ATOM     81  F   UNL A   1      44.650  23.209  35.064  1.00  0.00    -0.206 F 
ATOM     82  C   UNL A   1      46.510  22.859  38.141  1.00  0.00     0.060 A 
BRANCH  82  83
ATOM     83  S   UNL A   1      46.820  21.643  39.438  1.00  0.00     0.124 S 
ATOM     84  O   UNL A   1      46.885  20.406  38.665  1.00  0.00    -0.237 OA
ATOM     85  O   UNL A   1      48.086  22.105  40.001  1.00  0.00    -0.237 OA
ATOM     86  O   UNL A   1      45.661  21.774  40.315  1.00  0.00    -0.744 OA
ENDBRANCH  82  83
ENDBRANCH  61  75
BRANCH  62  87
ATOM     87  C   UNL A   1      44.576  31.290  28.639  1.00  0.00     0.058 A 
ATOM     88  C   UNL A   1      45.280  32.500  28.600  1.00  0.00     0.135 A 
ATOM     89  C   UNL A   1      43.774  30.959  27.534  1.00  0.00     0.135 A 
ATOM     90  F   UNL A   1      46.065  32.853  29.629  1.00  0.00    -0.206 F 
ATOM     91  C   UNL A   1      45.203  33.348  27.501  1.00  0.00     0.059 A 
ATOM     92  C   UNL A   1      43.701  31.777  26.414  1.00  0.00     0.059 A 
ATOM     93  F   UNL A   1      43.104  29.796  27.514  1.00  0.00    -0.206 F 
ATOM     94  C   UNL A   1      44.421  32.971  26.407  1.00  0.00     0.060 A 
BRANCH  94  95
ATOM     95  S   UNL A   1      44.408  34.037  24.950  1.00  0.00     0.124 S 
ATOM     96  O   UNL A   1      45.742  34.623  25.001  1.00  0.00    -0.237 OA
ATOM     97  O   UNL A   1      44.173  33.077  23.875  1.00  0.00    -0.237 OA
ATOM     98  O   UNL A   1      43.304  34.955  25.213  1.00  0.00    -0.744 OA
ENDBRANCH  94  95
ENDBRANCH  62  87
BRANCH  74  99
ATOM     99  C   UNL A   1      41.490  30.178  34.814  1.00  0.00     0.058 A 
ATOM    100  C   UNL A   1      41.673  31.193  35.767  1.00  0.00     0.135 A 
ATOM    101  C   UNL A   1      40.175  29.818  34.481  1.00  0.00     0.135 A 
ATOM    102  F   UNL A   1      42.910  31.565  36.130  1.00  0.00    -0.206 F 
ATOM    103  C   UNL A   1      40.591  31.817  36.379  1.00  0.00     0.059 A 
ATOM    104  C   UNL A   1      39.078  30.450  35.058  1.00  0.00     0.059 A 
ATOM    105  F   UNL A   1      39.946  28.858  33.572  1.00  0.00    -0.206 F 
ATOM    106  C   UNL A   1      39.297  31.442  36.013  1.00  0.00     0.060 A 
BRANCH 106 107
ATOM    107  S   UNL A   1      37.905  32.288  36.790  1.00  0.00     0.124 S 
ATOM    108  O   UNL A   1      37.053  32.571  35.639  1.00  0.00    -0.237 OA
ATOM    109  O   UNL A   1      37.404  31.276  37.715  1.00  0.00    -0.237 OA
ATOM    110  O   UNL A   1      38.521  33.453  37.416  1.00  0.00    -0.744 OA
ENDBRANCH 106 107
ENDBRANCH  74  99
ENDBRANCH  48  49
ENDBRANCH  41  43
ENDBRANCH  40  41
ENDBRANCH  39  40
ENDBRANCH  38  39
ENDBRANCH  37  38
ENDBRANCH  36  37
ENDBRANCH  35  36
ENDBRANCH  34  35
ENDBRANCH   1  34
TORSDOF 27
ENDMDL
MODEL 3
REMARK VINA RESULT:      -9.1      0.815      7.637
REMARK SMILES Cc1cc(=O)c(Oc2ccc(C(=O)OCCOCCOCCOCCOC(=O)c3ccc(-c4c5nc(c(-c6c(F)cc(S(=O)(=O)[O-])cc6F)c6ccc([nH]6)c(-c6c(F)cc(S(=O)(=O)[O-])cc6F)c6nc(c(-c7c(F)cc(S(=O)(=O)[O-])cc7F)c7ccc4[nH]7)C=C6)C=C5)cc3)cc2)c(-c2ccc(S(C)(=O)=O)cc2)o1
REMARK SMILES IDX 19 1 18 2 17 3 16 4 15 5 14 6 12 7 13 8 11 9 8 10 9 11 96 12
REMARK SMILES IDX 10 13 95 14 7 15 6 16 1 17 2 18 3 19 108 20 4 21 97 22 5 23
REMARK SMILES IDX 98 24 99 25 107 26 100 27 106 28 101 29 102 30 103 31 104 32
REMARK SMILES IDX 105 33 20 34 21 35 22 36 23 37 24 38 25 39 26 40 27 41 28 42
REMARK SMILES IDX 29 43 30 44 94 45 31 46 93 47 32 48 33 49 34 50 87 51 35 52
REMARK SMILES IDX 92 53 86 54 88 55 36 56 91 57 85 58 84 59 37 61 71 62 50 63
REMARK SMILES IDX 70 64 51 65 54 66 69 67 89 68 52 69 53 70 68 72 90 73 55 74
REMARK SMILES IDX 38 75 39 76 48 77 40 78 41 79 47 80 49 81 42 82 43 83 44 84
REMARK SMILES IDX 45 85 46 86 72 87 73 88 82 89 74 90 75 91 81 92 83 93 76 94
REMARK SMILES IDX 77 95 78 96 79 97 80 98 56 99 57 100 66 101 58 102 59 103
REMARK SMILES IDX 65 104 67 105 60 106 61 107 62 108 63 109 64 110
REMARK H PARENT 88 60 54 71
REMARK Flexibility Score: inf
ROOT
ATOM      1  C   UNL A   1      37.546  22.970  25.739  1.00  0.00     0.188 C 
ENDROOT
BRANCH   1   2
ATOM      2  C   UNL A   1      36.053  22.922  25.578  1.00  0.00     0.188 C 
BRANCH   2   3
ATOM      3  O   UNL A   1      35.356  24.090  25.989  1.00  0.00    -0.376 OA
BRANCH   3   4
ATOM      4  C   UNL A   1      34.278  24.447  25.132  1.00  0.00     0.202 C 
BRANCH   4   5
ATOM      5  C   UNL A   1      33.140  25.241  25.811  1.00  0.00     0.261 C 
BRANCH   5   6
ATOM      6  O   UNL A   1      33.502  26.582  26.201  1.00  0.00    -0.460 OA
BRANCH   6   7
ATOM      7  C   UNL A   1      32.510  27.334  26.754  1.00  0.00     0.338 C 
ATOM      8  O   UNL A   1      31.411  26.933  27.100  1.00  0.00    -0.246 OA
BRANCH   7   9
ATOM      9  C   UNL A   1      33.019  28.712  27.073  1.00  0.00     0.060 A 
ATOM     10  C   UNL A   1      34.114  31.296  27.432  1.00  0.00     0.127 A 
ATOM     11  C   UNL A   1      34.950  30.184  27.405  1.00  0.00     0.048 A 
ATOM     12  C   UNL A   1      32.729  31.113  27.316  1.00  0.00     0.048 A 
ATOM     13  C   UNL A   1      34.406  28.903  27.203  1.00  0.00     0.019 A 
ATOM     14  C   UNL A   1      32.181  29.833  27.136  1.00  0.00     0.019 A 
BRANCH  10  15
ATOM     15  O   UNL A   1      34.523  32.540  27.826  1.00  0.00    -0.449 OA
BRANCH  15  16
ATOM     16  C   UNL A   1      34.632  33.038  29.111  1.00  0.00     0.217 A 
ATOM     17  C   UNL A   1      34.910  35.278  32.806  1.00  0.00     0.088 C 
ATOM     18  C   UNL A   1      34.662  34.548  31.524  1.00  0.00     0.105 A 
ATOM     19  C   UNL A   1      33.827  34.979  30.579  1.00  0.00     0.098 A 
ATOM     20  O   UNL A   1      35.391  33.391  31.383  1.00  0.00    -0.457 OA
ATOM     21  C   UNL A   1      33.690  34.188  29.346  1.00  0.00     0.228 A 
ATOM     22  C   UNL A   1      35.427  32.716  30.163  1.00  0.00     0.180 A 
ATOM     23  O   UNL A   1      32.828  34.509  28.532  1.00  0.00    -0.285 OA
BRANCH  22  24
ATOM     24  C   UNL A   1      36.454  31.674  30.245  1.00  0.00     0.021 A 
ATOM     25  C   UNL A   1      37.653  31.819  29.522  1.00  0.00     0.013 A 
ATOM     26  C   UNL A   1      36.195  30.469  30.894  1.00  0.00     0.013 A 
ATOM     27  C   UNL A   1      38.610  30.801  29.501  1.00  0.00     0.021 A 
ATOM     28  C   UNL A   1      37.144  29.448  30.853  1.00  0.00     0.021 A 
ATOM     29  C   UNL A   1      38.353  29.614  30.177  1.00  0.00     0.067 A 
BRANCH  29  30
ATOM     30  S   UNL A   1      39.620  28.365  30.292  1.00  0.00     0.175 S 
ATOM     31  C   UNL A   1      39.836  27.784  28.636  1.00  0.00     0.163 C 
ATOM     32  O   UNL A   1      40.845  29.027  30.696  1.00  0.00    -0.224 OA
ATOM     33  O   UNL A   1      39.081  27.273  31.074  1.00  0.00    -0.224 OA
ENDBRANCH  29  30
ENDBRANCH  22  24
ENDBRANCH  15  16
ENDBRANCH  10  15
ENDBRANCH   7   9
ENDBRANCH   6   7
ENDBRANCH   5   6
ENDBRANCH   4   5
ENDBRANCH   3   4
ENDBRANCH   2   3
ENDBRANCH   1   2
BRANCH   1  34
ATOM     34  O   UNL A   1      38.190  21.787  25.316  1.00  0.00    -0.377 OA
BRANCH  34  35
ATOM     35  C   UNL A   1      39.347  21.505  26.096  1.00  0.00     0.188 C 
BRANCH  35  36
ATOM     36  C   UNL A   1      39.846  20.044  26.020  1.00  0.00     0.188 C 
BRANCH  36  37
ATOM     37  O   UNL A   1      41.078  19.672  26.661  1.00  0.00    -0.376 OA
BRANCH  37  38
ATOM     38  C   UNL A   1      42.188  19.193  25.909  1.00  0.00     0.202 C 
BRANCH  38  39
ATOM     39  C   UNL A   1      43.306  20.190  25.638  1.00  0.00     0.261 C 
BRANCH  39  40
ATOM     40  O   UNL A   1      43.090  21.343  26.449  1.00  0.00    -0.460 OA
BRANCH  40  41
ATOM     41  C   UNL A   1      43.221  22.530  25.813  1.00  0.00     0.338 C 
ATOM     42  O   UNL A   1      42.987  22.763  24.644  1.00  0.00    -0.246 OA
BRANCH  41  43
ATOM     43  C   UNL A   1      43.421  23.555  26.859  1.00  0.00     0.060 A 
ATOM     44  C   UNL A   1      42.353  24.014  27.641  1.00  0.00     0.016 A 
ATOM     45  C   UNL A   1      44.686  24.146  26.965  1.00  0.00     0.016 A 
ATOM     46  C   UNL A   1      42.560  25.049  28.545  1.00  0.00     0.010 A 
ATOM     47  C   UNL A   1      44.892  25.191  27.859  1.00  0.00     0.010 A 
ATOM     48  C   UNL A   1      43.838  25.616  28.678  1.00  0.00    -0.014 A 
BRANCH  48  49
ATOM     49  C   UNL A   1      44.131  26.420  29.878  1.00  0.00     0.031 A 
ATOM     50  C   UNL A   1      44.547  25.812  31.173  1.00  0.00     0.074 A 
ATOM     51  C   UNL A   1      44.005  27.751  29.729  1.00  0.00     0.049 A 
ATOM     52  N   UNL A   1      44.939  26.419  32.261  1.00  0.00    -0.248 NA
ATOM     53  C   UNL A   1      44.515  24.347  31.269  1.00  0.00     0.031 C 
ATOM     54  C   UNL A   1      43.571  28.412  28.492  1.00  0.00     0.029 A 
ATOM     55  N   UNL A   1      44.235  28.781  30.595  1.00  0.00    -0.354 N 
ATOM     56  C   UNL A   1      45.224  25.415  33.174  1.00  0.00     0.074 A 
ATOM     57  C   UNL A   1      44.918  24.156  32.521  1.00  0.00     0.031 C 
ATOM     58  C   UNL A   1      43.595  29.738  28.671  1.00  0.00     0.029 A 
ATOM     59  C   UNL A   1      44.018  30.017  30.037  1.00  0.00     0.049 A 
ATOM     60  H   UNL A   1      44.528  28.651  31.526  1.00  0.00     0.167 HD
ATOM     61  C   UNL A   1      45.705  25.547  34.434  1.00  0.00     0.037 A 
ATOM     62  C   UNL A   1      44.153  31.245  30.566  1.00  0.00     0.037 A 
ATOM     63  C   UNL A   1      45.963  26.823  35.060  1.00  0.00     0.049 A 
ATOM     64  C   UNL A   1      44.658  31.361  31.971  1.00  0.00     0.074 A 
ATOM     65  C   UNL A   1      46.488  27.075  36.316  1.00  0.00     0.029 A 
ATOM     66  N   UNL A   1      45.692  28.061  34.488  1.00  0.00    -0.354 N 
ATOM     67  N   UNL A   1      45.006  30.403  32.797  1.00  0.00    -0.248 NA
ATOM     68  C   UNL A   1      44.794  32.716  32.514  1.00  0.00     0.031 C 
ATOM     69  C   UNL A   1      46.477  28.459  36.525  1.00  0.00     0.029 A 
ATOM     70  C   UNL A   1      46.002  29.077  35.380  1.00  0.00     0.049 A 
ATOM     71  H   UNL A   1      45.333  28.196  33.582  1.00  0.00     0.167 HD
ATOM     72  C   UNL A   1      45.412  31.038  33.963  1.00  0.00     0.074 A 
ATOM     73  C   UNL A   1      45.287  32.465  33.721  1.00  0.00     0.031 C 
ATOM     74  C   UNL A   1      45.844  30.492  35.127  1.00  0.00     0.037 A 
BRANCH  61  75
ATOM     75  C   UNL A   1      45.968  24.293  35.221  1.00  0.00     0.058 A 
ATOM     76  C   UNL A   1      47.192  23.609  35.129  1.00  0.00     0.135 A 
ATOM     77  C   UNL A   1      45.007  23.788  36.113  1.00  0.00     0.135 A 
ATOM     78  F   UNL A   1      48.146  24.039  34.288  1.00  0.00    -0.206 F 
ATOM     79  C   UNL A   1      47.442  22.457  35.869  1.00  0.00     0.059 A 
ATOM     80  C   UNL A   1      45.244  22.652  36.882  1.00  0.00     0.059 A 
ATOM     81  F   UNL A   1      43.821  24.402  36.245  1.00  0.00    -0.206 F 
ATOM     82  C   UNL A   1      46.460  21.985  36.742  1.00  0.00     0.060 A 
BRANCH  82  83
ATOM     83  S   UNL A   1      46.797  20.481  37.682  1.00  0.00     0.124 S 
ATOM     84  O   UNL A   1      48.084  20.075  37.125  1.00  0.00    -0.237 OA
ATOM     85  O   UNL A   1      46.829  20.974  39.055  1.00  0.00    -0.237 OA
ATOM     86  O   UNL A   1      45.671  19.612  37.355  1.00  0.00    -0.744 OA
ENDBRANCH  82  83
ENDBRANCH  61  75
BRANCH  62  87
ATOM     87  C   UNL A   1      43.841  32.426  29.726  1.00  0.00     0.058 A 
ATOM     88  C   UNL A   1      42.576  33.026  29.770  1.00  0.00     0.135 A 
ATOM     89  C   UNL A   1      44.837  33.047  28.953  1.00  0.00     0.135 A 
ATOM     90  F   UNL A   1      41.597  32.473  30.503  1.00  0.00    -0.206 F 
ATOM     91  C   UNL A   1      42.307  34.204  29.084  1.00  0.00     0.059 A 
ATOM     92  C   UNL A   1      44.600  34.238  28.278  1.00  0.00     0.059 A 
ATOM     93  F   UNL A   1      46.072  32.525  28.904  1.00  0.00    -0.206 F 
ATOM     94  C   UNL A   1      43.331  34.810  28.351  1.00  0.00     0.060 A 
BRANCH  94  95
ATOM     95  S   UNL A   1      42.993  36.389  27.544  1.00  0.00     0.124 S 
ATOM     96  O   UNL A   1      42.484  35.955  26.248  1.00  0.00    -0.237 OA
ATOM     97  O   UNL A   1      42.014  36.987  28.447  1.00  0.00    -0.237 OA
ATOM     98  O   UNL A   1      44.297  37.044  27.523  1.00  0.00    -0.744 OA
ENDBRANCH  94  95
ENDBRANCH  62  87
BRANCH  74  99
ATOM     99  C   UNL A   1      46.198  31.444  36.235  1.00  0.00     0.058 A 
ATOM    100  C   UNL A   1      47.487  31.988  36.349  1.00  0.00     0.135 A 
ATOM    101  C   UNL A   1      45.227  31.853  37.164  1.00  0.00     0.135 A 
ATOM    102  F   UNL A   1      48.454  31.620  35.494  1.00  0.00    -0.206 F 
ATOM    103  C   UNL A   1      47.807  32.892  37.355  1.00  0.00     0.059 A 
ATOM    104  C   UNL A   1      45.517  32.780  38.161  1.00  0.00     0.059 A 
ATOM    105  F   UNL A   1      43.978  31.367  37.097  1.00  0.00    -0.206 F 
ATOM    106  C   UNL A   1      46.813  33.286  38.253  1.00  0.00     0.060 A 
BRANCH 106 107
ATOM    107  S   UNL A   1      47.237  34.489  39.531  1.00  0.00     0.124 S 
ATOM    108  O   UNL A   1      46.304  34.129  40.594  1.00  0.00    -0.237 OA
ATOM    109  O   UNL A   1      48.641  34.184  39.789  1.00  0.00    -0.237 OA
ATOM    110  O   UNL A   1      46.987  35.774  38.885  1.00  0.00    -0.744 OA
ENDBRANCH 106 107
ENDBRANCH  74  99
ENDBRANCH  48  49
ENDBRANCH  41  43
ENDBRANCH  40  41
ENDBRANCH  39  40
ENDBRANCH  38  39
ENDBRANCH  37  38
ENDBRANCH  36  37
ENDBRANCH  35  36
ENDBRANCH  34  35
ENDBRANCH   1  34
TORSDOF 27
ENDMDL
