MODEL 1
REMARK VINA RESULT:      -9.6      0.000      0.000
REMARK SMILES COc1c[nH]c(C[N@H+]2CCC[C@@H](c3ccc(C(=O)OCCOCCOCCOCCOC(=O)c4ccc(-c5c6nc(c(-c7c(F)cc(S(=O)(=O)[O-])cc7F)c7ccc([nH]7)c(-c7c(F)cc(S(=O)(=O)[O-])cc7F)c7nc(c(-c8c(F)cc(S(=O)(=O)[O-])cc8F)c8ccc5[nH]8)C=C7)C=C6)cc4)cc3)C2)cc1=O
REMARK SMILES IDX 24 1 23 2 22 3 21 4 20 5 19 6 17 7 18 8 16 9 13 10 14 11
REMARK SMILES IDX 101 12 15 13 100 14 12 15 8 16 9 17 102 18 10 20 11 21 7 22
REMARK SMILES IDX 6 23 3 24 4 25 104 26 5 27 103 28 105 29 2 31 1 32 25 33
REMARK SMILES IDX 26 34 27 35 28 36 29 37 30 38 31 39 32 40 33 41 34 42 35 43
REMARK SMILES IDX 99 44 36 45 98 46 37 47 38 48 39 49 92 50 40 51 97 52 91 53
REMARK SMILES IDX 93 54 41 55 96 56 90 57 89 58 42 60 76 61 55 62 75 63 56 64
REMARK SMILES IDX 59 65 74 66 94 67 57 68 58 69 73 71 95 72 60 73 43 74 44 75
REMARK SMILES IDX 53 76 45 77 46 78 52 79 54 80 47 81 48 82 49 83 50 84 51 85
REMARK SMILES IDX 77 86 78 87 87 88 79 89 80 90 86 91 88 92 81 93 82 94 83 95
REMARK SMILES IDX 84 96 85 97 61 98 62 99 71 100 63 101 64 102 70 103 72 104
REMARK SMILES IDX 65 105 66 106 67 107 68 108 69 109
REMARK H PARENT 8 19 5 30 93 59 59 70
REMARK Flexibility Score: inf
ROOT
ATOM      1  C   UNL A   1      38.125  29.545  31.048  1.00  0.00     0.188 C 
ENDROOT
BRANCH   1   2
ATOM      2  C   UNL A   1      37.306  29.154  29.800  1.00  0.00     0.188 C 
BRANCH   2   3
ATOM      3  O   UNL A   1      37.313  30.133  28.777  1.00  0.00    -0.376 OA
BRANCH   3   4
ATOM      4  C   UNL A   1      36.482  29.973  27.644  1.00  0.00     0.202 C 
BRANCH   4   5
ATOM      5  C   UNL A   1      34.972  29.727  27.808  1.00  0.00     0.261 C 
BRANCH   5   6
ATOM      6  O   UNL A   1      34.125  30.281  26.797  1.00  0.00    -0.460 OA
BRANCH   6   7
ATOM      7  C   UNL A   1      32.875  29.783  26.710  1.00  0.00     0.338 C 
ATOM      8  O   UNL A   1      31.839  30.342  27.026  1.00  0.00    -0.246 OA
BRANCH   7   9
ATOM      9  C   UNL A   1      32.939  28.523  25.936  1.00  0.00     0.060 A 
ATOM     10  C   UNL A   1      33.088  26.071  24.582  1.00  0.00    -0.039 A 
ATOM     11  C   UNL A   1      32.683  26.122  25.927  1.00  0.00     0.005 A 
ATOM     12  C   UNL A   1      33.312  27.274  23.897  1.00  0.00     0.005 A 
ATOM     13  C   UNL A   1      32.643  27.334  26.609  1.00  0.00     0.016 A 
ATOM     14  C   UNL A   1      33.224  28.499  24.567  1.00  0.00     0.016 A 
BRANCH  10  15
ATOM     15  C   UNL A   1      33.481  24.742  23.943  1.00  0.00     0.074 C 
ATOM     16  N   UNL A   1      32.872  22.285  24.150  1.00  0.00    -0.329 N 
ATOM     17  C   UNL A   1      32.579  22.230  22.713  1.00  0.00     0.262 C 
ATOM     18  C   UNL A   1      32.688  23.638  24.677  1.00  0.00     0.270 C 
ATOM     19  H   UNL A   1      33.856  22.042  24.259  1.00  0.00     0.348 HD
ATOM     20  C   UNL A   1      33.432  23.236  21.931  1.00  0.00     0.062 C 
ATOM     21  C   UNL A   1      33.225  24.667  22.432  1.00  0.00     0.020 C 
BRANCH  16  22
ATOM     22  C   UNL A   1      32.117  21.279  24.929  1.00  0.00     0.317 C 
BRANCH  22  23
ATOM     23  C   UNL A   1      32.513  19.812  24.753  1.00  0.00     0.074 A 
ATOM     24  C   UNL A   1      33.065  17.006  24.687  1.00  0.00     0.182 A 
ATOM     25  C   UNL A   1      33.070  17.720  25.820  1.00  0.00     0.133 A 
ATOM     26  C   UNL A   1      32.834  17.780  23.415  1.00  0.00     0.223 A 
ATOM     27  N   UNL A   1      32.877  19.074  25.866  1.00  0.00    -0.357 N 
ATOM     28  C   UNL A   1      32.514  19.232  23.538  1.00  0.00     0.083 A 
ATOM     29  O   UNL A   1      32.879  17.265  22.301  1.00  0.00    -0.286 OA
ATOM     30  H   UNL A   1      33.004  19.541  26.723  1.00  0.00     0.166 HD
BRANCH  24  31
ATOM     31  O   UNL A   1      33.186  15.631  24.717  1.00  0.00    -0.491 OA
ATOM     32  C   UNL A   1      32.260  15.019  25.607  1.00  0.00     0.278 C 
ENDBRANCH  24  31
ENDBRANCH  22  23
ENDBRANCH  16  22
ENDBRANCH  10  15
ENDBRANCH   7   9
ENDBRANCH   6   7
ENDBRANCH   5   6
ENDBRANCH   4   5
ENDBRANCH   3   4
ENDBRANCH   2   3
ENDBRANCH   1   2
BRANCH   1  33
ATOM     33  O   UNL A   1      37.597  30.534  31.917  1.00  0.00    -0.377 OA
BRANCH  33  34
ATOM     34  C   UNL A   1      36.199  30.813  31.919  1.00  0.00     0.188 C 
BRANCH  34  35
ATOM     35  C   UNL A   1      35.640  32.254  32.024  1.00  0.00     0.188 C 
BRANCH  35  36
ATOM     36  O   UNL A   1      35.354  32.690  33.342  1.00  0.00    -0.376 OA
BRANCH  36  37
ATOM     37  C   UNL A   1      36.431  32.800  34.253  1.00  0.00     0.202 C 
BRANCH  37  38
ATOM     38  C   UNL A   1      37.420  33.951  34.028  1.00  0.00     0.261 C 
BRANCH  38  39
ATOM     39  O   UNL A   1      38.696  33.596  33.479  1.00  0.00    -0.460 OA
BRANCH  39  40
ATOM     40  C   UNL A   1      38.903  33.853  32.170  1.00  0.00     0.338 C 
ATOM     41  O   UNL A   1      38.498  34.816  31.537  1.00  0.00    -0.246 OA
BRANCH  40  42
ATOM     42  C   UNL A   1      39.865  32.851  31.671  1.00  0.00     0.060 A 
ATOM     43  C   UNL A   1      40.605  32.085  32.583  1.00  0.00     0.016 A 
ATOM     44  C   UNL A   1      40.019  32.663  30.297  1.00  0.00     0.016 A 
ATOM     45  C   UNL A   1      41.530  31.149  32.117  1.00  0.00     0.010 A 
ATOM     46  C   UNL A   1      40.959  31.743  29.833  1.00  0.00     0.010 A 
ATOM     47  C   UNL A   1      41.745  31.010  30.740  1.00  0.00    -0.014 A 
BRANCH  47  48
ATOM     48  C   UNL A   1      42.937  30.285  30.237  1.00  0.00     0.031 A 
ATOM     49  C   UNL A   1      44.242  31.035  30.189  1.00  0.00     0.074 A 
ATOM     50  C   UNL A   1      42.868  29.010  29.817  1.00  0.00     0.049 A 
ATOM     51  N   UNL A   1      45.389  30.677  29.679  1.00  0.00    -0.248 NA
ATOM     52  C   UNL A   1      44.244  32.379  30.794  1.00  0.00     0.031 C 
ATOM     53  C   UNL A   1      41.674  28.168  29.860  1.00  0.00     0.029 A 
ATOM     54  N   UNL A   1      43.827  28.208  29.251  1.00  0.00    -0.354 N 
ATOM     55  C   UNL A   1      46.244  31.753  29.885  1.00  0.00     0.074 A 
ATOM     56  C   UNL A   1      45.477  32.789  30.540  1.00  0.00     0.031 C 
ATOM     57  C   UNL A   1      41.969  26.970  29.321  1.00  0.00     0.029 A 
ATOM     58  C   UNL A   1      43.357  26.977  28.860  1.00  0.00     0.049 A 
ATOM     59  H   UNL A   1      44.765  28.487  29.137  1.00  0.00     0.167 HD
ATOM     60  C   UNL A   1      47.554  31.865  29.564  1.00  0.00     0.037 A 
ATOM     61  C   UNL A   1      43.970  25.988  28.178  1.00  0.00     0.037 A 
ATOM     62  C   UNL A   1      48.309  30.830  28.909  1.00  0.00     0.049 A 
ATOM     63  C   UNL A   1      45.410  26.165  27.759  1.00  0.00     0.074 A 
ATOM     64  C   UNL A   1      49.642  30.839  28.544  1.00  0.00     0.029 A 
ATOM     65  N   UNL A   1      47.793  29.603  28.517  1.00  0.00    -0.354 N 
ATOM     66  N   UNL A   1      46.213  27.182  27.966  1.00  0.00    -0.248 NA
ATOM     67  C   UNL A   1      46.028  25.059  27.012  1.00  0.00     0.031 C 
ATOM     68  C   UNL A   1      49.919  29.640  27.879  1.00  0.00     0.029 A 
ATOM     69  C   UNL A   1      48.777  28.855  27.893  1.00  0.00     0.049 A 
ATOM     70  H   UNL A   1      46.864  29.308  28.660  1.00  0.00     0.167 HD
ATOM     71  C   UNL A   1      47.440  26.821  27.415  1.00  0.00     0.074 A 
ATOM     72  C   UNL A   1      47.273  25.490  26.867  1.00  0.00     0.031 C 
ATOM     73  C   UNL A   1      48.601  27.522  27.373  1.00  0.00     0.037 A 
BRANCH  60  74
ATOM     74  C   UNL A   1      48.245  33.161  29.891  1.00  0.00     0.058 A 
ATOM     75  C   UNL A   1      48.934  33.350  31.099  1.00  0.00     0.135 A 
ATOM     76  C   UNL A   1      48.244  34.218  28.966  1.00  0.00     0.135 A 
ATOM     77  F   UNL A   1      48.947  32.382  32.029  1.00  0.00    -0.206 F 
ATOM     78  C   UNL A   1      49.577  34.549  31.390  1.00  0.00     0.059 A 
ATOM     79  C   UNL A   1      48.908  35.413  29.222  1.00  0.00     0.059 A 
ATOM     80  F   UNL A   1      47.595  34.094  27.797  1.00  0.00    -0.206 F 
ATOM     81  C   UNL A   1      49.562  35.574  30.442  1.00  0.00     0.060 A 
BRANCH  81  82
ATOM     82  S   UNL A   1      50.416  37.116  30.829  1.00  0.00     0.124 S 
ATOM     83  O   UNL A   1      51.232  37.305  29.635  1.00  0.00    -0.237 OA
ATOM     84  O   UNL A   1      49.308  38.051  30.995  1.00  0.00    -0.237 OA
ATOM     85  O   UNL A   1      51.154  36.800  32.048  1.00  0.00    -0.744 OA
ENDBRANCH  81  82
ENDBRANCH  60  74
BRANCH  61  86
ATOM     86  C   UNL A   1      43.229  24.743  27.832  1.00  0.00     0.058 A 
ATOM     87  C   UNL A   1      42.673  24.563  26.556  1.00  0.00     0.135 A 
ATOM     88  C   UNL A   1      43.044  23.717  28.773  1.00  0.00     0.135 A 
ATOM     89  F   UNL A   1      42.809  25.518  25.624  1.00  0.00    -0.206 F 
ATOM     90  C   UNL A   1      41.945  23.422  26.230  1.00  0.00     0.059 A 
ATOM     91  C   UNL A   1      42.346  22.554  28.462  1.00  0.00     0.059 A 
ATOM     92  F   UNL A   1      43.559  23.834  30.006  1.00  0.00    -0.206 F 
ATOM     93  C   UNL A   1      41.790  22.420  27.191  1.00  0.00     0.060 A 
BRANCH  93  94
ATOM     94  S   UNL A   1      40.879  20.927  26.743  1.00  0.00     0.124 S 
ATOM     95  O   UNL A   1      40.846  20.210  28.012  1.00  0.00    -0.237 OA
ATOM     96  O   UNL A   1      39.605  21.473  26.284  1.00  0.00    -0.237 OA
ATOM     97  O   UNL A   1      41.707  20.328  25.700  1.00  0.00    -0.744 OA
ENDBRANCH  93  94
ENDBRANCH  61  86
BRANCH  73  98
ATOM     98  C   UNL A   1      49.809  26.849  26.776  1.00  0.00     0.058 A 
ATOM     99  C   UNL A   1      50.144  26.984  25.420  1.00  0.00     0.135 A 
ATOM    100  C   UNL A   1      50.684  26.118  27.597  1.00  0.00     0.135 A 
ATOM    101  F   UNL A   1      49.342  27.668  24.589  1.00  0.00    -0.206 F 
ATOM    102  C   UNL A   1      51.295  26.401  24.895  1.00  0.00     0.059 A 
ATOM    103  C   UNL A   1      51.855  25.555  27.101  1.00  0.00     0.059 A 
ATOM    104  F   UNL A   1      50.417  25.968  28.904  1.00  0.00    -0.206 F 
ATOM    105  C   UNL A   1      52.147  25.693  25.746  1.00  0.00     0.060 A 
BRANCH 105 106
ATOM    106  S   UNL A   1      53.659  24.983  25.061  1.00  0.00     0.124 S 
ATOM    107  O   UNL A   1      53.341  23.559  25.061  1.00  0.00    -0.237 OA
ATOM    108  O   UNL A   1      53.734  25.616  23.748  1.00  0.00    -0.237 OA
ATOM    109  O   UNL A   1      54.689  25.395  26.009  1.00  0.00    -0.744 OA
ENDBRANCH 105 106
ENDBRANCH  73  98
ENDBRANCH  47  48
ENDBRANCH  40  42
ENDBRANCH  39  40
ENDBRANCH  38  39
ENDBRANCH  37  38
ENDBRANCH  36  37
ENDBRANCH  35  36
ENDBRANCH  34  35
ENDBRANCH  33  34
ENDBRANCH   1  33
TORSDOF 27
ENDMDL
MODEL 2
REMARK VINA RESULT:      -8.7      4.853      8.425
REMARK SMILES COc1c[nH]c(C[N@H+]2CCC[C@@H](c3ccc(C(=O)OCCOCCOCCOCCOC(=O)c4ccc(-c5c6nc(c(-c7c(F)cc(S(=O)(=O)[O-])cc7F)c7ccc([nH]7)c(-c7c(F)cc(S(=O)(=O)[O-])cc7F)c7nc(c(-c8c(F)cc(S(=O)(=O)[O-])cc8F)c8ccc5[nH]8)C=C7)C=C6)cc4)cc3)C2)cc1=O
REMARK SMILES IDX 24 1 23 2 22 3 21 4 20 5 19 6 17 7 18 8 16 9 13 10 14 11
REMARK SMILES IDX 101 12 15 13 100 14 12 15 8 16 9 17 102 18 10 20 11 21 7 22
REMARK SMILES IDX 6 23 3 24 4 25 104 26 5 27 103 28 105 29 2 31 1 32 25 33
REMARK SMILES IDX 26 34 27 35 28 36 29 37 30 38 31 39 32 40 33 41 34 42 35 43
REMARK SMILES IDX 99 44 36 45 98 46 37 47 38 48 39 49 92 50 40 51 97 52 91 53
REMARK SMILES IDX 93 54 41 55 96 56 90 57 89 58 42 60 76 61 55 62 75 63 56 64
REMARK SMILES IDX 59 65 74 66 94 67 57 68 58 69 73 71 95 72 60 73 43 74 44 75
REMARK SMILES IDX 53 76 45 77 46 78 52 79 54 80 47 81 48 82 49 83 50 84 51 85
REMARK SMILES IDX 77 86 78 87 87 88 79 89 80 90 86 91 88 92 81 93 82 94 83 95
REMARK SMILES IDX 84 96 85 97 61 98 62 99 71 100 63 101 64 102 70 103 72 104
REMARK SMILES IDX 65 105 66 106 67 107 68 108 69 109
REMARK H PARENT 8 19 5 30 93 59 59 70
REMARK Flexibility Score: inf
ROOT
ATOM      1  C   UNL A   1      39.459  32.365  30.422  1.00  0.00     0.188 C 
ENDROOT
BRANCH   1   2
ATOM      2  C   UNL A   1      38.327  33.372  30.122  1.00  0.00     0.188 C 
BRANCH   2   3
ATOM      3  O   UNL A   1      37.240  33.301  31.026  1.00  0.00    -0.376 OA
BRANCH   3   4
ATOM      4  C   UNL A   1      35.960  33.751  30.624  1.00  0.00     0.202 C 
BRANCH   4   5
ATOM      5  C   UNL A   1      34.818  32.750  30.381  1.00  0.00     0.261 C 
BRANCH   5   6
ATOM      6  O   UNL A   1      34.090  32.901  29.158  1.00  0.00    -0.460 OA
BRANCH   6   7
ATOM      7  C   UNL A   1      34.704  32.492  28.030  1.00  0.00     0.338 C 
ATOM      8  O   UNL A   1      35.705  32.969  27.524  1.00  0.00    -0.246 OA
BRANCH   7   9
ATOM      9  C   UNL A   1      34.099  31.203  27.624  1.00  0.00     0.060 A 
ATOM     10  C   UNL A   1      33.075  28.720  26.817  1.00  0.00    -0.039 A 
ATOM     11  C   UNL A   1      34.396  28.831  27.284  1.00  0.00     0.005 A 
ATOM     12  C   UNL A   1      32.243  29.849  26.863  1.00  0.00     0.005 A 
ATOM     13  C   UNL A   1      34.915  30.069  27.650  1.00  0.00     0.016 A 
ATOM     14  C   UNL A   1      32.749  31.086  27.278  1.00  0.00     0.016 A 
BRANCH  10  15
ATOM     15  C   UNL A   1      32.618  27.463  26.081  1.00  0.00     0.074 C 
ATOM     16  N   UNL A   1      31.805  26.814  23.764  1.00  0.00    -0.329 N 
ATOM     17  C   UNL A   1      32.849  25.786  23.679  1.00  0.00     0.262 C 
ATOM     18  C   UNL A   1      32.203  27.902  24.658  1.00  0.00     0.270 C 
ATOM     19  H   UNL A   1      30.984  26.365  24.169  1.00  0.00     0.348 HD
ATOM     20  C   UNL A   1      33.210  25.242  25.066  1.00  0.00     0.062 C 
ATOM     21  C   UNL A   1      33.674  26.353  26.010  1.00  0.00     0.020 C 
BRANCH  16  22
ATOM     22  C   UNL A   1      31.382  27.314  22.437  1.00  0.00     0.317 C 
BRANCH  22  23
ATOM     23  C   UNL A   1      30.308  28.402  22.406  1.00  0.00     0.074 A 
ATOM     24  C   UNL A   1      28.388  30.491  22.037  1.00  0.00     0.182 A 
ATOM     25  C   UNL A   1      29.653  30.583  21.608  1.00  0.00     0.133 A 
ATOM     26  C   UNL A   1      28.039  29.247  22.812  1.00  0.00     0.223 A 
ATOM     27  N   UNL A   1      30.605  29.627  21.835  1.00  0.00    -0.357 N 
ATOM     28  C   UNL A   1      29.085  28.187  22.926  1.00  0.00     0.083 A 
ATOM     29  O   UNL A   1      26.939  29.066  23.327  1.00  0.00    -0.286 OA
ATOM     30  H   UNL A   1      31.537  29.818  21.583  1.00  0.00     0.166 HD
BRANCH  24  31
ATOM     31  O   UNL A   1      27.456  31.454  21.705  1.00  0.00    -0.491 OA
ATOM     32  C   UNL A   1      28.052  32.639  21.191  1.00  0.00     0.278 C 
ENDBRANCH  24  31
ENDBRANCH  22  23
ENDBRANCH  16  22
ENDBRANCH  10  15
ENDBRANCH   7   9
ENDBRANCH   6   7
ENDBRANCH   5   6
ENDBRANCH   4   5
ENDBRANCH   3   4
ENDBRANCH   2   3
ENDBRANCH   1   2
BRANCH   1  33
ATOM     33  O   UNL A   1      39.466  31.133  29.720  1.00  0.00    -0.377 OA
BRANCH  33  34
ATOM     34  C   UNL A   1      39.534  29.901  30.436  1.00  0.00     0.188 C 
BRANCH  34  35
ATOM     35  C   UNL A   1      38.277  29.211  31.023  1.00  0.00     0.188 C 
BRANCH  35  36
ATOM     36  O   UNL A   1      37.269  30.096  31.484  1.00  0.00    -0.376 OA
BRANCH  36  37
ATOM     37  C   UNL A   1      36.999  30.126  32.872  1.00  0.00     0.202 C 
BRANCH  37  38
ATOM     38  C   UNL A   1      38.068  30.749  33.779  1.00  0.00     0.261 C 
BRANCH  38  39
ATOM     39  O   UNL A   1      38.411  30.009  34.959  1.00  0.00    -0.460 OA
BRANCH  39  40
ATOM     40  C   UNL A   1      39.459  30.451  35.686  1.00  0.00     0.338 C 
ATOM     41  O   UNL A   1      39.416  31.113  36.712  1.00  0.00    -0.246 OA
BRANCH  40  42
ATOM     42  C   UNL A   1      40.676  29.837  35.122  1.00  0.00     0.060 A 
ATOM     43  C   UNL A   1      41.937  30.269  35.556  1.00  0.00     0.016 A 
ATOM     44  C   UNL A   1      40.563  28.818  34.174  1.00  0.00     0.016 A 
ATOM     45  C   UNL A   1      43.093  29.705  35.012  1.00  0.00     0.010 A 
ATOM     46  C   UNL A   1      41.718  28.271  33.615  1.00  0.00     0.010 A 
ATOM     47  C   UNL A   1      42.986  28.738  34.004  1.00  0.00    -0.014 A 
BRANCH  47  48
ATOM     48  C   UNL A   1      44.168  28.375  33.185  1.00  0.00     0.031 A 
ATOM     49  C   UNL A   1      45.012  27.219  33.650  1.00  0.00     0.074 A 
ATOM     50  C   UNL A   1      44.498  29.057  32.073  1.00  0.00     0.049 A 
ATOM     51  N   UNL A   1      46.155  26.785  33.192  1.00  0.00    -0.248 NA
ATOM     52  C   UNL A   1      44.494  26.455  34.800  1.00  0.00     0.031 C 
ATOM     53  C   UNL A   1      43.733  30.161  31.499  1.00  0.00     0.029 A 
ATOM     54  N   UNL A   1      45.581  28.926  31.241  1.00  0.00    -0.354 N 
ATOM     55  C   UNL A   1      46.502  25.710  34.003  1.00  0.00     0.074 A 
ATOM     56  C   UNL A   1      45.464  25.577  35.000  1.00  0.00     0.031 C 
ATOM     57  C   UNL A   1      44.385  30.623  30.415  1.00  0.00     0.029 A 
ATOM     58  C   UNL A   1      45.629  29.874  30.246  1.00  0.00     0.049 A 
ATOM     59  H   UNL A   1      46.260  28.219  31.346  1.00  0.00     0.167 HD
ATOM     60  C   UNL A   1      47.585  24.904  33.918  1.00  0.00     0.037 A 
ATOM     61  C   UNL A   1      46.587  30.124  29.329  1.00  0.00     0.037 A 
ATOM     62  C   UNL A   1      48.614  25.048  32.924  1.00  0.00     0.049 A 
ATOM     63  C   UNL A   1      47.826  29.262  29.304  1.00  0.00     0.074 A 
ATOM     64  C   UNL A   1      49.751  24.281  32.746  1.00  0.00     0.029 A 
ATOM     65  N   UNL A   1      48.634  26.029  31.942  1.00  0.00    -0.354 N 
ATOM     66  N   UNL A   1      48.141  28.243  30.069  1.00  0.00    -0.248 NA
ATOM     67  C   UNL A   1      48.841  29.584  28.289  1.00  0.00     0.031 C 
ATOM     68  C   UNL A   1      50.488  24.831  31.693  1.00  0.00     0.029 A 
ATOM     69  C   UNL A   1      49.776  25.899  31.169  1.00  0.00     0.049 A 
ATOM     70  H   UNL A   1      47.940  26.715  31.815  1.00  0.00     0.167 HD
ATOM     71  C   UNL A   1      49.366  27.776  29.599  1.00  0.00     0.074 A 
ATOM     72  C   UNL A   1      49.734  28.624  28.484  1.00  0.00     0.031 C 
ATOM     73  C   UNL A   1      50.116  26.737  30.046  1.00  0.00     0.037 A 
BRANCH  60  74
ATOM     74  C   UNL A   1      47.725  23.813  34.945  1.00  0.00     0.058 A 
ATOM     75  C   UNL A   1      48.554  23.954  36.069  1.00  0.00     0.135 A 
ATOM     76  C   UNL A   1      46.993  22.621  34.818  1.00  0.00     0.135 A 
ATOM     77  F   UNL A   1      49.295  25.063  36.229  1.00  0.00    -0.206 F 
ATOM     78  C   UNL A   1      48.672  22.943  37.018  1.00  0.00     0.059 A 
ATOM     79  C   UNL A   1      47.070  21.611  35.771  1.00  0.00     0.059 A 
ATOM     80  F   UNL A   1      46.189  22.430  33.759  1.00  0.00    -0.206 F 
ATOM     81  C   UNL A   1      47.922  21.777  36.862  1.00  0.00     0.060 A 
BRANCH  81  82
ATOM     82  S   UNL A   1      48.074  20.483  38.111  1.00  0.00     0.124 S 
ATOM     83  O   UNL A   1      48.208  21.271  39.332  1.00  0.00    -0.237 OA
ATOM     84  O   UNL A   1      46.817  19.757  37.960  1.00  0.00    -0.237 OA
ATOM     85  O   UNL A   1      49.270  19.753  37.702  1.00  0.00    -0.744 OA
ENDBRANCH  81  82
ENDBRANCH  60  74
BRANCH  61  86
ATOM     86  C   UNL A   1      46.427  31.249  28.366  1.00  0.00     0.058 A 
ATOM     87  C   UNL A   1      46.816  32.554  28.705  1.00  0.00     0.135 A 
ATOM     88  C   UNL A   1      45.866  31.048  27.094  1.00  0.00     0.135 A 
ATOM     89  F   UNL A   1      47.345  32.804  29.913  1.00  0.00    -0.206 F 
ATOM     90  C   UNL A   1      46.637  33.621  27.829  1.00  0.00     0.059 A 
ATOM     91  C   UNL A   1      45.705  32.093  26.190  1.00  0.00     0.059 A 
ATOM     92  F   UNL A   1      45.482  29.819  26.715  1.00  0.00    -0.206 F 
ATOM     93  C   UNL A   1      46.083  33.379  26.571  1.00  0.00     0.060 A 
BRANCH  93  94
ATOM     94  S   UNL A   1      45.895  34.765  25.428  1.00  0.00     0.124 S 
ATOM     95  O   UNL A   1      45.329  35.789  26.298  1.00  0.00    -0.237 OA
ATOM     96  O   UNL A   1      47.269  34.986  24.989  1.00  0.00    -0.237 OA
ATOM     97  O   UNL A   1      44.996  34.237  24.406  1.00  0.00    -0.744 OA
ENDBRANCH  93  94
ENDBRANCH  61  86
BRANCH  73  98
ATOM     98  C   UNL A   1      51.378  26.404  29.294  1.00  0.00     0.058 A 
ATOM     99  C   UNL A   1      51.358  25.735  28.062  1.00  0.00     0.135 A 
ATOM    100  C   UNL A   1      52.622  26.833  29.786  1.00  0.00     0.135 A 
ATOM    101  F   UNL A   1      50.198  25.299  27.546  1.00  0.00    -0.206 F 
ATOM    102  C   UNL A   1      52.531  25.484  27.352  1.00  0.00     0.059 A 
ATOM    103  C   UNL A   1      53.802  26.624  29.079  1.00  0.00     0.059 A 
ATOM    104  F   UNL A   1      52.697  27.491  30.955  1.00  0.00    -0.206 F 
ATOM    105  C   UNL A   1      53.747  25.938  27.867  1.00  0.00     0.060 A 
BRANCH 105 106
ATOM    106  S   UNL A   1      55.252  25.647  26.914  1.00  0.00     0.124 S 
ATOM    107  O   UNL A   1      54.954  24.370  26.275  1.00  0.00    -0.237 OA
ATOM    108  O   UNL A   1      55.289  26.807  26.029  1.00  0.00    -0.237 OA
ATOM    109  O   UNL A   1      56.298  25.610  27.932  1.00  0.00    -0.744 OA
ENDBRANCH 105 106
ENDBRANCH  73  98
ENDBRANCH  47  48
ENDBRANCH  40  42
ENDBRANCH  39  40
ENDBRANCH  38  39
ENDBRANCH  37  38
ENDBRANCH  36  37
ENDBRANCH  35  36
ENDBRANCH  34  35
ENDBRANCH  33  34
ENDBRANCH   1  33
TORSDOF 27
ENDMDL
MODEL 3
REMARK VINA RESULT:      -8.7      6.302     11.919
REMARK SMILES COc1c[nH]c(C[N@H+]2CCC[C@@H](c3ccc(C(=O)OCCOCCOCCOCCOC(=O)c4ccc(-c5c6nc(c(-c7c(F)cc(S(=O)(=O)[O-])cc7F)c7ccc([nH]7)c(-c7c(F)cc(S(=O)(=O)[O-])cc7F)c7nc(c(-c8c(F)cc(S(=O)(=O)[O-])cc8F)c8ccc5[nH]8)C=C7)C=C6)cc4)cc3)C2)cc1=O
REMARK SMILES IDX 24 1 23 2 22 3 21 4 20 5 19 6 17 7 18 8 16 9 13 10 14 11
REMARK SMILES IDX 101 12 15 13 100 14 12 15 8 16 9 17 102 18 10 20 11 21 7 22
REMARK SMILES IDX 6 23 3 24 4 25 104 26 5 27 103 28 105 29 2 31 1 32 25 33
REMARK SMILES IDX 26 34 27 35 28 36 29 37 30 38 31 39 32 40 33 41 34 42 35 43
REMARK SMILES IDX 99 44 36 45 98 46 37 47 38 48 39 49 92 50 40 51 97 52 91 53
REMARK SMILES IDX 93 54 41 55 96 56 90 57 89 58 42 60 76 61 55 62 75 63 56 64
REMARK SMILES IDX 59 65 74 66 94 67 57 68 58 69 73 71 95 72 60 73 43 74 44 75
REMARK SMILES IDX 53 76 45 77 46 78 52 79 54 80 47 81 48 82 49 83 50 84 51 85
REMARK SMILES IDX 77 86 78 87 87 88 79 89 80 90 86 91 88 92 81 93 82 94 83 95
REMARK SMILES IDX 84 96 85 97 61 98 62 99 71 100 63 101 64 102 70 103 72 104
REMARK SMILES IDX 65 105 66 106 67 107 68 108 69 109
REMARK H PARENT 8 19 5 30 93 59 59 70
REMARK Flexibility Score: inf
ROOT
ATOM      1  C   UNL A   1      46.865  27.652  24.333  1.00  0.00     0.188 C 
ENDROOT
BRANCH   1   2
ATOM      2  C   UNL A   1      46.014  28.162  25.515  1.00  0.00     0.188 C 
BRANCH   2   3
ATOM      3  O   UNL A   1      46.007  29.571  25.653  1.00  0.00    -0.376 OA
BRANCH   3   4
ATOM      4  C   UNL A   1      45.480  30.161  26.825  1.00  0.00     0.202 C 
BRANCH   4   5
ATOM      5  C   UNL A   1      43.989  30.528  26.916  1.00  0.00     0.261 C 
BRANCH   5   6
ATOM      6  O   UNL A   1      43.072  29.437  27.041  1.00  0.00    -0.460 OA
BRANCH   6   7
ATOM      7  C   UNL A   1      42.280  29.430  28.132  1.00  0.00     0.338 C 
ATOM      8  O   UNL A   1      41.987  30.384  28.833  1.00  0.00    -0.246 OA
BRANCH   7   9
ATOM      9  C   UNL A   1      41.618  28.108  28.206  1.00  0.00     0.060 A 
ATOM     10  C   UNL A   1      40.481  25.546  28.316  1.00  0.00    -0.039 A 
ATOM     11  C   UNL A   1      41.839  25.740  28.628  1.00  0.00     0.005 A 
ATOM     12  C   UNL A   1      39.680  26.667  28.055  1.00  0.00     0.005 A 
ATOM     13  C   UNL A   1      42.411  27.005  28.539  1.00  0.00     0.016 A 
ATOM     14  C   UNL A   1      40.243  27.948  28.013  1.00  0.00     0.016 A 
BRANCH  10  15
ATOM     15  C   UNL A   1      39.941  24.142  28.058  1.00  0.00     0.074 C 
ATOM     16  N   UNL A   1      38.410  22.976  26.400  1.00  0.00    -0.329 N 
ATOM     17  C   UNL A   1      39.465  22.000  26.105  1.00  0.00     0.262 C 
ATOM     18  C   UNL A   1      38.976  24.247  26.855  1.00  0.00     0.270 C 
ATOM     19  H   UNL A   1      37.860  22.590  27.167  1.00  0.00     0.348 HD
ATOM     20  C   UNL A   1      40.379  21.782  27.316  1.00  0.00     0.062 C 
ATOM     21  C   UNL A   1      41.022  23.089  27.785  1.00  0.00     0.020 C 
BRANCH  16  22
ATOM     22  C   UNL A   1      37.466  23.160  25.276  1.00  0.00     0.317 C 
BRANCH  22  23
ATOM     23  C   UNL A   1      36.000  22.800  25.523  1.00  0.00     0.074 A 
ATOM     24  C   UNL A   1      33.238  22.405  26.154  1.00  0.00     0.182 A 
ATOM     25  C   UNL A   1      34.136  22.821  27.056  1.00  0.00     0.133 A 
ATOM     26  C   UNL A   1      33.776  22.068  24.787  1.00  0.00     0.223 A 
ATOM     27  N   UNL A   1      35.473  22.949  26.794  1.00  0.00    -0.357 N 
ATOM     28  C   UNL A   1      35.220  22.340  24.526  1.00  0.00     0.083 A 
ATOM     29  O   UNL A   1      33.078  21.606  23.889  1.00  0.00    -0.286 OA
ATOM     30  H   UNL A   1      36.084  23.154  27.538  1.00  0.00     0.166 HD
BRANCH  24  31
ATOM     31  O   UNL A   1      31.891  22.375  26.459  1.00  0.00    -0.491 OA
ATOM     32  C   UNL A   1      31.368  23.663  26.760  1.00  0.00     0.278 C 
ENDBRANCH  24  31
ENDBRANCH  22  23
ENDBRANCH  16  22
ENDBRANCH  10  15
ENDBRANCH   7   9
ENDBRANCH   6   7
ENDBRANCH   5   6
ENDBRANCH   4   5
ENDBRANCH   3   4
ENDBRANCH   2   3
ENDBRANCH   1   2
BRANCH   1  33
ATOM     33  O   UNL A   1      47.258  26.290  24.325  1.00  0.00    -0.377 OA
BRANCH  33  34
ATOM     34  C   UNL A   1      48.154  25.797  25.319  1.00  0.00     0.188 C 
BRANCH  34  35
ATOM     35  C   UNL A   1      47.675  24.943  26.520  1.00  0.00     0.188 C 
BRANCH  35  36
ATOM     36  O   UNL A   1      47.109  23.690  26.174  1.00  0.00    -0.376 OA
BRANCH  36  37
ATOM     37  C   UNL A   1      45.728  23.497  26.411  1.00  0.00     0.202 C 
BRANCH  37  38
ATOM     38  C   UNL A   1      45.087  24.337  27.524  1.00  0.00     0.261 C 
BRANCH  38  39
ATOM     39  O   UNL A   1      45.597  24.130  28.849  1.00  0.00    -0.460 OA
BRANCH  39  40
ATOM     40  C   UNL A   1      44.728  23.699  29.788  1.00  0.00     0.338 C 
ATOM     41  O   UNL A   1      44.235  22.585  29.878  1.00  0.00    -0.246 OA
BRANCH  40  42
ATOM     42  C   UNL A   1      44.615  24.763  30.804  1.00  0.00     0.060 A 
ATOM     43  C   UNL A   1      44.018  24.481  32.041  1.00  0.00     0.016 A 
ATOM     44  C   UNL A   1      45.118  26.037  30.533  1.00  0.00     0.016 A 
ATOM     45  C   UNL A   1      43.890  25.489  32.999  1.00  0.00     0.010 A 
ATOM     46  C   UNL A   1      44.971  27.048  31.482  1.00  0.00     0.010 A 
ATOM     47  C   UNL A   1      44.323  26.788  32.704  1.00  0.00    -0.014 A 
BRANCH  47  48
ATOM     48  C   UNL A   1      43.902  27.929  33.551  1.00  0.00     0.031 A 
ATOM     49  C   UNL A   1      44.686  28.192  34.809  1.00  0.00     0.074 A 
ATOM     50  C   UNL A   1      42.848  28.700  33.230  1.00  0.00     0.049 A 
ATOM     51  N   UNL A   1      44.449  29.037  35.775  1.00  0.00    -0.248 NA
ATOM     52  C   UNL A   1      45.900  27.380  35.002  1.00  0.00     0.031 C 
ATOM     53  C   UNL A   1      42.043  28.573  32.018  1.00  0.00     0.029 A 
ATOM     54  N   UNL A   1      42.263  29.735  33.917  1.00  0.00    -0.354 N 
ATOM     55  C   UNL A   1      45.472  28.848  36.699  1.00  0.00     0.074 A 
ATOM     56  C   UNL A   1      46.314  27.789  36.191  1.00  0.00     0.031 C 
ATOM     57  C   UNL A   1      41.052  29.484  32.056  1.00  0.00     0.029 A 
ATOM     58  C   UNL A   1      41.131  30.228  33.313  1.00  0.00     0.049 A 
ATOM     59  H   UNL A   1      42.621  30.091  34.764  1.00  0.00     0.167 HD
ATOM     60  C   UNL A   1      45.692  29.505  37.861  1.00  0.00     0.037 A 
ATOM     61  C   UNL A   1      40.246  31.150  33.745  1.00  0.00     0.037 A 
ATOM     62  C   UNL A   1      44.845  30.556  38.360  1.00  0.00     0.049 A 
ATOM     63  C   UNL A   1      40.467  31.814  35.083  1.00  0.00     0.074 A 
ATOM     64  C   UNL A   1      44.981  31.290  39.523  1.00  0.00     0.029 A 
ATOM     65  N   UNL A   1      43.700  31.018  37.725  1.00  0.00    -0.354 N 
ATOM     66  N   UNL A   1      41.441  31.635  35.945  1.00  0.00    -0.248 NA
ATOM     67  C   UNL A   1      39.467  32.806  35.509  1.00  0.00     0.031 C 
ATOM     68  C   UNL A   1      43.889  32.157  39.622  1.00  0.00     0.029 A 
ATOM     69  C   UNL A   1      43.109  32.013  38.485  1.00  0.00     0.049 A 
ATOM     70  H   UNL A   1      43.359  30.686  36.863  1.00  0.00     0.167 HD
ATOM     71  C   UNL A   1      41.196  32.522  36.990  1.00  0.00     0.074 A 
ATOM     72  C   UNL A   1      39.982  33.236  36.652  1.00  0.00     0.031 C 
ATOM     73  C   UNL A   1      41.913  32.731  38.122  1.00  0.00     0.037 A 
BRANCH  60  74
ATOM     74  C   UNL A   1      46.878  29.086  38.686  1.00  0.00     0.058 A 
ATOM     75  C   UNL A   1      48.127  29.713  38.562  1.00  0.00     0.135 A 
ATOM     76  C   UNL A   1      46.753  28.061  39.638  1.00  0.00     0.135 A 
ATOM     77  F   UNL A   1      48.310  30.683  37.650  1.00  0.00    -0.206 F 
ATOM     78  C   UNL A   1      49.217  29.324  39.334  1.00  0.00     0.059 A 
ATOM     79  C   UNL A   1      47.820  27.678  40.444  1.00  0.00     0.059 A 
ATOM     80  F   UNL A   1      45.583  27.421  39.795  1.00  0.00    -0.206 F 
ATOM     81  C   UNL A   1      49.052  28.308  40.276  1.00  0.00     0.060 A 
BRANCH  81  82
ATOM     82  S   UNL A   1      50.472  27.828  41.281  1.00  0.00     0.124 S 
ATOM     83  O   UNL A   1      50.853  29.105  41.876  1.00  0.00    -0.237 OA
ATOM     84  O   UNL A   1      49.890  26.851  42.195  1.00  0.00    -0.237 OA
ATOM     85  O   UNL A   1      51.414  27.286  40.305  1.00  0.00    -0.744 OA
ENDBRANCH  81  82
ENDBRANCH  60  74
BRANCH  61  86
ATOM     86  C   UNL A   1      39.057  31.495  32.916  1.00  0.00     0.058 A 
ATOM     87  C   UNL A   1      37.892  30.714  32.960  1.00  0.00     0.135 A 
ATOM     88  C   UNL A   1      39.067  32.600  32.050  1.00  0.00     0.135 A 
ATOM     89  F   UNL A   1      37.835  29.639  33.761  1.00  0.00    -0.206 F 
ATOM     90  C   UNL A   1      36.788  31.002  32.163  1.00  0.00     0.059 A 
ATOM     91  C   UNL A   1      37.964  32.926  31.265  1.00  0.00     0.059 A 
ATOM     92  F   UNL A   1      40.152  33.385  31.972  1.00  0.00    -0.206 F 
ATOM     93  C   UNL A   1      36.833  32.114  31.320  1.00  0.00     0.060 A 
BRANCH  93  94
ATOM     94  S   UNL A   1      35.379  32.501  30.322  1.00  0.00     0.124 S 
ATOM     95  O   UNL A   1      34.346  32.629  31.342  1.00  0.00    -0.237 OA
ATOM     96  O   UNL A   1      35.783  33.739  29.663  1.00  0.00    -0.237 OA
ATOM     97  O   UNL A   1      35.258  31.342  29.441  1.00  0.00    -0.744 OA
ENDBRANCH  93  94
ENDBRANCH  61  86
BRANCH  73  98
ATOM     98  C   UNL A   1      41.452  33.820  39.057  1.00  0.00     0.058 A 
ATOM     99  C   UNL A   1      41.790  35.166  38.858  1.00  0.00     0.135 A 
ATOM    100  C   UNL A   1      40.594  33.511  40.126  1.00  0.00     0.135 A 
ATOM    101  F   UNL A   1      42.608  35.518  37.854  1.00  0.00    -0.206 F 
ATOM    102  C   UNL A   1      41.309  36.167  39.699  1.00  0.00     0.059 A 
ATOM    103  C   UNL A   1      40.076  34.498  40.959  1.00  0.00     0.059 A 
ATOM    104  F   UNL A   1      40.229  32.239  40.354  1.00  0.00    -0.206 F 
ATOM    105  C   UNL A   1      40.448  35.823  40.743  1.00  0.00     0.060 A 
BRANCH 105 106
ATOM    106  S   UNL A   1      39.797  37.136  41.797  1.00  0.00     0.124 S 
ATOM    107  O   UNL A   1      39.035  36.374  42.780  1.00  0.00    -0.237 OA
ATOM    108  O   UNL A   1      41.014  37.771  42.291  1.00  0.00    -0.237 OA
ATOM    109  O   UNL A   1      39.002  37.946  40.879  1.00  0.00    -0.744 OA
ENDBRANCH 105 106
ENDBRANCH  73  98
ENDBRANCH  47  48
ENDBRANCH  40  42
ENDBRANCH  39  40
ENDBRANCH  38  39
ENDBRANCH  37  38
ENDBRANCH  36  37
ENDBRANCH  35  36
ENDBRANCH  34  35
ENDBRANCH  33  34
ENDBRANCH   1  33
TORSDOF 27
ENDMDL
