MODEL 1
REMARK VINA RESULT:      -8.4      0.000      0.000
REMARK SMILES Cc1ccc2c(c1)c(-c1ccnc3c(C)cccc13)c(C)n2CC(=O)OCCOCCOCCOCCOC(=O)c1ccc(-c2c3nc(c(-c4c(F)cc(S(=O)(=O)[O-])cc4F)c4ccc([nH]4)c(-c4c(F)cc(S(=O)(=O)[O-])cc4F)c4nc(c(-c5c(F)cc(S(=O)(=O)[O-])cc5F)c5ccc2[nH]5)C=C4)C=C3)cc1
REMARK SMILES IDX 33 1 32 2 31 3 30 4 29 5 28 6 27 7 26 8 24 9 25 10 23 11
REMARK SMILES IDX 22 12 1 13 2 14 3 15 7 16 4 17 6 18 5 19 8 20 20 21 21 22
REMARK SMILES IDX 9 23 10 24 19 25 11 26 13 27 18 28 12 29 14 30 17 31 15 32
REMARK SMILES IDX 16 33 34 34 35 35 36 36 37 37 38 38 39 39 40 40 41 41 42 42
REMARK SMILES IDX 106 43 43 44 105 45 44 46 45 47 46 48 99 49 47 50 104 51
REMARK SMILES IDX 98 52 100 53 48 54 103 55 97 56 96 57 49 59 83 60 62 61
REMARK SMILES IDX 82 62 63 63 66 64 81 65 101 66 64 67 65 68 80 70 102 71
REMARK SMILES IDX 67 72 50 73 51 74 60 75 52 76 53 77 59 78 61 79 54 80 55 81
REMARK SMILES IDX 56 82 57 83 58 84 84 85 85 86 94 87 86 88 87 89 93 90 95 91
REMARK SMILES IDX 88 92 89 93 90 94 91 95 92 96 68 97 69 98 78 99 70 100
REMARK SMILES IDX 71 101 77 102 79 103 72 104 73 105 74 106 75 107 76 108
REMARK H PARENT 100 58 66 69
REMARK Flexibility Score: inf
ROOT
ATOM      1  C   UNL A   1      45.704  24.652  25.435  1.00  0.00     0.188 C 
ENDROOT
BRANCH   1   2
ATOM      2  O   UNL A   1      45.425  23.307  25.764  1.00  0.00    -0.377 OA
BRANCH   2   3
ATOM      3  C   UNL A   1      44.584  22.572  24.915  1.00  0.00     0.188 C 
BRANCH   3   4
ATOM      4  C   UNL A   1      45.090  21.215  24.425  1.00  0.00     0.188 C 
BRANCH   4   5
ATOM      5  O   UNL A   1      44.991  20.083  25.261  1.00  0.00    -0.376 OA
BRANCH   5   6
ATOM      6  C   UNL A   1      43.937  19.139  25.063  1.00  0.00     0.202 C 
BRANCH   6   7
ATOM      7  C   UNL A   1      42.580  19.322  25.775  1.00  0.00     0.261 C 
BRANCH   7   8
ATOM      8  O   UNL A   1      42.424  20.534  26.567  1.00  0.00    -0.462 OA
BRANCH   8   9
ATOM      9  C   UNL A   1      41.165  21.014  26.691  1.00  0.00     0.326 C 
ATOM     10  O   UNL A   1      40.283  20.841  25.848  1.00  0.00    -0.250 OA
BRANCH   9  11
ATOM     11  C   UNL A   1      40.812  21.761  27.959  1.00  0.00     0.244 C 
BRANCH  11  12
ATOM     12  N   UNL A   1      41.143  23.182  28.152  1.00  0.00    -0.333 N 
ATOM     13  C   UNL A   1      46.134  25.622  29.205  1.00  0.00     0.044 C 
ATOM     14  C   UNL A   1      44.817  24.920  29.064  1.00  0.00    -0.050 A 
ATOM     15  C   UNL A   1      44.704  23.547  29.283  1.00  0.00     0.005 A 
ATOM     16  C   UNL A   1      43.684  25.651  28.678  1.00  0.00     0.014 A 
ATOM     17  C   UNL A   1      43.496  22.870  29.073  1.00  0.00     0.027 A 
ATOM     18  C   UNL A   1      42.470  24.984  28.410  1.00  0.00     0.008 A 
ATOM     19  C   UNL A   1      42.399  23.601  28.586  1.00  0.00     0.049 A 
ATOM     20  C   UNL A   1      41.205  25.418  27.926  1.00  0.00     0.011 A 
ATOM     21  C   UNL A   1      40.502  24.274  27.555  1.00  0.00     0.024 A 
ATOM     22  C   UNL A   1      39.297  24.194  26.671  1.00  0.00     0.065 C 
BRANCH  20  23
ATOM     23  C   UNL A   1      40.749  26.784  27.654  1.00  0.00    -0.005 A 
ATOM     24  C   UNL A   1      41.184  27.422  26.496  1.00  0.00     0.029 A 
ATOM     25  C   UNL A   1      39.853  27.459  28.528  1.00  0.00     0.008 A 
ATOM     26  C   UNL A   1      40.651  28.656  26.195  1.00  0.00     0.112 A 
ATOM     27  C   UNL A   1      39.333  28.711  28.106  1.00  0.00     0.074 A 
ATOM     28  C   UNL A   1      39.462  26.952  29.788  1.00  0.00     0.011 A 
ATOM     29  N   UNL A   1      39.721  29.280  26.947  1.00  0.00    -0.256 NA
ATOM     30  C   UNL A   1      38.393  29.367  28.917  1.00  0.00    -0.025 A 
ATOM     31  C   UNL A   1      38.608  27.666  30.621  1.00  0.00     0.001 A 
ATOM     32  C   UNL A   1      37.661  30.595  28.436  1.00  0.00     0.047 C 
ATOM     33  C   UNL A   1      38.045  28.851  30.175  1.00  0.00     0.005 A 
ENDBRANCH  20  23
ENDBRANCH  11  12
ENDBRANCH   9  11
ENDBRANCH   8   9
ENDBRANCH   7   8
ENDBRANCH   6   7
ENDBRANCH   5   6
ENDBRANCH   4   5
ENDBRANCH   3   4
ENDBRANCH   2   3
ENDBRANCH   1   2
BRANCH   1  34
ATOM     34  C   UNL A   1      47.034  24.971  24.747  1.00  0.00     0.188 C 
BRANCH  34  35
ATOM     35  O   UNL A   1      48.182  25.112  25.594  1.00  0.00    -0.376 OA
BRANCH  35  36
ATOM     36  C   UNL A   1      48.387  26.383  26.223  1.00  0.00     0.202 C 
BRANCH  36  37
ATOM     37  C   UNL A   1      48.110  27.593  25.329  1.00  0.00     0.261 C 
BRANCH  37  38
ATOM     38  O   UNL A   1      47.310  28.536  26.050  1.00  0.00    -0.460 OA
BRANCH  38  39
ATOM     39  C   UNL A   1      45.988  28.537  25.767  1.00  0.00     0.338 C 
ATOM     40  O   UNL A   1      45.428  28.015  24.820  1.00  0.00    -0.246 OA
BRANCH  39  41
ATOM     41  C   UNL A   1      45.348  28.967  27.023  1.00  0.00     0.060 A 
ATOM     42  C   UNL A   1      44.096  29.585  27.011  1.00  0.00     0.016 A 
ATOM     43  C   UNL A   1      46.168  29.021  28.154  1.00  0.00     0.016 A 
ATOM     44  C   UNL A   1      43.714  30.368  28.090  1.00  0.00     0.010 A 
ATOM     45  C   UNL A   1      45.787  29.810  29.231  1.00  0.00     0.010 A 
ATOM     46  C   UNL A   1      44.590  30.535  29.171  1.00  0.00    -0.014 A 
BRANCH  46  47
ATOM     47  C   UNL A   1      44.151  31.389  30.280  1.00  0.00     0.031 A 
ATOM     48  C   UNL A   1      44.760  32.756  30.289  1.00  0.00     0.074 A 
ATOM     49  C   UNL A   1      43.136  31.069  31.112  1.00  0.00     0.049 A 
ATOM     50  N   UNL A   1      45.311  33.410  31.262  1.00  0.00    -0.248 NA
ATOM     51  C   UNL A   1      44.832  33.446  28.987  1.00  0.00     0.031 C 
ATOM     52  C   UNL A   1      42.247  29.907  31.029  1.00  0.00     0.029 A 
ATOM     53  N   UNL A   1      42.576  31.811  32.114  1.00  0.00    -0.354 N 
ATOM     54  C   UNL A   1      45.641  34.660  30.737  1.00  0.00     0.074 A 
ATOM     55  C   UNL A   1      45.450  34.578  29.312  1.00  0.00     0.031 C 
ATOM     56  C   UNL A   1      41.126  30.160  31.740  1.00  0.00     0.029 A 
ATOM     57  C   UNL A   1      41.262  31.449  32.397  1.00  0.00     0.049 A 
ATOM     58  H   UNL A   1      43.053  32.529  32.587  1.00  0.00     0.167 HD
ATOM     59  C   UNL A   1      45.871  35.762  31.500  1.00  0.00     0.037 A 
ATOM     60  C   UNL A   1      40.315  32.221  32.990  1.00  0.00     0.037 A 
ATOM     61  C   UNL A   1      46.188  35.441  32.860  1.00  0.00     0.049 A 
ATOM     62  C   UNL A   1      41.007  33.322  33.710  1.00  0.00     0.074 A 
ATOM     63  C   UNL A   1      47.185  34.707  33.472  1.00  0.00     0.029 A 
ATOM     64  N   UNL A   1      45.234  35.640  33.828  1.00  0.00    -0.354 N 
ATOM     65  N   UNL A   1      41.770  33.165  34.757  1.00  0.00    -0.248 NA
ATOM     66  C   UNL A   1      41.180  34.582  33.000  1.00  0.00     0.031 C 
ATOM     67  C   UNL A   1      46.555  34.084  34.588  1.00  0.00     0.029 A 
ATOM     68  C   UNL A   1      45.225  34.505  34.599  1.00  0.00     0.049 A 
ATOM     69  H   UNL A   1      44.670  36.439  33.945  1.00  0.00     0.167 HD
ATOM     70  C   UNL A   1      42.788  34.095  34.602  1.00  0.00     0.074 A 
ATOM     71  C   UNL A   1      42.323  34.994  33.549  1.00  0.00     0.031 C 
ATOM     72  C   UNL A   1      44.027  33.906  35.144  1.00  0.00     0.037 A 
BRANCH  59  73
ATOM     73  C   UNL A   1      45.517  37.152  31.044  1.00  0.00     0.058 A 
ATOM     74  C   UNL A   1      46.463  38.190  31.100  1.00  0.00     0.135 A 
ATOM     75  C   UNL A   1      44.184  37.542  30.781  1.00  0.00     0.135 A 
ATOM     76  F   UNL A   1      47.749  37.926  31.379  1.00  0.00    -0.206 F 
ATOM     77  C   UNL A   1      46.103  39.530  30.936  1.00  0.00     0.059 A 
ATOM     78  C   UNL A   1      43.813  38.861  30.556  1.00  0.00     0.059 A 
ATOM     79  F   UNL A   1      43.172  36.664  30.822  1.00  0.00    -0.206 F 
ATOM     80  C   UNL A   1      44.772  39.853  30.676  1.00  0.00     0.060 A 
BRANCH  80  81
ATOM     81  S   UNL A   1      44.283  41.585  30.575  1.00  0.00     0.124 S 
ATOM     82  O   UNL A   1      44.883  42.125  31.790  1.00  0.00    -0.237 OA
ATOM     83  O   UNL A   1      44.897  42.001  29.317  1.00  0.00    -0.237 OA
ATOM     84  O   UNL A   1      42.825  41.522  30.563  1.00  0.00    -0.744 OA
ENDBRANCH  80  81
ENDBRANCH  59  73
BRANCH  60  85
ATOM     85  C   UNL A   1      38.872  32.294  32.615  1.00  0.00     0.058 A 
ATOM     86  C   UNL A   1      37.854  32.189  33.581  1.00  0.00     0.135 A 
ATOM     87  C   UNL A   1      38.462  32.726  31.335  1.00  0.00     0.135 A 
ATOM     88  F   UNL A   1      38.153  31.828  34.838  1.00  0.00    -0.206 F 
ATOM     89  C   UNL A   1      36.520  32.515  33.300  1.00  0.00     0.059 A 
ATOM     90  C   UNL A   1      37.139  33.031  31.026  1.00  0.00     0.059 A 
ATOM     91  F   UNL A   1      39.352  32.958  30.359  1.00  0.00    -0.206 F 
ATOM     92  C   UNL A   1      36.175  32.949  32.019  1.00  0.00     0.060 A 
BRANCH  92  93
ATOM     93  S   UNL A   1      34.491  33.517  31.685  1.00  0.00     0.124 S 
ATOM     94  O   UNL A   1      33.738  32.877  32.757  1.00  0.00    -0.237 OA
ATOM     95  O   UNL A   1      34.634  34.966  31.779  1.00  0.00    -0.237 OA
ATOM     96  O   UNL A   1      34.221  33.007  30.343  1.00  0.00    -0.744 OA
ENDBRANCH  92  93
ENDBRANCH  60  85
BRANCH  72  97
ATOM     97  C   UNL A   1      44.220  32.823  36.172  1.00  0.00     0.058 A 
ATOM     98  C   UNL A   1      44.439  31.469  35.866  1.00  0.00     0.135 A 
ATOM     99  C   UNL A   1      44.356  33.203  37.519  1.00  0.00     0.135 A 
ATOM    100  F   UNL A   1      44.449  31.037  34.596  1.00  0.00    -0.206 F 
ATOM    101  C   UNL A   1      44.735  30.531  36.856  1.00  0.00     0.059 A 
ATOM    102  C   UNL A   1      44.693  32.291  38.517  1.00  0.00     0.059 A 
ATOM    103  F   UNL A   1      44.220  34.492  37.872  1.00  0.00    -0.206 F 
ATOM    104  C   UNL A   1      44.873  30.954  38.177  1.00  0.00     0.060 A 
BRANCH 104 105
ATOM    105  S   UNL A   1      45.371  29.749  39.426  1.00  0.00     0.124 S 
ATOM    106  O   UNL A   1      44.988  28.486  38.805  1.00  0.00    -0.237 OA
ATOM    107  O   UNL A   1      46.808  29.996  39.535  1.00  0.00    -0.237 OA
ATOM    108  O   UNL A   1      44.591  30.129  40.600  1.00  0.00    -0.744 OA
ENDBRANCH 104 105
ENDBRANCH  72  97
ENDBRANCH  46  47
ENDBRANCH  39  41
ENDBRANCH  38  39
ENDBRANCH  37  38
ENDBRANCH  36  37
ENDBRANCH  35  36
ENDBRANCH  34  35
ENDBRANCH   1  34
TORSDOF 25
ENDMDL
MODEL 2
REMARK VINA RESULT:      -8.3      7.239     15.279
REMARK SMILES Cc1ccc2c(c1)c(-c1ccnc3c(C)cccc13)c(C)n2CC(=O)OCCOCCOCCOCCOC(=O)c1ccc(-c2c3nc(c(-c4c(F)cc(S(=O)(=O)[O-])cc4F)c4ccc([nH]4)c(-c4c(F)cc(S(=O)(=O)[O-])cc4F)c4nc(c(-c5c(F)cc(S(=O)(=O)[O-])cc5F)c5ccc2[nH]5)C=C4)C=C3)cc1
REMARK SMILES IDX 33 1 32 2 31 3 30 4 29 5 28 6 27 7 26 8 24 9 25 10 23 11
REMARK SMILES IDX 22 12 1 13 2 14 3 15 7 16 4 17 6 18 5 19 8 20 20 21 21 22
REMARK SMILES IDX 9 23 10 24 19 25 11 26 13 27 18 28 12 29 14 30 17 31 15 32
REMARK SMILES IDX 16 33 34 34 35 35 36 36 37 37 38 38 39 39 40 40 41 41 42 42
REMARK SMILES IDX 106 43 43 44 105 45 44 46 45 47 46 48 99 49 47 50 104 51
REMARK SMILES IDX 98 52 100 53 48 54 103 55 97 56 96 57 49 59 83 60 62 61
REMARK SMILES IDX 82 62 63 63 66 64 81 65 101 66 64 67 65 68 80 70 102 71
REMARK SMILES IDX 67 72 50 73 51 74 60 75 52 76 53 77 59 78 61 79 54 80 55 81
REMARK SMILES IDX 56 82 57 83 58 84 84 85 85 86 94 87 86 88 87 89 93 90 95 91
REMARK SMILES IDX 88 92 89 93 90 94 91 95 92 96 68 97 69 98 78 99 70 100
REMARK SMILES IDX 71 101 77 102 79 103 72 104 73 105 74 106 75 107 76 108
REMARK H PARENT 100 58 66 69
REMARK Flexibility Score: inf
ROOT
ATOM      1  C   UNL A   1      41.908  41.575  31.610  1.00  0.00     0.188 C 
ENDROOT
BRANCH   1   2
ATOM      2  O   UNL A   1      42.147  41.663  30.221  1.00  0.00    -0.377 OA
BRANCH   2   3
ATOM      3  C   UNL A   1      43.429  41.351  29.743  1.00  0.00     0.188 C 
BRANCH   3   4
ATOM      4  C   UNL A   1      43.524  40.679  28.373  1.00  0.00     0.188 C 
BRANCH   4   5
ATOM      5  O   UNL A   1      42.533  40.922  27.398  1.00  0.00    -0.376 OA
BRANCH   5   6
ATOM      6  C   UNL A   1      42.884  40.949  26.014  1.00  0.00     0.202 C 
BRANCH   6   7
ATOM      7  C   UNL A   1      44.203  41.607  25.555  1.00  0.00     0.261 C 
BRANCH   7   8
ATOM      8  O   UNL A   1      44.167  43.049  25.347  1.00  0.00    -0.462 OA
BRANCH   8   9
ATOM      9  C   UNL A   1      43.842  43.470  24.103  1.00  0.00     0.326 C 
ATOM     10  O   UNL A   1      43.094  44.422  23.878  1.00  0.00    -0.250 OA
BRANCH   9  11
ATOM     11  C   UNL A   1      44.476  42.759  22.927  1.00  0.00     0.244 C 
BRANCH  11  12
ATOM     12  N   UNL A   1      44.708  43.429  21.637  1.00  0.00    -0.333 N 
ATOM     13  C   UNL A   1      41.047  44.733  17.530  1.00  0.00     0.044 C 
ATOM     14  C   UNL A   1      42.000  44.245  18.580  1.00  0.00    -0.050 A 
ATOM     15  C   UNL A   1      41.606  43.300  19.528  1.00  0.00     0.005 A 
ATOM     16  C   UNL A   1      43.301  44.767  18.627  1.00  0.00     0.014 A 
ATOM     17  C   UNL A   1      42.462  42.900  20.562  1.00  0.00     0.027 A 
ATOM     18  C   UNL A   1      44.163  44.419  19.689  1.00  0.00     0.008 A 
ATOM     19  C   UNL A   1      43.724  43.512  20.655  1.00  0.00     0.049 A 
ATOM     20  C   UNL A   1      45.471  44.838  20.060  1.00  0.00     0.011 A 
ATOM     21  C   UNL A   1      45.676  44.403  21.367  1.00  0.00     0.024 A 
ATOM     22  C   UNL A   1      46.715  44.882  22.332  1.00  0.00     0.065 C 
BRANCH  20  23
ATOM     23  C   UNL A   1      46.387  45.726  19.338  1.00  0.00    -0.005 A 
ATOM     24  C   UNL A   1      47.464  45.171  18.653  1.00  0.00     0.029 A 
ATOM     25  C   UNL A   1      46.184  47.133  19.298  1.00  0.00     0.008 A 
ATOM     26  C   UNL A   1      48.243  46.006  17.883  1.00  0.00     0.112 A 
ATOM     27  C   UNL A   1      47.019  47.898  18.443  1.00  0.00     0.074 A 
ATOM     28  C   UNL A   1      45.204  47.802  20.066  1.00  0.00     0.011 A 
ATOM     29  N   UNL A   1      48.016  47.328  17.738  1.00  0.00    -0.256 NA
ATOM     30  C   UNL A   1      46.796  49.280  18.331  1.00  0.00    -0.025 A 
ATOM     31  C   UNL A   1      45.067  49.184  20.017  1.00  0.00     0.001 A 
ATOM     32  C   UNL A   1      47.515  50.111  17.298  1.00  0.00     0.047 C 
ATOM     33  C   UNL A   1      45.832  49.919  19.126  1.00  0.00     0.005 A 
ENDBRANCH  20  23
ENDBRANCH  11  12
ENDBRANCH   9  11
ENDBRANCH   8   9
ENDBRANCH   7   8
ENDBRANCH   6   7
ENDBRANCH   5   6
ENDBRANCH   4   5
ENDBRANCH   3   4
ENDBRANCH   2   3
ENDBRANCH   1   2
BRANCH   1  34
ATOM     34  C   UNL A   1      42.837  42.340  32.557  1.00  0.00     0.188 C 
BRANCH  34  35
ATOM     35  O   UNL A   1      42.831  41.937  33.932  1.00  0.00    -0.376 OA
BRANCH  35  36
ATOM     36  C   UNL A   1      43.682  42.653  34.835  1.00  0.00     0.202 C 
BRANCH  36  37
ATOM     37  C   UNL A   1      44.551  41.771  35.734  1.00  0.00     0.261 C 
BRANCH  37  38
ATOM     38  O   UNL A   1      44.204  40.398  35.522  1.00  0.00    -0.460 OA
BRANCH  38  39
ATOM     39  C   UNL A   1      45.219  39.572  35.182  1.00  0.00     0.338 C 
ATOM     40  O   UNL A   1      46.412  39.746  35.355  1.00  0.00    -0.246 OA
BRANCH  39  41
ATOM     41  C   UNL A   1      44.562  38.281  34.912  1.00  0.00     0.060 A 
ATOM     42  C   UNL A   1      43.830  38.085  33.739  1.00  0.00     0.016 A 
ATOM     43  C   UNL A   1      44.437  37.407  35.996  1.00  0.00     0.016 A 
ATOM     44  C   UNL A   1      42.874  37.081  33.695  1.00  0.00     0.010 A 
ATOM     45  C   UNL A   1      43.475  36.406  35.952  1.00  0.00     0.010 A 
ATOM     46  C   UNL A   1      42.650  36.285  34.827  1.00  0.00    -0.014 A 
BRANCH  46  47
ATOM     47  C   UNL A   1      41.613  35.250  34.740  1.00  0.00     0.031 A 
ATOM     48  C   UNL A   1      42.002  34.050  33.935  1.00  0.00     0.074 A 
ATOM     49  C   UNL A   1      40.482  35.262  35.477  1.00  0.00     0.049 A 
ATOM     50  N   UNL A   1      41.351  33.433  33.001  1.00  0.00    -0.248 NA
ATOM     51  C   UNL A   1      43.362  33.526  34.163  1.00  0.00     0.031 C 
ATOM     52  C   UNL A   1      40.114  36.212  36.531  1.00  0.00     0.029 A 
ATOM     53  N   UNL A   1      39.494  34.322  35.555  1.00  0.00    -0.354 N 
ATOM     54  C   UNL A   1      42.142  32.341  32.646  1.00  0.00     0.074 A 
ATOM     55  C   UNL A   1      43.418  32.523  33.290  1.00  0.00     0.031 C 
ATOM     56  C   UNL A   1      39.159  35.656  37.309  1.00  0.00     0.029 A 
ATOM     57  C   UNL A   1      38.786  34.367  36.753  1.00  0.00     0.049 A 
ATOM     58  H   UNL A   1      39.302  33.678  34.837  1.00  0.00     0.167 HD
ATOM     59  C   UNL A   1      41.667  31.242  32.001  1.00  0.00     0.037 A 
ATOM     60  C   UNL A   1      38.075  33.356  37.317  1.00  0.00     0.037 A 
ATOM     61  C   UNL A   1      40.425  31.485  31.329  1.00  0.00     0.049 A 
ATOM     62  C   UNL A   1      37.775  32.360  36.254  1.00  0.00     0.074 A 
ATOM     63  C   UNL A   1      40.020  32.349  30.330  1.00  0.00     0.029 A 
ATOM     64  N   UNL A   1      39.267  30.991  31.877  1.00  0.00    -0.354 N 
ATOM     65  N   UNL A   1      36.984  32.569  35.237  1.00  0.00    -0.248 NA
ATOM     66  C   UNL A   1      38.698  31.244  36.103  1.00  0.00     0.031 C 
ATOM     67  C   UNL A   1      38.684  32.709  30.670  1.00  0.00     0.029 A 
ATOM     68  C   UNL A   1      38.354  32.016  31.835  1.00  0.00     0.049 A 
ATOM     69  H   UNL A   1      39.121  30.084  32.230  1.00  0.00     0.167 HD
ATOM     70  C   UNL A   1      37.576  31.897  34.178  1.00  0.00     0.074 A 
ATOM     71  C   UNL A   1      38.579  31.030  34.792  1.00  0.00     0.031 C 
ATOM     72  C   UNL A   1      37.395  32.289  32.883  1.00  0.00     0.037 A 
BRANCH  59  73
ATOM     73  C   UNL A   1      42.218  29.862  32.238  1.00  0.00     0.058 A 
ATOM     74  C   UNL A   1      42.253  29.314  33.533  1.00  0.00     0.135 A 
ATOM     75  C   UNL A   1      42.943  29.159  31.249  1.00  0.00     0.135 A 
ATOM     76  F   UNL A   1      41.627  29.927  34.549  1.00  0.00    -0.206 F 
ATOM     77  C   UNL A   1      42.985  28.162  33.830  1.00  0.00     0.059 A 
ATOM     78  C   UNL A   1      43.629  27.980  31.508  1.00  0.00     0.059 A 
ATOM     79  F   UNL A   1      43.089  29.641  30.006  1.00  0.00    -0.206 F 
ATOM     80  C   UNL A   1      43.679  27.511  32.811  1.00  0.00     0.060 A 
BRANCH  80  81
ATOM     81  S   UNL A   1      44.713  26.090  33.209  1.00  0.00     0.124 S 
ATOM     82  O   UNL A   1      45.885  26.740  33.784  1.00  0.00    -0.237 OA
ATOM     83  O   UNL A   1      43.869  25.350  34.142  1.00  0.00    -0.237 OA
ATOM     84  O   UNL A   1      44.917  25.449  31.914  1.00  0.00    -0.744 OA
ENDBRANCH  80  81
ENDBRANCH  59  73
BRANCH  60  85
ATOM     85  C   UNL A   1      38.020  33.016  38.769  1.00  0.00     0.058 A 
ATOM     86  C   UNL A   1      36.813  32.660  39.397  1.00  0.00     0.135 A 
ATOM     87  C   UNL A   1      39.194  32.784  39.519  1.00  0.00     0.135 A 
ATOM     88  F   UNL A   1      35.648  32.804  38.747  1.00  0.00    -0.206 F 
ATOM     89  C   UNL A   1      36.775  32.088  40.676  1.00  0.00     0.059 A 
ATOM     90  C   UNL A   1      39.180  32.239  40.800  1.00  0.00     0.059 A 
ATOM     91  F   UNL A   1      40.410  32.990  38.992  1.00  0.00    -0.206 F 
ATOM     92  C   UNL A   1      37.969  31.869  41.365  1.00  0.00     0.060 A 
BRANCH  92  93
ATOM     93  S   UNL A   1      37.947  30.994  42.947  1.00  0.00     0.124 S 
ATOM     94  O   UNL A   1      38.777  31.856  43.781  1.00  0.00    -0.237 OA
ATOM     95  O   UNL A   1      36.523  30.974  43.265  1.00  0.00    -0.237 OA
ATOM     96  O   UNL A   1      38.528  29.693  42.624  1.00  0.00    -0.744 OA
ENDBRANCH  92  93
ENDBRANCH  60  85
BRANCH  72  97
ATOM     97  C   UNL A   1      36.308  33.279  32.562  1.00  0.00     0.058 A 
ATOM     98  C   UNL A   1      35.054  32.935  32.028  1.00  0.00     0.135 A 
ATOM     99  C   UNL A   1      36.482  34.613  32.972  1.00  0.00     0.135 A 
ATOM    100  F   UNL A   1      34.755  31.664  31.722  1.00  0.00    -0.206 F 
ATOM    101  C   UNL A   1      34.039  33.880  31.869  1.00  0.00     0.059 A 
ATOM    102  C   UNL A   1      35.469  35.563  32.861  1.00  0.00     0.059 A 
ATOM    103  F   UNL A   1      37.635  34.995  33.546  1.00  0.00    -0.206 F 
ATOM    104  C   UNL A   1      34.252  35.189  32.300  1.00  0.00     0.060 A 
BRANCH 104 105
ATOM    105  S   UNL A   1      32.890  36.369  32.194  1.00  0.00     0.124 S 
ATOM    106  O   UNL A   1      33.245  37.342  33.221  1.00  0.00    -0.237 OA
ATOM    107  O   UNL A   1      32.994  36.834  30.813  1.00  0.00    -0.237 OA
ATOM    108  O   UNL A   1      31.710  35.559  32.484  1.00  0.00    -0.744 OA
ENDBRANCH 104 105
ENDBRANCH  72  97
ENDBRANCH  46  47
ENDBRANCH  39  41
ENDBRANCH  38  39
ENDBRANCH  37  38
ENDBRANCH  36  37
ENDBRANCH  35  36
ENDBRANCH  34  35
ENDBRANCH   1  34
TORSDOF 25
ENDMDL
MODEL 3
REMARK VINA RESULT:      -7.9      2.423      7.624
REMARK SMILES Cc1ccc2c(c1)c(-c1ccnc3c(C)cccc13)c(C)n2CC(=O)OCCOCCOCCOCCOC(=O)c1ccc(-c2c3nc(c(-c4c(F)cc(S(=O)(=O)[O-])cc4F)c4ccc([nH]4)c(-c4c(F)cc(S(=O)(=O)[O-])cc4F)c4nc(c(-c5c(F)cc(S(=O)(=O)[O-])cc5F)c5ccc2[nH]5)C=C4)C=C3)cc1
REMARK SMILES IDX 33 1 32 2 31 3 30 4 29 5 28 6 27 7 26 8 24 9 25 10 23 11
REMARK SMILES IDX 22 12 1 13 2 14 3 15 7 16 4 17 6 18 5 19 8 20 20 21 21 22
REMARK SMILES IDX 9 23 10 24 19 25 11 26 13 27 18 28 12 29 14 30 17 31 15 32
REMARK SMILES IDX 16 33 34 34 35 35 36 36 37 37 38 38 39 39 40 40 41 41 42 42
REMARK SMILES IDX 106 43 43 44 105 45 44 46 45 47 46 48 99 49 47 50 104 51
REMARK SMILES IDX 98 52 100 53 48 54 103 55 97 56 96 57 49 59 83 60 62 61
REMARK SMILES IDX 82 62 63 63 66 64 81 65 101 66 64 67 65 68 80 70 102 71
REMARK SMILES IDX 67 72 50 73 51 74 60 75 52 76 53 77 59 78 61 79 54 80 55 81
REMARK SMILES IDX 56 82 57 83 58 84 84 85 85 86 94 87 86 88 87 89 93 90 95 91
REMARK SMILES IDX 88 92 89 93 90 94 91 95 92 96 68 97 69 98 78 99 70 100
REMARK SMILES IDX 71 101 77 102 79 103 72 104 73 105 74 106 75 107 76 108
REMARK H PARENT 100 58 66 69
REMARK Flexibility Score: inf
ROOT
ATOM      1  C   UNL A   1      45.713  25.328  25.675  1.00  0.00     0.188 C 
ENDROOT
BRANCH   1   2
ATOM      2  O   UNL A   1      45.606  23.970  26.047  1.00  0.00    -0.377 OA
BRANCH   2   3
ATOM      3  C   UNL A   1      44.777  23.132  25.287  1.00  0.00     0.188 C 
BRANCH   3   4
ATOM      4  C   UNL A   1      45.407  21.873  24.689  1.00  0.00     0.188 C 
BRANCH   4   5
ATOM      5  O   UNL A   1      45.332  20.648  25.387  1.00  0.00    -0.376 OA
BRANCH   5   6
ATOM      6  C   UNL A   1      44.376  19.662  24.997  1.00  0.00     0.202 C 
BRANCH   6   7
ATOM      7  C   UNL A   1      42.980  19.622  25.656  1.00  0.00     0.261 C 
BRANCH   7   8
ATOM      8  O   UNL A   1      42.667  20.712  26.571  1.00  0.00    -0.462 OA
BRANCH   8   9
ATOM      9  C   UNL A   1      41.354  20.992  26.744  1.00  0.00     0.326 C 
ATOM     10  O   UNL A   1      40.472  20.641  25.959  1.00  0.00    -0.250 OA
BRANCH   9  11
ATOM     11  C   UNL A   1      40.948  21.734  27.999  1.00  0.00     0.244 C 
BRANCH  11  12
ATOM     12  N   UNL A   1      41.253  23.159  28.203  1.00  0.00    -0.333 N 
ATOM     13  C   UNL A   1      46.150  25.653  29.536  1.00  0.00     0.044 C 
ATOM     14  C   UNL A   1      44.850  24.937  29.321  1.00  0.00    -0.050 A 
ATOM     15  C   UNL A   1      44.737  23.564  29.541  1.00  0.00     0.005 A 
ATOM     16  C   UNL A   1      43.735  25.656  28.865  1.00  0.00     0.014 A 
ATOM     17  C   UNL A   1      43.550  22.875  29.264  1.00  0.00     0.027 A 
ATOM     18  C   UNL A   1      42.545  24.975  28.529  1.00  0.00     0.008 A 
ATOM     19  C   UNL A   1      42.477  23.592  28.708  1.00  0.00     0.049 A 
ATOM     20  C   UNL A   1      41.307  25.394  27.969  1.00  0.00     0.011 A 
ATOM     21  C   UNL A   1      40.638  24.242  27.563  1.00  0.00     0.024 A 
ATOM     22  C   UNL A   1      39.489  24.145  26.610  1.00  0.00     0.065 C 
BRANCH  20  23
ATOM     23  C   UNL A   1      40.855  26.755  27.662  1.00  0.00    -0.005 A 
ATOM     24  C   UNL A   1      41.353  27.391  26.529  1.00  0.00     0.029 A 
ATOM     25  C   UNL A   1      39.901  27.425  28.477  1.00  0.00     0.008 A 
ATOM     26  C   UNL A   1      40.827  28.618  26.190  1.00  0.00     0.112 A 
ATOM     27  C   UNL A   1      39.396  28.669  28.018  1.00  0.00     0.074 A 
ATOM     28  C   UNL A   1      39.440  26.920  29.714  1.00  0.00     0.011 A 
ATOM     29  N   UNL A   1      39.848  29.236  26.881  1.00  0.00    -0.256 NA
ATOM     30  C   UNL A   1      38.403  29.320  28.768  1.00  0.00    -0.025 A 
ATOM     31  C   UNL A   1      38.531  27.629  30.490  1.00  0.00     0.001 A 
ATOM     32  C   UNL A   1      37.689  30.538  28.237  1.00  0.00     0.047 C 
ATOM     33  C   UNL A   1      37.985  28.806  30.005  1.00  0.00     0.005 A 
ENDBRANCH  20  23
ENDBRANCH  11  12
ENDBRANCH   9  11
ENDBRANCH   8   9
ENDBRANCH   7   8
ENDBRANCH   6   7
ENDBRANCH   5   6
ENDBRANCH   4   5
ENDBRANCH   3   4
ENDBRANCH   2   3
ENDBRANCH   1   2
BRANCH   1  34
ATOM     34  C   UNL A   1      46.933  25.764  24.858  1.00  0.00     0.188 C 
BRANCH  34  35
ATOM     35  O   UNL A   1      48.219  25.545  25.451  1.00  0.00    -0.376 OA
BRANCH  35  36
ATOM     36  C   UNL A   1      48.712  26.548  26.347  1.00  0.00     0.202 C 
BRANCH  36  37
ATOM     37  C   UNL A   1      48.532  27.987  25.861  1.00  0.00     0.261 C 
BRANCH  37  38
ATOM     38  O   UNL A   1      47.772  28.718  26.829  1.00  0.00    -0.460 OA
BRANCH  38  39
ATOM     39  C   UNL A   1      48.154  29.997  27.047  1.00  0.00     0.338 C 
ATOM     40  O   UNL A   1      48.995  30.636  26.441  1.00  0.00    -0.246 OA
BRANCH  39  41
ATOM     41  C   UNL A   1      47.091  30.553  27.902  1.00  0.00     0.060 A 
ATOM     42  C   UNL A   1      47.373  31.563  28.824  1.00  0.00     0.016 A 
ATOM     43  C   UNL A   1      45.902  29.822  27.974  1.00  0.00     0.016 A 
ATOM     44  C   UNL A   1      46.520  31.758  29.900  1.00  0.00     0.010 A 
ATOM     45  C   UNL A   1      45.051  30.015  29.054  1.00  0.00     0.010 A 
ATOM     46  C   UNL A   1      45.393  30.937  30.051  1.00  0.00    -0.014 A 
BRANCH  46  47
ATOM     47  C   UNL A   1      44.531  31.168  31.216  1.00  0.00     0.031 A 
ATOM     48  C   UNL A   1      44.485  30.032  32.188  1.00  0.00     0.074 A 
ATOM     49  C   UNL A   1      43.981  32.365  31.511  1.00  0.00     0.049 A 
ATOM     50  N   UNL A   1      43.465  29.459  32.745  1.00  0.00    -0.248 NA
ATOM     51  C   UNL A   1      45.777  29.396  32.509  1.00  0.00     0.031 C 
ATOM     52  C   UNL A   1      44.193  33.640  30.819  1.00  0.00     0.029 A 
ATOM     53  N   UNL A   1      43.243  32.730  32.602  1.00  0.00    -0.354 N 
ATOM     54  C   UNL A   1      43.996  28.510  33.618  1.00  0.00     0.074 A 
ATOM     55  C   UNL A   1      45.404  28.422  33.333  1.00  0.00     0.031 C 
ATOM     56  C   UNL A   1      43.841  34.651  31.644  1.00  0.00     0.029 A 
ATOM     57  C   UNL A   1      43.296  34.094  32.870  1.00  0.00     0.049 A 
ATOM     58  H   UNL A   1      42.728  32.091  33.145  1.00  0.00     0.167 HD
ATOM     59  C   UNL A   1      43.305  27.976  34.662  1.00  0.00     0.037 A 
ATOM     60  C   UNL A   1      43.058  34.700  34.063  1.00  0.00     0.037 A 
ATOM     61  C   UNL A   1      41.887  28.120  34.523  1.00  0.00     0.049 A 
ATOM     62  C   UNL A   1      42.284  33.754  34.909  1.00  0.00     0.074 A 
ATOM     63  C   UNL A   1      40.960  27.701  33.588  1.00  0.00     0.029 A 
ATOM     64  N   UNL A   1      41.238  29.061  35.284  1.00  0.00    -0.354 N 
ATOM     65  N   UNL A   1      41.058  33.372  34.672  1.00  0.00    -0.248 NA
ATOM     66  C   UNL A   1      43.035  32.899  35.817  1.00  0.00     0.031 C 
ATOM     67  C   UNL A   1      40.004  28.755  33.514  1.00  0.00     0.029 A 
ATOM     68  C   UNL A   1      40.395  29.731  34.432  1.00  0.00     0.049 A 
ATOM     69  H   UNL A   1      41.354  29.223  36.248  1.00  0.00     0.167 HD
ATOM     70  C   UNL A   1      41.018  32.040  35.057  1.00  0.00     0.074 A 
ATOM     71  C   UNL A   1      42.237  31.831  35.833  1.00  0.00     0.031 C 
ATOM     72  C   UNL A   1      40.143  31.153  34.495  1.00  0.00     0.037 A 
BRANCH  59  73
ATOM     73  C   UNL A   1      43.969  27.574  35.951  1.00  0.00     0.058 A 
ATOM     74  C   UNL A   1      43.807  26.278  36.471  1.00  0.00     0.135 A 
ATOM     75  C   UNL A   1      44.565  28.519  36.818  1.00  0.00     0.135 A 
ATOM     76  F   UNL A   1      43.220  25.319  35.739  1.00  0.00    -0.206 F 
ATOM     77  C   UNL A   1      44.184  25.951  37.775  1.00  0.00     0.059 A 
ATOM     78  C   UNL A   1      45.001  28.202  38.097  1.00  0.00     0.059 A 
ATOM     79  F   UNL A   1      44.665  29.814  36.487  1.00  0.00    -0.206 F 
ATOM     80  C   UNL A   1      44.770  26.925  38.583  1.00  0.00     0.060 A 
BRANCH  80  81
ATOM     81  S   UNL A   1      45.155  26.540  40.300  1.00  0.00     0.124 S 
ATOM     82  O   UNL A   1      46.606  26.684  40.309  1.00  0.00    -0.237 OA
ATOM     83  O   UNL A   1      44.405  27.565  41.019  1.00  0.00    -0.237 OA
ATOM     84  O   UNL A   1      44.654  25.178  40.460  1.00  0.00    -0.744 OA
ENDBRANCH  80  81
ENDBRANCH  59  73
BRANCH  60  85
ATOM     85  C   UNL A   1      43.816  35.849  34.637  1.00  0.00     0.058 A 
ATOM     86  C   UNL A   1      43.170  37.036  35.029  1.00  0.00     0.135 A 
ATOM     87  C   UNL A   1      45.159  35.715  35.054  1.00  0.00     0.135 A 
ATOM     88  F   UNL A   1      41.881  37.235  34.716  1.00  0.00    -0.206 F 
ATOM     89  C   UNL A   1      43.808  38.014  35.804  1.00  0.00     0.059 A 
ATOM     90  C   UNL A   1      45.820  36.684  35.804  1.00  0.00     0.059 A 
ATOM     91  F   UNL A   1      45.851  34.588  34.828  1.00  0.00    -0.206 F 
ATOM     92  C   UNL A   1      45.132  37.821  36.199  1.00  0.00     0.060 A 
BRANCH  92  93
ATOM     93  S   UNL A   1      45.917  38.999  37.324  1.00  0.00     0.124 S 
ATOM     94  O   UNL A   1      45.445  38.536  38.624  1.00  0.00    -0.237 OA
ATOM     95  O   UNL A   1      47.334  38.791  37.046  1.00  0.00    -0.237 OA
ATOM     96  O   UNL A   1      45.383  40.289  36.891  1.00  0.00    -0.744 OA
ENDBRANCH  92  93
ENDBRANCH  60  85
BRANCH  72  97
ATOM     97  C   UNL A   1      39.005  31.676  33.660  1.00  0.00     0.058 A 
ATOM     98  C   UNL A   1      39.064  31.867  32.269  1.00  0.00     0.135 A 
ATOM     99  C   UNL A   1      37.748  31.829  34.272  1.00  0.00     0.135 A 
ATOM    100  F   UNL A   1      40.191  31.626  31.582  1.00  0.00    -0.206 F 
ATOM    101  C   UNL A   1      37.939  32.235  31.530  1.00  0.00     0.059 A 
ATOM    102  C   UNL A   1      36.604  32.155  33.547  1.00  0.00     0.059 A 
ATOM    103  F   UNL A   1      37.609  31.602  35.589  1.00  0.00    -0.206 F 
ATOM    104  C   UNL A   1      36.710  32.364  32.176  1.00  0.00     0.060 A 
BRANCH 104 105
ATOM    105  S   UNL A   1      35.244  32.726  31.187  1.00  0.00     0.124 S 
ATOM    106  O   UNL A   1      35.323  31.715  30.138  1.00  0.00    -0.237 OA
ATOM    107  O   UNL A   1      34.167  32.551  32.159  1.00  0.00    -0.237 OA
ATOM    108  O   UNL A   1      35.458  34.101  30.746  1.00  0.00    -0.744 OA
ENDBRANCH 104 105
ENDBRANCH  72  97
ENDBRANCH  46  47
ENDBRANCH  39  41
ENDBRANCH  38  39
ENDBRANCH  37  38
ENDBRANCH  36  37
ENDBRANCH  35  36
ENDBRANCH  34  35
ENDBRANCH   1  34
TORSDOF 25
ENDMDL
