MODEL 1
REMARK VINA RESULT:      -9.2      0.000      0.000
REMARK SMILES Cc1csc(C[C@@H](Cc2ccc(Br)cc2)C(=O)OCCOCCOCCOCCOC(=O)c2ccc(-c3c4nc(c(-c5c(F)cc(S(=O)(=O)[O-])cc5F)c5ccc([nH]5)c(-c5c(F)cc(S(=O)(=O)[O-])cc5F)c5nc(c(-c6c(F)cc(S(=O)(=O)[O-])cc6F)c6ccc3[nH]6)C=C5)C=C4)cc2)n1
REMARK SMILES IDX 25 1 24 2 23 3 22 4 21 5 20 6 19 7 18 8 16 9 17 10 7 11 6 12
REMARK SMILES IDX 5 13 1 14 2 15 3 16 99 17 4 18 8 19 9 20 10 21 15 22 11 23
REMARK SMILES IDX 14 24 12 25 13 26 26 27 27 28 28 29 29 30 30 31 31 32 32 33
REMARK SMILES IDX 33 34 34 35 98 36 35 37 97 38 36 39 37 40 38 41 91 42 39 43
REMARK SMILES IDX 96 44 90 45 92 46 40 47 95 48 89 49 88 50 41 52 75 53 54 54
REMARK SMILES IDX 74 55 55 56 58 57 73 58 93 59 56 60 57 61 72 63 94 64 59 65
REMARK SMILES IDX 42 66 43 67 52 68 44 69 45 70 51 71 53 72 46 73 47 74 48 75
REMARK SMILES IDX 49 76 50 77 76 78 77 79 86 80 78 81 79 82 85 83 87 84 80 85
REMARK SMILES IDX 81 86 82 87 83 88 84 89 60 90 61 91 70 92 62 93 63 94 69 95
REMARK SMILES IDX 71 96 64 97 65 98 66 99 67 100 68 101
REMARK H PARENT 92 51 58 62
REMARK Flexibility Score: inf
ROOT
ATOM      1  C   UNL A   1      34.596  33.883  29.564  1.00  0.00     0.188 C 
ENDROOT
BRANCH   1   2
ATOM      2  O   UNL A   1      33.664  33.105  28.816  1.00  0.00    -0.377 OA
BRANCH   2   3
ATOM      3  C   UNL A   1      34.141  32.341  27.730  1.00  0.00     0.188 C 
BRANCH   3   4
ATOM      4  C   UNL A   1      35.043  31.150  28.070  1.00  0.00     0.188 C 
BRANCH   4   5
ATOM      5  O   UNL A   1      34.577  29.821  27.927  1.00  0.00    -0.376 OA
BRANCH   5   6
ATOM      6  C   UNL A   1      33.365  29.546  27.240  1.00  0.00     0.202 C 
BRANCH   6   7
ATOM      7  C   UNL A   1      33.326  28.813  25.891  1.00  0.00     0.261 C 
BRANCH   7   8
ATOM      8  O   UNL A   1      34.014  27.549  25.795  1.00  0.00    -0.463 OA
BRANCH   8   9
ATOM      9  C   UNL A   1      33.430  26.600  25.028  1.00  0.00     0.309 C 
ATOM     10  O   UNL A   1      34.040  25.889  24.233  1.00  0.00    -0.252 OA
BRANCH   9  11
ATOM     11  C   UNL A   1      31.911  26.557  25.114  1.00  0.00     0.110 C 
BRANCH  11  12
ATOM     12  C   UNL A   1      31.134  26.271  23.813  1.00  0.00     0.083 C 
BRANCH  12  13
ATOM     13  C   UNL A   1      30.461  27.515  23.288  1.00  0.00     0.094 A 
ATOM     14  C   UNL A   1      27.444  29.433  22.951  1.00  0.00     0.067 C 
ATOM     15  C   UNL A   1      28.861  28.999  22.884  1.00  0.00     0.048 A 
ATOM     16  C   UNL A   1      29.939  29.703  22.388  1.00  0.00     0.090 A 
ATOM     17  N   UNL A   1      29.171  27.750  23.382  1.00  0.00    -0.247 NA
ATOM     18  S   UNL A   1      31.373  28.777  22.555  1.00  0.00    -0.127 S 
ENDBRANCH  12  13
ENDBRANCH  11  12
BRANCH  11  19
ATOM     19  C   UNL A   1      31.546  25.650  26.312  1.00  0.00     0.051 C 
BRANCH  19  20
ATOM     20  C   UNL A   1      31.990  24.218  26.126  1.00  0.00    -0.047 A 
ATOM     21  C   UNL A   1      31.298  23.370  25.249  1.00  0.00     0.005 A 
ATOM     22  C   UNL A   1      33.175  23.762  26.717  1.00  0.00     0.005 A 
ATOM     23  C   UNL A   1      31.839  22.139  24.882  1.00  0.00     0.016 A 
ATOM     24  C   UNL A   1      33.714  22.526  26.357  1.00  0.00     0.016 A 
ATOM     25  C   UNL A   1      33.056  21.734  25.420  1.00  0.00     0.017 A 
ATOM     26  Br  UNL A   1      33.843  20.115  24.845  1.00  0.00    -0.051 Br
ENDBRANCH  19  20
ENDBRANCH  11  19
ENDBRANCH   9  11
ENDBRANCH   8   9
ENDBRANCH   7   8
ENDBRANCH   6   7
ENDBRANCH   5   6
ENDBRANCH   4   5
ENDBRANCH   3   4
ENDBRANCH   2   3
ENDBRANCH   1   2
BRANCH   1  27
ATOM     27  C   UNL A   1      34.989  33.419  30.980  1.00  0.00     0.188 C 
BRANCH  27  28
ATOM     28  O   UNL A   1      36.212  33.962  31.456  1.00  0.00    -0.376 OA
BRANCH  28  29
ATOM     29  C   UNL A   1      37.160  33.095  32.065  1.00  0.00     0.202 C 
BRANCH  29  30
ATOM     30  C   UNL A   1      36.674  32.147  33.175  1.00  0.00     0.261 C 
BRANCH  30  31
ATOM     31  O   UNL A   1      37.074  30.771  33.064  1.00  0.00    -0.460 OA
BRANCH  31  32
ATOM     32  C   UNL A   1      37.032  30.199  31.846  1.00  0.00     0.338 C 
ATOM     33  O   UNL A   1      36.032  29.873  31.222  1.00  0.00    -0.246 OA
BRANCH  32  34
ATOM     34  C   UNL A   1      38.393  30.207  31.281  1.00  0.00     0.060 A 
ATOM     35  C   UNL A   1      38.541  30.405  29.903  1.00  0.00     0.016 A 
ATOM     36  C   UNL A   1      39.510  29.975  32.088  1.00  0.00     0.016 A 
ATOM     37  C   UNL A   1      39.799  30.299  29.316  1.00  0.00     0.010 A 
ATOM     38  C   UNL A   1      40.770  29.850  31.496  1.00  0.00     0.010 A 
ATOM     39  C   UNL A   1      40.908  29.958  30.100  1.00  0.00    -0.014 A 
BRANCH  39  40
ATOM     40  C   UNL A   1      42.140  29.486  29.420  1.00  0.00     0.031 A 
ATOM     41  C   UNL A   1      43.301  30.438  29.309  1.00  0.00     0.074 A 
ATOM     42  C   UNL A   1      42.255  28.218  28.989  1.00  0.00     0.049 A 
ATOM     43  N   UNL A   1      44.489  30.247  28.800  1.00  0.00    -0.248 NA
ATOM     44  C   UNL A   1      43.093  31.793  29.850  1.00  0.00     0.031 C 
ATOM     45  C   UNL A   1      41.217  27.194  29.084  1.00  0.00     0.029 A 
ATOM     46  N   UNL A   1      43.309  27.575  28.389  1.00  0.00    -0.354 N 
ATOM     47  C   UNL A   1      45.168  31.450  28.957  1.00  0.00     0.074 A 
ATOM     48  C   UNL A   1      44.247  32.380  29.571  1.00  0.00     0.031 C 
ATOM     49  C   UNL A   1      41.687  26.048  28.562  1.00  0.00     0.029 A 
ATOM     50  C   UNL A   1      43.047  26.264  28.072  1.00  0.00     0.049 A 
ATOM     51  H   UNL A   1      44.171  28.013  28.203  1.00  0.00     0.167 HD
ATOM     52  C   UNL A   1      46.449  31.751  28.634  1.00  0.00     0.037 A 
ATOM     53  C   UNL A   1      43.817  25.349  27.448  1.00  0.00     0.037 A 
ATOM     54  C   UNL A   1      47.359  30.820  28.019  1.00  0.00     0.049 A 
ATOM     55  C   UNL A   1      45.216  25.727  27.031  1.00  0.00     0.074 A 
ATOM     56  C   UNL A   1      48.676  31.021  27.650  1.00  0.00     0.029 A 
ATOM     57  N   UNL A   1      47.042  29.513  27.674  1.00  0.00    -0.354 N 
ATOM     58  N   UNL A   1      45.851  26.864  27.198  1.00  0.00    -0.248 NA
ATOM     59  C   UNL A   1      46.008  24.694  26.350  1.00  0.00     0.031 C 
ATOM     60  C   UNL A   1      49.139  29.855  27.031  1.00  0.00     0.029 A 
ATOM     61  C   UNL A   1      48.133  28.904  27.076  1.00  0.00     0.049 A 
ATOM     62  H   UNL A   1      46.171  29.082  27.831  1.00  0.00     0.167 HD
ATOM     63  C   UNL A   1      47.128  26.669  26.678  1.00  0.00     0.074 A 
ATOM     64  C   UNL A   1      47.176  25.304  26.198  1.00  0.00     0.031 C 
ATOM     65  C   UNL A   1      48.169  27.538  26.612  1.00  0.00     0.037 A 
BRANCH  52  66
ATOM     66  C   UNL A   1      46.927  33.151  28.910  1.00  0.00     0.058 A 
ATOM     67  C   UNL A   1      46.801  34.181  27.963  1.00  0.00     0.135 A 
ATOM     68  C   UNL A   1      47.504  33.472  30.150  1.00  0.00     0.135 A 
ATOM     69  F   UNL A   1      46.276  33.926  26.754  1.00  0.00    -0.206 F 
ATOM     70  C   UNL A   1      47.259  35.469  28.222  1.00  0.00     0.059 A 
ATOM     71  C   UNL A   1      47.940  34.761  30.442  1.00  0.00     0.059 A 
ATOM     72  F   UNL A   1      47.654  32.528  31.091  1.00  0.00    -0.206 F 
ATOM     73  C   UNL A   1      47.829  35.749  29.466  1.00  0.00     0.060 A 
BRANCH  73  74
ATOM     74  S   UNL A   1      48.422  37.424  29.785  1.00  0.00     0.124 S 
ATOM     75  O   UNL A   1      47.665  38.193  28.801  1.00  0.00    -0.237 OA
ATOM     76  O   UNL A   1      48.039  37.629  31.178  1.00  0.00    -0.237 OA
ATOM     77  O   UNL A   1      49.856  37.331  29.538  1.00  0.00    -0.744 OA
ENDBRANCH  73  74
ENDBRANCH  52  66
BRANCH  53  78
ATOM     78  C   UNL A   1      43.283  23.985  27.184  1.00  0.00     0.058 A 
ATOM     79  C   UNL A   1      43.455  22.944  28.108  1.00  0.00     0.135 A 
ATOM     80  C   UNL A   1      42.586  23.696  25.998  1.00  0.00     0.135 A 
ATOM     81  F   UNL A   1      44.124  23.165  29.250  1.00  0.00    -0.206 F 
ATOM     82  C   UNL A   1      42.970  21.663  27.863  1.00  0.00     0.059 A 
ATOM     83  C   UNL A   1      42.066  22.431  25.745  1.00  0.00     0.059 A 
ATOM     84  F   UNL A   1      42.389  24.657  25.083  1.00  0.00    -0.206 F 
ATOM     85  C   UNL A   1      42.271  21.418  26.679  1.00  0.00     0.060 A 
BRANCH  85  86
ATOM     86  S   UNL A   1      41.602  19.764  26.398  1.00  0.00     0.124 S 
ATOM     87  O   UNL A   1      40.201  20.056  26.116  1.00  0.00    -0.237 OA
ATOM     88  O   UNL A   1      42.398  19.303  25.264  1.00  0.00    -0.237 OA
ATOM     89  O   UNL A   1      41.863  19.076  27.658  1.00  0.00    -0.744 OA
ENDBRANCH  85  86
ENDBRANCH  53  78
BRANCH  65  90
ATOM     90  C   UNL A   1      49.470  27.027  26.050  1.00  0.00     0.058 A 
ATOM     91  C   UNL A   1      49.810  27.177  24.697  1.00  0.00     0.135 A 
ATOM     92  C   UNL A   1      50.412  26.418  26.896  1.00  0.00     0.135 A 
ATOM     93  F   UNL A   1      48.947  27.750  23.843  1.00  0.00    -0.206 F 
ATOM     94  C   UNL A   1      51.023  26.712  24.195  1.00  0.00     0.059 A 
ATOM     95  C   UNL A   1      51.644  25.976  26.424  1.00  0.00     0.059 A 
ATOM     96  F   UNL A   1      50.147  26.261  28.204  1.00  0.00    -0.206 F 
ATOM     97  C   UNL A   1      51.933  26.113  25.068  1.00  0.00     0.060 A 
BRANCH  97  98
ATOM     98  S   UNL A   1      53.510  25.531  24.409  1.00  0.00     0.124 S 
ATOM     99  O   UNL A   1      54.462  26.324  25.181  1.00  0.00    -0.237 OA
ATOM    100  O   UNL A   1      53.472  24.106  24.720  1.00  0.00    -0.237 OA
ATOM    101  O   UNL A   1      53.428  25.860  22.989  1.00  0.00    -0.744 OA
ENDBRANCH  97  98
ENDBRANCH  65  90
ENDBRANCH  39  40
ENDBRANCH  32  34
ENDBRANCH  31  32
ENDBRANCH  30  31
ENDBRANCH  29  30
ENDBRANCH  28  29
ENDBRANCH  27  28
ENDBRANCH   1  27
TORSDOF 27
ENDMDL
MODEL 2
REMARK VINA RESULT:      -8.8      2.672      9.231
REMARK SMILES Cc1csc(C[C@@H](Cc2ccc(Br)cc2)C(=O)OCCOCCOCCOCCOC(=O)c2ccc(-c3c4nc(c(-c5c(F)cc(S(=O)(=O)[O-])cc5F)c5ccc([nH]5)c(-c5c(F)cc(S(=O)(=O)[O-])cc5F)c5nc(c(-c6c(F)cc(S(=O)(=O)[O-])cc6F)c6ccc3[nH]6)C=C5)C=C4)cc2)n1
REMARK SMILES IDX 25 1 24 2 23 3 22 4 21 5 20 6 19 7 18 8 16 9 17 10 7 11 6 12
REMARK SMILES IDX 5 13 1 14 2 15 3 16 99 17 4 18 8 19 9 20 10 21 15 22 11 23
REMARK SMILES IDX 14 24 12 25 13 26 26 27 27 28 28 29 29 30 30 31 31 32 32 33
REMARK SMILES IDX 33 34 34 35 98 36 35 37 97 38 36 39 37 40 38 41 91 42 39 43
REMARK SMILES IDX 96 44 90 45 92 46 40 47 95 48 89 49 88 50 41 52 75 53 54 54
REMARK SMILES IDX 74 55 55 56 58 57 73 58 93 59 56 60 57 61 72 63 94 64 59 65
REMARK SMILES IDX 42 66 43 67 52 68 44 69 45 70 51 71 53 72 46 73 47 74 48 75
REMARK SMILES IDX 49 76 50 77 76 78 77 79 86 80 78 81 79 82 85 83 87 84 80 85
REMARK SMILES IDX 81 86 82 87 83 88 84 89 60 90 61 91 70 92 62 93 63 94 69 95
REMARK SMILES IDX 71 96 64 97 65 98 66 99 67 100 68 101
REMARK H PARENT 92 51 58 62
REMARK Flexibility Score: inf
ROOT
ATOM      1  C   UNL A   1      38.123  22.169  25.980  1.00  0.00     0.188 C 
ENDROOT
BRANCH   1   2
ATOM      2  O   UNL A   1      37.698  22.429  24.644  1.00  0.00    -0.377 OA
BRANCH   2   3
ATOM      3  C   UNL A   1      36.721  23.425  24.428  1.00  0.00     0.188 C 
BRANCH   3   4
ATOM      4  C   UNL A   1      35.485  23.013  23.622  1.00  0.00     0.188 C 
BRANCH   4   5
ATOM      5  O   UNL A   1      34.921  23.885  22.661  1.00  0.00    -0.376 OA
BRANCH   5   6
ATOM      6  C   UNL A   1      33.545  24.233  22.713  1.00  0.00     0.202 C 
BRANCH   6   7
ATOM      7  C   UNL A   1      33.003  25.555  22.150  1.00  0.00     0.261 C 
BRANCH   7   8
ATOM      8  O   UNL A   1      32.841  26.656  23.067  1.00  0.00    -0.463 OA
BRANCH   8   9
ATOM      9  C   UNL A   1      31.615  26.806  23.620  1.00  0.00     0.309 C 
ATOM     10  O   UNL A   1      30.572  26.858  22.973  1.00  0.00    -0.252 OA
BRANCH   9  11
ATOM     11  C   UNL A   1      31.619  27.050  25.123  1.00  0.00     0.110 C 
BRANCH  11  12
ATOM     12  C   UNL A   1      30.833  26.060  26.004  1.00  0.00     0.083 C 
BRANCH  12  13
ATOM     13  C   UNL A   1      31.474  24.695  26.008  1.00  0.00     0.094 A 
ATOM     14  C   UNL A   1      33.884  22.468  27.466  1.00  0.00     0.067 C 
ATOM     15  C   UNL A   1      32.795  23.021  26.625  1.00  0.00     0.048 A 
ATOM     16  C   UNL A   1      32.034  22.359  25.684  1.00  0.00     0.090 A 
ATOM     17  N   UNL A   1      32.474  24.353  26.790  1.00  0.00    -0.247 NA
ATOM     18  S   UNL A   1      30.887  23.433  24.996  1.00  0.00    -0.127 S 
ENDBRANCH  12  13
ENDBRANCH  11  12
BRANCH  11  19
ATOM     19  C   UNL A   1      33.089  27.283  25.543  1.00  0.00     0.051 C 
BRANCH  19  20
ATOM     20  C   UNL A   1      33.275  28.528  26.379  1.00  0.00    -0.047 A 
ATOM     21  C   UNL A   1      34.507  28.791  26.994  1.00  0.00     0.005 A 
ATOM     22  C   UNL A   1      32.267  29.500  26.434  1.00  0.00     0.005 A 
ATOM     23  C   UNL A   1      34.767  30.042  27.551  1.00  0.00     0.016 A 
ATOM     24  C   UNL A   1      32.522  30.750  26.999  1.00  0.00     0.016 A 
ATOM     25  C   UNL A   1      33.781  31.023  27.529  1.00  0.00     0.017 A 
ATOM     26  Br  UNL A   1      34.164  32.752  28.188  1.00  0.00    -0.051 Br
ENDBRANCH  19  20
ENDBRANCH  11  19
ENDBRANCH   9  11
ENDBRANCH   8   9
ENDBRANCH   7   8
ENDBRANCH   6   7
ENDBRANCH   5   6
ENDBRANCH   4   5
ENDBRANCH   3   4
ENDBRANCH   2   3
ENDBRANCH   1   2
BRANCH   1  27
ATOM     27  C   UNL A   1      39.629  22.017  26.268  1.00  0.00     0.188 C 
BRANCH  27  28
ATOM     28  O   UNL A   1      39.993  20.768  26.841  1.00  0.00    -0.376 OA
BRANCH  28  29
ATOM     29  C   UNL A   1      40.698  19.825  26.046  1.00  0.00     0.202 C 
BRANCH  29  30
ATOM     30  C   UNL A   1      42.229  19.756  26.182  1.00  0.00     0.261 C 
BRANCH  30  31
ATOM     31  O   UNL A   1      42.958  19.326  25.021  1.00  0.00    -0.460 OA
BRANCH  31  32
ATOM     32  C   UNL A   1      43.953  20.115  24.573  1.00  0.00     0.338 C 
ATOM     33  O   UNL A   1      44.668  19.916  23.602  1.00  0.00    -0.246 OA
BRANCH  32  34
ATOM     34  C   UNL A   1      43.919  21.381  25.330  1.00  0.00     0.060 A 
ATOM     35  C   UNL A   1      43.423  22.524  24.693  1.00  0.00     0.016 A 
ATOM     36  C   UNL A   1      44.414  21.453  26.635  1.00  0.00     0.016 A 
ATOM     37  C   UNL A   1      43.488  23.760  25.332  1.00  0.00     0.010 A 
ATOM     38  C   UNL A   1      44.495  22.696  27.268  1.00  0.00     0.010 A 
ATOM     39  C   UNL A   1      44.082  23.861  26.595  1.00  0.00    -0.014 A 
BRANCH  39  40
ATOM     40  C   UNL A   1      44.479  25.203  27.088  1.00  0.00     0.031 A 
ATOM     41  C   UNL A   1      45.836  25.730  26.703  1.00  0.00     0.074 A 
ATOM     42  C   UNL A   1      43.623  25.970  27.785  1.00  0.00     0.049 A 
ATOM     43  N   UNL A   1      46.389  26.883  26.974  1.00  0.00    -0.248 NA
ATOM     44  C   UNL A   1      46.686  24.833  25.900  1.00  0.00     0.031 C 
ATOM     45  C   UNL A   1      42.268  25.586  28.176  1.00  0.00     0.029 A 
ATOM     46  N   UNL A   1      43.770  27.240  28.284  1.00  0.00    -0.354 N 
ATOM     47  C   UNL A   1      47.645  26.851  26.378  1.00  0.00     0.074 A 
ATOM     48  C   UNL A   1      47.791  25.549  25.767  1.00  0.00     0.031 C 
ATOM     49  C   UNL A   1      41.705  26.602  28.852  1.00  0.00     0.029 A 
ATOM     50  C   UNL A   1      42.668  27.696  28.967  1.00  0.00     0.049 A 
ATOM     51  H   UNL A   1      44.589  27.774  28.163  1.00  0.00     0.167 HD
ATOM     52  C   UNL A   1      48.587  27.823  26.331  1.00  0.00     0.037 A 
ATOM     53  C   UNL A   1      42.468  28.861  29.616  1.00  0.00     0.037 A 
ATOM     54  C   UNL A   1      48.435  29.116  26.946  1.00  0.00     0.049 A 
ATOM     55  C   UNL A   1      43.559  29.903  29.612  1.00  0.00     0.074 A 
ATOM     56  C   UNL A   1      49.326  30.173  26.959  1.00  0.00     0.029 A 
ATOM     57  N   UNL A   1      47.321  29.525  27.666  1.00  0.00    -0.354 N 
ATOM     58  N   UNL A   1      44.736  29.865  29.034  1.00  0.00    -0.248 NA
ATOM     59  C   UNL A   1      43.289  31.149  30.340  1.00  0.00     0.031 C 
ATOM     60  C   UNL A   1      48.776  31.200  27.733  1.00  0.00     0.029 A 
ATOM     61  C   UNL A   1      47.512  30.810  28.146  1.00  0.00     0.049 A 
ATOM     62  H   UNL A   1      46.513  28.982  27.814  1.00  0.00     0.167 HD
ATOM     63  C   UNL A   1      45.331  31.097  29.296  1.00  0.00     0.074 A 
ATOM     64  C   UNL A   1      44.379  31.857  30.080  1.00  0.00     0.031 C 
ATOM     65  C   UNL A   1      46.549  31.559  28.916  1.00  0.00     0.037 A 
BRANCH  52  66
ATOM     66  C   UNL A   1      49.875  27.511  25.617  1.00  0.00     0.058 A 
ATOM     67  C   UNL A   1      49.961  27.482  24.215  1.00  0.00     0.135 A 
ATOM     68  C   UNL A   1      51.047  27.254  26.348  1.00  0.00     0.135 A 
ATOM     69  F   UNL A   1      48.868  27.699  23.466  1.00  0.00    -0.206 F 
ATOM     70  C   UNL A   1      51.153  27.178  23.565  1.00  0.00     0.059 A 
ATOM     71  C   UNL A   1      52.257  26.980  25.717  1.00  0.00     0.059 A 
ATOM     72  F   UNL A   1      51.023  27.264  27.689  1.00  0.00    -0.206 F 
ATOM     73  C   UNL A   1      52.296  26.927  24.326  1.00  0.00     0.060 A 
BRANCH  73  74
ATOM     74  S   UNL A   1      53.834  26.531  23.467  1.00  0.00     0.124 S 
ATOM     75  O   UNL A   1      54.590  27.769  23.639  1.00  0.00    -0.237 OA
ATOM     76  O   UNL A   1      54.324  25.381  24.219  1.00  0.00    -0.237 OA
ATOM     77  O   UNL A   1      53.400  26.248  22.103  1.00  0.00    -0.744 OA
ENDBRANCH  73  74
ENDBRANCH  52  66
BRANCH  53  78
ATOM     78  C   UNL A   1      41.180  29.106  30.321  1.00  0.00     0.058 A 
ATOM     79  C   UNL A   1      40.045  29.554  29.630  1.00  0.00     0.135 A 
ATOM     80  C   UNL A   1      41.059  28.894  31.705  1.00  0.00     0.135 A 
ATOM     81  F   UNL A   1      40.111  29.783  28.310  1.00  0.00    -0.206 F 
ATOM     82  C   UNL A   1      38.841  29.797  30.283  1.00  0.00     0.059 A 
ATOM     83  C   UNL A   1      39.858  29.102  32.375  1.00  0.00     0.059 A 
ATOM     84  F   UNL A   1      42.113  28.461  32.413  1.00  0.00    -0.206 F 
ATOM     85  C   UNL A   1      38.756  29.562  31.658  1.00  0.00     0.060 A 
BRANCH  85  86
ATOM     86  S   UNL A   1      37.174  29.833  32.484  1.00  0.00     0.124 S 
ATOM     87  O   UNL A   1      36.258  29.905  31.352  1.00  0.00    -0.237 OA
ATOM     88  O   UNL A   1      37.060  28.642  33.322  1.00  0.00    -0.237 OA
ATOM     89  O   UNL A   1      37.381  31.083  33.209  1.00  0.00    -0.744 OA
ENDBRANCH  85  86
ENDBRANCH  53  78
BRANCH  65  90
ATOM     90  C   UNL A   1      46.907  32.974  29.291  1.00  0.00     0.058 A 
ATOM     91  C   UNL A   1      47.606  33.281  30.469  1.00  0.00     0.135 A 
ATOM     92  C   UNL A   1      46.583  34.035  28.429  1.00  0.00     0.135 A 
ATOM     93  F   UNL A   1      47.939  32.306  31.330  1.00  0.00    -0.206 F 
ATOM     94  C   UNL A   1      47.941  34.592  30.796  1.00  0.00     0.059 A 
ATOM     95  C   UNL A   1      46.938  35.349  28.719  1.00  0.00     0.059 A 
ATOM     96  F   UNL A   1      45.928  33.799  27.281  1.00  0.00    -0.206 F 
ATOM     97  C   UNL A   1      47.603  35.619  29.913  1.00  0.00     0.060 A 
BRANCH  97  98
ATOM     98  S   UNL A   1      48.061  37.313  30.339  1.00  0.00     0.124 S 
ATOM     99  O   UNL A   1      46.755  37.922  30.567  1.00  0.00    -0.237 OA
ATOM    100  O   UNL A   1      48.889  37.123  31.526  1.00  0.00    -0.237 OA
ATOM    101  O   UNL A   1      48.772  37.782  29.153  1.00  0.00    -0.744 OA
ENDBRANCH  97  98
ENDBRANCH  65  90
ENDBRANCH  39  40
ENDBRANCH  32  34
ENDBRANCH  31  32
ENDBRANCH  30  31
ENDBRANCH  29  30
ENDBRANCH  28  29
ENDBRANCH  27  28
ENDBRANCH   1  27
TORSDOF 27
ENDMDL
MODEL 3
REMARK VINA RESULT:      -8.2      5.319     12.078
REMARK SMILES Cc1csc(C[C@@H](Cc2ccc(Br)cc2)C(=O)OCCOCCOCCOCCOC(=O)c2ccc(-c3c4nc(c(-c5c(F)cc(S(=O)(=O)[O-])cc5F)c5ccc([nH]5)c(-c5c(F)cc(S(=O)(=O)[O-])cc5F)c5nc(c(-c6c(F)cc(S(=O)(=O)[O-])cc6F)c6ccc3[nH]6)C=C5)C=C4)cc2)n1
REMARK SMILES IDX 25 1 24 2 23 3 22 4 21 5 20 6 19 7 18 8 16 9 17 10 7 11 6 12
REMARK SMILES IDX 5 13 1 14 2 15 3 16 99 17 4 18 8 19 9 20 10 21 15 22 11 23
REMARK SMILES IDX 14 24 12 25 13 26 26 27 27 28 28 29 29 30 30 31 31 32 32 33
REMARK SMILES IDX 33 34 34 35 98 36 35 37 97 38 36 39 37 40 38 41 91 42 39 43
REMARK SMILES IDX 96 44 90 45 92 46 40 47 95 48 89 49 88 50 41 52 75 53 54 54
REMARK SMILES IDX 74 55 55 56 58 57 73 58 93 59 56 60 57 61 72 63 94 64 59 65
REMARK SMILES IDX 42 66 43 67 52 68 44 69 45 70 51 71 53 72 46 73 47 74 48 75
REMARK SMILES IDX 49 76 50 77 76 78 77 79 86 80 78 81 79 82 85 83 87 84 80 85
REMARK SMILES IDX 81 86 82 87 83 88 84 89 60 90 61 91 70 92 62 93 63 94 69 95
REMARK SMILES IDX 71 96 64 97 65 98 66 99 67 100 68 101
REMARK H PARENT 92 51 58 62
REMARK Flexibility Score: inf
ROOT
ATOM      1  C   UNL A   1      43.425  21.565  25.573  1.00  0.00     0.188 C 
ENDROOT
BRANCH   1   2
ATOM      2  O   UNL A   1      42.692  20.817  26.541  1.00  0.00    -0.377 OA
BRANCH   2   3
ATOM      3  C   UNL A   1      41.526  21.390  27.095  1.00  0.00     0.188 C 
BRANCH   3   4
ATOM      4  C   UNL A   1      40.186  20.840  26.595  1.00  0.00     0.188 C 
BRANCH   4   5
ATOM      5  O   UNL A   1      39.157  21.713  26.168  1.00  0.00    -0.376 OA
BRANCH   5   6
ATOM      6  C   UNL A   1      39.237  23.109  26.418  1.00  0.00     0.202 C 
BRANCH   6   7
ATOM      7  C   UNL A   1      38.000  24.018  26.442  1.00  0.00     0.261 C 
BRANCH   7   8
ATOM      8  O   UNL A   1      36.706  23.392  26.325  1.00  0.00    -0.463 OA
BRANCH   8   9
ATOM      9  C   UNL A   1      36.070  23.537  25.139  1.00  0.00     0.309 C 
ATOM     10  O   UNL A   1      36.641  23.545  24.051  1.00  0.00    -0.252 OA
BRANCH   9  11
ATOM     11  C   UNL A   1      34.580  23.831  25.247  1.00  0.00     0.110 C 
BRANCH  11  12
ATOM     12  C   UNL A   1      33.738  22.910  26.151  1.00  0.00     0.083 C 
BRANCH  12  13
ATOM     13  C   UNL A   1      33.317  21.658  25.424  1.00  0.00     0.094 A 
ATOM     14  C   UNL A   1      32.642  18.134  25.568  1.00  0.00     0.067 C 
ATOM     15  C   UNL A   1      32.782  19.531  25.088  1.00  0.00     0.048 A 
ATOM     16  C   UNL A   1      32.460  20.033  23.843  1.00  0.00     0.090 A 
ATOM     17  N   UNL A   1      33.281  20.464  25.973  1.00  0.00    -0.247 NA
ATOM     18  S   UNL A   1      32.787  21.715  23.788  1.00  0.00    -0.127 S 
ENDBRANCH  12  13
ENDBRANCH  11  12
BRANCH  11  19
ATOM     19  C   UNL A   1      34.434  25.344  25.529  1.00  0.00     0.051 C 
BRANCH  19  20
ATOM     20  C   UNL A   1      33.129  25.916  25.026  1.00  0.00    -0.047 A 
ATOM     21  C   UNL A   1      32.444  26.884  25.774  1.00  0.00     0.005 A 
ATOM     22  C   UNL A   1      32.660  25.590  23.747  1.00  0.00     0.005 A 
ATOM     23  C   UNL A   1      31.385  27.594  25.212  1.00  0.00     0.016 A 
ATOM     24  C   UNL A   1      31.594  26.294  23.185  1.00  0.00     0.016 A 
ATOM     25  C   UNL A   1      30.980  27.311  23.911  1.00  0.00     0.017 A 
ATOM     26  Br  UNL A   1      29.614  28.342  23.109  1.00  0.00    -0.051 Br
ENDBRANCH  19  20
ENDBRANCH  11  19
ENDBRANCH   9  11
ENDBRANCH   8   9
ENDBRANCH   7   8
ENDBRANCH   6   7
ENDBRANCH   5   6
ENDBRANCH   4   5
ENDBRANCH   3   4
ENDBRANCH   2   3
ENDBRANCH   1   2
BRANCH   1  27
ATOM     27  C   UNL A   1      42.984  23.006  25.254  1.00  0.00     0.188 C 
BRANCH  27  28
ATOM     28  O   UNL A   1      43.953  23.774  24.553  1.00  0.00    -0.376 OA
BRANCH  28  29
ATOM     29  C   UNL A   1      45.164  23.150  24.146  1.00  0.00     0.202 C 
BRANCH  29  30
ATOM     30  C   UNL A   1      46.495  23.772  24.604  1.00  0.00     0.261 C 
BRANCH  30  31
ATOM     31  O   UNL A   1      46.405  24.945  25.431  1.00  0.00    -0.460 OA
BRANCH  31  32
ATOM     32  C   UNL A   1      46.803  26.118  24.907  1.00  0.00     0.338 C 
ATOM     33  O   UNL A   1      47.355  26.292  23.829  1.00  0.00    -0.246 OA
BRANCH  32  34
ATOM     34  C   UNL A   1      46.283  27.207  25.754  1.00  0.00     0.060 A 
ATOM     35  C   UNL A   1      47.199  28.008  26.446  1.00  0.00     0.016 A 
ATOM     36  C   UNL A   1      44.908  27.410  25.903  1.00  0.00     0.016 A 
ATOM     37  C   UNL A   1      46.743  28.966  27.348  1.00  0.00     0.010 A 
ATOM     38  C   UNL A   1      44.452  28.359  26.822  1.00  0.00     0.010 A 
ATOM     39  C   UNL A   1      45.370  29.101  27.587  1.00  0.00    -0.014 A 
BRANCH  39  40
ATOM     40  C   UNL A   1      44.929  29.840  28.795  1.00  0.00     0.031 A 
ATOM     41  C   UNL A   1      44.933  29.113  30.114  1.00  0.00     0.074 A 
ATOM     42  C   UNL A   1      44.616  31.146  28.739  1.00  0.00     0.049 A 
ATOM     43  N   UNL A   1      44.633  29.552  31.308  1.00  0.00    -0.248 NA
ATOM     44  C   UNL A   1      45.333  27.695  30.082  1.00  0.00     0.031 C 
ATOM     45  C   UNL A   1      44.621  31.965  27.528  1.00  0.00     0.029 A 
ATOM     46  N   UNL A   1      44.238  32.014  29.732  1.00  0.00    -0.354 N 
ATOM     47  C   UNL A   1      44.807  28.472  32.166  1.00  0.00     0.074 A 
ATOM     48  C   UNL A   1      45.198  27.343  31.351  1.00  0.00     0.031 C 
ATOM     49  C   UNL A   1      44.265  33.221  27.851  1.00  0.00     0.029 A 
ATOM     50  C   UNL A   1      43.980  33.287  29.283  1.00  0.00     0.049 A 
ATOM     51  H   UNL A   1      44.159  31.749  30.677  1.00  0.00     0.167 HD
ATOM     52  C   UNL A   1      44.669  28.426  33.512  1.00  0.00     0.037 A 
ATOM     53  C   UNL A   1      43.555  34.377  29.954  1.00  0.00     0.037 A 
ATOM     54  C   UNL A   1      44.275  29.553  34.316  1.00  0.00     0.049 A 
ATOM     55  C   UNL A   1      43.337  34.284  31.445  1.00  0.00     0.074 A 
ATOM     56  C   UNL A   1      44.104  29.615  35.686  1.00  0.00     0.029 A 
ATOM     57  N   UNL A   1      43.981  30.816  33.819  1.00  0.00    -0.354 N 
ATOM     58  N   UNL A   1      43.518  33.260  32.245  1.00  0.00    -0.248 NA
ATOM     59  C   UNL A   1      42.868  35.499  32.124  1.00  0.00     0.031 C 
ATOM     60  C   UNL A   1      43.653  30.899  36.013  1.00  0.00     0.029 A 
ATOM     61  C   UNL A   1      43.609  31.657  34.854  1.00  0.00     0.049 A 
ATOM     62  H   UNL A   1      44.030  31.075  32.870  1.00  0.00     0.167 HD
ATOM     63  C   UNL A   1      43.222  33.719  33.526  1.00  0.00     0.074 A 
ATOM     64  C   UNL A   1      42.857  35.114  33.392  1.00  0.00     0.031 C 
ATOM     65  C   UNL A   1      43.258  33.049  34.706  1.00  0.00     0.037 A 
BRANCH  52  66
ATOM     66  C   UNL A   1      44.914  27.105  34.193  1.00  0.00     0.058 A 
ATOM     67  C   UNL A   1      46.185  26.735  34.664  1.00  0.00     0.135 A 
ATOM     68  C   UNL A   1      43.856  26.203  34.393  1.00  0.00     0.135 A 
ATOM     69  F   UNL A   1      47.237  27.550  34.481  1.00  0.00    -0.206 F 
ATOM     70  C   UNL A   1      46.405  25.507  35.279  1.00  0.00     0.059 A 
ATOM     71  C   UNL A   1      44.047  24.983  35.035  1.00  0.00     0.059 A 
ATOM     72  F   UNL A   1      42.622  26.501  33.960  1.00  0.00    -0.206 F 
ATOM     73  C   UNL A   1      45.328  24.636  35.458  1.00  0.00     0.060 A 
BRANCH  73  74
ATOM     74  S   UNL A   1      45.630  23.044  36.256  1.00  0.00     0.124 S 
ATOM     75  O   UNL A   1      47.050  22.846  35.980  1.00  0.00    -0.237 OA
ATOM     76  O   UNL A   1      45.288  23.323  37.647  1.00  0.00    -0.237 OA
ATOM     77  O   UNL A   1      44.724  22.137  35.559  1.00  0.00    -0.744 OA
ENDBRANCH  73  74
ENDBRANCH  52  66
BRANCH  53  78
ATOM     78  C   UNL A   1      43.310  35.651  29.225  1.00  0.00     0.058 A 
ATOM     79  C   UNL A   1      42.058  35.939  28.663  1.00  0.00     0.135 A 
ATOM     80  C   UNL A   1      44.327  36.609  29.077  1.00  0.00     0.135 A 
ATOM     81  F   UNL A   1      41.057  35.052  28.765  1.00  0.00    -0.206 F 
ATOM     82  C   UNL A   1      41.825  37.122  27.968  1.00  0.00     0.059 A 
ATOM     83  C   UNL A   1      44.110  37.811  28.414  1.00  0.00     0.059 A 
ATOM     84  F   UNL A   1      45.542  36.385  29.600  1.00  0.00    -0.206 F 
ATOM     85  C   UNL A   1      42.857  38.056  27.854  1.00  0.00     0.060 A 
BRANCH  85  86
ATOM     86  S   UNL A   1      42.526  39.610  26.996  1.00  0.00     0.124 S 
ATOM     87  O   UNL A   1      43.707  39.737  26.149  1.00  0.00    -0.237 OA
ATOM     88  O   UNL A   1      41.274  39.314  26.304  1.00  0.00    -0.237 OA
ATOM     89  O   UNL A   1      42.420  40.579  28.082  1.00  0.00    -0.744 OA
ENDBRANCH  85  86
ENDBRANCH  53  78
BRANCH  65  90
ATOM     90  C   UNL A   1      42.947  33.826  35.959  1.00  0.00     0.058 A 
ATOM     91  C   UNL A   1      43.943  34.488  36.694  1.00  0.00     0.135 A 
ATOM     92  C   UNL A   1      41.620  33.946  36.404  1.00  0.00     0.135 A 
ATOM     93  F   UNL A   1      45.228  34.406  36.316  1.00  0.00    -0.206 F 
ATOM     94  C   UNL A   1      43.639  35.213  37.844  1.00  0.00     0.059 A 
ATOM     95  C   UNL A   1      41.288  34.693  37.530  1.00  0.00     0.059 A 
ATOM     96  F   UNL A   1      40.623  33.346  35.732  1.00  0.00    -0.206 F 
ATOM     97  C   UNL A   1      42.307  35.309  38.252  1.00  0.00     0.060 A 
BRANCH  97  98
ATOM     98  S   UNL A   1      41.924  36.269  39.733  1.00  0.00     0.124 S 
ATOM     99  O   UNL A   1      42.729  37.468  39.523  1.00  0.00    -0.237 OA
ATOM    100  O   UNL A   1      40.479  36.448  39.624  1.00  0.00    -0.237 OA
ATOM    101  O   UNL A   1      42.361  35.402  40.823  1.00  0.00    -0.744 OA
ENDBRANCH  97  98
ENDBRANCH  65  90
ENDBRANCH  39  40
ENDBRANCH  32  34
ENDBRANCH  31  32
ENDBRANCH  30  31
ENDBRANCH  29  30
ENDBRANCH  28  29
ENDBRANCH  27  28
ENDBRANCH   1  27
TORSDOF 27
ENDMDL
