MODEL 1
REMARK VINA RESULT:      -8.8      0.000      0.000
REMARK SMILES C[C@H](CCC(=O)OCCOCCOCCOCCOC(=O)c1ccc(-c2c3nc(c(-c4c(F)cc(S(=O)(=O)[O-])cc4F)c4ccc([nH]4)c(-c4c(F)cc(S(=O)(=O)[O-])cc4F)c4nc(c(-c5c(F)cc(S(=O)(=O)[O-])cc5F)c5ccc2[nH]5)C=C4)C=C3)cc1)NC(=O)OC(C)(C)C
REMARK SMILES IDX 12 1 11 2 10 3 9 4 8 5 7 6 5 7 6 8 4 9 3 10 2 11 1 12 88 13
REMARK SMILES IDX 89 14 90 16 91 17 92 18 93 19 94 20 95 21 13 22 14 23 15 24
REMARK SMILES IDX 16 25 17 26 18 27 19 28 20 29 21 30 22 31 23 32 87 33 24 34
REMARK SMILES IDX 86 35 25 36 26 37 27 38 80 39 28 40 85 41 79 42 81 43 29 44
REMARK SMILES IDX 84 45 78 46 77 47 30 49 64 50 43 51 63 52 44 53 47 54 62 55
REMARK SMILES IDX 82 56 45 57 46 58 61 60 83 61 48 62 31 63 32 64 41 65 33 66
REMARK SMILES IDX 34 67 40 68 42 69 35 70 36 71 37 72 38 73 39 74 65 75 66 76
REMARK SMILES IDX 75 77 67 78 68 79 74 80 76 81 69 82 70 83 71 84 72 85 73 86
REMARK SMILES IDX 49 87 50 88 59 89 51 90 52 91 58 92 60 93 53 94 54 95 55 96
REMARK SMILES IDX 56 97 57 98
REMARK H PARENT 88 15 81 48 47 59
REMARK Flexibility Score: inf
ROOT
ATOM      1  C   UNL A   1      39.479  21.983  26.524  1.00  0.00     0.188 C 
ENDROOT
BRANCH   1   2
ATOM      2  C   UNL A   1      38.173  22.629  26.053  1.00  0.00     0.188 C 
BRANCH   2   3
ATOM      3  O   UNL A   1      37.547  21.947  24.995  1.00  0.00    -0.376 OA
BRANCH   3   4
ATOM      4  C   UNL A   1      36.435  21.098  25.178  1.00  0.00     0.202 C 
BRANCH   4   5
ATOM      5  C   UNL A   1      34.990  21.493  24.831  1.00  0.00     0.261 C 
BRANCH   5   6
ATOM      6  O   UNL A   1      34.734  22.880  24.573  1.00  0.00    -0.463 OA
BRANCH   6   7
ATOM      7  C   UNL A   1      34.823  23.279  23.286  1.00  0.00     0.305 C 
ATOM      8  O   UNL A   1      35.838  23.177  22.603  1.00  0.00    -0.252 OA
BRANCH   7   9
ATOM      9  C   UNL A   1      33.529  23.796  22.682  1.00  0.00     0.125 C 
BRANCH   9  10
ATOM     10  C   UNL A   1      33.348  25.189  22.064  1.00  0.00     0.036 C 
BRANCH  10  11
ATOM     11  C   UNL A   1      32.981  26.385  22.945  1.00  0.00     0.083 C 
ATOM     12  C   UNL A   1      34.121  27.144  23.608  1.00  0.00     0.031 C 
BRANCH  11  13
ATOM     13  N   UNL A   1      32.076  27.274  22.250  1.00  0.00    -0.319 N 
ATOM     14  C   UNL A   1      30.840  27.628  22.693  1.00  0.00     0.407 C 
ATOM     15  H   UNL A   1      32.378  27.652  21.393  1.00  0.00     0.167 HD
ATOM     16  O   UNL A   1      30.071  28.263  21.981  1.00  0.00    -0.225 OA
BRANCH  14  17
ATOM     17  O   UNL A   1      30.606  27.193  23.947  1.00  0.00    -0.444 OA
BRANCH  17  18
ATOM     18  C   UNL A   1      29.561  26.239  24.229  1.00  0.00     0.106 C 
ATOM     19  C   UNL A   1      29.661  25.716  25.664  1.00  0.00     0.056 C 
ATOM     20  C   UNL A   1      28.194  26.845  23.907  1.00  0.00     0.056 C 
ATOM     21  C   UNL A   1      29.830  25.074  23.263  1.00  0.00     0.056 C 
ENDBRANCH  17  18
ENDBRANCH  14  17
ENDBRANCH  11  13
ENDBRANCH  10  11
ENDBRANCH   9  10
ENDBRANCH   7   9
ENDBRANCH   6   7
ENDBRANCH   5   6
ENDBRANCH   4   5
ENDBRANCH   3   4
ENDBRANCH   2   3
ENDBRANCH   1   2
BRANCH   1  22
ATOM     22  O   UNL A   1      40.166  20.974  25.810  1.00  0.00    -0.377 OA
BRANCH  22  23
ATOM     23  C   UNL A   1      40.955  20.026  26.501  1.00  0.00     0.188 C 
BRANCH  23  24
ATOM     24  C   UNL A   1      42.474  20.216  26.322  1.00  0.00     0.188 C 
BRANCH  24  25
ATOM     25  O   UNL A   1      43.109  21.459  26.605  1.00  0.00    -0.376 OA
BRANCH  25  26
ATOM     26  C   UNL A   1      43.629  22.265  25.564  1.00  0.00     0.202 C 
BRANCH  26  27
ATOM     27  C   UNL A   1      42.896  23.558  25.171  1.00  0.00     0.261 C 
BRANCH  27  28
ATOM     28  O   UNL A   1      42.134  24.207  26.193  1.00  0.00    -0.460 OA
BRANCH  28  29
ATOM     29  C   UNL A   1      41.931  25.532  26.000  1.00  0.00     0.338 C 
ATOM     30  O   UNL A   1      41.703  26.096  24.945  1.00  0.00    -0.246 OA
BRANCH  29  31
ATOM     31  C   UNL A   1      41.917  26.217  27.307  1.00  0.00     0.060 A 
ATOM     32  C   UNL A   1      40.857  25.963  28.185  1.00  0.00     0.016 A 
ATOM     33  C   UNL A   1      42.890  27.166  27.626  1.00  0.00     0.016 A 
ATOM     34  C   UNL A   1      40.744  26.683  29.372  1.00  0.00     0.010 A 
ATOM     35  C   UNL A   1      42.763  27.906  28.805  1.00  0.00     0.010 A 
ATOM     36  C   UNL A   1      41.668  27.693  29.661  1.00  0.00    -0.014 A 
BRANCH  36  37
ATOM     37  C   UNL A   1      41.371  28.652  30.752  1.00  0.00     0.031 A 
ATOM     38  C   UNL A   1      42.204  28.594  32.004  1.00  0.00     0.074 A 
ATOM     39  C   UNL A   1      40.408  29.580  30.613  1.00  0.00     0.049 A 
ATOM     40  N   UNL A   1      42.102  29.294  33.102  1.00  0.00    -0.248 NA
ATOM     41  C   UNL A   1      43.300  27.610  32.016  1.00  0.00     0.031 C 
ATOM     42  C   UNL A   1      39.578  29.763  29.424  1.00  0.00     0.029 A 
ATOM     43  N   UNL A   1      39.964  30.540  31.487  1.00  0.00    -0.354 N 
ATOM     44  C   UNL A   1      43.109  28.830  33.940  1.00  0.00     0.074 A 
ATOM     45  C   UNL A   1      43.791  27.767  33.236  1.00  0.00     0.031 C 
ATOM     46  C   UNL A   1      38.713  30.768  29.648  1.00  0.00     0.029 A 
ATOM     47  C   UNL A   1      38.903  31.270  31.007  1.00  0.00     0.049 A 
ATOM     48  H   UNL A   1      40.367  30.691  32.372  1.00  0.00     0.167 HD
ATOM     49  C   UNL A   1      43.438  29.258  35.182  1.00  0.00     0.037 A 
ATOM     50  C   UNL A   1      38.155  32.215  31.612  1.00  0.00     0.037 A 
ATOM     51  C   UNL A   1      42.748  30.318  35.872  1.00  0.00     0.049 A 
ATOM     52  C   UNL A   1      38.489  32.621  33.025  1.00  0.00     0.074 A 
ATOM     53  C   UNL A   1      43.008  30.840  37.126  1.00  0.00     0.029 A 
ATOM     54  N   UNL A   1      41.655  31.010  35.369  1.00  0.00    -0.354 N 
ATOM     55  N   UNL A   1      39.454  32.188  33.802  1.00  0.00    -0.248 NA
ATOM     56  C   UNL A   1      37.635  33.645  33.642  1.00  0.00     0.031 C 
ATOM     57  C   UNL A   1      42.034  31.802  37.408  1.00  0.00     0.029 A 
ATOM     58  C   UNL A   1      41.209  31.932  36.302  1.00  0.00     0.049 A 
ATOM     59  H   UNL A   1      41.256  30.867  34.481  1.00  0.00     0.167 HD
ATOM     60  C   UNL A   1      39.341  32.908  34.989  1.00  0.00     0.074 A 
ATOM     61  C   UNL A   1      38.223  33.813  34.818  1.00  0.00     0.031 C 
ATOM     62  C   UNL A   1      40.095  32.829  36.114  1.00  0.00     0.037 A 
BRANCH  49  63
ATOM     63  C   UNL A   1      44.566  28.555  35.889  1.00  0.00     0.058 A 
ATOM     64  C   UNL A   1      45.905  28.949  35.734  1.00  0.00     0.135 A 
ATOM     65  C   UNL A   1      44.300  27.486  36.760  1.00  0.00     0.135 A 
ATOM     66  F   UNL A   1      46.222  29.952  34.899  1.00  0.00    -0.206 F 
ATOM     67  C   UNL A   1      46.940  28.292  36.393  1.00  0.00     0.059 A 
ATOM     68  C   UNL A   1      45.314  26.834  37.454  1.00  0.00     0.059 A 
ATOM     69  F   UNL A   1      43.039  27.062  36.945  1.00  0.00    -0.206 F 
ATOM     70  C   UNL A   1      46.634  27.236  37.253  1.00  0.00     0.060 A 
BRANCH  70  71
ATOM     71  S   UNL A   1      47.986  26.399  38.106  1.00  0.00     0.124 S 
ATOM     72  O   UNL A   1      47.301  25.850  39.273  1.00  0.00    -0.237 OA
ATOM     73  O   UNL A   1      48.422  25.422  37.112  1.00  0.00    -0.237 OA
ATOM     74  O   UNL A   1      48.934  27.473  38.383  1.00  0.00    -0.744 OA
ENDBRANCH  70  71
ENDBRANCH  49  63
BRANCH  50  75
ATOM     75  C   UNL A   1      37.008  32.829  30.889  1.00  0.00     0.058 A 
ATOM     76  C   UNL A   1      37.180  33.967  30.087  1.00  0.00     0.135 A 
ATOM     77  C   UNL A   1      35.715  32.288  30.984  1.00  0.00     0.135 A 
ATOM     78  F   UNL A   1      38.392  34.530  29.970  1.00  0.00    -0.206 F 
ATOM     79  C   UNL A   1      36.111  34.554  29.415  1.00  0.00     0.059 A 
ATOM     80  C   UNL A   1      34.638  32.838  30.299  1.00  0.00     0.059 A 
ATOM     81  F   UNL A   1      35.497  31.195  31.733  1.00  0.00    -0.206 F 
ATOM     82  C   UNL A   1      34.844  33.977  29.523  1.00  0.00     0.060 A 
BRANCH  82  83
ATOM     83  S   UNL A   1      33.478  34.717  28.603  1.00  0.00     0.124 S 
ATOM     84  O   UNL A   1      32.873  33.545  27.980  1.00  0.00    -0.237 OA
ATOM     85  O   UNL A   1      32.703  35.347  29.667  1.00  0.00    -0.237 OA
ATOM     86  O   UNL A   1      34.147  35.641  27.694  1.00  0.00    -0.744 OA
ENDBRANCH  82  83
ENDBRANCH  50  75
BRANCH  62  87
ATOM     87  C   UNL A   1      39.763  33.771  37.242  1.00  0.00     0.058 A 
ATOM     88  C   UNL A   1      38.854  33.427  38.254  1.00  0.00     0.135 A 
ATOM     89  C   UNL A   1      40.408  35.016  37.339  1.00  0.00     0.135 A 
ATOM     90  F   UNL A   1      38.204  32.252  38.209  1.00  0.00    -0.206 F 
ATOM     91  C   UNL A   1      38.576  34.292  39.308  1.00  0.00     0.059 A 
ATOM     92  C   UNL A   1      40.172  35.882  38.401  1.00  0.00     0.059 A 
ATOM     93  F   UNL A   1      41.296  35.392  36.404  1.00  0.00    -0.206 F 
ATOM     94  C   UNL A   1      39.244  35.516  39.375  1.00  0.00     0.060 A 
BRANCH  94  95
ATOM     95  S   UNL A   1      38.900  36.613  40.766  1.00  0.00     0.124 S 
ATOM     96  O   UNL A   1      37.964  35.812  41.549  1.00  0.00    -0.237 OA
ATOM     97  O   UNL A   1      40.224  36.795  41.354  1.00  0.00    -0.237 OA
ATOM     98  O   UNL A   1      38.332  37.800  40.133  1.00  0.00    -0.744 OA
ENDBRANCH  94  95
ENDBRANCH  62  87
ENDBRANCH  36  37
ENDBRANCH  29  31
ENDBRANCH  28  29
ENDBRANCH  27  28
ENDBRANCH  26  27
ENDBRANCH  25  26
ENDBRANCH  24  25
ENDBRANCH  23  24
ENDBRANCH  22  23
ENDBRANCH   1  22
TORSDOF 28
ENDMDL
MODEL 2
REMARK VINA RESULT:      -8.3      1.180      8.256
REMARK SMILES C[C@H](CCC(=O)OCCOCCOCCOCCOC(=O)c1ccc(-c2c3nc(c(-c4c(F)cc(S(=O)(=O)[O-])cc4F)c4ccc([nH]4)c(-c4c(F)cc(S(=O)(=O)[O-])cc4F)c4nc(c(-c5c(F)cc(S(=O)(=O)[O-])cc5F)c5ccc2[nH]5)C=C4)C=C3)cc1)NC(=O)OC(C)(C)C
REMARK SMILES IDX 12 1 11 2 10 3 9 4 8 5 7 6 5 7 6 8 4 9 3 10 2 11 1 12 88 13
REMARK SMILES IDX 89 14 90 16 91 17 92 18 93 19 94 20 95 21 13 22 14 23 15 24
REMARK SMILES IDX 16 25 17 26 18 27 19 28 20 29 21 30 22 31 23 32 87 33 24 34
REMARK SMILES IDX 86 35 25 36 26 37 27 38 80 39 28 40 85 41 79 42 81 43 29 44
REMARK SMILES IDX 84 45 78 46 77 47 30 49 64 50 43 51 63 52 44 53 47 54 62 55
REMARK SMILES IDX 82 56 45 57 46 58 61 60 83 61 48 62 31 63 32 64 41 65 33 66
REMARK SMILES IDX 34 67 40 68 42 69 35 70 36 71 37 72 38 73 39 74 65 75 66 76
REMARK SMILES IDX 75 77 67 78 68 79 74 80 76 81 69 82 70 83 71 84 72 85 73 86
REMARK SMILES IDX 49 87 50 88 59 89 51 90 52 91 58 92 60 93 53 94 54 95 55 96
REMARK SMILES IDX 56 97 57 98
REMARK H PARENT 88 15 81 48 47 59
REMARK Flexibility Score: inf
ROOT
ATOM      1  C   UNL A   1      39.479  22.841  26.815  1.00  0.00     0.188 C 
ENDROOT
BRANCH   1   2
ATOM      2  C   UNL A   1      38.479  23.937  26.430  1.00  0.00     0.188 C 
BRANCH   2   3
ATOM      3  O   UNL A   1      37.524  23.531  25.482  1.00  0.00    -0.376 OA
BRANCH   3   4
ATOM      4  C   UNL A   1      36.603  22.489  25.716  1.00  0.00     0.202 C 
BRANCH   4   5
ATOM      5  C   UNL A   1      35.078  22.685  25.746  1.00  0.00     0.261 C 
BRANCH   5   6
ATOM      6  O   UNL A   1      34.352  22.030  26.794  1.00  0.00    -0.463 OA
BRANCH   6   7
ATOM      7  C   UNL A   1      33.262  22.673  27.266  1.00  0.00     0.305 C 
ATOM      8  O   UNL A   1      32.742  22.438  28.353  1.00  0.00    -0.252 OA
BRANCH   7   9
ATOM      9  C   UNL A   1      32.752  23.802  26.389  1.00  0.00     0.125 C 
BRANCH   9  10
ATOM     10  C   UNL A   1      31.457  23.754  25.568  1.00  0.00     0.036 C 
BRANCH  10  11
ATOM     11  C   UNL A   1      31.375  24.451  24.208  1.00  0.00     0.083 C 
ATOM     12  C   UNL A   1      31.963  23.721  23.009  1.00  0.00     0.031 C 
BRANCH  11  13
ATOM     13  N   UNL A   1      30.029  24.913  23.949  1.00  0.00    -0.319 N 
ATOM     14  C   UNL A   1      29.611  26.201  24.068  1.00  0.00     0.407 C 
ATOM     15  H   UNL A   1      29.366  24.243  23.663  1.00  0.00     0.167 HD
ATOM     16  O   UNL A   1      28.425  26.493  23.978  1.00  0.00    -0.225 OA
BRANCH  14  17
ATOM     17  O   UNL A   1      30.636  27.049  24.292  1.00  0.00    -0.444 OA
BRANCH  17  18
ATOM     18  C   UNL A   1      30.747  28.298  23.580  1.00  0.00     0.106 C 
ATOM     19  C   UNL A   1      29.568  28.498  22.624  1.00  0.00     0.056 C 
ATOM     20  C   UNL A   1      30.918  29.453  24.569  1.00  0.00     0.056 C 
ATOM     21  C   UNL A   1      32.033  28.157  22.750  1.00  0.00     0.056 C 
ENDBRANCH  17  18
ENDBRANCH  14  17
ENDBRANCH  11  13
ENDBRANCH  10  11
ENDBRANCH   9  10
ENDBRANCH   7   9
ENDBRANCH   6   7
ENDBRANCH   5   6
ENDBRANCH   4   5
ENDBRANCH   3   4
ENDBRANCH   2   3
ENDBRANCH   1   2
BRANCH   1  22
ATOM     22  O   UNL A   1      39.825  21.756  25.977  1.00  0.00    -0.377 OA
BRANCH  22  23
ATOM     23  C   UNL A   1      40.628  20.704  26.474  1.00  0.00     0.188 C 
BRANCH  23  24
ATOM     24  C   UNL A   1      42.136  20.880  26.211  1.00  0.00     0.188 C 
BRANCH  24  25
ATOM     25  O   UNL A   1      42.804  22.107  26.490  1.00  0.00    -0.376 OA
BRANCH  25  26
ATOM     26  C   UNL A   1      43.483  22.815  25.470  1.00  0.00     0.202 C 
BRANCH  26  27
ATOM     27  C   UNL A   1      43.029  24.238  25.106  1.00  0.00     0.261 C 
BRANCH  27  28
ATOM     28  O   UNL A   1      42.208  24.919  26.059  1.00  0.00    -0.460 OA
BRANCH  28  29
ATOM     29  C   UNL A   1      42.192  26.268  25.938  1.00  0.00     0.338 C 
ATOM     30  O   UNL A   1      42.042  26.915  24.917  1.00  0.00    -0.246 OA
BRANCH  29  31
ATOM     31  C   UNL A   1      42.280  26.877  27.280  1.00  0.00     0.060 A 
ATOM     32  C   UNL A   1      41.568  26.287  28.331  1.00  0.00     0.016 A 
ATOM     33  C   UNL A   1      42.983  28.066  27.479  1.00  0.00     0.016 A 
ATOM     34  C   UNL A   1      41.526  26.902  29.579  1.00  0.00     0.010 A 
ATOM     35  C   UNL A   1      42.920  28.697  28.725  1.00  0.00     0.010 A 
ATOM     36  C   UNL A   1      42.159  28.137  29.766  1.00  0.00    -0.014 A 
BRANCH  36  37
ATOM     37  C   UNL A   1      41.854  28.926  30.983  1.00  0.00     0.031 A 
ATOM     38  C   UNL A   1      40.698  29.888  30.942  1.00  0.00     0.074 A 
ATOM     39  C   UNL A   1      42.566  28.760  32.110  1.00  0.00     0.049 A 
ATOM     40  N   UNL A   1      40.272  30.714  31.860  1.00  0.00    -0.248 NA
ATOM     41  C   UNL A   1      39.918  29.923  29.693  1.00  0.00     0.031 C 
ATOM     42  C   UNL A   1      43.670  27.817  32.280  1.00  0.00     0.029 A 
ATOM     43  N   UNL A   1      42.466  29.386  33.327  1.00  0.00    -0.354 N 
ATOM     44  C   UNL A   1      39.185  31.374  31.299  1.00  0.00     0.074 A 
ATOM     45  C   UNL A   1      39.035  30.876  29.950  1.00  0.00     0.031 C 
ATOM     46  C   UNL A   1      44.157  27.937  33.528  1.00  0.00     0.029 A 
ATOM     47  C   UNL A   1      43.424  28.989  34.229  1.00  0.00     0.049 A 
ATOM     48  H   UNL A   1      41.774  30.054  33.534  1.00  0.00     0.167 HD
ATOM     49  C   UNL A   1      38.380  32.307  31.863  1.00  0.00     0.037 A 
ATOM     50  C   UNL A   1      43.694  29.448  35.468  1.00  0.00     0.037 A 
ATOM     51  C   UNL A   1      38.542  32.794  33.208  1.00  0.00     0.049 A 
ATOM     52  C   UNL A   1      42.835  30.543  36.047  1.00  0.00     0.074 A 
ATOM     53  C   UNL A   1      37.776  33.727  33.883  1.00  0.00     0.029 A 
ATOM     54  N   UNL A   1      39.547  32.396  34.080  1.00  0.00    -0.354 N 
ATOM     55  N   UNL A   1      41.799  31.148  35.515  1.00  0.00    -0.248 NA
ATOM     56  C   UNL A   1      43.179  31.016  37.395  1.00  0.00     0.031 C 
ATOM     57  C   UNL A   1      38.353  33.940  35.138  1.00  0.00     0.029 A 
ATOM     58  C   UNL A   1      39.439  33.088  35.275  1.00  0.00     0.049 A 
ATOM     59  H   UNL A   1      40.233  31.721  33.879  1.00  0.00     0.167 HD
ATOM     60  C   UNL A   1      41.350  32.052  36.474  1.00  0.00     0.074 A 
ATOM     61  C   UNL A   1      42.220  31.902  37.623  1.00  0.00     0.031 C 
ATOM     62  C   UNL A   1      40.312  32.924  36.411  1.00  0.00     0.037 A 
BRANCH  49  63
ATOM     63  C   UNL A   1      37.280  32.887  31.015  1.00  0.00     0.058 A 
ATOM     64  C   UNL A   1      37.539  33.800  29.979  1.00  0.00     0.135 A 
ATOM     65  C   UNL A   1      35.946  32.501  31.223  1.00  0.00     0.135 A 
ATOM     66  F   UNL A   1      38.794  34.220  29.746  1.00  0.00    -0.206 F 
ATOM     67  C   UNL A   1      36.514  34.330  29.201  1.00  0.00     0.059 A 
ATOM     68  C   UNL A   1      34.909  32.994  30.438  1.00  0.00     0.059 A 
ATOM     69  F   UNL A   1      35.638  31.635  32.202  1.00  0.00    -0.206 F 
ATOM     70  C   UNL A   1      35.202  33.919  29.437  1.00  0.00     0.060 A 
BRANCH  70  71
ATOM     71  S   UNL A   1      33.884  34.610  28.415  1.00  0.00     0.124 S 
ATOM     72  O   UNL A   1      34.204  36.034  28.449  1.00  0.00    -0.237 OA
ATOM     73  O   UNL A   1      34.103  33.943  27.135  1.00  0.00    -0.237 OA
ATOM     74  O   UNL A   1      32.666  34.225  29.120  1.00  0.00    -0.744 OA
ENDBRANCH  70  71
ENDBRANCH  49  63
BRANCH  50  75
ATOM     75  C   UNL A   1      44.837  28.884  36.237  1.00  0.00     0.058 A 
ATOM     76  C   UNL A   1      46.128  29.419  36.116  1.00  0.00     0.135 A 
ATOM     77  C   UNL A   1      44.660  27.800  37.112  1.00  0.00     0.135 A 
ATOM     78  F   UNL A   1      46.354  30.448  35.286  1.00  0.00    -0.206 F 
ATOM     79  C   UNL A   1      47.205  28.892  36.824  1.00  0.00     0.059 A 
ATOM     80  C   UNL A   1      45.714  27.275  37.852  1.00  0.00     0.059 A 
ATOM     81  F   UNL A   1      43.443  27.255  37.270  1.00  0.00    -0.206 F 
ATOM     82  C   UNL A   1      46.985  27.824  37.695  1.00  0.00     0.060 A 
BRANCH  82  83
ATOM     83  S   UNL A   1      48.381  27.186  38.648  1.00  0.00     0.124 S 
ATOM     84  O   UNL A   1      47.726  26.756  39.877  1.00  0.00    -0.237 OA
ATOM     85  O   UNL A   1      48.876  26.120  37.781  1.00  0.00    -0.237 OA
ATOM     86  O   UNL A   1      49.260  28.344  38.770  1.00  0.00    -0.744 OA
ENDBRANCH  82  83
ENDBRANCH  50  75
BRANCH  62  87
ATOM     87  C   UNL A   1      40.031  33.761  37.632  1.00  0.00     0.058 A 
ATOM     88  C   UNL A   1      40.678  34.986  37.857  1.00  0.00     0.135 A 
ATOM     89  C   UNL A   1      39.058  33.356  38.561  1.00  0.00     0.135 A 
ATOM     90  F   UNL A   1      41.621  35.420  37.004  1.00  0.00    -0.206 F 
ATOM     91  C   UNL A   1      40.390  35.767  38.972  1.00  0.00     0.059 A 
ATOM     92  C   UNL A   1      38.729  34.136  39.664  1.00  0.00     0.059 A 
ATOM     93  F   UNL A   1      38.399  32.198  38.389  1.00  0.00    -0.206 F 
ATOM     94  C   UNL A   1      39.410  35.335  39.868  1.00  0.00     0.060 A 
BRANCH  94  95
ATOM     95  S   UNL A   1      39.022  36.375  41.292  1.00  0.00     0.124 S 
ATOM     96  O   UNL A   1      38.646  37.629  40.647  1.00  0.00    -0.237 OA
ATOM     97  O   UNL A   1      37.934  35.639  41.927  1.00  0.00    -0.237 OA
ATOM     98  O   UNL A   1      40.274  36.406  42.043  1.00  0.00    -0.744 OA
ENDBRANCH  94  95
ENDBRANCH  62  87
ENDBRANCH  36  37
ENDBRANCH  29  31
ENDBRANCH  28  29
ENDBRANCH  27  28
ENDBRANCH  26  27
ENDBRANCH  25  26
ENDBRANCH  24  25
ENDBRANCH  23  24
ENDBRANCH  22  23
ENDBRANCH   1  22
TORSDOF 28
ENDMDL
MODEL 3
REMARK VINA RESULT:      -7.3      3.952      7.210
REMARK SMILES C[C@H](CCC(=O)OCCOCCOCCOCCOC(=O)c1ccc(-c2c3nc(c(-c4c(F)cc(S(=O)(=O)[O-])cc4F)c4ccc([nH]4)c(-c4c(F)cc(S(=O)(=O)[O-])cc4F)c4nc(c(-c5c(F)cc(S(=O)(=O)[O-])cc5F)c5ccc2[nH]5)C=C4)C=C3)cc1)NC(=O)OC(C)(C)C
REMARK SMILES IDX 12 1 11 2 10 3 9 4 8 5 7 6 5 7 6 8 4 9 3 10 2 11 1 12 88 13
REMARK SMILES IDX 89 14 90 16 91 17 92 18 93 19 94 20 95 21 13 22 14 23 15 24
REMARK SMILES IDX 16 25 17 26 18 27 19 28 20 29 21 30 22 31 23 32 87 33 24 34
REMARK SMILES IDX 86 35 25 36 26 37 27 38 80 39 28 40 85 41 79 42 81 43 29 44
REMARK SMILES IDX 84 45 78 46 77 47 30 49 64 50 43 51 63 52 44 53 47 54 62 55
REMARK SMILES IDX 82 56 45 57 46 58 61 60 83 61 48 62 31 63 32 64 41 65 33 66
REMARK SMILES IDX 34 67 40 68 42 69 35 70 36 71 37 72 38 73 39 74 65 75 66 76
REMARK SMILES IDX 75 77 67 78 68 79 74 80 76 81 69 82 70 83 71 84 72 85 73 86
REMARK SMILES IDX 49 87 50 88 59 89 51 90 52 91 58 92 60 93 53 94 54 95 55 96
REMARK SMILES IDX 56 97 57 98
REMARK H PARENT 88 15 81 48 47 59
REMARK Flexibility Score: inf
ROOT
ATOM      1  C   UNL A   1      45.525  21.499  24.677  1.00  0.00     0.188 C 
ENDROOT
BRANCH   1   2
ATOM      2  C   UNL A   1      45.508  22.806  23.879  1.00  0.00     0.188 C 
BRANCH   2   3
ATOM      3  O   UNL A   1      46.496  23.727  24.268  1.00  0.00    -0.376 OA
BRANCH   3   4
ATOM      4  C   UNL A   1      46.300  24.678  25.291  1.00  0.00     0.202 C 
BRANCH   4   5
ATOM      5  C   UNL A   1      47.366  25.698  25.727  1.00  0.00     0.261 C 
BRANCH   5   6
ATOM      6  O   UNL A   1      48.665  25.584  25.132  1.00  0.00    -0.463 OA
BRANCH   6   7
ATOM      7  C   UNL A   1      48.959  26.467  24.153  1.00  0.00     0.305 C 
ATOM      8  O   UNL A   1      48.677  26.301  22.970  1.00  0.00    -0.252 OA
BRANCH   7   9
ATOM      9  C   UNL A   1      49.600  27.760  24.625  1.00  0.00     0.125 C 
BRANCH   9  10
ATOM     10  C   UNL A   1      49.882  28.110  26.092  1.00  0.00     0.036 C 
BRANCH  10  11
ATOM     11  C   UNL A   1      49.078  29.206  26.796  1.00  0.00     0.083 C 
ATOM     12  C   UNL A   1      49.818  30.477  27.188  1.00  0.00     0.031 C 
BRANCH  11  13
ATOM     13  N   UNL A   1      47.862  29.495  26.069  1.00  0.00    -0.319 N 
ATOM     14  C   UNL A   1      46.620  29.545  26.619  1.00  0.00     0.407 C 
ATOM     15  H   UNL A   1      47.939  29.669  25.103  1.00  0.00     0.167 HD
ATOM     16  O   UNL A   1      45.620  29.647  25.918  1.00  0.00    -0.225 OA
BRANCH  14  17
ATOM     17  O   UNL A   1      46.656  29.465  27.965  1.00  0.00    -0.444 OA
BRANCH  17  18
ATOM     18  C   UNL A   1      45.760  30.238  28.789  1.00  0.00     0.106 C 
ATOM     19  C   UNL A   1      45.669  29.660  30.203  1.00  0.00     0.056 C 
ATOM     20  C   UNL A   1      46.170  31.712  28.770  1.00  0.00     0.056 C 
ATOM     21  C   UNL A   1      44.388  30.094  28.110  1.00  0.00     0.056 C 
ENDBRANCH  17  18
ENDBRANCH  14  17
ENDBRANCH  11  13
ENDBRANCH  10  11
ENDBRANCH   9  10
ENDBRANCH   7   9
ENDBRANCH   6   7
ENDBRANCH   5   6
ENDBRANCH   4   5
ENDBRANCH   3   4
ENDBRANCH   2   3
ENDBRANCH   1   2
BRANCH   1  22
ATOM     22  O   UNL A   1      44.367  20.862  25.178  1.00  0.00    -0.377 OA
BRANCH  22  23
ATOM     23  C   UNL A   1      44.201  19.467  25.022  1.00  0.00     0.188 C 
BRANCH  23  24
ATOM     24  C   UNL A   1      42.932  18.902  25.690  1.00  0.00     0.188 C 
BRANCH  24  25
ATOM     25  O   UNL A   1      41.872  19.753  26.119  1.00  0.00    -0.376 OA
BRANCH  25  26
ATOM     26  C   UNL A   1      41.759  20.150  27.473  1.00  0.00     0.202 C 
BRANCH  26  27
ATOM     27  C   UNL A   1      41.128  21.509  27.813  1.00  0.00     0.261 C 
BRANCH  27  28
ATOM     28  O   UNL A   1      40.675  22.306  26.714  1.00  0.00    -0.460 OA
BRANCH  28  29
ATOM     29  C   UNL A   1      41.550  23.251  26.296  1.00  0.00     0.338 C 
ATOM     30  O   UNL A   1      42.376  23.150  25.407  1.00  0.00    -0.246 OA
BRANCH  29  31
ATOM     31  C   UNL A   1      41.286  24.510  27.020  1.00  0.00     0.060 A 
ATOM     32  C   UNL A   1      42.252  25.523  26.977  1.00  0.00     0.016 A 
ATOM     33  C   UNL A   1      40.141  24.655  27.805  1.00  0.00     0.016 A 
ATOM     34  C   UNL A   1      42.094  26.672  27.748  1.00  0.00     0.010 A 
ATOM     35  C   UNL A   1      39.995  25.797  28.598  1.00  0.00     0.010 A 
ATOM     36  C   UNL A   1      40.991  26.790  28.601  1.00  0.00    -0.014 A 
BRANCH  36  37
ATOM     37  C   UNL A   1      40.989  27.853  29.634  1.00  0.00     0.031 A 
ATOM     38  C   UNL A   1      42.035  27.806  30.713  1.00  0.00     0.074 A 
ATOM     39  C   UNL A   1      40.100  28.860  29.586  1.00  0.00     0.049 A 
ATOM     40  N   UNL A   1      42.204  28.593  31.742  1.00  0.00    -0.248 NA
ATOM     41  C   UNL A   1      43.026  26.720  30.618  1.00  0.00     0.031 C 
ATOM     42  C   UNL A   1      39.078  29.036  28.556  1.00  0.00     0.029 A 
ATOM     43  N   UNL A   1      39.913  29.923  30.433  1.00  0.00    -0.354 N 
ATOM     44  C   UNL A   1      43.308  28.094  32.423  1.00  0.00     0.074 A 
ATOM     45  C   UNL A   1      43.752  26.918  31.709  1.00  0.00     0.031 C 
ATOM     46  C   UNL A   1      38.360  30.137  28.839  1.00  0.00     0.029 A 
ATOM     47  C   UNL A   1      38.846  30.719  30.088  1.00  0.00     0.049 A 
ATOM     48  H   UNL A   1      40.487  30.099  31.212  1.00  0.00     0.167 HD
ATOM     49  C   UNL A   1      43.902  28.579  33.540  1.00  0.00     0.037 A 
ATOM     50  C   UNL A   1      38.310  31.777  30.728  1.00  0.00     0.037 A 
ATOM     51  C   UNL A   1      43.448  29.752  34.241  1.00  0.00     0.049 A 
ATOM     52  C   UNL A   1      38.938  32.253  32.013  1.00  0.00     0.074 A 
ATOM     53  C   UNL A   1      43.984  30.338  35.374  1.00  0.00     0.029 A 
ATOM     54  N   UNL A   1      42.342  30.511  33.883  1.00  0.00    -0.354 N 
ATOM     55  N   UNL A   1      39.992  31.784  32.640  1.00  0.00    -0.248 NA
ATOM     56  C   UNL A   1      38.308  33.402  32.678  1.00  0.00     0.031 C 
ATOM     57  C   UNL A   1      43.167  31.412  35.737  1.00  0.00     0.029 A 
ATOM     58  C   UNL A   1      42.161  31.541  34.792  1.00  0.00     0.049 A 
ATOM     59  H   UNL A   1      41.772  30.343  33.100  1.00  0.00     0.167 HD
ATOM     60  C   UNL A   1      40.168  32.599  33.755  1.00  0.00     0.074 A 
ATOM     61  C   UNL A   1      39.119  33.597  33.707  1.00  0.00     0.031 C 
ATOM     62  C   UNL A   1      41.112  32.529  34.727  1.00  0.00     0.037 A 
BRANCH  49  63
ATOM     63  C   UNL A   1      45.079  27.821  34.092  1.00  0.00     0.058 A 
ATOM     64  C   UNL A   1      44.928  26.795  35.039  1.00  0.00     0.135 A 
ATOM     65  C   UNL A   1      46.379  28.106  33.644  1.00  0.00     0.135 A 
ATOM     66  F   UNL A   1      43.711  26.490  35.518  1.00  0.00    -0.206 F 
ATOM     67  C   UNL A   1      46.024  26.100  35.543  1.00  0.00     0.059 A 
ATOM     68  C   UNL A   1      47.486  27.404  34.109  1.00  0.00     0.059 A 
ATOM     69  F   UNL A   1      46.585  29.080  32.742  1.00  0.00    -0.206 F 
ATOM     70  C   UNL A   1      47.300  26.411  35.070  1.00  0.00     0.060 A 
BRANCH  70  71
ATOM     71  S   UNL A   1      48.710  25.497  35.727  1.00  0.00     0.124 S 
ATOM     72  O   UNL A   1      48.109  24.198  36.014  1.00  0.00    -0.237 OA
ATOM     73  O   UNL A   1      49.647  25.527  34.608  1.00  0.00    -0.237 OA
ATOM     74  O   UNL A   1      49.108  26.275  36.896  1.00  0.00    -0.744 OA
ENDBRANCH  70  71
ENDBRANCH  49  63
BRANCH  50  75
ATOM     75  C   UNL A   1      37.103  32.448  30.172  1.00  0.00     0.058 A 
ATOM     76  C   UNL A   1      37.213  33.450  29.197  1.00  0.00     0.135 A 
ATOM     77  C   UNL A   1      35.813  32.098  30.603  1.00  0.00     0.135 A 
ATOM     78  F   UNL A   1      38.423  33.830  28.758  1.00  0.00    -0.206 F 
ATOM     79  C   UNL A   1      36.091  34.090  28.678  1.00  0.00     0.059 A 
ATOM     80  C   UNL A   1      34.675  32.700  30.078  1.00  0.00     0.059 A 
ATOM     81  F   UNL A   1      35.650  31.139  31.529  1.00  0.00    -0.206 F 
ATOM     82  C   UNL A   1      34.825  33.702  29.121  1.00  0.00     0.060 A 
BRANCH  82  83
ATOM     83  S   UNL A   1      33.376  34.503  28.400  1.00  0.00     0.124 S 
ATOM     84  O   UNL A   1      32.891  33.471  27.491  1.00  0.00    -0.237 OA
ATOM     85  O   UNL A   1      32.552  34.754  29.578  1.00  0.00    -0.237 OA
ATOM     86  O   UNL A   1      33.931  35.694  27.766  1.00  0.00    -0.744 OA
ENDBRANCH  82  83
ENDBRANCH  50  75
BRANCH  62  87
ATOM     87  C   UNL A   1      41.081  33.583  35.804  1.00  0.00     0.058 A 
ATOM     88  C   UNL A   1      41.838  34.761  35.713  1.00  0.00     0.135 A 
ATOM     89  C   UNL A   1      40.237  33.433  36.918  1.00  0.00     0.135 A 
ATOM     90  F   UNL A   1      42.666  34.954  34.672  1.00  0.00    -0.206 F 
ATOM     91  C   UNL A   1      41.780  35.741  36.698  1.00  0.00     0.059 A 
ATOM     92  C   UNL A   1      40.137  34.415  37.898  1.00  0.00     0.059 A 
ATOM     93  F   UNL A   1      39.482  32.331  37.050  1.00  0.00    -0.206 F 
ATOM     94  C   UNL A   1      40.923  35.561  37.785  1.00  0.00     0.060 A 
BRANCH  94  95
ATOM     95  S   UNL A   1      40.832  36.857  39.039  1.00  0.00     0.124 S 
ATOM     96  O   UNL A   1      40.995  36.088  40.269  1.00  0.00    -0.237 OA
ATOM     97  O   UNL A   1      41.954  37.718  38.677  1.00  0.00    -0.237 OA
ATOM     98  O   UNL A   1      39.509  37.439  38.833  1.00  0.00    -0.744 OA
ENDBRANCH  94  95
ENDBRANCH  62  87
ENDBRANCH  36  37
ENDBRANCH  29  31
ENDBRANCH  28  29
ENDBRANCH  27  28
ENDBRANCH  26  27
ENDBRANCH  25  26
ENDBRANCH  24  25
ENDBRANCH  23  24
ENDBRANCH  22  23
ENDBRANCH   1  22
TORSDOF 28
ENDMDL
