MODEL 1
REMARK VINA RESULT:      -9.6      0.000      0.000
REMARK SMILES O=C(OCCOCCOCCOCCOC(=O)c1cccnc1Nc1cccc(C(F)(F)F)c1)c1ccc(-c2c3nc(c(-c4c(F)cc(S(=O)(=O)[O-])cc4F)c4ccc([nH]4)c(-c4c(F)cc(S(=O)(=O)[O-])cc4F)c4nc(c(-c5c(F)cc(S(=O)(=O)[O-])cc5F)c5ccc2[nH]5)C=C4)C=C3)cc1
REMARK SMILES IDX 9 1 8 2 7 3 6 4 5 5 4 6 3 7 2 8 1 9 35 10 36 11 100 12 37 13
REMARK SMILES IDX 99 14 38 15 39 16 40 17 93 18 41 19 98 20 92 21 94 22 42 23
REMARK SMILES IDX 97 24 91 25 90 26 43 28 77 29 56 30 76 31 57 32 60 33 75 34
REMARK SMILES IDX 95 35 58 36 59 37 74 39 96 40 61 41 44 42 45 43 54 44 46 45
REMARK SMILES IDX 47 46 53 47 55 48 48 49 49 50 50 51 51 52 52 53 78 54 79 55
REMARK SMILES IDX 88 56 80 57 81 58 87 59 89 60 82 61 83 62 84 63 85 64 86 65
REMARK SMILES IDX 62 66 63 67 72 68 64 69 65 70 71 71 73 72 66 73 67 74 68 75
REMARK SMILES IDX 69 76 70 77 10 78 11 79 12 80 13 81 14 82 15 83 16 84 17 85
REMARK SMILES IDX 18 86 19 87 23 88 20 89 22 90 21 91 24 92 25 94 26 95 34 96
REMARK SMILES IDX 27 97 29 98 28 99 30 100 31 101 32 102 33 103
REMARK H PARENT 94 27 60 38 24 93
REMARK Flexibility Score: inf
ROOT
ATOM      1  O   UNL A   1      35.063  23.456  23.037  1.00  0.00    -0.377 OA
ENDROOT
BRANCH   1   2
ATOM      2  C   UNL A   1      35.827  22.715  23.982  1.00  0.00     0.188 C 
BRANCH   2   3
ATOM      3  C   UNL A   1      35.751  23.241  25.413  1.00  0.00     0.188 C 
BRANCH   3   4
ATOM      4  O   UNL A   1      36.868  22.792  26.175  1.00  0.00    -0.376 OA
BRANCH   4   5
ATOM      5  C   UNL A   1      37.986  22.293  25.445  1.00  0.00     0.202 C 
BRANCH   5   6
ATOM      6  C   UNL A   1      39.285  23.058  25.677  1.00  0.00     0.261 C 
BRANCH   6   7
ATOM      7  O   UNL A   1      39.162  24.056  26.697  1.00  0.00    -0.460 OA
BRANCH   7   8
ATOM      8  C   UNL A   1      39.865  25.209  26.818  1.00  0.00     0.338 C 
ATOM      9  O   UNL A   1      40.468  25.619  25.826  1.00  0.00    -0.246 OA
BRANCH   8  10
ATOM     10  C   UNL A   1      39.958  26.025  28.071  1.00  0.00     0.060 A 
ATOM     11  C   UNL A   1      39.071  25.986  29.149  1.00  0.00     0.016 A 
ATOM     12  C   UNL A   1      41.091  26.848  28.193  1.00  0.00     0.016 A 
ATOM     13  C   UNL A   1      39.263  26.748  30.288  1.00  0.00     0.010 A 
ATOM     14  C   UNL A   1      41.300  27.621  29.337  1.00  0.00     0.010 A 
ATOM     15  C   UNL A   1      40.365  27.584  30.376  1.00  0.00    -0.014 A 
BRANCH  15  16
ATOM     16  C   UNL A   1      40.367  28.568  31.465  1.00  0.00     0.031 A 
ATOM     17  C   UNL A   1      39.366  29.678  31.376  1.00  0.00     0.074 A 
ATOM     18  C   UNL A   1      41.117  28.358  32.560  1.00  0.00     0.049 A 
ATOM     19  N   UNL A   1      39.219  30.723  32.138  1.00  0.00    -0.248 NA
ATOM     20  C   UNL A   1      38.384  29.587  30.279  1.00  0.00     0.031 C 
ATOM     21  C   UNL A   1      41.972  27.189  32.788  1.00  0.00     0.029 A 
ATOM     22  N   UNL A   1      41.257  29.099  33.700  1.00  0.00    -0.354 N 
ATOM     23  C   UNL A   1      38.161  31.435  31.587  1.00  0.00     0.074 A 
ATOM     24  C   UNL A   1      37.698  30.707  30.430  1.00  0.00     0.031 C 
ATOM     25  C   UNL A   1      42.544  27.292  33.998  1.00  0.00     0.029 A 
ATOM     26  C   UNL A   1      42.163  28.569  34.588  1.00  0.00     0.049 A 
ATOM     27  H   UNL A   1      40.760  29.931  33.868  1.00  0.00     0.167 HD
ATOM     28  C   UNL A   1      37.641  32.605  32.018  1.00  0.00     0.037 A 
ATOM     29  C   UNL A   1      42.659  29.100  35.721  1.00  0.00     0.037 A 
ATOM     30  C   UNL A   1      38.142  33.282  33.182  1.00  0.00     0.049 A 
ATOM     31  C   UNL A   1      42.159  30.465  36.113  1.00  0.00     0.074 A 
ATOM     32  C   UNL A   1      37.780  34.511  33.694  1.00  0.00     0.029 A 
ATOM     33  N   UNL A   1      39.126  32.765  34.019  1.00  0.00    -0.354 N 
ATOM     34  N   UNL A   1      41.237  31.202  35.532  1.00  0.00    -0.248 NA
ATOM     35  C   UNL A   1      42.772  31.086  37.292  1.00  0.00     0.031 C 
ATOM     36  C   UNL A   1      38.583  34.759  34.813  1.00  0.00     0.029 A 
ATOM     37  C   UNL A   1      39.401  33.657  35.035  1.00  0.00     0.049 A 
ATOM     38  H   UNL A   1      39.563  31.891  33.903  1.00  0.00     0.167 HD
ATOM     39  C   UNL A   1      41.143  32.364  36.285  1.00  0.00     0.074 A 
ATOM     40  C   UNL A   1      42.095  32.224  37.372  1.00  0.00     0.031 C 
ATOM     41  C   UNL A   1      40.354  33.453  36.100  1.00  0.00     0.037 A 
BRANCH  28  42
ATOM     42  C   UNL A   1      36.567  33.233  31.177  1.00  0.00     0.058 A 
ATOM     43  C   UNL A   1      36.858  34.032  30.059  1.00  0.00     0.135 A 
ATOM     44  C   UNL A   1      35.218  33.076  31.533  1.00  0.00     0.135 A 
ATOM     45  F   UNL A   1      38.133  34.254  29.700  1.00  0.00    -0.206 F 
ATOM     46  C   UNL A   1      35.852  34.673  29.342  1.00  0.00     0.059 A 
ATOM     47  C   UNL A   1      34.194  33.685  30.813  1.00  0.00     0.059 A 
ATOM     48  F   UNL A   1      34.883  32.342  32.606  1.00  0.00    -0.206 F 
ATOM     49  C   UNL A   1      34.522  34.494  29.727  1.00  0.00     0.060 A 
BRANCH  49  50
ATOM     50  S   UNL A   1      33.229  35.337  28.792  1.00  0.00     0.124 S 
ATOM     51  O   UNL A   1      34.018  36.118  27.841  1.00  0.00    -0.237 OA
ATOM     52  O   UNL A   1      32.479  34.222  28.225  1.00  0.00    -0.237 OA
ATOM     53  O   UNL A   1      32.525  36.113  29.807  1.00  0.00    -0.744 OA
ENDBRANCH  49  50
ENDBRANCH  28  42
BRANCH  29  54
ATOM     54  C   UNL A   1      43.712  28.388  36.496  1.00  0.00     0.058 A 
ATOM     55  C   UNL A   1      45.048  28.814  36.480  1.00  0.00     0.135 A 
ATOM     56  C   UNL A   1      43.403  27.259  37.275  1.00  0.00     0.135 A 
ATOM     57  F   UNL A   1      45.403  29.881  35.749  1.00  0.00    -0.206 F 
ATOM     58  C   UNL A   1      46.039  28.142  37.195  1.00  0.00     0.059 A 
ATOM     59  C   UNL A   1      44.369  26.590  38.022  1.00  0.00     0.059 A 
ATOM     60  F   UNL A   1      42.141  26.807  37.336  1.00  0.00    -0.206 F 
ATOM     61  C   UNL A   1      45.688  27.032  37.965  1.00  0.00     0.060 A 
BRANCH  61  62
ATOM     62  S   UNL A   1      46.975  26.186  38.909  1.00  0.00     0.124 S 
ATOM     63  O   UNL A   1      46.247  25.037  39.435  1.00  0.00    -0.237 OA
ATOM     64  O   UNL A   1      47.968  25.897  37.880  1.00  0.00    -0.237 OA
ATOM     65  O   UNL A   1      47.379  27.183  39.897  1.00  0.00    -0.744 OA
ENDBRANCH  61  62
ENDBRANCH  29  54
BRANCH  41  66
ATOM     66  C   UNL A   1      40.459  34.544  37.122  1.00  0.00     0.058 A 
ATOM     67  C   UNL A   1      41.331  35.628  36.953  1.00  0.00     0.135 A 
ATOM     68  C   UNL A   1      39.613  34.538  38.242  1.00  0.00     0.135 A 
ATOM     69  F   UNL A   1      42.164  35.671  35.900  1.00  0.00    -0.206 F 
ATOM     70  C   UNL A   1      41.372  36.668  37.873  1.00  0.00     0.059 A 
ATOM     71  C   UNL A   1      39.614  35.583  39.156  1.00  0.00     0.059 A 
ATOM     72  F   UNL A   1      38.752  33.526  38.436  1.00  0.00    -0.206 F 
ATOM     73  C   UNL A   1      40.504  36.639  38.967  1.00  0.00     0.060 A 
BRANCH  73  74
ATOM     74  S   UNL A   1      40.528  38.023  40.122  1.00  0.00     0.124 S 
ATOM     75  O   UNL A   1      40.618  37.332  41.404  1.00  0.00    -0.237 OA
ATOM     76  O   UNL A   1      41.725  38.751  39.709  1.00  0.00    -0.237 OA
ATOM     77  O   UNL A   1      39.265  38.705  39.862  1.00  0.00    -0.744 OA
ENDBRANCH  73  74
ENDBRANCH  41  66
ENDBRANCH  15  16
ENDBRANCH   8  10
ENDBRANCH   7   8
ENDBRANCH   6   7
ENDBRANCH   5   6
ENDBRANCH   4   5
ENDBRANCH   3   4
ENDBRANCH   2   3
ENDBRANCH   1   2
BRANCH   1  78
ATOM     78  C   UNL A   1      33.651  23.271  23.077  1.00  0.00     0.188 C 
BRANCH  78  79
ATOM     79  C   UNL A   1      32.743  24.291  22.353  1.00  0.00     0.188 C 
BRANCH  79  80
ATOM     80  O   UNL A   1      33.383  24.990  21.299  1.00  0.00    -0.376 OA
BRANCH  80  81
ATOM     81  C   UNL A   1      32.957  26.335  21.120  1.00  0.00     0.202 C 
BRANCH  81  82
ATOM     82  C   UNL A   1      32.202  26.940  22.310  1.00  0.00     0.261 C 
BRANCH  82  83
ATOM     83  O   UNL A   1      30.830  27.352  22.106  1.00  0.00    -0.460 OA
BRANCH  83  84
ATOM     84  C   UNL A   1      29.899  27.272  23.084  1.00  0.00     0.341 C 
ATOM     85  O   UNL A   1      29.650  26.314  23.796  1.00  0.00    -0.246 OA
BRANCH  84  86
ATOM     86  C   UNL A   1      29.314  28.621  23.269  1.00  0.00     0.102 A 
ATOM     87  C   UNL A   1      28.003  28.841  22.820  1.00  0.00     0.021 A 
ATOM     88  C   UNL A   1      30.055  29.706  23.780  1.00  0.00     0.144 A 
ATOM     89  C   UNL A   1      27.450  30.109  22.908  1.00  0.00     0.021 A 
ATOM     90  N   UNL A   1      29.492  30.939  23.877  1.00  0.00    -0.238 NA
ATOM     91  C   UNL A   1      28.223  31.115  23.453  1.00  0.00     0.113 A 
BRANCH  88  92
ATOM     92  N   UNL A   1      31.446  29.617  24.024  1.00  0.00    -0.340 N 
ATOM     93  H   UNL A   1      32.049  29.815  23.271  1.00  0.00     0.168 HD
BRANCH  92  94
ATOM     94  C   UNL A   1      32.042  29.270  25.256  1.00  0.00     0.040 A 
ATOM     95  C   UNL A   1      31.540  28.225  26.039  1.00  0.00     0.026 A 
ATOM     96  C   UNL A   1      33.088  30.044  25.766  1.00  0.00     0.039 A 
ATOM     97  C   UNL A   1      32.077  27.952  27.304  1.00  0.00     0.003 A 
ATOM     98  C   UNL A   1      33.638  29.786  27.032  1.00  0.00     0.058 A 
ATOM     99  C   UNL A   1      33.118  28.735  27.801  1.00  0.00     0.013 A 
BRANCH  98 100
ATOM    100  C   UNL A   1      34.765  30.633  27.563  1.00  0.00     0.416 C 
ATOM    101  F   UNL A   1      34.848  30.603  28.922  1.00  0.00    -0.166 F 
ATOM    102  F   UNL A   1      35.984  30.226  27.109  1.00  0.00    -0.166 F 
ATOM    103  F   UNL A   1      34.666  31.950  27.225  1.00  0.00    -0.166 F 
ENDBRANCH  98 100
ENDBRANCH  92  94
ENDBRANCH  88  92
ENDBRANCH  84  86
ENDBRANCH  83  84
ENDBRANCH  82  83
ENDBRANCH  81  82
ENDBRANCH  80  81
ENDBRANCH  79  80
ENDBRANCH  78  79
ENDBRANCH   1  78
TORSDOF 26
ENDMDL
MODEL 2
REMARK VINA RESULT:      -9.3      7.049     11.968
REMARK SMILES O=C(OCCOCCOCCOCCOC(=O)c1cccnc1Nc1cccc(C(F)(F)F)c1)c1ccc(-c2c3nc(c(-c4c(F)cc(S(=O)(=O)[O-])cc4F)c4ccc([nH]4)c(-c4c(F)cc(S(=O)(=O)[O-])cc4F)c4nc(c(-c5c(F)cc(S(=O)(=O)[O-])cc5F)c5ccc2[nH]5)C=C4)C=C3)cc1
REMARK SMILES IDX 9 1 8 2 7 3 6 4 5 5 4 6 3 7 2 8 1 9 35 10 36 11 100 12 37 13
REMARK SMILES IDX 99 14 38 15 39 16 40 17 93 18 41 19 98 20 92 21 94 22 42 23
REMARK SMILES IDX 97 24 91 25 90 26 43 28 77 29 56 30 76 31 57 32 60 33 75 34
REMARK SMILES IDX 95 35 58 36 59 37 74 39 96 40 61 41 44 42 45 43 54 44 46 45
REMARK SMILES IDX 47 46 53 47 55 48 48 49 49 50 50 51 51 52 52 53 78 54 79 55
REMARK SMILES IDX 88 56 80 57 81 58 87 59 89 60 82 61 83 62 84 63 85 64 86 65
REMARK SMILES IDX 62 66 63 67 72 68 64 69 65 70 71 71 73 72 66 73 67 74 68 75
REMARK SMILES IDX 69 76 70 77 10 78 11 79 12 80 13 81 14 82 15 83 16 84 17 85
REMARK SMILES IDX 18 86 19 87 23 88 20 89 22 90 21 91 24 92 25 94 26 95 34 96
REMARK SMILES IDX 27 97 29 98 28 99 30 100 31 101 32 102 33 103
REMARK H PARENT 94 27 60 38 24 93
REMARK Flexibility Score: inf
ROOT
ATOM      1  O   UNL A   1      35.820  32.655  27.715  1.00  0.00    -0.377 OA
ENDROOT
BRANCH   1   2
ATOM      2  C   UNL A   1      35.489  33.771  28.533  1.00  0.00     0.188 C 
BRANCH   2   3
ATOM      3  C   UNL A   1      34.083  33.730  29.126  1.00  0.00     0.188 C 
BRANCH   3   4
ATOM      4  O   UNL A   1      34.138  33.635  30.546  1.00  0.00    -0.376 OA
BRANCH   4   5
ATOM      5  C   UNL A   1      35.406  33.335  31.123  1.00  0.00     0.202 C 
BRANCH   5   6
ATOM      6  C   UNL A   1      35.441  32.047  31.940  1.00  0.00     0.261 C 
BRANCH   6   7
ATOM      7  O   UNL A   1      36.522  31.185  31.565  1.00  0.00    -0.460 OA
BRANCH   7   8
ATOM      8  C   UNL A   1      37.748  31.096  32.136  1.00  0.00     0.338 C 
ATOM      9  O   UNL A   1      37.864  31.472  33.303  1.00  0.00    -0.246 OA
BRANCH   8  10
ATOM     10  C   UNL A   1      38.972  30.566  31.454  1.00  0.00     0.060 A 
ATOM     11  C   UNL A   1      40.047  29.925  32.071  1.00  0.00     0.016 A 
ATOM     12  C   UNL A   1      38.991  30.663  30.052  1.00  0.00     0.016 A 
ATOM     13  C   UNL A   1      41.119  29.429  31.351  1.00  0.00     0.010 A 
ATOM     14  C   UNL A   1      40.064  30.164  29.311  1.00  0.00     0.010 A 
ATOM     15  C   UNL A   1      41.142  29.566  29.972  1.00  0.00    -0.014 A 
BRANCH  15  16
ATOM     16  C   UNL A   1      42.414  29.284  29.296  1.00  0.00     0.031 A 
ATOM     17  C   UNL A   1      42.568  27.925  28.686  1.00  0.00     0.074 A 
ATOM     18  C   UNL A   1      43.302  30.271  29.092  1.00  0.00     0.049 A 
ATOM     19  N   UNL A   1      43.610  27.383  28.124  1.00  0.00    -0.248 NA
ATOM     20  C   UNL A   1      41.372  27.061  28.702  1.00  0.00     0.031 C 
ATOM     21  C   UNL A   1      43.120  31.669  29.498  1.00  0.00     0.029 A 
ATOM     22  N   UNL A   1      44.518  30.262  28.469  1.00  0.00    -0.354 N 
ATOM     23  C   UNL A   1      43.210  26.103  27.762  1.00  0.00     0.074 A 
ATOM     24  C   UNL A   1      41.833  25.945  28.162  1.00  0.00     0.031 C 
ATOM     25  C   UNL A   1      44.187  32.383  29.105  1.00  0.00     0.029 A 
ATOM     26  C   UNL A   1      45.157  31.479  28.502  1.00  0.00     0.049 A 
ATOM     27  H   UNL A   1      44.899  29.463  28.039  1.00  0.00     0.167 HD
ATOM     28  C   UNL A   1      43.950  25.148  27.157  1.00  0.00     0.037 A 
ATOM     29  C   UNL A   1      46.413  31.793  28.131  1.00  0.00     0.037 A 
ATOM     30  C   UNL A   1      45.319  25.366  26.778  1.00  0.00     0.049 A 
ATOM     31  C   UNL A   1      47.263  30.680  27.579  1.00  0.00     0.074 A 
ATOM     32  C   UNL A   1      46.223  24.474  26.238  1.00  0.00     0.029 A 
ATOM     33  N   UNL A   1      45.975  26.587  26.904  1.00  0.00    -0.354 N 
ATOM     34  N   UNL A   1      46.928  29.431  27.338  1.00  0.00    -0.248 NA
ATOM     35  C   UNL A   1      48.660  31.001  27.269  1.00  0.00     0.031 C 
ATOM     36  C   UNL A   1      47.442  25.144  26.086  1.00  0.00     0.029 A 
ATOM     37  C   UNL A   1      47.280  26.469  26.471  1.00  0.00     0.049 A 
ATOM     38  H   UNL A   1      45.569  27.413  27.252  1.00  0.00     0.167 HD
ATOM     39  C   UNL A   1      48.066  28.820  26.829  1.00  0.00     0.074 A 
ATOM     40  C   UNL A   1      49.094  29.844  26.784  1.00  0.00     0.031 C 
ATOM     41  C   UNL A   1      48.255  27.534  26.438  1.00  0.00     0.037 A 
BRANCH  28  42
ATOM     42  C   UNL A   1      43.317  23.799  26.975  1.00  0.00     0.058 A 
ATOM     43  C   UNL A   1      42.862  23.345  25.725  1.00  0.00     0.135 A 
ATOM     44  C   UNL A   1      43.111  22.966  28.086  1.00  0.00     0.135 A 
ATOM     45  F   UNL A   1      42.992  24.118  24.636  1.00  0.00    -0.206 F 
ATOM     46  C   UNL A   1      42.204  22.125  25.591  1.00  0.00     0.059 A 
ATOM     47  C   UNL A   1      42.480  21.730  27.970  1.00  0.00     0.059 A 
ATOM     48  F   UNL A   1      43.504  23.360  29.308  1.00  0.00    -0.206 F 
ATOM     49  C   UNL A   1      42.017  21.325  26.720  1.00  0.00     0.060 A 
BRANCH  49  50
ATOM     50  S   UNL A   1      41.155  19.750  26.531  1.00  0.00     0.124 S 
ATOM     51  O   UNL A   1      41.276  19.188  27.875  1.00  0.00    -0.237 OA
ATOM     52  O   UNL A   1      39.814  20.175  26.142  1.00  0.00    -0.237 OA
ATOM     53  O   UNL A   1      41.919  19.065  25.495  1.00  0.00    -0.744 OA
ENDBRANCH  49  50
ENDBRANCH  28  42
BRANCH  29  54
ATOM     54  C   UNL A   1      46.943  33.169  28.339  1.00  0.00     0.058 A 
ATOM     55  C   UNL A   1      46.859  34.146  27.336  1.00  0.00     0.135 A 
ATOM     56  C   UNL A   1      47.548  33.540  29.553  1.00  0.00     0.135 A 
ATOM     57  F   UNL A   1      46.299  33.848  26.155  1.00  0.00    -0.206 F 
ATOM     58  C   UNL A   1      47.366  35.432  27.523  1.00  0.00     0.059 A 
ATOM     59  C   UNL A   1      48.033  34.825  29.774  1.00  0.00     0.059 A 
ATOM     60  F   UNL A   1      47.651  32.651  30.553  1.00  0.00    -0.206 F 
ATOM     61  C   UNL A   1      47.949  35.761  28.747  1.00  0.00     0.060 A 
BRANCH  61  62
ATOM     62  S   UNL A   1      48.577  37.438  28.988  1.00  0.00     0.124 S 
ATOM     63  O   UNL A   1      48.528  37.969  27.631  1.00  0.00    -0.237 OA
ATOM     64  O   UNL A   1      47.608  37.995  29.927  1.00  0.00    -0.237 OA
ATOM     65  O   UNL A   1      49.913  37.223  29.534  1.00  0.00    -0.744 OA
ENDBRANCH  61  62
ENDBRANCH  29  54
BRANCH  41  66
ATOM     66  C   UNL A   1      49.606  27.187  25.889  1.00  0.00     0.058 A 
ATOM     67  C   UNL A   1      49.886  27.271  24.518  1.00  0.00     0.135 A 
ATOM     68  C   UNL A   1      50.651  26.847  26.762  1.00  0.00     0.135 A 
ATOM     69  F   UNL A   1      48.914  27.585  23.646  1.00  0.00    -0.206 F 
ATOM     70  C   UNL A   1      51.159  27.012  24.027  1.00  0.00     0.059 A 
ATOM     71  C   UNL A   1      51.938  26.616  26.297  1.00  0.00     0.059 A 
ATOM     72  F   UNL A   1      50.430  26.768  28.085  1.00  0.00    -0.206 F 
ATOM     73  C   UNL A   1      52.179  26.693  24.926  1.00  0.00     0.060 A 
BRANCH  73  74
ATOM     74  S   UNL A   1      53.839  26.415  24.280  1.00  0.00     0.124 S 
ATOM     75  O   UNL A   1      53.554  25.972  22.919  1.00  0.00    -0.237 OA
ATOM     76  O   UNL A   1      54.446  27.738  24.403  1.00  0.00    -0.237 OA
ATOM     77  O   UNL A   1      54.385  25.396  25.172  1.00  0.00    -0.744 OA
ENDBRANCH  73  74
ENDBRANCH  41  66
ENDBRANCH  15  16
ENDBRANCH   8  10
ENDBRANCH   7   8
ENDBRANCH   6   7
ENDBRANCH   5   6
ENDBRANCH   4   5
ENDBRANCH   3   4
ENDBRANCH   2   3
ENDBRANCH   1   2
BRANCH   1  78
ATOM     78  C   UNL A   1      35.007  31.495  27.862  1.00  0.00     0.188 C 
BRANCH  78  79
ATOM     79  C   UNL A   1      35.670  30.166  28.289  1.00  0.00     0.188 C 
BRANCH  79  80
ATOM     80  O   UNL A   1      35.723  29.189  27.264  1.00  0.00    -0.376 OA
BRANCH  80  81
ATOM     81  C   UNL A   1      34.542  29.071  26.481  1.00  0.00     0.202 C 
BRANCH  81  82
ATOM     82  C   UNL A   1      33.362  28.389  27.185  1.00  0.00     0.261 C 
BRANCH  82  83
ATOM     83  O   UNL A   1      32.897  27.124  26.660  1.00  0.00    -0.460 OA
BRANCH  83  84
ATOM     84  C   UNL A   1      31.583  26.801  26.614  1.00  0.00     0.341 C 
ATOM     85  O   UNL A   1      30.703  27.160  27.377  1.00  0.00    -0.246 OA
BRANCH  84  86
ATOM     86  C   UNL A   1      31.343  26.043  25.363  1.00  0.00     0.102 A 
ATOM     87  C   UNL A   1      31.099  24.665  25.461  1.00  0.00     0.021 A 
ATOM     88  C   UNL A   1      31.452  26.632  24.087  1.00  0.00     0.144 A 
ATOM     89  C   UNL A   1      30.944  23.911  24.307  1.00  0.00     0.021 A 
ATOM     90  N   UNL A   1      31.279  25.883  22.967  1.00  0.00    -0.238 NA
ATOM     91  C   UNL A   1      31.028  24.564  23.093  1.00  0.00     0.113 A 
BRANCH  88  92
ATOM     92  N   UNL A   1      31.930  27.951  23.906  1.00  0.00    -0.340 N 
ATOM     93  H   UNL A   1      32.890  28.059  23.711  1.00  0.00     0.168 HD
BRANCH  92  94
ATOM     94  C   UNL A   1      31.150  29.125  23.982  1.00  0.00     0.040 A 
ATOM     95  C   UNL A   1      31.363  30.078  24.984  1.00  0.00     0.026 A 
ATOM     96  C   UNL A   1      30.071  29.302  23.112  1.00  0.00     0.039 A 
ATOM     97  C   UNL A   1      30.522  31.190  25.111  1.00  0.00     0.003 A 
ATOM     98  C   UNL A   1      29.215  30.410  23.224  1.00  0.00     0.058 A 
ATOM     99  C   UNL A   1      29.447  31.352  24.237  1.00  0.00     0.013 A 
BRANCH  98 100
ATOM    100  C   UNL A   1      28.057  30.581  22.276  1.00  0.00     0.416 C 
ATOM    101  F   UNL A   1      28.272  29.982  21.073  1.00  0.00    -0.166 F 
ATOM    102  F   UNL A   1      26.903  30.039  22.759  1.00  0.00    -0.166 F 
ATOM    103  F   UNL A   1      27.765  31.882  21.997  1.00  0.00    -0.166 F 
ENDBRANCH  98 100
ENDBRANCH  92  94
ENDBRANCH  88  92
ENDBRANCH  84  86
ENDBRANCH  83  84
ENDBRANCH  82  83
ENDBRANCH  81  82
ENDBRANCH  80  81
ENDBRANCH  79  80
ENDBRANCH  78  79
ENDBRANCH   1  78
TORSDOF 26
ENDMDL
MODEL 3
REMARK VINA RESULT:      -9.1      6.457      8.196
REMARK SMILES O=C(OCCOCCOCCOCCOC(=O)c1cccnc1Nc1cccc(C(F)(F)F)c1)c1ccc(-c2c3nc(c(-c4c(F)cc(S(=O)(=O)[O-])cc4F)c4ccc([nH]4)c(-c4c(F)cc(S(=O)(=O)[O-])cc4F)c4nc(c(-c5c(F)cc(S(=O)(=O)[O-])cc5F)c5ccc2[nH]5)C=C4)C=C3)cc1
REMARK SMILES IDX 9 1 8 2 7 3 6 4 5 5 4 6 3 7 2 8 1 9 35 10 36 11 100 12 37 13
REMARK SMILES IDX 99 14 38 15 39 16 40 17 93 18 41 19 98 20 92 21 94 22 42 23
REMARK SMILES IDX 97 24 91 25 90 26 43 28 77 29 56 30 76 31 57 32 60 33 75 34
REMARK SMILES IDX 95 35 58 36 59 37 74 39 96 40 61 41 44 42 45 43 54 44 46 45
REMARK SMILES IDX 47 46 53 47 55 48 48 49 49 50 50 51 51 52 52 53 78 54 79 55
REMARK SMILES IDX 88 56 80 57 81 58 87 59 89 60 82 61 83 62 84 63 85 64 86 65
REMARK SMILES IDX 62 66 63 67 72 68 64 69 65 70 71 71 73 72 66 73 67 74 68 75
REMARK SMILES IDX 69 76 70 77 10 78 11 79 12 80 13 81 14 82 15 83 16 84 17 85
REMARK SMILES IDX 18 86 19 87 23 88 20 89 22 90 21 91 24 92 25 94 26 95 34 96
REMARK SMILES IDX 27 97 29 98 28 99 30 100 31 101 32 102 33 103
REMARK H PARENT 94 27 60 38 24 93
REMARK Flexibility Score: inf
ROOT
ATOM      1  O   UNL A   1      34.585  23.062  23.213  1.00  0.00    -0.377 OA
ENDROOT
BRANCH   1   2
ATOM      2  C   UNL A   1      35.287  22.085  23.973  1.00  0.00     0.188 C 
BRANCH   2   3
ATOM      3  C   UNL A   1      36.066  22.643  25.161  1.00  0.00     0.188 C 
BRANCH   3   4
ATOM      4  O   UNL A   1      36.876  21.630  25.752  1.00  0.00    -0.376 OA
BRANCH   4   5
ATOM      5  C   UNL A   1      37.306  20.571  24.900  1.00  0.00     0.202 C 
BRANCH   5   6
ATOM      6  C   UNL A   1      38.680  20.003  25.240  1.00  0.00     0.261 C 
BRANCH   6   7
ATOM      7  O   UNL A   1      39.413  20.838  26.144  1.00  0.00    -0.460 OA
BRANCH   7   8
ATOM      8  C   UNL A   1      40.719  20.736  26.492  1.00  0.00     0.338 C 
ATOM      9  O   UNL A   1      41.210  19.608  26.552  1.00  0.00    -0.246 OA
BRANCH   8  10
ATOM     10  C   UNL A   1      41.613  21.898  26.805  1.00  0.00     0.060 A 
ATOM     11  C   UNL A   1      42.180  22.190  28.047  1.00  0.00     0.016 A 
ATOM     12  C   UNL A   1      41.966  22.718  25.721  1.00  0.00     0.016 A 
ATOM     13  C   UNL A   1      43.032  23.265  28.232  1.00  0.00     0.010 A 
ATOM     14  C   UNL A   1      42.827  23.805  25.890  1.00  0.00     0.010 A 
ATOM     15  C   UNL A   1      43.340  24.089  27.160  1.00  0.00    -0.014 A 
BRANCH  15  16
ATOM     16  C   UNL A   1      44.007  25.359  27.467  1.00  0.00     0.031 A 
ATOM     17  C   UNL A   1      43.188  26.402  28.164  1.00  0.00     0.074 A 
ATOM     18  C   UNL A   1      45.332  25.485  27.284  1.00  0.00     0.049 A 
ATOM     19  N   UNL A   1      43.493  27.632  28.460  1.00  0.00    -0.248 NA
ATOM     20  C   UNL A   1      41.839  25.991  28.599  1.00  0.00     0.031 C 
ATOM     21  C   UNL A   1      46.221  24.431  26.785  1.00  0.00     0.029 A 
ATOM     22  N   UNL A   1      46.169  26.538  27.525  1.00  0.00    -0.354 N 
ATOM     23  C   UNL A   1      42.361  28.155  29.073  1.00  0.00     0.074 A 
ATOM     24  C   UNL A   1      41.363  27.114  29.112  1.00  0.00     0.031 C 
ATOM     25  C   UNL A   1      47.481  24.892  26.763  1.00  0.00     0.029 A 
ATOM     26  C   UNL A   1      47.472  26.294  27.163  1.00  0.00     0.049 A 
ATOM     27  H   UNL A   1      45.868  27.389  27.918  1.00  0.00     0.167 HD
ATOM     28  C   UNL A   1      42.185  29.407  29.547  1.00  0.00     0.037 A 
ATOM     29  C   UNL A   1      48.518  27.140  27.113  1.00  0.00     0.037 A 
ATOM     30  C   UNL A   1      43.219  30.402  29.484  1.00  0.00     0.049 A 
ATOM     31  C   UNL A   1      48.264  28.567  27.524  1.00  0.00     0.074 A 
ATOM     32  C   UNL A   1      43.166  31.734  29.841  1.00  0.00     0.029 A 
ATOM     33  N   UNL A   1      44.510  30.153  29.028  1.00  0.00    -0.354 N 
ATOM     34  N   UNL A   1      47.160  29.102  27.999  1.00  0.00    -0.248 NA
ATOM     35  C   UNL A   1      49.376  29.510  27.375  1.00  0.00     0.031 C 
ATOM     36  C   UNL A   1      44.411  32.303  29.552  1.00  0.00     0.029 A 
ATOM     37  C   UNL A   1      45.260  31.311  29.074  1.00  0.00     0.049 A 
ATOM     38  H   UNL A   1      44.840  29.281  28.717  1.00  0.00     0.167 HD
ATOM     39  C   UNL A   1      47.449  30.440  28.225  1.00  0.00     0.074 A 
ATOM     40  C   UNL A   1      48.839  30.628  27.847  1.00  0.00     0.031 C 
ATOM     41  C   UNL A   1      46.649  31.430  28.695  1.00  0.00     0.037 A 
BRANCH  28  42
ATOM     42  C   UNL A   1      40.820  29.762  30.065  1.00  0.00     0.058 A 
ATOM     43  C   UNL A   1      39.729  29.996  29.212  1.00  0.00     0.135 A 
ATOM     44  C   UNL A   1      40.617  29.926  31.445  1.00  0.00     0.135 A 
ATOM     45  F   UNL A   1      39.877  29.898  27.881  1.00  0.00    -0.206 F 
ATOM     46  C   UNL A   1      38.493  30.403  29.708  1.00  0.00     0.059 A 
ATOM     47  C   UNL A   1      39.383  30.306  31.964  1.00  0.00     0.059 A 
ATOM     48  F   UNL A   1      41.631  29.739  32.304  1.00  0.00    -0.206 F 
ATOM     49  C   UNL A   1      38.331  30.557  31.086  1.00  0.00     0.060 A 
BRANCH  49  50
ATOM     50  S   UNL A   1      36.725  31.094  31.713  1.00  0.00     0.124 S 
ATOM     51  O   UNL A   1      36.019  29.821  31.837  1.00  0.00    -0.237 OA
ATOM     52  O   UNL A   1      37.084  31.743  32.969  1.00  0.00    -0.237 OA
ATOM     53  O   UNL A   1      36.231  31.984  30.668  1.00  0.00    -0.744 OA
ENDBRANCH  49  50
ENDBRANCH  28  42
BRANCH  29  54
ATOM     54  C   UNL A   1      49.839  26.686  26.598  1.00  0.00     0.058 A 
ATOM     55  C   UNL A   1      50.758  26.022  27.422  1.00  0.00     0.135 A 
ATOM     56  C   UNL A   1      50.212  26.906  25.260  1.00  0.00     0.135 A 
ATOM     57  F   UNL A   1      50.459  25.791  28.709  1.00  0.00    -0.206 F 
ATOM     58  C   UNL A   1      52.001  25.606  26.946  1.00  0.00     0.059 A 
ATOM     59  C   UNL A   1      51.434  26.473  24.753  1.00  0.00     0.059 A 
ATOM     60  F   UNL A   1      49.372  27.531  24.420  1.00  0.00    -0.206 F 
ATOM     61  C   UNL A   1      52.328  25.835  25.608  1.00  0.00     0.060 A 
BRANCH  61  62
ATOM     62  S   UNL A   1      53.929  25.267  24.994  1.00  0.00     0.124 S 
ATOM     63  O   UNL A   1      53.828  25.579  23.574  1.00  0.00    -0.237 OA
ATOM     64  O   UNL A   1      54.859  26.086  25.765  1.00  0.00    -0.237 OA
ATOM     65  O   UNL A   1      53.934  23.846  25.329  1.00  0.00    -0.744 OA
ENDBRANCH  61  62
ENDBRANCH  29  54
BRANCH  41  66
ATOM     66  C   UNL A   1      47.275  32.781  28.867  1.00  0.00     0.058 A 
ATOM     67  C   UNL A   1      47.943  33.138  30.046  1.00  0.00     0.135 A 
ATOM     68  C   UNL A   1      47.273  33.694  27.801  1.00  0.00     0.135 A 
ATOM     69  F   UNL A   1      47.963  32.298  31.094  1.00  0.00    -0.206 F 
ATOM     70  C   UNL A   1      48.577  34.367  30.170  1.00  0.00     0.059 A 
ATOM     71  C   UNL A   1      47.928  34.915  27.891  1.00  0.00     0.059 A 
ATOM     72  F   UNL A   1      46.656  33.388  26.647  1.00  0.00    -0.206 F 
ATOM     73  C   UNL A   1      48.570  35.245  29.083  1.00  0.00     0.060 A 
BRANCH  73  74
ATOM     74  S   UNL A   1      49.446  36.813  29.238  1.00  0.00     0.124 S 
ATOM     75  O   UNL A   1      48.751  37.426  30.365  1.00  0.00    -0.237 OA
ATOM     76  O   UNL A   1      50.816  36.380  29.497  1.00  0.00    -0.237 OA
ATOM     77  O   UNL A   1      49.230  37.452  27.944  1.00  0.00    -0.744 OA
ENDBRANCH  73  74
ENDBRANCH  41  66
ENDBRANCH  15  16
ENDBRANCH   8  10
ENDBRANCH   7   8
ENDBRANCH   6   7
ENDBRANCH   5   6
ENDBRANCH   4   5
ENDBRANCH   3   4
ENDBRANCH   2   3
ENDBRANCH   1   2
BRANCH   1  78
ATOM     78  C   UNL A   1      33.200  23.218  23.504  1.00  0.00     0.188 C 
BRANCH  78  79
ATOM     79  C   UNL A   1      32.330  24.078  22.559  1.00  0.00     0.188 C 
BRANCH  79  80
ATOM     80  O   UNL A   1      33.045  24.665  21.486  1.00  0.00    -0.376 OA
BRANCH  80  81
ATOM     81  C   UNL A   1      33.100  26.086  21.502  1.00  0.00     0.202 C 
BRANCH  81  82
ATOM     82  C   UNL A   1      32.325  26.752  22.646  1.00  0.00     0.261 C 
BRANCH  82  83
ATOM     83  O   UNL A   1      31.101  27.450  22.321  1.00  0.00    -0.460 OA
BRANCH  83  84
ATOM     84  C   UNL A   1      29.971  27.304  23.052  1.00  0.00     0.341 C 
ATOM     85  O   UNL A   1      29.560  26.290  23.591  1.00  0.00    -0.246 OA
BRANCH  84  86
ATOM     86  C   UNL A   1      29.367  28.645  23.232  1.00  0.00     0.102 A 
ATOM     87  C   UNL A   1      28.070  28.858  22.744  1.00  0.00     0.021 A 
ATOM     88  C   UNL A   1      30.081  29.731  23.779  1.00  0.00     0.144 A 
ATOM     89  C   UNL A   1      27.501  30.120  22.828  1.00  0.00     0.021 A 
ATOM     90  N   UNL A   1      29.503  30.958  23.870  1.00  0.00    -0.238 NA
ATOM     91  C   UNL A   1      28.247  31.126  23.409  1.00  0.00     0.113 A 
BRANCH  88  92
ATOM     92  N   UNL A   1      31.464  29.652  24.066  1.00  0.00    -0.340 N 
ATOM     93  H   UNL A   1      32.088  29.914  23.351  1.00  0.00     0.168 HD
BRANCH  92  94
ATOM     94  C   UNL A   1      32.025  29.232  25.292  1.00  0.00     0.040 A 
ATOM     95  C   UNL A   1      31.358  28.327  26.125  1.00  0.00     0.026 A 
ATOM     96  C   UNL A   1      33.217  29.802  25.744  1.00  0.00     0.039 A 
ATOM     97  C   UNL A   1      31.876  27.992  27.383  1.00  0.00     0.003 A 
ATOM     98  C   UNL A   1      33.752  29.479  27.002  1.00  0.00     0.058 A 
ATOM     99  C   UNL A   1      33.065  28.571  27.822  1.00  0.00     0.013 A 
BRANCH  98 100
ATOM    100  C   UNL A   1      35.038  30.106  27.471  1.00  0.00     0.416 C 
ATOM    101  F   UNL A   1      35.293  29.861  28.786  1.00  0.00    -0.166 F 
ATOM    102  F   UNL A   1      36.124  29.642  26.790  1.00  0.00    -0.166 F 
ATOM    103  F   UNL A   1      35.069  31.462  27.333  1.00  0.00    -0.166 F 
ENDBRANCH  98 100
ENDBRANCH  92  94
ENDBRANCH  88  92
ENDBRANCH  84  86
ENDBRANCH  83  84
ENDBRANCH  82  83
ENDBRANCH  81  82
ENDBRANCH  80  81
ENDBRANCH  79  80
ENDBRANCH  78  79
ENDBRANCH   1  78
TORSDOF 26
ENDMDL
