MODEL 1
REMARK VINA RESULT:      -7.4      0.000      0.000
REMARK SMILES CCCC[C@@H](C(=O)OCCOCCOCCOCCOC(=O)c1ccc(-c2c3nc(c(-c4c(F)cc(S(=O)(=O)[O-])cc4F)c4ccc([nH]4)c(-c4c(F)cc(S(=O)(=O)[O-])cc4F)c4nc(c(-c5c(F)cc(S(=O)(=O)[O-])cc5F)c5ccc2[nH]5)C=C4)C=C3)cc1)[C@](C)(O)c1cccc(Br)c1
REMARK SMILES IDX 14 1 13 2 12 3 11 4 10 5 9 6 8 7 6 8 7 9 5 10 4 11 3 12 2 13
REMARK SMILES IDX 1 14 89 15 90 16 91 17 92 19 93 20 98 21 94 22 96 23 95 24
REMARK SMILES IDX 97 25 15 26 16 27 17 28 18 29 19 30 20 31 21 32 22 33 23 34
REMARK SMILES IDX 24 35 88 36 25 37 87 38 26 39 27 40 28 41 81 42 29 43 86 44
REMARK SMILES IDX 80 45 82 46 30 47 85 48 79 49 78 50 31 52 65 53 44 54 64 55
REMARK SMILES IDX 45 56 48 57 63 58 83 59 46 60 47 61 62 63 84 64 49 65 32 66
REMARK SMILES IDX 33 67 42 68 34 69 35 70 41 71 43 72 36 73 37 74 38 75 39 76
REMARK SMILES IDX 40 77 66 78 67 79 76 80 68 81 69 82 75 83 77 84 70 85 71 86
REMARK SMILES IDX 72 87 73 88 74 89 50 90 51 91 60 92 52 93 53 94 59 95 61 96
REMARK SMILES IDX 54 97 55 98 56 99 57 100 58 101
REMARK H PARENT 91 18 82 51 48 62
REMARK Flexibility Score: inf
ROOT
ATOM      1  O   UNL A   1      43.813  19.192  25.898  1.00  0.00    -0.377 OA
ENDROOT
BRANCH   1   2
ATOM      2  C   UNL A   1      42.511  18.780  25.518  1.00  0.00     0.188 C 
BRANCH   2   3
ATOM      3  C   UNL A   1      41.265  19.415  26.159  1.00  0.00     0.188 C 
BRANCH   3   4
ATOM      4  O   UNL A   1      41.425  19.789  27.518  1.00  0.00    -0.376 OA
BRANCH   4   5
ATOM      5  C   UNL A   1      41.233  21.165  27.804  1.00  0.00     0.202 C 
BRANCH   5   6
ATOM      6  C   UNL A   1      42.458  21.937  28.309  1.00  0.00     0.261 C 
BRANCH   6   7
ATOM      7  O   UNL A   1      43.340  22.441  27.285  1.00  0.00    -0.463 OA
BRANCH   7   8
ATOM      8  C   UNL A   1      42.880  23.356  26.411  1.00  0.00     0.312 C 
ATOM      9  O   UNL A   1      42.798  23.138  25.207  1.00  0.00    -0.252 OA
BRANCH   8  10
ATOM     10  C   UNL A   1      42.523  24.714  27.048  1.00  0.00     0.135 C 
BRANCH  10  11
ATOM     11  C   UNL A   1      42.622  24.904  28.597  1.00  0.00     0.019 C 
BRANCH  11  12
ATOM     12  C   UNL A   1      43.681  25.823  29.216  1.00  0.00     0.001 C 
BRANCH  12  13
ATOM     13  C   UNL A   1      44.842  25.129  29.914  1.00  0.00    -0.003 C 
ATOM     14  C   UNL A   1      44.446  24.544  31.262  1.00  0.00     0.004 C 
ENDBRANCH  12  13
ENDBRANCH  11  12
ENDBRANCH  10  11
BRANCH  10  15
ATOM     15  C   UNL A   1      41.181  25.346  26.465  1.00  0.00     0.100 C 
ATOM     16  C   UNL A   1      39.957  24.423  26.642  1.00  0.00     0.048 C 
BRANCH  15  17
ATOM     17  O   UNL A   1      41.353  25.404  25.024  1.00  0.00    -0.385 OA
ATOM     18  H   UNL A   1      42.146  24.904  24.772  1.00  0.00     0.211 HD
ENDBRANCH  15  17
BRANCH  15  19
ATOM     19  C   UNL A   1      40.838  26.795  26.879  1.00  0.00    -0.015 A 
ATOM     20  C   UNL A   1      41.651  27.872  26.462  1.00  0.00     0.007 A 
ATOM     21  C   UNL A   1      39.693  27.129  27.630  1.00  0.00     0.022 A 
ATOM     22  C   UNL A   1      41.371  29.200  26.813  1.00  0.00     0.002 A 
ATOM     23  C   UNL A   1      39.409  28.461  27.970  1.00  0.00     0.018 A 
ATOM     24  C   UNL A   1      40.248  29.496  27.574  1.00  0.00     0.016 A 
ATOM     25  Br  UNL A   1      37.869  28.860  28.997  1.00  0.00    -0.051 Br
ENDBRANCH  15  19
ENDBRANCH  10  15
ENDBRANCH   8  10
ENDBRANCH   7   8
ENDBRANCH   6   7
ENDBRANCH   5   6
ENDBRANCH   4   5
ENDBRANCH   3   4
ENDBRANCH   2   3
ENDBRANCH   1   2
BRANCH   1  26
ATOM     26  C   UNL A   1      44.526  20.050  25.023  1.00  0.00     0.188 C 
BRANCH  26  27
ATOM     27  C   UNL A   1      46.068  19.976  25.013  1.00  0.00     0.188 C 
BRANCH  27  28
ATOM     28  O   UNL A   1      46.728  21.207  24.754  1.00  0.00    -0.376 OA
BRANCH  28  29
ATOM     29  C   UNL A   1      45.940  22.294  24.293  1.00  0.00     0.202 C 
BRANCH  29  30
ATOM     30  C   UNL A   1      46.564  23.697  24.324  1.00  0.00     0.261 C 
BRANCH  30  31
ATOM     31  O   UNL A   1      45.937  24.656  25.186  1.00  0.00    -0.460 OA
BRANCH  31  32
ATOM     32  C   UNL A   1      46.332  24.719  26.475  1.00  0.00     0.338 C 
ATOM     33  O   UNL A   1      46.700  23.802  27.186  1.00  0.00    -0.246 OA
BRANCH  32  34
ATOM     34  C   UNL A   1      46.426  26.152  26.812  1.00  0.00     0.060 A 
ATOM     35  C   UNL A   1      47.375  26.585  27.751  1.00  0.00     0.016 A 
ATOM     36  C   UNL A   1      45.614  27.070  26.142  1.00  0.00     0.016 A 
ATOM     37  C   UNL A   1      47.507  27.945  28.031  1.00  0.00     0.010 A 
ATOM     38  C   UNL A   1      45.718  28.422  26.454  1.00  0.00     0.010 A 
ATOM     39  C   UNL A   1      46.640  28.859  27.421  1.00  0.00    -0.014 A 
BRANCH  39  40
ATOM     40  C   UNL A   1      46.469  30.214  27.989  1.00  0.00     0.031 A 
ATOM     41  C   UNL A   1      45.238  30.445  28.821  1.00  0.00     0.074 A 
ATOM     42  C   UNL A   1      47.337  31.209  27.743  1.00  0.00     0.049 A 
ATOM     43  N   UNL A   1      44.739  31.561  29.276  1.00  0.00    -0.248 NA
ATOM     44  C   UNL A   1      44.455  29.246  29.174  1.00  0.00     0.031 C 
ATOM     45  C   UNL A   1      48.592  31.081  27.005  1.00  0.00     0.029 A 
ATOM     46  N   UNL A   1      47.273  32.539  28.073  1.00  0.00    -0.354 N 
ATOM     47  C   UNL A   1      43.582  31.200  29.957  1.00  0.00     0.074 A 
ATOM     48  C   UNL A   1      43.435  29.769  29.833  1.00  0.00     0.031 C 
ATOM     49  C   UNL A   1      49.169  32.294  26.916  1.00  0.00     0.029 A 
ATOM     50  C   UNL A   1      48.301  33.287  27.548  1.00  0.00     0.049 A 
ATOM     51  H   UNL A   1      46.560  32.923  28.634  1.00  0.00     0.167 HD
ATOM     52  C   UNL A   1      42.719  31.996  30.627  1.00  0.00     0.037 A 
ATOM     53  C   UNL A   1      48.488  34.623  27.550  1.00  0.00     0.037 A 
ATOM     54  C   UNL A   1      42.868  33.421  30.726  1.00  0.00     0.049 A 
ATOM     55  C   UNL A   1      47.458  35.504  28.220  1.00  0.00     0.074 A 
ATOM     56  C   UNL A   1      42.041  34.332  31.357  1.00  0.00     0.029 A 
ATOM     57  N   UNL A   1      43.917  34.142  30.173  1.00  0.00    -0.354 N 
ATOM     58  N   UNL A   1      46.358  35.160  28.848  1.00  0.00    -0.248 NA
ATOM     59  C   UNL A   1      47.691  36.956  28.176  1.00  0.00     0.031 C 
ATOM     60  C   UNL A   1      42.567  35.610  31.147  1.00  0.00     0.029 A 
ATOM     61  C   UNL A   1      43.754  35.489  30.441  1.00  0.00     0.049 A 
ATOM     62  H   UNL A   1      44.665  33.753  29.665  1.00  0.00     0.167 HD
ATOM     63  C   UNL A   1      45.799  36.345  29.319  1.00  0.00     0.074 A 
ATOM     64  C   UNL A   1      46.674  37.416  28.895  1.00  0.00     0.031 C 
ATOM     65  C   UNL A   1      44.667  36.531  30.044  1.00  0.00     0.037 A 
BRANCH  52  66
ATOM     66  C   UNL A   1      41.533  31.343  31.277  1.00  0.00     0.058 A 
ATOM     67  C   UNL A   1      41.651  30.632  32.482  1.00  0.00     0.135 A 
ATOM     68  C   UNL A   1      40.257  31.447  30.700  1.00  0.00     0.135 A 
ATOM     69  F   UNL A   1      42.853  30.476  33.060  1.00  0.00    -0.206 F 
ATOM     70  C   UNL A   1      40.551  30.030  33.082  1.00  0.00     0.059 A 
ATOM     71  C   UNL A   1      39.137  30.880  31.298  1.00  0.00     0.059 A 
ATOM     72  F   UNL A   1      40.089  32.106  29.542  1.00  0.00    -0.206 F 
ATOM     73  C   UNL A   1      39.297  30.164  32.485  1.00  0.00     0.060 A 
BRANCH  73  74
ATOM     74  S   UNL A   1      37.876  29.397  33.290  1.00  0.00     0.124 S 
ATOM     75  O   UNL A   1      36.766  29.986  32.545  1.00  0.00    -0.237 OA
ATOM     76  O   UNL A   1      38.114  27.977  33.054  1.00  0.00    -0.237 OA
ATOM     77  O   UNL A   1      37.995  29.829  34.679  1.00  0.00    -0.744 OA
ENDBRANCH  73  74
ENDBRANCH  52  66
BRANCH  53  78
ATOM     78  C   UNL A   1      49.678  35.223  26.887  1.00  0.00     0.058 A 
ATOM     79  C   UNL A   1      50.840  35.519  27.618  1.00  0.00     0.135 A 
ATOM     80  C   UNL A   1      49.672  35.546  25.521  1.00  0.00     0.135 A 
ATOM     81  F   UNL A   1      50.894  35.241  28.929  1.00  0.00    -0.206 F 
ATOM     82  C   UNL A   1      51.939  36.136  27.027  1.00  0.00     0.059 A 
ATOM     83  C   UNL A   1      50.770  36.136  24.901  1.00  0.00     0.059 A 
ATOM     84  F   UNL A   1      48.591  35.279  24.771  1.00  0.00    -0.206 F 
ATOM     85  C   UNL A   1      51.894  36.442  25.667  1.00  0.00     0.060 A 
BRANCH  85  86
ATOM     86  S   UNL A   1      53.333  37.224  24.907  1.00  0.00     0.124 S 
ATOM     87  O   UNL A   1      53.178  36.831  23.511  1.00  0.00    -0.237 OA
ATOM     88  O   UNL A   1      53.107  38.635  25.203  1.00  0.00    -0.237 OA
ATOM     89  O   UNL A   1      54.458  36.616  25.613  1.00  0.00    -0.744 OA
ENDBRANCH  85  86
ENDBRANCH  53  78
BRANCH  65  90
ATOM     90  C   UNL A   1      44.347  37.924  30.508  1.00  0.00     0.058 A 
ATOM     91  C   UNL A   1      43.511  38.782  29.778  1.00  0.00     0.135 A 
ATOM     92  C   UNL A   1      44.801  38.361  31.766  1.00  0.00     0.135 A 
ATOM     93  F   UNL A   1      43.056  38.415  28.571  1.00  0.00    -0.206 F 
ATOM     94  C   UNL A   1      43.141  40.027  30.277  1.00  0.00     0.059 A 
ATOM     95  C   UNL A   1      44.418  39.589  32.295  1.00  0.00     0.059 A 
ATOM     96  F   UNL A   1      45.593  37.572  32.510  1.00  0.00    -0.206 F 
ATOM     97  C   UNL A   1      43.590  40.417  31.541  1.00  0.00     0.060 A 
BRANCH  97  98
ATOM     98  S   UNL A   1      43.038  42.001  32.205  1.00  0.00     0.124 S 
ATOM     99  O   UNL A   1      44.190  42.404  33.003  1.00  0.00    -0.237 OA
ATOM    100  O   UNL A   1      42.802  42.781  30.994  1.00  0.00    -0.237 OA
ATOM    101  O   UNL A   1      41.840  41.655  32.963  1.00  0.00    -0.744 OA
ENDBRANCH  97  98
ENDBRANCH  65  90
ENDBRANCH  39  40
ENDBRANCH  32  34
ENDBRANCH  31  32
ENDBRANCH  30  31
ENDBRANCH  29  30
ENDBRANCH  28  29
ENDBRANCH  27  28
ENDBRANCH  26  27
ENDBRANCH   1  26
TORSDOF 29
ENDMDL
MODEL 2
REMARK VINA RESULT:      -7.3      0.805      8.002
REMARK SMILES CCCC[C@@H](C(=O)OCCOCCOCCOCCOC(=O)c1ccc(-c2c3nc(c(-c4c(F)cc(S(=O)(=O)[O-])cc4F)c4ccc([nH]4)c(-c4c(F)cc(S(=O)(=O)[O-])cc4F)c4nc(c(-c5c(F)cc(S(=O)(=O)[O-])cc5F)c5ccc2[nH]5)C=C4)C=C3)cc1)[C@](C)(O)c1cccc(Br)c1
REMARK SMILES IDX 14 1 13 2 12 3 11 4 10 5 9 6 8 7 6 8 7 9 5 10 4 11 3 12 2 13
REMARK SMILES IDX 1 14 89 15 90 16 91 17 92 19 93 20 98 21 94 22 96 23 95 24
REMARK SMILES IDX 97 25 15 26 16 27 17 28 18 29 19 30 20 31 21 32 22 33 23 34
REMARK SMILES IDX 24 35 88 36 25 37 87 38 26 39 27 40 28 41 81 42 29 43 86 44
REMARK SMILES IDX 80 45 82 46 30 47 85 48 79 49 78 50 31 52 65 53 44 54 64 55
REMARK SMILES IDX 45 56 48 57 63 58 83 59 46 60 47 61 62 63 84 64 49 65 32 66
REMARK SMILES IDX 33 67 42 68 34 69 35 70 41 71 43 72 36 73 37 74 38 75 39 76
REMARK SMILES IDX 40 77 66 78 67 79 76 80 68 81 69 82 75 83 77 84 70 85 71 86
REMARK SMILES IDX 72 87 73 88 74 89 50 90 51 91 60 92 52 93 53 94 59 95 61 96
REMARK SMILES IDX 54 97 55 98 56 99 57 100 58 101
REMARK H PARENT 91 18 82 51 48 62
REMARK Flexibility Score: inf
ROOT
ATOM      1  O   UNL A   1      44.330  18.651  25.802  1.00  0.00    -0.377 OA
ENDROOT
BRANCH   1   2
ATOM      2  C   UNL A   1      43.036  18.107  25.599  1.00  0.00     0.188 C 
BRANCH   2   3
ATOM      3  C   UNL A   1      41.786  18.832  26.126  1.00  0.00     0.188 C 
BRANCH   3   4
ATOM      4  O   UNL A   1      41.990  19.573  27.318  1.00  0.00    -0.376 OA
BRANCH   4   5
ATOM      5  C   UNL A   1      41.708  20.960  27.235  1.00  0.00     0.202 C 
BRANCH   5   6
ATOM      6  C   UNL A   1      42.685  21.902  27.950  1.00  0.00     0.261 C 
BRANCH   6   7
ATOM      7  O   UNL A   1      43.495  22.726  27.088  1.00  0.00    -0.463 OA
BRANCH   7   8
ATOM      8  C   UNL A   1      42.899  23.643  26.302  1.00  0.00     0.312 C 
ATOM      9  O   UNL A   1      42.763  23.489  25.093  1.00  0.00    -0.252 OA
BRANCH   8  10
ATOM     10  C   UNL A   1      42.459  24.921  27.044  1.00  0.00     0.135 C 
BRANCH  10  11
ATOM     11  C   UNL A   1      42.810  25.110  28.556  1.00  0.00     0.019 C 
BRANCH  11  12
ATOM     12  C   UNL A   1      43.692  26.273  29.024  1.00  0.00     0.001 C 
BRANCH  12  13
ATOM     13  C   UNL A   1      43.566  26.658  30.491  1.00  0.00    -0.003 C 
ATOM     14  C   UNL A   1      44.897  27.066  31.104  1.00  0.00     0.004 C 
ENDBRANCH  12  13
ENDBRANCH  11  12
ENDBRANCH  10  11
BRANCH  10  15
ATOM     15  C   UNL A   1      40.952  25.336  26.736  1.00  0.00     0.100 C 
ATOM     16  C   UNL A   1      39.971  24.149  26.831  1.00  0.00     0.048 C 
BRANCH  15  17
ATOM     17  O   UNL A   1      40.909  25.696  25.329  1.00  0.00    -0.385 OA
ATOM     18  H   UNL A   1      41.513  25.122  24.831  1.00  0.00     0.211 HD
ENDBRANCH  15  17
BRANCH  15  19
ATOM     19  C   UNL A   1      40.388  26.571  27.475  1.00  0.00    -0.015 A 
ATOM     20  C   UNL A   1      40.385  27.839  26.853  1.00  0.00     0.007 A 
ATOM     21  C   UNL A   1      39.807  26.502  28.757  1.00  0.00     0.022 A 
ATOM     22  C   UNL A   1      39.879  28.982  27.488  1.00  0.00     0.002 A 
ATOM     23  C   UNL A   1      39.291  27.645  29.387  1.00  0.00     0.018 A 
ATOM     24  C   UNL A   1      39.334  28.886  28.762  1.00  0.00     0.016 A 
ATOM     25  Br  UNL A   1      38.539  27.506  31.118  1.00  0.00    -0.051 Br
ENDBRANCH  15  19
ENDBRANCH  10  15
ENDBRANCH   8  10
ENDBRANCH   7   8
ENDBRANCH   6   7
ENDBRANCH   5   6
ENDBRANCH   4   5
ENDBRANCH   3   4
ENDBRANCH   2   3
ENDBRANCH   1   2
BRANCH   1  26
ATOM     26  C   UNL A   1      44.745  19.719  24.966  1.00  0.00     0.188 C 
BRANCH  26  27
ATOM     27  C   UNL A   1      46.244  19.843  24.621  1.00  0.00     0.188 C 
BRANCH  27  28
ATOM     28  O   UNL A   1      46.787  21.149  24.757  1.00  0.00    -0.376 OA
BRANCH  28  29
ATOM     29  C   UNL A   1      45.920  22.251  24.537  1.00  0.00     0.202 C 
BRANCH  29  30
ATOM     30  C   UNL A   1      46.538  23.656  24.503  1.00  0.00     0.261 C 
BRANCH  30  31
ATOM     31  O   UNL A   1      46.014  24.607  25.439  1.00  0.00    -0.460 OA
BRANCH  31  32
ATOM     32  C   UNL A   1      46.714  24.855  26.566  1.00  0.00     0.338 C 
ATOM     33  O   UNL A   1      47.456  24.096  27.163  1.00  0.00    -0.246 OA
BRANCH  32  34
ATOM     34  C   UNL A   1      46.568  26.297  26.838  1.00  0.00     0.060 A 
ATOM     35  C   UNL A   1      47.129  26.846  28.001  1.00  0.00     0.016 A 
ATOM     36  C   UNL A   1      45.932  27.112  25.900  1.00  0.00     0.016 A 
ATOM     37  C   UNL A   1      47.044  28.218  28.236  1.00  0.00     0.010 A 
ATOM     38  C   UNL A   1      45.810  28.475  26.155  1.00  0.00     0.010 A 
ATOM     39  C   UNL A   1      46.337  29.026  27.337  1.00  0.00    -0.014 A 
BRANCH  39  40
ATOM     40  C   UNL A   1      45.875  30.369  27.749  1.00  0.00     0.031 A 
ATOM     41  C   UNL A   1      46.821  31.511  27.505  1.00  0.00     0.074 A 
ATOM     42  C   UNL A   1      44.692  30.565  28.353  1.00  0.00     0.049 A 
ATOM     43  N   UNL A   1      46.765  32.743  27.929  1.00  0.00    -0.248 NA
ATOM     44  C   UNL A   1      48.005  31.211  26.677  1.00  0.00     0.031 C 
ATOM     45  C   UNL A   1      43.672  29.544  28.581  1.00  0.00     0.029 A 
ATOM     46  N   UNL A   1      44.162  31.702  28.911  1.00  0.00    -0.354 N 
ATOM     47  C   UNL A   1      47.907  33.360  27.431  1.00  0.00     0.074 A 
ATOM     48  C   UNL A   1      48.652  32.363  26.699  1.00  0.00     0.031 C 
ATOM     49  C   UNL A   1      42.646  30.096  29.256  1.00  0.00     0.029 A 
ATOM     50  C   UNL A   1      42.961  31.495  29.548  1.00  0.00     0.049 A 
ATOM     51  H   UNL A   1      44.599  32.583  28.859  1.00  0.00     0.167 HD
ATOM     52  C   UNL A   1      48.297  34.646  27.574  1.00  0.00     0.037 A 
ATOM     53  C   UNL A   1      42.229  32.334  30.309  1.00  0.00     0.037 A 
ATOM     54  C   UNL A   1      47.555  35.621  28.322  1.00  0.00     0.049 A 
ATOM     55  C   UNL A   1      42.734  33.740  30.539  1.00  0.00     0.074 A 
ATOM     56  C   UNL A   1      47.867  36.948  28.557  1.00  0.00     0.029 A 
ATOM     57  N   UNL A   1      46.348  35.370  28.961  1.00  0.00    -0.354 N 
ATOM     58  N   UNL A   1      43.823  34.314  30.079  1.00  0.00    -0.248 NA
ATOM     59  C   UNL A   1      41.916  34.613  31.396  1.00  0.00     0.031 C 
ATOM     60  C   UNL A   1      46.871  37.487  29.376  1.00  0.00     0.029 A 
ATOM     61  C   UNL A   1      45.907  36.515  29.597  1.00  0.00     0.049 A 
ATOM     62  H   UNL A   1      45.877  34.506  28.961  1.00  0.00     0.167 HD
ATOM     63  C   UNL A   1      43.790  35.626  30.545  1.00  0.00     0.074 A 
ATOM     64  C   UNL A   1      42.583  35.759  31.332  1.00  0.00     0.031 C 
ATOM     65  C   UNL A   1      44.675  36.632  30.337  1.00  0.00     0.037 A 
BRANCH  52  66
ATOM     66  C   UNL A   1      49.591  35.055  26.931  1.00  0.00     0.058 A 
ATOM     67  C   UNL A   1      50.799  35.064  27.647  1.00  0.00     0.135 A 
ATOM     68  C   UNL A   1      49.629  35.424  25.576  1.00  0.00     0.135 A 
ATOM     69  F   UNL A   1      50.814  34.750  28.952  1.00  0.00    -0.206 F 
ATOM     70  C   UNL A   1      51.996  35.443  27.048  1.00  0.00     0.059 A 
ATOM     71  C   UNL A   1      50.819  35.776  24.949  1.00  0.00     0.059 A 
ATOM     72  F   UNL A   1      48.501  35.445  24.849  1.00  0.00    -0.206 F 
ATOM     73  C   UNL A   1      51.997  35.792  25.697  1.00  0.00     0.060 A 
BRANCH  73  74
ATOM     74  S   UNL A   1      53.563  36.257  24.931  1.00  0.00     0.124 S 
ATOM     75  O   UNL A   1      54.321  36.734  26.084  1.00  0.00    -0.237 OA
ATOM     76  O   UNL A   1      54.014  34.995  24.354  1.00  0.00    -0.237 OA
ATOM     77  O   UNL A   1      53.179  37.283  23.966  1.00  0.00    -0.744 OA
ENDBRANCH  73  74
ENDBRANCH  52  66
BRANCH  53  78
ATOM     78  C   UNL A   1      40.955  31.879  30.931  1.00  0.00     0.058 A 
ATOM     79  C   UNL A   1      39.714  32.243  30.383  1.00  0.00     0.135 A 
ATOM     80  C   UNL A   1      40.946  31.102  32.100  1.00  0.00     0.135 A 
ATOM     81  F   UNL A   1      39.667  32.995  29.274  1.00  0.00    -0.206 F 
ATOM     82  C   UNL A   1      38.513  31.877  30.986  1.00  0.00     0.059 A 
ATOM     83  C   UNL A   1      39.758  30.699  32.704  1.00  0.00     0.059 A 
ATOM     84  F   UNL A   1      42.102  30.717  32.662  1.00  0.00    -0.206 F 
ATOM     85  C   UNL A   1      38.546  31.105  32.147  1.00  0.00     0.060 A 
BRANCH  85  86
ATOM     86  S   UNL A   1      36.981  30.621  32.908  1.00  0.00     0.124 S 
ATOM     87  O   UNL A   1      36.260  30.066  31.768  1.00  0.00    -0.237 OA
ATOM     88  O   UNL A   1      37.416  29.661  33.918  1.00  0.00    -0.237 OA
ATOM     89  O   UNL A   1      36.459  31.879  33.434  1.00  0.00    -0.744 OA
ENDBRANCH  85  86
ENDBRANCH  53  78
BRANCH  65  90
ATOM     90  C   UNL A   1      44.340  37.992  30.883  1.00  0.00     0.058 A 
ATOM     91  C   UNL A   1      43.648  38.951  30.129  1.00  0.00     0.135 A 
ATOM     92  C   UNL A   1      44.624  38.292  32.228  1.00  0.00     0.135 A 
ATOM     93  F   UNL A   1      43.357  38.715  28.840  1.00  0.00    -0.206 F 
ATOM     94  C   UNL A   1      43.253  40.162  30.687  1.00  0.00     0.059 A 
ATOM     95  C   UNL A   1      44.213  39.485  32.812  1.00  0.00     0.059 A 
ATOM     96  F   UNL A   1      45.274  37.403  32.995  1.00  0.00    -0.206 F 
ATOM     97  C   UNL A   1      43.530  40.415  32.033  1.00  0.00     0.060 A 
BRANCH  97  98
ATOM     98  S   UNL A   1      42.944  41.959  32.762  1.00  0.00     0.124 S 
ATOM     99  O   UNL A   1      41.929  41.479  33.693  1.00  0.00    -0.237 OA
ATOM    100  O   UNL A   1      44.157  42.497  33.368  1.00  0.00    -0.237 OA
ATOM    101  O   UNL A   1      42.439  42.707  31.614  1.00  0.00    -0.744 OA
ENDBRANCH  97  98
ENDBRANCH  65  90
ENDBRANCH  39  40
ENDBRANCH  32  34
ENDBRANCH  31  32
ENDBRANCH  30  31
ENDBRANCH  29  30
ENDBRANCH  28  29
ENDBRANCH  27  28
ENDBRANCH  26  27
ENDBRANCH   1  26
TORSDOF 29
ENDMDL
MODEL 3
REMARK VINA RESULT:      -7.3      6.739      9.714
REMARK SMILES CCCC[C@@H](C(=O)OCCOCCOCCOCCOC(=O)c1ccc(-c2c3nc(c(-c4c(F)cc(S(=O)(=O)[O-])cc4F)c4ccc([nH]4)c(-c4c(F)cc(S(=O)(=O)[O-])cc4F)c4nc(c(-c5c(F)cc(S(=O)(=O)[O-])cc5F)c5ccc2[nH]5)C=C4)C=C3)cc1)[C@](C)(O)c1cccc(Br)c1
REMARK SMILES IDX 14 1 13 2 12 3 11 4 10 5 9 6 8 7 6 8 7 9 5 10 4 11 3 12 2 13
REMARK SMILES IDX 1 14 89 15 90 16 91 17 92 19 93 20 98 21 94 22 96 23 95 24
REMARK SMILES IDX 97 25 15 26 16 27 17 28 18 29 19 30 20 31 21 32 22 33 23 34
REMARK SMILES IDX 24 35 88 36 25 37 87 38 26 39 27 40 28 41 81 42 29 43 86 44
REMARK SMILES IDX 80 45 82 46 30 47 85 48 79 49 78 50 31 52 65 53 44 54 64 55
REMARK SMILES IDX 45 56 48 57 63 58 83 59 46 60 47 61 62 63 84 64 49 65 32 66
REMARK SMILES IDX 33 67 42 68 34 69 35 70 41 71 43 72 36 73 37 74 38 75 39 76
REMARK SMILES IDX 40 77 66 78 67 79 76 80 68 81 69 82 75 83 77 84 70 85 71 86
REMARK SMILES IDX 72 87 73 88 74 89 50 90 51 91 60 92 52 93 53 94 59 95 61 96
REMARK SMILES IDX 54 97 55 98 56 99 57 100 58 101
REMARK H PARENT 91 18 82 51 48 62
REMARK Flexibility Score: inf
ROOT
ATOM      1  O   UNL A   1      41.123  19.474  26.680  1.00  0.00    -0.377 OA
ENDROOT
BRANCH   1   2
ATOM      2  C   UNL A   1      40.075  20.295  26.191  1.00  0.00     0.188 C 
BRANCH   2   3
ATOM      3  C   UNL A   1      38.927  19.695  25.362  1.00  0.00     0.188 C 
BRANCH   3   4
ATOM      4  O   UNL A   1      37.708  20.418  25.429  1.00  0.00    -0.376 OA
BRANCH   4   5
ATOM      5  C   UNL A   1      37.798  21.803  25.135  1.00  0.00     0.202 C 
BRANCH   5   6
ATOM      6  C   UNL A   1      36.628  22.679  25.599  1.00  0.00     0.261 C 
BRANCH   6   7
ATOM      7  O   UNL A   1      36.309  23.793  24.740  1.00  0.00    -0.463 OA
BRANCH   7   8
ATOM      8  C   UNL A   1      35.306  23.673  23.849  1.00  0.00     0.312 C 
ATOM      9  O   UNL A   1      35.475  23.230  22.718  1.00  0.00    -0.252 OA
BRANCH   8  10
ATOM     10  C   UNL A   1      33.947  24.195  24.356  1.00  0.00     0.135 C 
BRANCH  10  11
ATOM     11  C   UNL A   1      32.914  23.206  24.988  1.00  0.00     0.019 C 
BRANCH  11  12
ATOM     12  C   UNL A   1      32.023  23.635  26.160  1.00  0.00     0.001 C 
BRANCH  12  13
ATOM     13  C   UNL A   1      31.040  22.589  26.668  1.00  0.00    -0.003 C 
ATOM     14  C   UNL A   1      29.683  23.185  27.013  1.00  0.00     0.004 C 
ENDBRANCH  12  13
ENDBRANCH  11  12
ENDBRANCH  10  11
BRANCH  10  15
ATOM     15  C   UNL A   1      33.246  25.205  23.342  1.00  0.00     0.100 C 
ATOM     16  C   UNL A   1      32.213  24.515  22.426  1.00  0.00     0.048 C 
BRANCH  15  17
ATOM     17  O   UNL A   1      34.281  25.635  22.418  1.00  0.00    -0.385 OA
ATOM     18  H   UNL A   1      33.898  26.240  21.762  1.00  0.00     0.211 HD
ENDBRANCH  15  17
BRANCH  15  19
ATOM     19  C   UNL A   1      32.670  26.515  23.925  1.00  0.00    -0.015 A 
ATOM     20  C   UNL A   1      33.268  27.122  25.052  1.00  0.00     0.007 A 
ATOM     21  C   UNL A   1      31.578  27.197  23.352  1.00  0.00     0.022 A 
ATOM     22  C   UNL A   1      32.778  28.312  25.608  1.00  0.00     0.002 A 
ATOM     23  C   UNL A   1      31.097  28.395  23.904  1.00  0.00     0.018 A 
ATOM     24  C   UNL A   1      31.685  28.949  25.035  1.00  0.00     0.016 A 
ATOM     25  Br  UNL A   1      29.614  29.265  23.111  1.00  0.00    -0.051 Br
ENDBRANCH  15  19
ENDBRANCH  10  15
ENDBRANCH   8  10
ENDBRANCH   7   8
ENDBRANCH   6   7
ENDBRANCH   5   6
ENDBRANCH   4   5
ENDBRANCH   3   4
ENDBRANCH   2   3
ENDBRANCH   1   2
BRANCH   1  26
ATOM     26  C   UNL A   1      42.450  19.968  26.606  1.00  0.00     0.188 C 
BRANCH  26  27
ATOM     27  C   UNL A   1      43.295  19.623  25.361  1.00  0.00     0.188 C 
BRANCH  27  28
ATOM     28  O   UNL A   1      43.845  20.741  24.678  1.00  0.00    -0.376 OA
BRANCH  28  29
ATOM     29  C   UNL A   1      44.854  21.489  25.340  1.00  0.00     0.202 C 
BRANCH  29  30
ATOM     30  C   UNL A   1      44.616  22.992  25.543  1.00  0.00     0.261 C 
BRANCH  30  31
ATOM     31  O   UNL A   1      43.671  23.358  26.557  1.00  0.00    -0.460 OA
BRANCH  31  32
ATOM     32  C   UNL A   1      42.433  23.738  26.176  1.00  0.00     0.338 C 
ATOM     33  O   UNL A   1      41.681  23.162  25.410  1.00  0.00    -0.246 OA
BRANCH  32  34
ATOM     34  C   UNL A   1      42.073  24.892  27.020  1.00  0.00     0.060 A 
ATOM     35  C   UNL A   1      42.454  26.185  26.629  1.00  0.00     0.016 A 
ATOM     36  C   UNL A   1      41.299  24.692  28.165  1.00  0.00     0.016 A 
ATOM     37  C   UNL A   1      42.067  27.286  27.393  1.00  0.00     0.010 A 
ATOM     38  C   UNL A   1      40.950  25.787  28.949  1.00  0.00     0.010 A 
ATOM     39  C   UNL A   1      41.360  27.081  28.584  1.00  0.00    -0.014 A 
BRANCH  39  40
ATOM     40  C   UNL A   1      41.300  28.149  29.606  1.00  0.00     0.031 A 
ATOM     41  C   UNL A   1      42.306  28.071  30.721  1.00  0.00     0.074 A 
ATOM     42  C   UNL A   1      40.370  29.117  29.577  1.00  0.00     0.049 A 
ATOM     43  N   UNL A   1      42.366  28.745  31.836  1.00  0.00    -0.248 NA
ATOM     44  C   UNL A   1      43.386  27.079  30.556  1.00  0.00     0.031 C 
ATOM     45  C   UNL A   1      39.390  29.325  28.513  1.00  0.00     0.029 A 
ATOM     46  N   UNL A   1      40.087  30.098  30.494  1.00  0.00    -0.354 N 
ATOM     47  C   UNL A   1      43.479  28.253  32.508  1.00  0.00     0.074 A 
ATOM     48  C   UNL A   1      44.049  27.206  31.693  1.00  0.00     0.031 C 
ATOM     49  C   UNL A   1      38.594  30.356  28.852  1.00  0.00     0.029 A 
ATOM     50  C   UNL A   1      38.978  30.847  30.175  1.00  0.00     0.049 A 
ATOM     51  H   UNL A   1      40.626  30.252  31.303  1.00  0.00     0.167 HD
ATOM     52  C   UNL A   1      43.980  28.644  33.701  1.00  0.00     0.037 A 
ATOM     53  C   UNL A   1      38.335  31.789  30.893  1.00  0.00     0.037 A 
ATOM     54  C   UNL A   1      43.391  29.674  34.509  1.00  0.00     0.049 A 
ATOM     55  C   UNL A   1      38.854  32.141  32.269  1.00  0.00     0.074 A 
ATOM     56  C   UNL A   1      43.797  30.135  35.748  1.00  0.00     0.029 A 
ATOM     57  N   UNL A   1      42.264  30.403  34.156  1.00  0.00    -0.354 N 
ATOM     58  N   UNL A   1      39.897  31.662  32.907  1.00  0.00    -0.248 NA
ATOM     59  C   UNL A   1      38.107  33.157  33.027  1.00  0.00     0.031 C 
ATOM     60  C   UNL A   1      42.888  31.112  36.164  1.00  0.00     0.029 A 
ATOM     61  C   UNL A   1      41.954  31.304  35.157  1.00  0.00     0.049 A 
ATOM     62  H   UNL A   1      41.760  30.293  33.318  1.00  0.00     0.167 HD
ATOM     63  C   UNL A   1      39.961  32.355  34.113  1.00  0.00     0.074 A 
ATOM     64  C   UNL A   1      38.846  33.278  34.122  1.00  0.00     0.031 C 
ATOM     65  C   UNL A   1      40.863  32.245  35.120  1.00  0.00     0.037 A 
BRANCH  52  66
ATOM     66  C   UNL A   1      45.205  27.935  34.206  1.00  0.00     0.058 A 
ATOM     67  C   UNL A   1      46.496  28.417  33.942  1.00  0.00     0.135 A 
ATOM     68  C   UNL A   1      45.085  26.771  34.983  1.00  0.00     0.135 A 
ATOM     69  F   UNL A   1      46.668  29.509  33.179  1.00  0.00    -0.206 F 
ATOM     70  C   UNL A   1      47.628  27.760  34.412  1.00  0.00     0.059 A 
ATOM     71  C   UNL A   1      46.202  26.115  35.490  1.00  0.00     0.059 A 
ATOM     72  F   UNL A   1      43.874  26.260  35.255  1.00  0.00    -0.206 F 
ATOM     73  C   UNL A   1      47.470  26.613  35.190  1.00  0.00     0.060 A 
BRANCH  73  74
ATOM     74  S   UNL A   1      48.948  25.786  35.812  1.00  0.00     0.124 S 
ATOM     75  O   UNL A   1      50.004  26.509  35.109  1.00  0.00    -0.237 OA
ATOM     76  O   UNL A   1      48.861  26.032  37.248  1.00  0.00    -0.237 OA
ATOM     77  O   UNL A   1      48.761  24.397  35.403  1.00  0.00    -0.744 OA
ENDBRANCH  73  74
ENDBRANCH  52  66
BRANCH  53  78
ATOM     78  C   UNL A   1      37.121  32.459  30.351  1.00  0.00     0.058 A 
ATOM     79  C   UNL A   1      37.224  33.446  29.357  1.00  0.00     0.135 A 
ATOM     80  C   UNL A   1      35.838  32.157  30.834  1.00  0.00     0.135 A 
ATOM     81  F   UNL A   1      38.427  33.781  28.869  1.00  0.00    -0.206 F 
ATOM     82  C   UNL A   1      36.106  34.125  28.882  1.00  0.00     0.059 A 
ATOM     83  C   UNL A   1      34.702  32.802  30.354  1.00  0.00     0.059 A 
ATOM     84  F   UNL A   1      35.679  31.217  31.779  1.00  0.00    -0.206 F 
ATOM     85  C   UNL A   1      34.848  33.797  29.388  1.00  0.00     0.060 A 
BRANCH  85  86
ATOM     86  S   UNL A   1      33.402  34.671  28.750  1.00  0.00     0.124 S 
ATOM     87  O   UNL A   1      32.560  34.751  29.938  1.00  0.00    -0.237 OA
ATOM     88  O   UNL A   1      33.983  35.929  28.293  1.00  0.00    -0.237 OA
ATOM     89  O   UNL A   1      32.918  33.791  27.690  1.00  0.00    -0.744 OA
ENDBRANCH  85  86
ENDBRANCH  53  78
BRANCH  65  90
ATOM     90  C   UNL A   1      40.750  33.197  36.278  1.00  0.00     0.058 A 
ATOM     91  C   UNL A   1      41.502  34.379  36.350  1.00  0.00     0.135 A 
ATOM     92  C   UNL A   1      39.785  32.969  37.275  1.00  0.00     0.135 A 
ATOM     93  F   UNL A   1      42.439  34.640  35.425  1.00  0.00    -0.206 F 
ATOM     94  C   UNL A   1      41.305  35.299  37.374  1.00  0.00     0.059 A 
ATOM     95  C   UNL A   1      39.553  33.890  38.291  1.00  0.00     0.059 A 
ATOM     96  F   UNL A   1      39.030  31.859  37.244  1.00  0.00    -0.206 F 
ATOM     97  C   UNL A   1      40.320  35.051  38.334  1.00  0.00     0.060 A 
BRANCH  97  98
ATOM     98  S   UNL A   1      40.026  36.291  39.612  1.00  0.00     0.124 S 
ATOM     99  O   UNL A   1      39.958  37.517  38.824  1.00  0.00    -0.237 OA
ATOM    100  O   UNL A   1      38.767  35.843  40.197  1.00  0.00    -0.237 OA
ATOM    101  O   UNL A   1      41.194  36.168  40.480  1.00  0.00    -0.744 OA
ENDBRANCH  97  98
ENDBRANCH  65  90
ENDBRANCH  39  40
ENDBRANCH  32  34
ENDBRANCH  31  32
ENDBRANCH  30  31
ENDBRANCH  29  30
ENDBRANCH  28  29
ENDBRANCH  27  28
ENDBRANCH  26  27
ENDBRANCH   1  26
TORSDOF 29
ENDMDL
