MODEL 1
REMARK VINA RESULT:      -6.9      0.000      0.000
REMARK SMILES O=C(OCCOCCOCCOCCOC(=O)c1nnn(-c2ccc(C(F)(F)F)cc2)c1-c1cccc(Cl)c1)c1ccc(-c2c3nc(c(-c4c(F)cc(S(=O)(=O)[O-])cc4F)c4ccc([nH]4)c(-c4c(F)cc(S(=O)(=O)[O-])cc4F)c4nc(c(-c5c(F)cc(S(=O)(=O)[O-])cc5F)c5ccc2[nH]5)C=C4)C=C3)cc1
REMARK SMILES IDX 8 1 7 2 6 3 5 4 4 5 3 6 2 7 1 8 40 9 41 10 105 11 42 12
REMARK SMILES IDX 104 13 43 14 44 15 45 16 98 17 46 18 103 19 97 20 99 21
REMARK SMILES IDX 47 22 102 23 96 24 95 25 48 27 82 28 61 29 81 30 62 31 65 32
REMARK SMILES IDX 80 33 100 34 63 35 64 36 79 38 101 39 66 40 49 41 50 42
REMARK SMILES IDX 59 43 51 44 52 45 58 46 60 47 53 48 54 49 55 50 56 51 57 52
REMARK SMILES IDX 83 53 84 54 93 55 85 56 86 57 92 58 94 59 87 60 88 61 89 62
REMARK SMILES IDX 90 63 91 64 67 65 68 66 77 67 69 68 70 69 76 70 78 71 71 72
REMARK SMILES IDX 72 73 73 74 74 75 75 76 9 77 10 78 11 79 12 80 13 81 14 82
REMARK SMILES IDX 15 83 16 84 17 85 18 86 19 87 32 88 20 89 21 90 33 91 34 92
REMARK SMILES IDX 39 93 35 94 37 95 36 96 38 97 22 98 23 99 31 100 24 101
REMARK SMILES IDX 30 102 25 103 26 104 27 105 28 106 29 107
REMARK H PARENT 99 26 65 37
REMARK Flexibility Score: inf
ROOT
ATOM      1  C   UNL A   1      52.610  24.845  38.701  1.00  0.00     0.188 C 
ENDROOT
BRANCH   1   2
ATOM      2  C   UNL A   1      51.289  25.614  38.825  1.00  0.00     0.188 C 
BRANCH   2   3
ATOM      3  O   UNL A   1      50.086  25.011  39.262  1.00  0.00    -0.376 OA
BRANCH   3   4
ATOM      4  C   UNL A   1      49.074  25.551  40.082  1.00  0.00     0.202 C 
BRANCH   4   5
ATOM      5  C   UNL A   1      47.669  25.978  39.653  1.00  0.00     0.261 C 
BRANCH   5   6
ATOM      6  O   UNL A   1      47.536  26.733  38.457  1.00  0.00    -0.460 OA
BRANCH   6   7
ATOM      7  C   UNL A   1      47.071  27.983  38.271  1.00  0.00     0.338 C 
ATOM      8  O   UNL A   1      47.265  28.806  39.164  1.00  0.00    -0.246 OA
BRANCH   7   9
ATOM      9  C   UNL A   1      46.217  28.384  37.120  1.00  0.00     0.060 A 
ATOM     10  C   UNL A   1      44.827  28.287  37.054  1.00  0.00     0.016 A 
ATOM     11  C   UNL A   1      46.914  28.892  36.005  1.00  0.00     0.016 A 
ATOM     12  C   UNL A   1      44.164  28.565  35.871  1.00  0.00     0.010 A 
ATOM     13  C   UNL A   1      46.252  29.190  34.823  1.00  0.00     0.010 A 
ATOM     14  C   UNL A   1      44.888  28.944  34.744  1.00  0.00    -0.014 A 
BRANCH  14  15
ATOM     15  C   UNL A   1      44.162  28.938  33.485  1.00  0.00     0.031 A 
ATOM     16  C   UNL A   1      44.365  27.769  32.591  1.00  0.00     0.074 A 
ATOM     17  C   UNL A   1      43.381  29.975  33.129  1.00  0.00     0.049 A 
ATOM     18  N   UNL A   1      44.919  27.738  31.422  1.00  0.00    -0.248 NA
ATOM     19  C   UNL A   1      43.968  26.451  33.105  1.00  0.00     0.031 C 
ATOM     20  C   UNL A   1      42.893  31.077  33.966  1.00  0.00     0.029 A 
ATOM     21  N   UNL A   1      42.791  30.211  31.929  1.00  0.00    -0.354 N 
ATOM     22  C   UNL A   1      44.773  26.431  30.963  1.00  0.00     0.074 A 
ATOM     23  C   UNL A   1      44.285  25.660  32.080  1.00  0.00     0.031 C 
ATOM     24  C   UNL A   1      41.909  31.728  33.307  1.00  0.00     0.029 A 
ATOM     25  C   UNL A   1      41.812  31.187  31.964  1.00  0.00     0.049 A 
ATOM     26  H   UNL A   1      43.038  29.728  31.106  1.00  0.00     0.167 HD
ATOM     27  C   UNL A   1      44.892  26.097  29.647  1.00  0.00     0.037 A 
ATOM     28  C   UNL A   1      40.928  31.475  30.980  1.00  0.00     0.037 A 
ATOM     29  C   UNL A   1      45.607  27.092  28.897  1.00  0.00     0.049 A 
ATOM     30  C   UNL A   1      41.508  30.984  29.703  1.00  0.00     0.074 A 
ATOM     31  C   UNL A   1      46.886  27.614  28.955  1.00  0.00     0.029 A 
ATOM     32  N   UNL A   1      44.897  27.953  28.098  1.00  0.00    -0.354 N 
ATOM     33  N   UNL A   1      42.571  31.489  29.137  1.00  0.00    -0.248 NA
ATOM     34  C   UNL A   1      41.145  29.648  29.257  1.00  0.00     0.031 C 
ATOM     35  C   UNL A   1      46.743  28.989  28.609  1.00  0.00     0.029 A 
ATOM     36  C   UNL A   1      45.394  29.212  28.329  1.00  0.00     0.049 A 
ATOM     37  H   UNL A   1      44.169  27.714  27.480  1.00  0.00     0.167 HD
ATOM     38  C   UNL A   1      43.231  30.406  28.576  1.00  0.00     0.074 A 
ATOM     39  C   UNL A   1      42.257  29.319  28.596  1.00  0.00     0.031 C 
ATOM     40  C   UNL A   1      44.584  30.410  28.389  1.00  0.00     0.037 A 
BRANCH  27  41
ATOM     41  C   UNL A   1      44.106  24.989  28.994  1.00  0.00     0.058 A 
ATOM     42  C   UNL A   1      44.769  23.894  28.404  1.00  0.00     0.135 A 
ATOM     43  C   UNL A   1      42.729  25.102  28.700  1.00  0.00     0.135 A 
ATOM     44  F   UNL A   1      46.084  23.708  28.596  1.00  0.00    -0.206 F 
ATOM     45  C   UNL A   1      44.118  23.001  27.550  1.00  0.00     0.059 A 
ATOM     46  C   UNL A   1      42.049  24.195  27.895  1.00  0.00     0.059 A 
ATOM     47  F   UNL A   1      42.004  26.153  29.104  1.00  0.00    -0.206 F 
ATOM     48  C   UNL A   1      42.759  23.171  27.291  1.00  0.00     0.060 A 
BRANCH  48  49
ATOM     49  S   UNL A   1      41.939  22.093  26.102  1.00  0.00     0.124 S 
ATOM     50  O   UNL A   1      42.567  22.510  24.853  1.00  0.00    -0.237 OA
ATOM     51  O   UNL A   1      42.302  20.766  26.589  1.00  0.00    -0.237 OA
ATOM     52  O   UNL A   1      40.530  22.444  26.249  1.00  0.00    -0.744 OA
ENDBRANCH  48  49
ENDBRANCH  27  41
BRANCH  28  53
ATOM     53  C   UNL A   1      39.490  31.787  31.160  1.00  0.00     0.058 A 
ATOM     54  C   UNL A   1      38.634  30.902  31.834  1.00  0.00     0.135 A 
ATOM     55  C   UNL A   1      38.983  33.080  30.910  1.00  0.00     0.135 A 
ATOM     56  F   UNL A   1      39.049  29.663  32.137  1.00  0.00    -0.206 F 
ATOM     57  C   UNL A   1      37.362  31.289  32.269  1.00  0.00     0.059 A 
ATOM     58  C   UNL A   1      37.716  33.482  31.320  1.00  0.00     0.059 A 
ATOM     59  F   UNL A   1      39.742  34.026  30.337  1.00  0.00    -0.206 F 
ATOM     60  C   UNL A   1      36.920  32.589  32.022  1.00  0.00     0.060 A 
BRANCH  60  61
ATOM     61  S   UNL A   1      35.353  33.145  32.731  1.00  0.00     0.124 S 
ATOM     62  O   UNL A   1      35.363  34.565  32.402  1.00  0.00    -0.237 OA
ATOM     63  O   UNL A   1      34.383  32.327  32.009  1.00  0.00    -0.237 OA
ATOM     64  O   UNL A   1      35.494  32.831  34.151  1.00  0.00    -0.744 OA
ENDBRANCH  60  61
ENDBRANCH  28  53
BRANCH  40  65
ATOM     65  C   UNL A   1      45.324  31.717  28.527  1.00  0.00     0.058 A 
ATOM     66  C   UNL A   1      45.497  32.635  27.477  1.00  0.00     0.135 A 
ATOM     67  C   UNL A   1      45.718  32.130  29.809  1.00  0.00     0.135 A 
ATOM     68  F   UNL A   1      45.050  32.361  26.243  1.00  0.00    -0.206 F 
ATOM     69  C   UNL A   1      46.065  33.894  27.686  1.00  0.00     0.059 A 
ATOM     70  C   UNL A   1      46.259  33.393  30.047  1.00  0.00     0.059 A 
ATOM     71  F   UNL A   1      45.522  31.324  30.867  1.00  0.00    -0.206 F 
ATOM     72  C   UNL A   1      46.438  34.267  28.977  1.00  0.00     0.060 A 
BRANCH  72  73
ATOM     73  S   UNL A   1      47.065  35.938  29.261  1.00  0.00     0.124 S 
ATOM     74  O   UNL A   1      48.462  35.815  28.855  1.00  0.00    -0.237 OA
ATOM     75  O   UNL A   1      46.220  36.748  28.387  1.00  0.00    -0.237 OA
ATOM     76  O   UNL A   1      46.846  36.146  30.690  1.00  0.00    -0.744 OA
ENDBRANCH  72  73
ENDBRANCH  40  65
ENDBRANCH  14  15
ENDBRANCH   7   9
ENDBRANCH   6   7
ENDBRANCH   5   6
ENDBRANCH   4   5
ENDBRANCH   3   4
ENDBRANCH   2   3
ENDBRANCH   1   2
BRANCH   1  77
ATOM     77  O   UNL A   1      53.160  24.803  37.395  1.00  0.00    -0.377 OA
BRANCH  77  78
ATOM     78  C   UNL A   1      52.320  24.192  36.437  1.00  0.00     0.188 C 
BRANCH  78  79
ATOM     79  C   UNL A   1      52.984  23.090  35.581  1.00  0.00     0.188 C 
BRANCH  79  80
ATOM     80  O   UNL A   1      53.303  21.785  36.060  1.00  0.00    -0.376 OA
BRANCH  80  81
ATOM     81  C   UNL A   1      52.388  20.710  35.969  1.00  0.00     0.202 C 
BRANCH  81  82
ATOM     82  C   UNL A   1      51.361  20.828  34.844  1.00  0.00     0.261 C 
BRANCH  82  83
ATOM     83  O   UNL A   1      50.047  21.164  35.296  1.00  0.00    -0.458 OA
BRANCH  83  84
ATOM     84  C   UNL A   1      49.025  20.859  34.445  1.00  0.00     0.361 C 
ATOM     85  O   UNL A   1      49.145  20.409  33.314  1.00  0.00    -0.244 OA
BRANCH  84  86
ATOM     86  C   UNL A   1      47.742  21.174  35.039  1.00  0.00     0.198 A 
ATOM     87  N   UNL A   1      46.865  20.241  35.540  1.00  0.00    -0.122 NA
ATOM     88  C   UNL A   1      47.251  22.443  35.276  1.00  0.00     0.109 A 
ATOM     89  N   UNL A   1      45.850  20.890  36.101  1.00  0.00    -0.061 NA
ATOM     90  N   UNL A   1      45.985  22.196  35.781  1.00  0.00    -0.212 N 
BRANCH  88  91
ATOM     91  C   UNL A   1      47.848  23.752  35.039  1.00  0.00     0.004 A 
ATOM     92  C   UNL A   1      48.586  24.400  36.039  1.00  0.00     0.010 A 
ATOM     93  C   UNL A   1      47.700  24.365  33.788  1.00  0.00     0.031 A 
ATOM     94  C   UNL A   1      49.153  25.652  35.798  1.00  0.00     0.002 A 
ATOM     95  C   UNL A   1      48.275  25.610  33.552  1.00  0.00     0.041 A 
ATOM     96  C   UNL A   1      48.996  26.259  34.552  1.00  0.00     0.020 A 
ATOM     97  Cl  UNL A   1      48.083  26.352  32.011  1.00  0.00    -0.084 Cl
ENDBRANCH  88  91
BRANCH  90  98
ATOM     98  C   UNL A   1      44.885  23.075  35.786  1.00  0.00     0.067 A 
ATOM     99  C   UNL A   1      43.825  22.906  34.897  1.00  0.00     0.029 A 
ATOM    100  C   UNL A   1      44.880  24.117  36.722  1.00  0.00     0.029 A 
ATOM    101  C   UNL A   1      42.705  23.736  35.022  1.00  0.00     0.015 A 
ATOM    102  C   UNL A   1      43.782  24.961  36.816  1.00  0.00     0.015 A 
ATOM    103  C   UNL A   1      42.669  24.761  35.990  1.00  0.00     0.056 A 
BRANCH 103 104
ATOM    104  C   UNL A   1      41.443  25.621  36.161  1.00  0.00     0.416 C 
ATOM    105  F   UNL A   1      40.284  24.915  36.063  1.00  0.00    -0.166 F 
ATOM    106  F   UNL A   1      41.410  26.239  37.373  1.00  0.00    -0.166 F 
ATOM    107  F   UNL A   1      41.350  26.619  35.236  1.00  0.00    -0.166 F 
ENDBRANCH 103 104
ENDBRANCH  90  98
ENDBRANCH  84  86
ENDBRANCH  83  84
ENDBRANCH  82  83
ENDBRANCH  81  82
ENDBRANCH  80  81
ENDBRANCH  79  80
ENDBRANCH  78  79
ENDBRANCH  77  78
ENDBRANCH   1  77
TORSDOF 26
ENDMDL
MODEL 2
REMARK VINA RESULT:      -6.8      6.529     13.078
REMARK SMILES O=C(OCCOCCOCCOCCOC(=O)c1nnn(-c2ccc(C(F)(F)F)cc2)c1-c1cccc(Cl)c1)c1ccc(-c2c3nc(c(-c4c(F)cc(S(=O)(=O)[O-])cc4F)c4ccc([nH]4)c(-c4c(F)cc(S(=O)(=O)[O-])cc4F)c4nc(c(-c5c(F)cc(S(=O)(=O)[O-])cc5F)c5ccc2[nH]5)C=C4)C=C3)cc1
REMARK SMILES IDX 8 1 7 2 6 3 5 4 4 5 3 6 2 7 1 8 40 9 41 10 105 11 42 12
REMARK SMILES IDX 104 13 43 14 44 15 45 16 98 17 46 18 103 19 97 20 99 21
REMARK SMILES IDX 47 22 102 23 96 24 95 25 48 27 82 28 61 29 81 30 62 31 65 32
REMARK SMILES IDX 80 33 100 34 63 35 64 36 79 38 101 39 66 40 49 41 50 42
REMARK SMILES IDX 59 43 51 44 52 45 58 46 60 47 53 48 54 49 55 50 56 51 57 52
REMARK SMILES IDX 83 53 84 54 93 55 85 56 86 57 92 58 94 59 87 60 88 61 89 62
REMARK SMILES IDX 90 63 91 64 67 65 68 66 77 67 69 68 70 69 76 70 78 71 71 72
REMARK SMILES IDX 72 73 73 74 74 75 75 76 9 77 10 78 11 79 12 80 13 81 14 82
REMARK SMILES IDX 15 83 16 84 17 85 18 86 19 87 32 88 20 89 21 90 33 91 34 92
REMARK SMILES IDX 39 93 35 94 37 95 36 96 38 97 22 98 23 99 31 100 24 101
REMARK SMILES IDX 30 102 25 103 26 104 27 105 28 106 29 107
REMARK H PARENT 99 26 65 37
REMARK Flexibility Score: inf
ROOT
ATOM      1  C   UNL A   1      41.760  21.010  25.945  1.00  0.00     0.188 C 
ENDROOT
BRANCH   1   2
ATOM      2  C   UNL A   1      42.381  19.623  26.149  1.00  0.00     0.188 C 
BRANCH   2   3
ATOM      3  O   UNL A   1      43.706  19.309  25.765  1.00  0.00    -0.376 OA
BRANCH   3   4
ATOM      4  C   UNL A   1      44.551  19.993  24.868  1.00  0.00     0.202 C 
BRANCH   4   5
ATOM      5  C   UNL A   1      45.341  21.274  25.141  1.00  0.00     0.261 C 
BRANCH   5   6
ATOM      6  O   UNL A   1      44.698  22.315  25.861  1.00  0.00    -0.460 OA
BRANCH   6   7
ATOM      7  C   UNL A   1      44.615  23.632  25.590  1.00  0.00     0.338 C 
ATOM      8  O   UNL A   1      45.056  24.024  24.510  1.00  0.00    -0.246 OA
BRANCH   7   9
ATOM      9  C   UNL A   1      44.158  24.651  26.573  1.00  0.00     0.060 A 
ATOM     10  C   UNL A   1      44.466  26.011  26.551  1.00  0.00     0.016 A 
ATOM     11  C   UNL A   1      43.352  24.157  27.618  1.00  0.00     0.016 A 
ATOM     12  C   UNL A   1      44.091  26.829  27.603  1.00  0.00     0.010 A 
ATOM     13  C   UNL A   1      42.958  24.975  28.666  1.00  0.00     0.010 A 
ATOM     14  C   UNL A   1      43.403  26.290  28.687  1.00  0.00    -0.014 A 
BRANCH  14  15
ATOM     15  C   UNL A   1      43.302  27.136  29.865  1.00  0.00     0.031 A 
ATOM     16  C   UNL A   1      42.206  28.138  29.887  1.00  0.00     0.074 A 
ATOM     17  C   UNL A   1      44.198  27.044  30.864  1.00  0.00     0.049 A 
ATOM     18  N   UNL A   1      42.296  29.430  29.876  1.00  0.00    -0.248 NA
ATOM     19  C   UNL A   1      40.828  27.631  29.836  1.00  0.00     0.031 C 
ATOM     20  C   UNL A   1      45.181  25.983  31.112  1.00  0.00     0.029 A 
ATOM     21  N   UNL A   1      44.357  27.870  31.931  1.00  0.00    -0.354 N 
ATOM     22  C   UNL A   1      40.994  29.907  30.009  1.00  0.00     0.074 A 
ATOM     23  C   UNL A   1      40.126  28.764  29.866  1.00  0.00     0.031 C 
ATOM     24  C   UNL A   1      45.669  26.118  32.364  1.00  0.00     0.029 A 
ATOM     25  C   UNL A   1      45.151  27.347  32.936  1.00  0.00     0.049 A 
ATOM     26  H   UNL A   1      43.943  28.762  31.984  1.00  0.00     0.167 HD
ATOM     27  C   UNL A   1      40.716  31.180  30.405  1.00  0.00     0.037 A 
ATOM     28  C   UNL A   1      45.306  27.852  34.182  1.00  0.00     0.037 A 
ATOM     29  C   UNL A   1      41.836  32.063  30.224  1.00  0.00     0.049 A 
ATOM     30  C   UNL A   1      44.951  29.293  34.126  1.00  0.00     0.074 A 
ATOM     31  C   UNL A   1      42.566  32.485  29.129  1.00  0.00     0.029 A 
ATOM     32  N   UNL A   1      42.581  32.417  31.321  1.00  0.00    -0.354 N 
ATOM     33  N   UNL A   1      45.643  30.196  33.484  1.00  0.00    -0.248 NA
ATOM     34  C   UNL A   1      43.582  29.673  34.444  1.00  0.00     0.031 C 
ATOM     35  C   UNL A   1      43.904  32.615  29.602  1.00  0.00     0.029 A 
ATOM     36  C   UNL A   1      43.900  32.296  30.961  1.00  0.00     0.049 A 
ATOM     37  H   UNL A   1      42.235  32.702  32.197  1.00  0.00     0.167 HD
ATOM     38  C   UNL A   1      44.701  31.075  32.970  1.00  0.00     0.074 A 
ATOM     39  C   UNL A   1      43.464  30.759  33.676  1.00  0.00     0.031 C 
ATOM     40  C   UNL A   1      44.940  31.799  31.837  1.00  0.00     0.037 A 
BRANCH  27  41
ATOM     41  C   UNL A   1      39.505  31.553  31.222  1.00  0.00     0.058 A 
ATOM     42  C   UNL A   1      38.579  32.498  30.737  1.00  0.00     0.135 A 
ATOM     43  C   UNL A   1      39.367  31.203  32.583  1.00  0.00     0.135 A 
ATOM     44  F   UNL A   1      38.638  32.922  29.465  1.00  0.00    -0.206 F 
ATOM     45  C   UNL A   1      37.613  33.084  31.558  1.00  0.00     0.059 A 
ATOM     46  C   UNL A   1      38.379  31.734  33.405  1.00  0.00     0.059 A 
ATOM     47  F   UNL A   1      40.245  30.401  33.200  1.00  0.00    -0.206 F 
ATOM     48  C   UNL A   1      37.532  32.704  32.896  1.00  0.00     0.060 A 
BRANCH  48  49
ATOM     49  S   UNL A   1      36.365  33.536  33.988  1.00  0.00     0.124 S 
ATOM     50  O   UNL A   1      36.655  32.893  35.265  1.00  0.00    -0.237 OA
ATOM     51  O   UNL A   1      36.774  34.932  33.868  1.00  0.00    -0.237 OA
ATOM     52  O   UNL A   1      35.068  33.216  33.399  1.00  0.00    -0.744 OA
ENDBRANCH  48  49
ENDBRANCH  27  41
BRANCH  28  53
ATOM     53  C   UNL A   1      45.364  27.071  35.441  1.00  0.00     0.058 A 
ATOM     54  C   UNL A   1      46.541  27.009  36.203  1.00  0.00     0.135 A 
ATOM     55  C   UNL A   1      44.191  26.588  36.059  1.00  0.00     0.135 A 
ATOM     56  F   UNL A   1      47.694  27.474  35.700  1.00  0.00    -0.206 F 
ATOM     57  C   UNL A   1      46.548  26.532  37.517  1.00  0.00     0.059 A 
ATOM     58  C   UNL A   1      44.177  26.095  37.360  1.00  0.00     0.059 A 
ATOM     59  F   UNL A   1      42.999  26.666  35.449  1.00  0.00    -0.206 F 
ATOM     60  C   UNL A   1      45.355  26.093  38.093  1.00  0.00     0.060 A 
BRANCH  60  61
ATOM     61  S   UNL A   1      45.326  25.640  39.842  1.00  0.00     0.124 S 
ATOM     62  O   UNL A   1      44.121  26.316  40.307  1.00  0.00    -0.237 OA
ATOM     63  O   UNL A   1      45.258  24.183  39.780  1.00  0.00    -0.237 OA
ATOM     64  O   UNL A   1      46.584  26.180  40.353  1.00  0.00    -0.744 OA
ENDBRANCH  60  61
ENDBRANCH  28  53
BRANCH  40  65
ATOM     65  C   UNL A   1      46.351  31.857  31.306  1.00  0.00     0.058 A 
ATOM     66  C   UNL A   1      47.307  32.800  31.720  1.00  0.00     0.135 A 
ATOM     67  C   UNL A   1      46.799  30.812  30.481  1.00  0.00     0.135 A 
ATOM     68  F   UNL A   1      46.987  33.767  32.592  1.00  0.00    -0.206 F 
ATOM     69  C   UNL A   1      48.640  32.728  31.308  1.00  0.00     0.059 A 
ATOM     70  C   UNL A   1      48.129  30.703  30.082  1.00  0.00     0.059 A 
ATOM     71  F   UNL A   1      45.949  29.842  30.102  1.00  0.00    -0.206 F 
ATOM     72  C   UNL A   1      49.044  31.671  30.492  1.00  0.00     0.060 A 
BRANCH  72  73
ATOM     73  S   UNL A   1      50.791  31.517  30.055  1.00  0.00     0.124 S 
ATOM     74  O   UNL A   1      51.145  32.892  29.718  1.00  0.00    -0.237 OA
ATOM     75  O   UNL A   1      51.381  30.994  31.285  1.00  0.00    -0.237 OA
ATOM     76  O   UNL A   1      50.781  30.580  28.934  1.00  0.00    -0.744 OA
ENDBRANCH  72  73
ENDBRANCH  40  65
ENDBRANCH  14  15
ENDBRANCH   7   9
ENDBRANCH   6   7
ENDBRANCH   5   6
ENDBRANCH   4   5
ENDBRANCH   3   4
ENDBRANCH   2   3
ENDBRANCH   1   2
BRANCH   1  77
ATOM     77  O   UNL A   1      40.619  21.281  26.741  1.00  0.00    -0.377 OA
BRANCH  77  78
ATOM     78  C   UNL A   1      39.397  20.910  26.140  1.00  0.00     0.188 C 
BRANCH  78  79
ATOM     79  C   UNL A   1      38.394  22.062  25.910  1.00  0.00     0.188 C 
BRANCH  79  80
ATOM     80  O   UNL A   1      37.227  21.959  25.097  1.00  0.00    -0.376 OA
BRANCH  80  81
ATOM     81  C   UNL A   1      35.958  21.656  25.644  1.00  0.00     0.202 C 
BRANCH  81  82
ATOM     82  C   UNL A   1      35.081  22.869  25.956  1.00  0.00     0.261 C 
BRANCH  82  83
ATOM     83  O   UNL A   1      34.122  22.635  26.990  1.00  0.00    -0.458 OA
BRANCH  83  84
ATOM     84  C   UNL A   1      32.820  22.554  26.590  1.00  0.00     0.361 C 
ATOM     85  O   UNL A   1      32.208  21.524  26.342  1.00  0.00    -0.244 OA
BRANCH  84  86
ATOM     86  C   UNL A   1      32.236  23.873  26.450  1.00  0.00     0.198 A 
ATOM     87  N   UNL A   1      31.863  24.675  27.503  1.00  0.00    -0.122 NA
ATOM     88  C   UNL A   1      32.054  24.555  25.263  1.00  0.00     0.109 A 
ATOM     89  N   UNL A   1      31.473  25.845  27.010  1.00  0.00    -0.061 NA
ATOM     90  N   UNL A   1      31.409  25.712  25.667  1.00  0.00    -0.212 N 
BRANCH  88  91
ATOM     91  C   UNL A   1      32.395  24.187  23.894  1.00  0.00     0.004 A 
ATOM     92  C   UNL A   1      33.045  25.093  23.045  1.00  0.00     0.010 A 
ATOM     93  C   UNL A   1      32.089  22.904  23.424  1.00  0.00     0.031 A 
ATOM     94  C   UNL A   1      33.367  24.727  21.737  1.00  0.00     0.002 A 
ATOM     95  C   UNL A   1      32.420  22.542  22.122  1.00  0.00     0.041 A 
ATOM     96  C   UNL A   1      33.053  23.450  21.274  1.00  0.00     0.020 A 
ATOM     97  Cl  UNL A   1      32.036  20.963  21.558  1.00  0.00    -0.084 Cl
ENDBRANCH  88  91
BRANCH  90  98
ATOM     98  C   UNL A   1      30.601  26.554  24.878  1.00  0.00     0.067 A 
ATOM     99  C   UNL A   1      29.378  26.113  24.376  1.00  0.00     0.029 A 
ATOM    100  C   UNL A   1      31.056  27.855  24.626  1.00  0.00     0.029 A 
ATOM    101  C   UNL A   1      28.562  27.027  23.697  1.00  0.00     0.015 A 
ATOM    102  C   UNL A   1      30.258  28.744  23.920  1.00  0.00     0.015 A 
ATOM    103  C   UNL A   1      28.990  28.351  23.475  1.00  0.00     0.056 A 
BRANCH 103 104
ATOM    104  C   UNL A   1      28.091  29.349  22.792  1.00  0.00     0.416 C 
ATOM    105  F   UNL A   1      28.210  30.605  23.303  1.00  0.00    -0.166 F 
ATOM    106  F   UNL A   1      28.353  29.455  21.460  1.00  0.00    -0.166 F 
ATOM    107  F   UNL A   1      26.767  29.035  22.883  1.00  0.00    -0.166 F 
ENDBRANCH 103 104
ENDBRANCH  90  98
ENDBRANCH  84  86
ENDBRANCH  83  84
ENDBRANCH  82  83
ENDBRANCH  81  82
ENDBRANCH  80  81
ENDBRANCH  79  80
ENDBRANCH  78  79
ENDBRANCH  77  78
ENDBRANCH   1  77
TORSDOF 26
ENDMDL
MODEL 3
REMARK VINA RESULT:      -6.8      8.865     17.191
REMARK SMILES O=C(OCCOCCOCCOCCOC(=O)c1nnn(-c2ccc(C(F)(F)F)cc2)c1-c1cccc(Cl)c1)c1ccc(-c2c3nc(c(-c4c(F)cc(S(=O)(=O)[O-])cc4F)c4ccc([nH]4)c(-c4c(F)cc(S(=O)(=O)[O-])cc4F)c4nc(c(-c5c(F)cc(S(=O)(=O)[O-])cc5F)c5ccc2[nH]5)C=C4)C=C3)cc1
REMARK SMILES IDX 8 1 7 2 6 3 5 4 4 5 3 6 2 7 1 8 40 9 41 10 105 11 42 12
REMARK SMILES IDX 104 13 43 14 44 15 45 16 98 17 46 18 103 19 97 20 99 21
REMARK SMILES IDX 47 22 102 23 96 24 95 25 48 27 82 28 61 29 81 30 62 31 65 32
REMARK SMILES IDX 80 33 100 34 63 35 64 36 79 38 101 39 66 40 49 41 50 42
REMARK SMILES IDX 59 43 51 44 52 45 58 46 60 47 53 48 54 49 55 50 56 51 57 52
REMARK SMILES IDX 83 53 84 54 93 55 85 56 86 57 92 58 94 59 87 60 88 61 89 62
REMARK SMILES IDX 90 63 91 64 67 65 68 66 77 67 69 68 70 69 76 70 78 71 71 72
REMARK SMILES IDX 72 73 73 74 74 75 75 76 9 77 10 78 11 79 12 80 13 81 14 82
REMARK SMILES IDX 15 83 16 84 17 85 18 86 19 87 32 88 20 89 21 90 33 91 34 92
REMARK SMILES IDX 39 93 35 94 37 95 36 96 38 97 22 98 23 99 31 100 24 101
REMARK SMILES IDX 30 102 25 103 26 104 27 105 28 106 29 107
REMARK H PARENT 99 26 65 37
REMARK Flexibility Score: inf
ROOT
ATOM      1  C   UNL A   1      44.210  42.029  30.072  1.00  0.00     0.188 C 
ENDROOT
BRANCH   1   2
ATOM      2  C   UNL A   1      45.236  43.014  30.644  1.00  0.00     0.188 C 
BRANCH   2   3
ATOM      3  O   UNL A   1      46.226  42.637  31.582  1.00  0.00    -0.376 OA
BRANCH   3   4
ATOM      4  C   UNL A   1      46.095  41.816  32.721  1.00  0.00     0.202 C 
BRANCH   4   5
ATOM      5  C   UNL A   1      46.475  40.339  32.842  1.00  0.00     0.261 C 
BRANCH   5   6
ATOM      6  O   UNL A   1      46.662  39.597  31.645  1.00  0.00    -0.460 OA
BRANCH   6   7
ATOM      7  C   UNL A   1      46.719  38.265  31.453  1.00  0.00     0.338 C 
ATOM      8  O   UNL A   1      47.725  37.806  30.914  1.00  0.00    -0.246 OA
BRANCH   7   9
ATOM      9  C   UNL A   1      45.582  37.343  31.719  1.00  0.00     0.060 A 
ATOM     10  C   UNL A   1      44.253  37.546  31.348  1.00  0.00     0.016 A 
ATOM     11  C   UNL A   1      45.915  36.170  32.427  1.00  0.00     0.016 A 
ATOM     12  C   UNL A   1      43.267  36.675  31.778  1.00  0.00     0.010 A 
ATOM     13  C   UNL A   1      44.934  35.284  32.846  1.00  0.00     0.010 A 
ATOM     14  C   UNL A   1      43.605  35.591  32.585  1.00  0.00    -0.014 A 
BRANCH  14  15
ATOM     15  C   UNL A   1      42.498  34.900  33.225  1.00  0.00     0.031 A 
ATOM     16  C   UNL A   1      42.423  34.967  34.707  1.00  0.00     0.074 A 
ATOM     17  C   UNL A   1      41.613  34.190  32.501  1.00  0.00     0.049 A 
ATOM     18  N   UNL A   1      42.551  34.004  35.562  1.00  0.00    -0.248 NA
ATOM     19  C   UNL A   1      42.261  36.294  35.314  1.00  0.00     0.031 C 
ATOM     20  C   UNL A   1      41.401  34.205  31.049  1.00  0.00     0.029 A 
ATOM     21  N   UNL A   1      40.645  33.347  32.947  1.00  0.00    -0.354 N 
ATOM     22  C   UNL A   1      42.298  34.565  36.812  1.00  0.00     0.074 A 
ATOM     23  C   UNL A   1      42.239  35.992  36.612  1.00  0.00     0.031 C 
ATOM     24  C   UNL A   1      40.235  33.586  30.767  1.00  0.00     0.029 A 
ATOM     25  C   UNL A   1      39.707  33.008  31.989  1.00  0.00     0.049 A 
ATOM     26  H   UNL A   1      40.615  33.007  33.871  1.00  0.00     0.167 HD
ATOM     27  C   UNL A   1      41.977  33.813  37.902  1.00  0.00     0.037 A 
ATOM     28  C   UNL A   1      38.536  32.365  32.205  1.00  0.00     0.037 A 
ATOM     29  C   UNL A   1      42.369  32.439  37.749  1.00  0.00     0.049 A 
ATOM     30  C   UNL A   1      38.666  31.617  33.481  1.00  0.00     0.074 A 
ATOM     31  C   UNL A   1      43.576  31.791  37.568  1.00  0.00     0.029 A 
ATOM     32  N   UNL A   1      41.405  31.509  37.447  1.00  0.00    -0.354 N 
ATOM     33  N   UNL A   1      39.461  30.595  33.655  1.00  0.00    -0.248 NA
ATOM     34  C   UNL A   1      38.213  32.265  34.703  1.00  0.00     0.031 C 
ATOM     35  C   UNL A   1      43.284  30.694  36.707  1.00  0.00     0.029 A 
ATOM     36  C   UNL A   1      41.914  30.721  36.445  1.00  0.00     0.049 A 
ATOM     37  H   UNL A   1      40.519  31.424  37.868  1.00  0.00     0.167 HD
ATOM     38  C   UNL A   1      39.925  30.717  34.957  1.00  0.00     0.074 A 
ATOM     39  C   UNL A   1      39.048  31.703  35.580  1.00  0.00     0.031 C 
ATOM     40  C   UNL A   1      41.136  30.210  35.336  1.00  0.00     0.037 A 
BRANCH  27  41
ATOM     41  C   UNL A   1      41.051  34.283  38.995  1.00  0.00     0.058 A 
ATOM     42  C   UNL A   1      41.489  34.328  40.333  1.00  0.00     0.135 A 
ATOM     43  C   UNL A   1      39.661  34.441  38.799  1.00  0.00     0.135 A 
ATOM     44  F   UNL A   1      42.786  34.160  40.634  1.00  0.00    -0.206 F 
ATOM     45  C   UNL A   1      40.603  34.477  41.403  1.00  0.00     0.059 A 
ATOM     46  C   UNL A   1      38.768  34.645  39.845  1.00  0.00     0.059 A 
ATOM     47  F   UNL A   1      39.098  34.312  37.591  1.00  0.00    -0.206 F 
ATOM     48  C   UNL A   1      39.240  34.619  41.146  1.00  0.00     0.060 A 
BRANCH  48  49
ATOM     49  S   UNL A   1      38.080  34.697  42.522  1.00  0.00     0.124 S 
ATOM     50  O   UNL A   1      38.438  35.973  43.131  1.00  0.00    -0.237 OA
ATOM     51  O   UNL A   1      36.791  34.654  41.839  1.00  0.00    -0.237 OA
ATOM     52  O   UNL A   1      38.408  33.509  43.304  1.00  0.00    -0.744 OA
ENDBRANCH  48  49
ENDBRANCH  27  41
BRANCH  28  53
ATOM     53  C   UNL A   1      37.233  32.686  31.572  1.00  0.00     0.058 A 
ATOM     54  C   UNL A   1      36.576  33.897  31.838  1.00  0.00     0.135 A 
ATOM     55  C   UNL A   1      36.738  31.929  30.490  1.00  0.00     0.135 A 
ATOM     56  F   UNL A   1      37.003  34.692  32.832  1.00  0.00    -0.206 F 
ATOM     57  C   UNL A   1      35.512  34.351  31.052  1.00  0.00     0.059 A 
ATOM     58  C   UNL A   1      35.671  32.353  29.703  1.00  0.00     0.059 A 
ATOM     59  F   UNL A   1      37.335  30.792  30.104  1.00  0.00    -0.206 F 
ATOM     60  C   UNL A   1      35.079  33.578  29.974  1.00  0.00     0.060 A 
BRANCH  60  61
ATOM     61  S   UNL A   1      33.824  34.239  28.854  1.00  0.00     0.124 S 
ATOM     62  O   UNL A   1      32.791  34.676  29.786  1.00  0.00    -0.237 OA
ATOM     63  O   UNL A   1      34.555  35.298  28.166  1.00  0.00    -0.237 OA
ATOM     64  O   UNL A   1      33.472  33.089  28.024  1.00  0.00    -0.744 OA
ENDBRANCH  60  61
ENDBRANCH  28  53
BRANCH  40  65
ATOM     65  C   UNL A   1      41.840  29.258  34.402  1.00  0.00     0.058 A 
ATOM     66  C   UNL A   1      42.572  29.665  33.273  1.00  0.00     0.135 A 
ATOM     67  C   UNL A   1      41.921  27.903  34.763  1.00  0.00     0.135 A 
ATOM     68  F   UNL A   1      42.635  30.957  32.923  1.00  0.00    -0.206 F 
ATOM     69  C   UNL A   1      43.324  28.761  32.518  1.00  0.00     0.059 A 
ATOM     70  C   UNL A   1      42.689  26.990  34.043  1.00  0.00     0.059 A 
ATOM     71  F   UNL A   1      41.296  27.462  35.868  1.00  0.00    -0.206 F 
ATOM     72  C   UNL A   1      43.381  27.425  32.915  1.00  0.00     0.060 A 
BRANCH  72  73
ATOM     73  S   UNL A   1      44.446  26.284  32.003  1.00  0.00     0.124 S 
ATOM     74  O   UNL A   1      45.736  26.967  32.048  1.00  0.00    -0.237 OA
ATOM     75  O   UNL A   1      44.350  25.059  32.793  1.00  0.00    -0.237 OA
ATOM     76  O   UNL A   1      43.822  26.214  30.685  1.00  0.00    -0.744 OA
ENDBRANCH  72  73
ENDBRANCH  40  65
ENDBRANCH  14  15
ENDBRANCH   7   9
ENDBRANCH   6   7
ENDBRANCH   5   6
ENDBRANCH   4   5
ENDBRANCH   3   4
ENDBRANCH   2   3
ENDBRANCH   1   2
BRANCH   1  77
ATOM     77  O   UNL A   1      44.534  41.496  28.799  1.00  0.00    -0.377 OA
BRANCH  77  78
ATOM     78  C   UNL A   1      45.422  42.299  28.049  1.00  0.00     0.188 C 
BRANCH  78  79
ATOM     79  C   UNL A   1      44.963  42.630  26.612  1.00  0.00     0.188 C 
BRANCH  79  80
ATOM     80  O   UNL A   1      45.532  42.057  25.436  1.00  0.00    -0.376 OA
BRANCH  80  81
ATOM     81  C   UNL A   1      45.396  42.664  24.166  1.00  0.00     0.202 C 
BRANCH  81  82
ATOM     82  C   UNL A   1      46.688  43.230  23.577  1.00  0.00     0.261 C 
BRANCH  82  83
ATOM     83  O   UNL A   1      47.346  42.340  22.671  1.00  0.00    -0.458 OA
BRANCH  83  84
ATOM     84  C   UNL A   1      46.715  42.124  21.481  1.00  0.00     0.361 C 
ATOM     85  O   UNL A   1      46.158  41.088  21.143  1.00  0.00    -0.244 OA
BRANCH  84  86
ATOM     86  C   UNL A   1      46.815  43.286  20.622  1.00  0.00     0.198 A 
ATOM     87  N   UNL A   1      47.999  43.838  20.194  1.00  0.00    -0.122 NA
ATOM     88  C   UNL A   1      45.757  43.949  20.032  1.00  0.00     0.109 A 
ATOM     89  N   UNL A   1      47.713  44.815  19.340  1.00  0.00    -0.061 NA
ATOM     90  N   UNL A   1      46.376  45.006  19.384  1.00  0.00    -0.212 N 
BRANCH  88  91
ATOM     91  C   UNL A   1      44.325  43.681  20.076  1.00  0.00     0.004 A 
ATOM     92  C   UNL A   1      43.596  43.463  18.899  1.00  0.00     0.010 A 
ATOM     93  C   UNL A   1      43.668  43.619  21.312  1.00  0.00     0.031 A 
ATOM     94  C   UNL A   1      42.225  43.206  18.955  1.00  0.00     0.002 A 
ATOM     95  C   UNL A   1      42.303  43.354  21.362  1.00  0.00     0.041 A 
ATOM     96  C   UNL A   1      41.577  43.153  20.189  1.00  0.00     0.020 A 
ATOM     97  Cl  UNL A   1      41.509  43.284  22.887  1.00  0.00    -0.084 Cl
ENDBRANCH  88  91
BRANCH  90  98
ATOM     98  C   UNL A   1      45.791  46.227  18.998  1.00  0.00     0.067 A 
ATOM     99  C   UNL A   1      45.484  46.488  17.664  1.00  0.00     0.029 A 
ATOM    100  C   UNL A   1      45.512  47.168  19.998  1.00  0.00     0.029 A 
ATOM    101  C   UNL A   1      44.798  47.667  17.351  1.00  0.00     0.015 A 
ATOM    102  C   UNL A   1      44.865  48.352  19.675  1.00  0.00     0.015 A 
ATOM    103  C   UNL A   1      44.472  48.601  18.354  1.00  0.00     0.056 A 
BRANCH 103 104
ATOM    104  C   UNL A   1      43.687  49.845  18.026  1.00  0.00     0.416 C 
ATOM    105  F   UNL A   1      42.359  49.719  18.294  1.00  0.00    -0.166 F 
ATOM    106  F   UNL A   1      44.115  50.928  18.732  1.00  0.00    -0.166 F 
ATOM    107  F   UNL A   1      43.769  50.206  16.713  1.00  0.00    -0.166 F 
ENDBRANCH 103 104
ENDBRANCH  90  98
ENDBRANCH  84  86
ENDBRANCH  83  84
ENDBRANCH  82  83
ENDBRANCH  81  82
ENDBRANCH  80  81
ENDBRANCH  79  80
ENDBRANCH  78  79
ENDBRANCH  77  78
ENDBRANCH   1  77
TORSDOF 26
ENDMDL
