MODEL 1
REMARK VINA RESULT:      -9.5      0.000      0.000
REMARK SMILES C[C@H]1CN([C@@H](C(=O)OCCOCCOCCOCCOC(=O)c2ccc(-c3c4nc(c(-c5c(F)cc(S(=O)(=O)[O-])cc5F)c5ccc([nH]5)c(-c5c(F)cc(S(=O)(=O)[O-])cc5F)c5nc(c(-c6c(F)cc(S(=O)(=O)[O-])cc6F)c6ccc3[nH]6)C=C5)C=C4)cc2)C(C)(C)C)S(=O)(=O)C1
REMARK SMILES IDX 15 1 14 2 13 3 12 4 11 5 10 6 9 7 8 8 6 9 7 10 5 11 4 12
REMARK SMILES IDX 1 13 2 14 3 15 96 16 93 17 94 18 95 19 89 20 90 21 91 22
REMARK SMILES IDX 92 23 16 24 17 25 18 26 19 27 20 28 21 29 22 30 23 31 24 32
REMARK SMILES IDX 88 33 25 34 87 35 26 36 27 37 28 38 81 39 29 40 86 41 80 42
REMARK SMILES IDX 82 43 30 44 85 45 79 46 78 47 31 49 65 50 44 51 64 52 45 53
REMARK SMILES IDX 48 54 63 55 83 56 46 57 47 58 62 60 84 61 49 62 32 63 33 64
REMARK SMILES IDX 42 65 34 66 35 67 41 68 43 69 36 70 37 71 38 72 39 73 40 74
REMARK SMILES IDX 66 75 67 76 76 77 68 78 69 79 75 80 77 81 70 82 71 83 72 84
REMARK SMILES IDX 73 85 74 86 50 87 51 88 60 89 52 90 53 91 59 92 61 93 54 94
REMARK SMILES IDX 55 95 56 96 57 97 58 98
REMARK H PARENT 82 48 48 59
REMARK Flexibility Score: inf
ROOT
ATOM      1  C   UNL A   1      41.979  20.937  26.503  1.00  0.00     0.188 C 
ENDROOT
BRANCH   1   2
ATOM      2  O   UNL A   1      40.919  21.443  25.716  1.00  0.00    -0.377 OA
BRANCH   2   3
ATOM      3  C   UNL A   1      39.586  21.222  26.159  1.00  0.00     0.188 C 
BRANCH   3   4
ATOM      4  C   UNL A   1      38.392  21.525  25.249  1.00  0.00     0.188 C 
BRANCH   4   5
ATOM      5  O   UNL A   1      37.145  21.837  25.865  1.00  0.00    -0.376 OA
BRANCH   5   6
ATOM      6  C   UNL A   1      35.976  21.180  25.378  1.00  0.00     0.202 C 
BRANCH   6   7
ATOM      7  C   UNL A   1      34.651  21.782  25.849  1.00  0.00     0.261 C 
BRANCH   7   8
ATOM      8  O   UNL A   1      34.407  23.051  25.213  1.00  0.00    -0.462 OA
BRANCH   8   9
ATOM      9  C   UNL A   1      33.541  23.084  24.162  1.00  0.00     0.325 C 
ATOM     10  O   UNL A   1      33.756  22.461  23.129  1.00  0.00    -0.250 OA
BRANCH   9  11
ATOM     11  C   UNL A   1      32.326  24.063  24.385  1.00  0.00     0.188 C 
BRANCH  11  12
ATOM     12  N   UNL A   1      32.721  25.478  23.974  1.00  0.00    -0.187 NA
ATOM     13  C   UNL A   1      33.442  28.386  25.427  1.00  0.00     0.010 C 
ATOM     14  C   UNL A   1      34.038  27.501  24.331  1.00  0.00     0.017 C 
ATOM     15  C   UNL A   1      33.945  25.997  24.674  1.00  0.00     0.107 C 
ATOM     16  C   UNL A   1      33.353  27.733  22.981  1.00  0.00     0.159 C 
ATOM     17  S   UNL A   1      32.782  26.146  22.419  1.00  0.00     0.215 S 
ATOM     18  O   UNL A   1      33.860  25.524  21.690  1.00  0.00    -0.212 OA
ATOM     19  O   UNL A   1      31.460  26.316  21.862  1.00  0.00    -0.212 OA
ENDBRANCH  11  12
BRANCH  11  20
ATOM     20  C   UNL A   1      31.571  23.831  25.771  1.00  0.00    -0.011 C 
ATOM     21  C   UNL A   1      30.319  24.736  25.832  1.00  0.00     0.013 C 
ATOM     22  C   UNL A   1      31.001  22.388  25.895  1.00  0.00     0.013 C 
ATOM     23  C   UNL A   1      32.401  24.039  27.048  1.00  0.00     0.013 C 
ENDBRANCH  11  20
ENDBRANCH   9  11
ENDBRANCH   8   9
ENDBRANCH   7   8
ENDBRANCH   6   7
ENDBRANCH   5   6
ENDBRANCH   4   5
ENDBRANCH   3   4
ENDBRANCH   2   3
ENDBRANCH   1   2
BRANCH   1  24
ATOM     24  C   UNL A   1      43.297  20.746  25.752  1.00  0.00     0.188 C 
BRANCH  24  25
ATOM     25  O   UNL A   1      44.214  21.830  25.740  1.00  0.00    -0.376 OA
BRANCH  25  26
ATOM     26  C   UNL A   1      44.115  22.807  24.707  1.00  0.00     0.202 C 
BRANCH  26  27
ATOM     27  C   UNL A   1      43.649  24.238  25.018  1.00  0.00     0.261 C 
BRANCH  27  28
ATOM     28  O   UNL A   1      42.516  24.333  25.905  1.00  0.00    -0.460 OA
BRANCH  28  29
ATOM     29  C   UNL A   1      41.916  25.547  25.936  1.00  0.00     0.338 C 
ATOM     30  O   UNL A   1      41.366  26.122  25.011  1.00  0.00    -0.246 OA
BRANCH  29  31
ATOM     31  C   UNL A   1      41.927  26.116  27.294  1.00  0.00     0.060 A 
ATOM     32  C   UNL A   1      40.814  25.929  28.122  1.00  0.00     0.016 A 
ATOM     33  C   UNL A   1      42.926  27.024  27.647  1.00  0.00     0.016 A 
ATOM     34  C   UNL A   1      40.681  26.677  29.294  1.00  0.00     0.010 A 
ATOM     35  C   UNL A   1      42.790  27.774  28.820  1.00  0.00     0.010 A 
ATOM     36  C   UNL A   1      41.647  27.635  29.628  1.00  0.00    -0.014 A 
BRANCH  36  37
ATOM     37  C   UNL A   1      41.385  28.601  30.725  1.00  0.00     0.031 A 
ATOM     38  C   UNL A   1      42.203  28.516  31.987  1.00  0.00     0.074 A 
ATOM     39  C   UNL A   1      40.439  29.548  30.599  1.00  0.00     0.049 A 
ATOM     40  N   UNL A   1      42.107  29.218  33.086  1.00  0.00    -0.248 NA
ATOM     41  C   UNL A   1      43.266  27.500  32.012  1.00  0.00     0.031 C 
ATOM     42  C   UNL A   1      39.607  29.758  29.415  1.00  0.00     0.029 A 
ATOM     43  N   UNL A   1      40.008  30.503  31.488  1.00  0.00    -0.354 N 
ATOM     44  C   UNL A   1      43.090  28.726  33.938  1.00  0.00     0.074 A 
ATOM     45  C   UNL A   1      43.753  27.647  33.236  1.00  0.00     0.031 C 
ATOM     46  C   UNL A   1      38.749  30.763  29.659  1.00  0.00     0.029 A 
ATOM     47  C   UNL A   1      38.948  31.246  31.026  1.00  0.00     0.049 A 
ATOM     48  H   UNL A   1      40.420  30.643  32.371  1.00  0.00     0.167 HD
ATOM     49  C   UNL A   1      43.414  29.137  35.188  1.00  0.00     0.037 A 
ATOM     50  C   UNL A   1      38.204  32.185  31.644  1.00  0.00     0.037 A 
ATOM     51  C   UNL A   1      42.747  30.208  35.884  1.00  0.00     0.049 A 
ATOM     52  C   UNL A   1      38.539  32.585  33.059  1.00  0.00     0.074 A 
ATOM     53  C   UNL A   1      43.019  30.717  37.142  1.00  0.00     0.029 A 
ATOM     54  N   UNL A   1      41.666  30.925  35.391  1.00  0.00    -0.354 N 
ATOM     55  N   UNL A   1      39.493  32.136  33.840  1.00  0.00    -0.248 NA
ATOM     56  C   UNL A   1      37.702  33.626  33.674  1.00  0.00     0.031 C 
ATOM     57  C   UNL A   1      42.064  31.697  37.435  1.00  0.00     0.029 A 
ATOM     58  C   UNL A   1      41.238  31.848  36.332  1.00  0.00     0.049 A 
ATOM     59  H   UNL A   1      41.262  30.796  34.502  1.00  0.00     0.167 HD
ATOM     60  C   UNL A   1      39.387  32.856  35.026  1.00  0.00     0.074 A 
ATOM     61  C   UNL A   1      38.284  33.779  34.855  1.00  0.00     0.031 C 
ATOM     62  C   UNL A   1      40.138  32.765  36.153  1.00  0.00     0.037 A 
BRANCH  49  63
ATOM     63  C   UNL A   1      44.516  28.401  35.903  1.00  0.00     0.058 A 
ATOM     64  C   UNL A   1      44.259  27.297  36.732  1.00  0.00     0.135 A 
ATOM     65  C   UNL A   1      45.854  28.792  35.733  1.00  0.00     0.135 A 
ATOM     66  F   UNL A   1      42.998  26.887  36.943  1.00  0.00    -0.206 F 
ATOM     67  C   UNL A   1      45.287  26.627  37.390  1.00  0.00     0.059 A 
ATOM     68  C   UNL A   1      46.900  28.118  36.357  1.00  0.00     0.059 A 
ATOM     69  F   UNL A   1      46.158  29.840  34.952  1.00  0.00    -0.206 F 
ATOM     70  C   UNL A   1      46.605  27.046  37.197  1.00  0.00     0.060 A 
BRANCH  70  71
ATOM     71  S   UNL A   1      47.925  26.170  38.061  1.00  0.00     0.124 S 
ATOM     72  O   UNL A   1      47.252  24.933  38.444  1.00  0.00    -0.237 OA
ATOM     73  O   UNL A   1      48.944  26.042  37.023  1.00  0.00    -0.237 OA
ATOM     74  O   UNL A   1      48.265  27.066  39.162  1.00  0.00    -0.744 OA
ENDBRANCH  70  71
ENDBRANCH  49  63
BRANCH  50  75
ATOM     75  C   UNL A   1      37.049  32.798  30.933  1.00  0.00     0.058 A 
ATOM     76  C   UNL A   1      37.222  33.874  30.050  1.00  0.00     0.135 A 
ATOM     77  C   UNL A   1      35.746  32.309  31.118  1.00  0.00     0.135 A 
ATOM     78  F   UNL A   1      38.445  34.387  29.850  1.00  0.00    -0.206 F 
ATOM     79  C   UNL A   1      36.145  34.447  29.380  1.00  0.00     0.059 A 
ATOM     80  C   UNL A   1      34.658  32.847  30.440  1.00  0.00     0.059 A 
ATOM     81  F   UNL A   1      35.526  31.274  31.945  1.00  0.00    -0.206 F 
ATOM     82  C   UNL A   1      34.867  33.921  29.577  1.00  0.00     0.060 A 
BRANCH  82  83
ATOM     83  S   UNL A   1      33.488  34.625  28.648  1.00  0.00     0.124 S 
ATOM     84  O   UNL A   1      34.117  35.779  28.016  1.00  0.00    -0.237 OA
ATOM     85  O   UNL A   1      33.126  33.526  27.760  1.00  0.00    -0.237 OA
ATOM     86  O   UNL A   1      32.507  34.930  29.686  1.00  0.00    -0.744 OA
ENDBRANCH  82  83
ENDBRANCH  50  75
BRANCH  62  87
ATOM     87  C   UNL A   1      39.823  33.709  37.283  1.00  0.00     0.058 A 
ATOM     88  C   UNL A   1      38.904  33.380  38.293  1.00  0.00     0.135 A 
ATOM     89  C   UNL A   1      40.492  34.941  37.387  1.00  0.00     0.135 A 
ATOM     90  F   UNL A   1      38.232  32.219  38.243  1.00  0.00    -0.206 F 
ATOM     91  C   UNL A   1      38.641  34.248  39.350  1.00  0.00     0.059 A 
ATOM     92  C   UNL A   1      40.268  35.810  38.451  1.00  0.00     0.059 A 
ATOM     93  F   UNL A   1      41.390  35.303  36.456  1.00  0.00    -0.206 F 
ATOM     94  C   UNL A   1      39.330  35.460  39.421  1.00  0.00     0.060 A 
BRANCH  94  95
ATOM     95  S   UNL A   1      39.001  36.564  40.812  1.00  0.00     0.124 S 
ATOM     96  O   UNL A   1      40.329  36.698  41.401  1.00  0.00    -0.237 OA
ATOM     97  O   UNL A   1      38.480  37.755  40.148  1.00  0.00    -0.237 OA
ATOM     98  O   UNL A   1      38.031  35.824  41.613  1.00  0.00    -0.744 OA
ENDBRANCH  94  95
ENDBRANCH  62  87
ENDBRANCH  36  37
ENDBRANCH  29  31
ENDBRANCH  28  29
ENDBRANCH  27  28
ENDBRANCH  26  27
ENDBRANCH  25  26
ENDBRANCH  24  25
ENDBRANCH   1  24
TORSDOF 25
ENDMDL
MODEL 2
REMARK VINA RESULT:      -9.5      1.012      8.102
REMARK SMILES C[C@H]1CN([C@@H](C(=O)OCCOCCOCCOCCOC(=O)c2ccc(-c3c4nc(c(-c5c(F)cc(S(=O)(=O)[O-])cc5F)c5ccc([nH]5)c(-c5c(F)cc(S(=O)(=O)[O-])cc5F)c5nc(c(-c6c(F)cc(S(=O)(=O)[O-])cc6F)c6ccc3[nH]6)C=C5)C=C4)cc2)C(C)(C)C)S(=O)(=O)C1
REMARK SMILES IDX 15 1 14 2 13 3 12 4 11 5 10 6 9 7 8 8 6 9 7 10 5 11 4 12
REMARK SMILES IDX 1 13 2 14 3 15 96 16 93 17 94 18 95 19 89 20 90 21 91 22
REMARK SMILES IDX 92 23 16 24 17 25 18 26 19 27 20 28 21 29 22 30 23 31 24 32
REMARK SMILES IDX 88 33 25 34 87 35 26 36 27 37 28 38 81 39 29 40 86 41 80 42
REMARK SMILES IDX 82 43 30 44 85 45 79 46 78 47 31 49 65 50 44 51 64 52 45 53
REMARK SMILES IDX 48 54 63 55 83 56 46 57 47 58 62 60 84 61 49 62 32 63 33 64
REMARK SMILES IDX 42 65 34 66 35 67 41 68 43 69 36 70 37 71 38 72 39 73 40 74
REMARK SMILES IDX 66 75 67 76 76 77 68 78 69 79 75 80 77 81 70 82 71 83 72 84
REMARK SMILES IDX 73 85 74 86 50 87 51 88 60 89 52 90 53 91 59 92 61 93 54 94
REMARK SMILES IDX 55 95 56 96 57 97 58 98
REMARK H PARENT 82 48 48 59
REMARK Flexibility Score: inf
ROOT
ATOM      1  C   UNL A   1      42.282  20.730  26.262  1.00  0.00     0.188 C 
ENDROOT
BRANCH   1   2
ATOM      2  O   UNL A   1      41.324  21.472  25.533  1.00  0.00    -0.377 OA
BRANCH   2   3
ATOM      3  C   UNL A   1      40.169  21.938  26.219  1.00  0.00     0.188 C 
BRANCH   3   4
ATOM      4  C   UNL A   1      38.766  21.510  25.779  1.00  0.00     0.188 C 
BRANCH   4   5
ATOM      5  O   UNL A   1      37.815  22.533  25.493  1.00  0.00    -0.376 OA
BRANCH   5   6
ATOM      6  C   UNL A   1      36.775  22.236  24.562  1.00  0.00     0.202 C 
BRANCH   6   7
ATOM      7  C   UNL A   1      36.218  23.444  23.807  1.00  0.00     0.261 C 
BRANCH   7   8
ATOM      8  O   UNL A   1      34.933  23.832  24.331  1.00  0.00    -0.462 OA
BRANCH   8   9
ATOM      9  C   UNL A   1      33.843  23.680  23.529  1.00  0.00     0.325 C 
ATOM     10  O   UNL A   1      33.946  23.553  22.315  1.00  0.00    -0.250 OA
BRANCH   9  11
ATOM     11  C   UNL A   1      32.476  23.784  24.309  1.00  0.00     0.188 C 
BRANCH  11  12
ATOM     12  N   UNL A   1      32.165  25.246  24.611  1.00  0.00    -0.187 NA
ATOM     13  C   UNL A   1      33.792  28.142  24.846  1.00  0.00     0.010 C 
ATOM     14  C   UNL A   1      32.517  27.622  24.180  1.00  0.00     0.017 C 
ATOM     15  C   UNL A   1      32.699  26.207  23.587  1.00  0.00     0.107 C 
ATOM     16  C   UNL A   1      31.340  27.589  25.160  1.00  0.00     0.159 C 
ATOM     17  S   UNL A   1      30.709  25.927  25.143  1.00  0.00     0.215 S 
ATOM     18  O   UNL A   1      29.740  25.836  24.078  1.00  0.00    -0.212 OA
ATOM     19  O   UNL A   1      30.411  25.547  26.503  1.00  0.00    -0.212 OA
ENDBRANCH  11  12
BRANCH  11  20
ATOM     20  C   UNL A   1      32.320  22.694  25.463  1.00  0.00    -0.011 C 
ATOM     21  C   UNL A   1      32.939  23.237  26.770  1.00  0.00     0.013 C 
ATOM     22  C   UNL A   1      30.830  22.435  25.829  1.00  0.00     0.013 C 
ATOM     23  C   UNL A   1      32.904  21.301  25.175  1.00  0.00     0.013 C 
ENDBRANCH  11  20
ENDBRANCH   9  11
ENDBRANCH   8   9
ENDBRANCH   7   8
ENDBRANCH   6   7
ENDBRANCH   5   6
ENDBRANCH   4   5
ENDBRANCH   3   4
ENDBRANCH   2   3
ENDBRANCH   1   2
BRANCH   1  24
ATOM     24  C   UNL A   1      43.712  20.836  25.731  1.00  0.00     0.188 C 
BRANCH  24  25
ATOM     25  O   UNL A   1      44.390  22.071  25.901  1.00  0.00    -0.376 OA
BRANCH  25  26
ATOM     26  C   UNL A   1      44.387  23.013  24.831  1.00  0.00     0.202 C 
BRANCH  26  27
ATOM     27  C   UNL A   1      43.872  24.446  25.043  1.00  0.00     0.261 C 
BRANCH  27  28
ATOM     28  O   UNL A   1      42.651  24.549  25.804  1.00  0.00    -0.460 OA
BRANCH  28  29
ATOM     29  C   UNL A   1      42.146  25.803  25.903  1.00  0.00     0.338 C 
ATOM     30  O   UNL A   1      41.650  26.471  25.012  1.00  0.00    -0.246 OA
BRANCH  29  31
ATOM     31  C   UNL A   1      42.192  26.289  27.293  1.00  0.00     0.060 A 
ATOM     32  C   UNL A   1      41.192  25.892  28.188  1.00  0.00     0.016 A 
ATOM     33  C   UNL A   1      43.076  27.315  27.630  1.00  0.00     0.016 A 
ATOM     34  C   UNL A   1      41.053  26.544  29.415  1.00  0.00     0.010 A 
ATOM     35  C   UNL A   1      42.933  27.969  28.859  1.00  0.00     0.010 A 
ATOM     36  C   UNL A   1      41.895  27.615  29.739  1.00  0.00    -0.014 A 
BRANCH  36  37
ATOM     37  C   UNL A   1      41.591  28.468  30.917  1.00  0.00     0.031 A 
ATOM     38  C   UNL A   1      40.437  29.433  30.844  1.00  0.00     0.074 A 
ATOM     39  C   UNL A   1      42.325  28.380  32.041  1.00  0.00     0.049 A 
ATOM     40  N   UNL A   1      40.030  30.306  31.729  1.00  0.00    -0.248 NA
ATOM     41  C   UNL A   1      39.641  29.412  29.608  1.00  0.00     0.031 C 
ATOM     42  C   UNL A   1      43.442  27.460  32.248  1.00  0.00     0.029 A 
ATOM     43  N   UNL A   1      42.248  29.088  33.215  1.00  0.00    -0.354 N 
ATOM     44  C   UNL A   1      38.936  30.946  31.155  1.00  0.00     0.074 A 
ATOM     45  C   UNL A   1      38.761  30.377  29.835  1.00  0.00     0.031 C 
ATOM     46  C   UNL A   1      43.962  27.676  33.469  1.00  0.00     0.029 A 
ATOM     47  C   UNL A   1      43.237  28.771  34.115  1.00  0.00     0.049 A 
ATOM     48  H   UNL A   1      41.550  29.760  33.395  1.00  0.00     0.167 HD
ATOM     49  C   UNL A   1      38.148  31.915  31.680  1.00  0.00     0.037 A 
ATOM     50  C   UNL A   1      43.542  29.319  35.308  1.00  0.00     0.037 A 
ATOM     51  C   UNL A   1      38.330  32.482  32.992  1.00  0.00     0.049 A 
ATOM     52  C   UNL A   1      42.691  30.440  35.849  1.00  0.00     0.074 A 
ATOM     53  C   UNL A   1      37.568  33.448  33.625  1.00  0.00     0.029 A 
ATOM     54  N   UNL A   1      39.354  32.147  33.868  1.00  0.00    -0.354 N 
ATOM     55  N   UNL A   1      41.639  31.011  35.311  1.00  0.00    -0.248 NA
ATOM     56  C   UNL A   1      43.063  30.987  37.162  1.00  0.00     0.031 C 
ATOM     57  C   UNL A   1      38.166  33.743  34.855  1.00  0.00     0.029 A 
ATOM     58  C   UNL A   1      39.263  32.912  35.020  1.00  0.00     0.049 A 
ATOM     59  H   UNL A   1      40.044  31.466  33.695  1.00  0.00     0.167 HD
ATOM     60  C   UNL A   1      41.208  31.964  36.230  1.00  0.00     0.074 A 
ATOM     61  C   UNL A   1      42.107  31.884  37.363  1.00  0.00     0.031 C 
ATOM     62  C   UNL A   1      40.162  32.825  36.145  1.00  0.00     0.037 A 
BRANCH  49  63
ATOM     63  C   UNL A   1      37.036  32.454  30.820  1.00  0.00     0.058 A 
ATOM     64  C   UNL A   1      35.701  32.050  30.987  1.00  0.00     0.135 A 
ATOM     65  C   UNL A   1      37.308  33.412  29.829  1.00  0.00     0.135 A 
ATOM     66  F   UNL A   1      35.384  31.126  31.908  1.00  0.00    -0.206 F 
ATOM     67  C   UNL A   1      34.683  32.553  30.182  1.00  0.00     0.059 A 
ATOM     68  C   UNL A   1      36.301  33.951  29.034  1.00  0.00     0.059 A 
ATOM     69  F   UNL A   1      38.565  33.835  29.625  1.00  0.00    -0.206 F 
ATOM     70  C   UNL A   1      34.992  33.503  29.207  1.00  0.00     0.060 A 
BRANCH  70  71
ATOM     71  S   UNL A   1      33.661  34.141  28.170  1.00  0.00     0.124 S 
ATOM     72  O   UNL A   1      34.401  34.983  27.233  1.00  0.00    -0.237 OA
ATOM     73  O   UNL A   1      33.091  32.920  27.609  1.00  0.00    -0.237 OA
ATOM     74  O   UNL A   1      32.806  34.854  29.112  1.00  0.00    -0.744 OA
ENDBRANCH  70  71
ENDBRANCH  49  63
BRANCH  50  75
ATOM     75  C   UNL A   1      44.725  28.828  36.065  1.00  0.00     0.058 A 
ATOM     76  C   UNL A   1      45.995  29.395  35.884  1.00  0.00     0.135 A 
ATOM     77  C   UNL A   1      44.603  27.783  36.996  1.00  0.00     0.135 A 
ATOM     78  F   UNL A   1      46.167  30.386  34.997  1.00  0.00    -0.206 F 
ATOM     79  C   UNL A   1      47.103  28.941  36.594  1.00  0.00     0.059 A 
ATOM     80  C   UNL A   1      45.689  27.331  37.736  1.00  0.00     0.059 A 
ATOM     81  F   UNL A   1      43.408  27.212  37.214  1.00  0.00    -0.206 F 
ATOM     82  C   UNL A   1      46.938  27.912  37.523  1.00  0.00     0.060 A 
BRANCH  82  83
ATOM     83  S   UNL A   1      48.368  27.380  38.489  1.00  0.00     0.124 S 
ATOM     84  O   UNL A   1      48.274  28.248  39.657  1.00  0.00    -0.237 OA
ATOM     85  O   UNL A   1      48.073  25.969  38.716  1.00  0.00    -0.237 OA
ATOM     86  O   UNL A   1      49.491  27.641  37.595  1.00  0.00    -0.744 OA
ENDBRANCH  82  83
ENDBRANCH  50  75
BRANCH  62  87
ATOM     87  C   UNL A   1      39.901  33.728  37.321  1.00  0.00     0.058 A 
ATOM     88  C   UNL A   1      40.535  34.974  37.458  1.00  0.00     0.135 A 
ATOM     89  C   UNL A   1      38.959  33.365  38.300  1.00  0.00     0.135 A 
ATOM     90  F   UNL A   1      41.447  35.370  36.556  1.00  0.00    -0.206 F 
ATOM     91  C   UNL A   1      40.266  35.814  38.534  1.00  0.00     0.059 A 
ATOM     92  C   UNL A   1      38.651  34.203  39.368  1.00  0.00     0.059 A 
ATOM     93  F   UNL A   1      38.314  32.191  38.215  1.00  0.00    -0.206 F 
ATOM     94  C   UNL A   1      39.320  35.421  39.484  1.00  0.00     0.060 A 
BRANCH  94  95
ATOM     95  S   UNL A   1      38.958  36.533  40.859  1.00  0.00     0.124 S 
ATOM     96  O   UNL A   1      40.278  36.698  41.459  1.00  0.00    -0.237 OA
ATOM     97  O   UNL A   1      38.421  37.707  40.178  1.00  0.00    -0.237 OA
ATOM     98  O   UNL A   1      37.994  35.784  41.660  1.00  0.00    -0.744 OA
ENDBRANCH  94  95
ENDBRANCH  62  87
ENDBRANCH  36  37
ENDBRANCH  29  31
ENDBRANCH  28  29
ENDBRANCH  27  28
ENDBRANCH  26  27
ENDBRANCH  25  26
ENDBRANCH  24  25
ENDBRANCH   1  24
TORSDOF 25
ENDMDL
MODEL 3
REMARK VINA RESULT:      -9.4      1.359      8.213
REMARK SMILES C[C@H]1CN([C@@H](C(=O)OCCOCCOCCOCCOC(=O)c2ccc(-c3c4nc(c(-c5c(F)cc(S(=O)(=O)[O-])cc5F)c5ccc([nH]5)c(-c5c(F)cc(S(=O)(=O)[O-])cc5F)c5nc(c(-c6c(F)cc(S(=O)(=O)[O-])cc6F)c6ccc3[nH]6)C=C5)C=C4)cc2)C(C)(C)C)S(=O)(=O)C1
REMARK SMILES IDX 15 1 14 2 13 3 12 4 11 5 10 6 9 7 8 8 6 9 7 10 5 11 4 12
REMARK SMILES IDX 1 13 2 14 3 15 96 16 93 17 94 18 95 19 89 20 90 21 91 22
REMARK SMILES IDX 92 23 16 24 17 25 18 26 19 27 20 28 21 29 22 30 23 31 24 32
REMARK SMILES IDX 88 33 25 34 87 35 26 36 27 37 28 38 81 39 29 40 86 41 80 42
REMARK SMILES IDX 82 43 30 44 85 45 79 46 78 47 31 49 65 50 44 51 64 52 45 53
REMARK SMILES IDX 48 54 63 55 83 56 46 57 47 58 62 60 84 61 49 62 32 63 33 64
REMARK SMILES IDX 42 65 34 66 35 67 41 68 43 69 36 70 37 71 38 72 39 73 40 74
REMARK SMILES IDX 66 75 67 76 76 77 68 78 69 79 75 80 77 81 70 82 71 83 72 84
REMARK SMILES IDX 73 85 74 86 50 87 51 88 60 89 52 90 53 91 59 92 61 93 54 94
REMARK SMILES IDX 55 95 56 96 57 97 58 98
REMARK H PARENT 82 48 48 59
REMARK Flexibility Score: inf
ROOT
ATOM      1  C   UNL A   1      42.169  21.792  27.621  1.00  0.00     0.188 C 
ENDROOT
BRANCH   1   2
ATOM      2  O   UNL A   1      40.833  22.132  27.935  1.00  0.00    -0.377 OA
BRANCH   2   3
ATOM      3  C   UNL A   1      39.939  22.409  26.865  1.00  0.00     0.188 C 
BRANCH   3   4
ATOM      4  C   UNL A   1      39.358  23.812  26.666  1.00  0.00     0.188 C 
BRANCH   4   5
ATOM      5  O   UNL A   1      37.954  23.930  26.453  1.00  0.00    -0.376 OA
BRANCH   5   6
ATOM      6  C   UNL A   1      37.317  22.949  25.635  1.00  0.00     0.202 C 
BRANCH   6   7
ATOM      7  C   UNL A   1      36.368  23.508  24.574  1.00  0.00     0.261 C 
BRANCH   7   8
ATOM      8  O   UNL A   1      35.417  24.418  25.160  1.00  0.00    -0.462 OA
BRANCH   8   9
ATOM      9  C   UNL A   1      34.092  24.150  24.999  1.00  0.00     0.325 C 
ATOM     10  O   UNL A   1      33.607  23.071  25.319  1.00  0.00    -0.250 OA
BRANCH   9  11
ATOM     11  C   UNL A   1      33.302  25.313  24.285  1.00  0.00     0.188 C 
BRANCH  11  12
ATOM     12  N   UNL A   1      32.753  26.280  25.329  1.00  0.00    -0.187 NA
ATOM     13  C   UNL A   1      33.853  28.788  27.223  1.00  0.00     0.010 C 
ATOM     14  C   UNL A   1      32.657  28.513  26.309  1.00  0.00     0.017 C 
ATOM     15  C   UNL A   1      33.056  27.724  25.042  1.00  0.00     0.107 C 
ATOM     16  C   UNL A   1      31.555  27.736  27.036  1.00  0.00     0.159 C 
ATOM     17  S   UNL A   1      31.229  26.284  26.065  1.00  0.00     0.215 S 
ATOM     18  O   UNL A   1      30.239  26.632  25.075  1.00  0.00    -0.212 OA
ATOM     19  O   UNL A   1      31.071  25.167  26.966  1.00  0.00    -0.212 OA
ENDBRANCH  11  12
BRANCH  11  20
ATOM     20  C   UNL A   1      32.352  24.805  23.109  1.00  0.00    -0.011 C 
ATOM     21  C   UNL A   1      31.868  26.016  22.280  1.00  0.00     0.013 C 
ATOM     22  C   UNL A   1      33.112  23.921  22.079  1.00  0.00     0.013 C 
ATOM     23  C   UNL A   1      31.133  23.966  23.526  1.00  0.00     0.013 C 
ENDBRANCH  11  20
ENDBRANCH   9  11
ENDBRANCH   8   9
ENDBRANCH   7   8
ENDBRANCH   6   7
ENDBRANCH   5   6
ENDBRANCH   4   5
ENDBRANCH   3   4
ENDBRANCH   2   3
ENDBRANCH   1   2
BRANCH   1  24
ATOM     24  C   UNL A   1      42.353  21.115  26.262  1.00  0.00     0.188 C 
BRANCH  24  25
ATOM     25  O   UNL A   1      43.197  21.751  25.315  1.00  0.00    -0.376 OA
BRANCH  25  26
ATOM     26  C   UNL A   1      42.917  23.095  24.933  1.00  0.00     0.202 C 
BRANCH  26  27
ATOM     27  C   UNL A   1      44.031  24.153  24.895  1.00  0.00     0.261 C 
BRANCH  27  28
ATOM     28  O   UNL A   1      43.796  25.318  25.711  1.00  0.00    -0.460 OA
BRANCH  28  29
ATOM     29  C   UNL A   1      44.028  25.142  27.035  1.00  0.00     0.338 C 
ATOM     30  O   UNL A   1      44.773  24.327  27.552  1.00  0.00    -0.246 OA
BRANCH  29  31
ATOM     31  C   UNL A   1      43.304  26.139  27.842  1.00  0.00     0.060 A 
ATOM     32  C   UNL A   1      43.851  27.417  28.000  1.00  0.00     0.016 A 
ATOM     33  C   UNL A   1      42.224  25.731  28.626  1.00  0.00     0.016 A 
ATOM     34  C   UNL A   1      43.338  28.284  28.968  1.00  0.00     0.010 A 
ATOM     35  C   UNL A   1      41.713  26.599  29.598  1.00  0.00     0.010 A 
ATOM     36  C   UNL A   1      42.294  27.863  29.802  1.00  0.00    -0.014 A 
BRANCH  36  37
ATOM     37  C   UNL A   1      41.920  28.674  30.989  1.00  0.00     0.031 A 
ATOM     38  C   UNL A   1      40.719  29.580  30.908  1.00  0.00     0.074 A 
ATOM     39  C   UNL A   1      42.631  28.600  32.127  1.00  0.00     0.049 A 
ATOM     40  N   UNL A   1      40.247  30.412  31.799  1.00  0.00    -0.248 NA
ATOM     41  C   UNL A   1      39.954  29.544  29.653  1.00  0.00     0.031 C 
ATOM     42  C   UNL A   1      43.790  27.735  32.343  1.00  0.00     0.029 A 
ATOM     43  N   UNL A   1      42.491  29.279  33.313  1.00  0.00    -0.354 N 
ATOM     44  C   UNL A   1      39.135  31.007  31.213  1.00  0.00     0.074 A 
ATOM     45  C   UNL A   1      39.020  30.457  29.878  1.00  0.00     0.031 C 
ATOM     46  C   UNL A   1      44.270  27.952  33.580  1.00  0.00     0.029 A 
ATOM     47  C   UNL A   1      43.474  28.994  34.230  1.00  0.00     0.049 A 
ATOM     48  H   UNL A   1      41.756  29.910  33.490  1.00  0.00     0.167 HD
ATOM     49  C   UNL A   1      38.286  31.923  31.738  1.00  0.00     0.037 A 
ATOM     50  C   UNL A   1      43.724  29.532  35.441  1.00  0.00     0.037 A 
ATOM     51  C   UNL A   1      38.409  32.470  33.065  1.00  0.00     0.049 A 
ATOM     52  C   UNL A   1      42.803  30.597  35.983  1.00  0.00     0.074 A 
ATOM     53  C   UNL A   1      37.583  33.383  33.698  1.00  0.00     0.029 A 
ATOM     54  N   UNL A   1      39.428  32.170  33.957  1.00  0.00    -0.354 N 
ATOM     55  N   UNL A   1      41.735  31.124  35.432  1.00  0.00    -0.248 NA
ATOM     56  C   UNL A   1      43.117  31.134  37.315  1.00  0.00     0.031 C 
ATOM     57  C   UNL A   1      38.137  33.682  34.947  1.00  0.00     0.029 A 
ATOM     58  C   UNL A   1      39.272  32.906  35.122  1.00  0.00     0.049 A 
ATOM     59  H   UNL A   1      40.156  31.530  33.787  1.00  0.00     0.167 HD
ATOM     60  C   UNL A   1      41.236  32.034  36.359  1.00  0.00     0.074 A 
ATOM     61  C   UNL A   1      42.111  31.977  37.511  1.00  0.00     0.031 C 
ATOM     62  C   UNL A   1      40.148  32.841  36.266  1.00  0.00     0.037 A 
BRANCH  49  63
ATOM     63  C   UNL A   1      37.167  32.422  30.862  1.00  0.00     0.058 A 
ATOM     64  C   UNL A   1      37.339  33.495  29.972  1.00  0.00     0.135 A 
ATOM     65  C   UNL A   1      35.909  31.797  30.896  1.00  0.00     0.135 A 
ATOM     66  F   UNL A   1      38.515  34.139  29.908  1.00  0.00    -0.206 F 
ATOM     67  C   UNL A   1      36.295  33.949  29.171  1.00  0.00     0.059 A 
ATOM     68  C   UNL A   1      34.861  32.215  30.081  1.00  0.00     0.059 A 
ATOM     69  F   UNL A   1      35.688  30.767  31.728  1.00  0.00    -0.206 F 
ATOM     70  C   UNL A   1      35.059  33.303  29.233  1.00  0.00     0.060 A 
BRANCH  70  71
ATOM     71  S   UNL A   1      33.715  33.907  28.191  1.00  0.00     0.124 S 
ATOM     72  O   UNL A   1      34.421  34.837  27.314  1.00  0.00    -0.237 OA
ATOM     73  O   UNL A   1      33.236  32.681  27.560  1.00  0.00    -0.237 OA
ATOM     74  O   UNL A   1      32.794  34.520  29.143  1.00  0.00    -0.744 OA
ENDBRANCH  70  71
ENDBRANCH  49  63
BRANCH  50  75
ATOM     75  C   UNL A   1      44.913  29.087  36.216  1.00  0.00     0.058 A 
ATOM     76  C   UNL A   1      46.149  29.738  36.095  1.00  0.00     0.135 A 
ATOM     77  C   UNL A   1      44.831  28.002  37.104  1.00  0.00     0.135 A 
ATOM     78  F   UNL A   1      46.284  30.770  35.249  1.00  0.00    -0.206 F 
ATOM     79  C   UNL A   1      47.263  29.327  36.821  1.00  0.00     0.059 A 
ATOM     80  C   UNL A   1      45.922  27.590  37.860  1.00  0.00     0.059 A 
ATOM     81  F   UNL A   1      43.668  27.350  37.264  1.00  0.00    -0.206 F 
ATOM     82  C   UNL A   1      47.137  28.255  37.707  1.00  0.00     0.060 A 
BRANCH  82  83
ATOM     83  S   UNL A   1      48.569  27.776  38.698  1.00  0.00     0.124 S 
ATOM     84  O   UNL A   1      48.731  26.377  38.323  1.00  0.00    -0.237 OA
ATOM     85  O   UNL A   1      49.595  28.692  38.211  1.00  0.00    -0.237 OA
ATOM     86  O   UNL A   1      48.124  28.017  40.067  1.00  0.00    -0.744 OA
ENDBRANCH  82  83
ENDBRANCH  50  75
BRANCH  62  87
ATOM     87  C   UNL A   1      39.814  33.705  37.454  1.00  0.00     0.058 A 
ATOM     88  C   UNL A   1      38.907  33.292  38.443  1.00  0.00     0.135 A 
ATOM     89  C   UNL A   1      40.454  34.944  37.633  1.00  0.00     0.135 A 
ATOM     90  F   UNL A   1      38.263  32.121  38.321  1.00  0.00    -0.206 F 
ATOM     91  C   UNL A   1      38.626  34.085  39.551  1.00  0.00     0.059 A 
ATOM     92  C   UNL A   1      40.213  35.739  38.749  1.00  0.00     0.059 A 
ATOM     93  F   UNL A   1      41.340  35.385  36.725  1.00  0.00    -0.206 F 
ATOM     94  C   UNL A   1      39.286  35.307  39.697  1.00  0.00     0.060 A 
BRANCH  94  95
ATOM     95  S   UNL A   1      38.935  36.314  41.155  1.00  0.00     0.124 S 
ATOM     96  O   UNL A   1      38.572  37.591  40.549  1.00  0.00    -0.237 OA
ATOM     97  O   UNL A   1      37.844  35.579  41.786  1.00  0.00    -0.237 OA
ATOM     98  O   UNL A   1      40.197  36.304  41.889  1.00  0.00    -0.744 OA
ENDBRANCH  94  95
ENDBRANCH  62  87
ENDBRANCH  36  37
ENDBRANCH  29  31
ENDBRANCH  28  29
ENDBRANCH  27  28
ENDBRANCH  26  27
ENDBRANCH  25  26
ENDBRANCH  24  25
ENDBRANCH   1  24
TORSDOF 25
ENDMDL
