MODEL 1
REMARK VINA RESULT:      -8.5      0.000      0.000
REMARK SMILES COc1ccccc1Nc1nc(C)c(C(=O)OCCOCCOCCOCCOC(=O)c2ccc(-c3c4nc(c(-c5c(F)cc(S(=O)(=O)[O-])cc5F)c5ccc([nH]5)c(-c5c(F)cc(S(=O)(=O)[O-])cc5F)c5nc(c(-c6c(F)cc(S(=O)(=O)[O-])cc6F)c6ccc3[nH]6)C=C5)C=C4)cc2)s1
REMARK SMILES IDX 23 1 22 2 21 3 20 4 19 5 18 6 17 7 15 8 16 9 14 10 10 11
REMARK SMILES IDX 11 12 98 13 12 14 13 15 9 16 8 18 3 19 4 20 5 21 7 22 6 23
REMARK SMILES IDX 2 24 1 25 24 26 25 27 26 28 27 29 28 30 29 31 30 32 31 33
REMARK SMILES IDX 32 34 33 35 97 36 34 37 96 38 35 39 36 40 37 41 90 42 38 43
REMARK SMILES IDX 95 44 89 45 91 46 39 47 94 48 88 49 87 50 40 52 74 53 53 54
REMARK SMILES IDX 73 55 54 56 57 57 72 58 92 59 55 60 56 61 71 63 93 64 58 65
REMARK SMILES IDX 41 66 42 67 51 68 43 69 44 70 50 71 52 72 45 73 46 74 47 75
REMARK SMILES IDX 48 76 49 77 75 78 76 79 85 80 77 81 78 82 84 83 86 84 79 85
REMARK SMILES IDX 80 86 81 87 82 88 83 89 59 90 60 91 69 92 61 93 62 94 68 95
REMARK SMILES IDX 70 96 63 97 64 98 65 99 66 100 67 101
REMARK H PARENT 9 17 91 51 57 62
REMARK Flexibility Score: inf
ROOT
ATOM      1  O   UNL A   1      40.611  24.467  27.622  1.00  0.00    -0.377 OA
ENDROOT
BRANCH   1   2
ATOM      2  C   UNL A   1      40.377  23.124  27.231  1.00  0.00     0.188 C 
BRANCH   2   3
ATOM      3  C   UNL A   1      39.020  22.954  26.528  1.00  0.00     0.188 C 
BRANCH   3   4
ATOM      4  O   UNL A   1      38.744  21.603  26.155  1.00  0.00    -0.376 OA
BRANCH   4   5
ATOM      5  C   UNL A   1      37.613  21.398  25.312  1.00  0.00     0.202 C 
BRANCH   5   6
ATOM      6  C   UNL A   1      36.435  22.365  25.501  1.00  0.00     0.261 C 
BRANCH   6   7
ATOM      7  O   UNL A   1      36.430  23.506  24.628  1.00  0.00    -0.459 OA
BRANCH   7   8
ATOM      8  C   UNL A   1      35.805  23.418  23.429  1.00  0.00     0.350 C 
ATOM      9  O   UNL A   1      36.273  22.849  22.450  1.00  0.00    -0.245 OA
BRANCH   8  10
ATOM     10  C   UNL A   1      34.472  23.968  23.551  1.00  0.00     0.137 A 
ATOM     11  C   UNL A   1      32.585  25.493  23.817  1.00  0.00     0.188 A 
ATOM     12  N   UNL A   1      32.163  24.295  23.496  1.00  0.00    -0.224 NA
ATOM     13  S   UNL A   1      34.291  25.615  24.015  1.00  0.00    -0.089 S 
ATOM     14  C   UNL A   1      33.224  23.432  23.265  1.00  0.00     0.065 A 
ATOM     15  C   UNL A   1      32.881  22.070  22.767  1.00  0.00     0.069 C 
BRANCH  11  16
ATOM     16  N   UNL A   1      31.733  26.502  24.090  1.00  0.00    -0.328 N 
ATOM     17  H   UNL A   1      30.942  26.567  23.507  1.00  0.00     0.169 HD
BRANCH  16  18
ATOM     18  C   UNL A   1      31.831  27.476  25.107  1.00  0.00     0.083 A 
ATOM     19  C   UNL A   1      31.474  27.129  26.426  1.00  0.00     0.142 A 
ATOM     20  C   UNL A   1      31.417  28.085  27.442  1.00  0.00     0.048 A 
ATOM     21  C   UNL A   1      31.771  29.404  27.169  1.00  0.00     0.004 A 
ATOM     22  C   UNL A   1      32.220  28.800  24.863  1.00  0.00     0.030 A 
ATOM     23  C   UNL A   1      32.183  29.757  25.885  1.00  0.00     0.002 A 
BRANCH  19  24
ATOM     24  O   UNL A   1      31.101  25.847  26.759  1.00  0.00    -0.495 OA
ATOM     25  C   UNL A   1      29.787  25.565  26.269  1.00  0.00     0.278 C 
ENDBRANCH  19  24
ENDBRANCH  16  18
ENDBRANCH  11  16
ENDBRANCH   8  10
ENDBRANCH   7   8
ENDBRANCH   6   7
ENDBRANCH   5   6
ENDBRANCH   4   5
ENDBRANCH   3   4
ENDBRANCH   2   3
ENDBRANCH   1   2
BRANCH   1  26
ATOM     26  C   UNL A   1      40.058  25.483  26.786  1.00  0.00     0.188 C 
BRANCH  26  27
ATOM     27  C   UNL A   1      40.930  26.682  26.363  1.00  0.00     0.188 C 
BRANCH  27  28
ATOM     28  O   UNL A   1      41.548  26.517  25.082  1.00  0.00    -0.376 OA
BRANCH  28  29
ATOM     29  C   UNL A   1      42.963  26.671  25.043  1.00  0.00     0.202 C 
BRANCH  29  30
ATOM     30  C   UNL A   1      43.731  25.373  25.328  1.00  0.00     0.261 C 
BRANCH  30  31
ATOM     31  O   UNL A   1      43.825  25.027  26.718  1.00  0.00    -0.460 OA
BRANCH  31  32
ATOM     32  C   UNL A   1      44.770  25.665  27.443  1.00  0.00     0.338 C 
ATOM     33  O   UNL A   1      45.976  25.623  27.278  1.00  0.00    -0.246 OA
BRANCH  32  34
ATOM     34  C   UNL A   1      44.087  26.583  28.375  1.00  0.00     0.060 A 
ATOM     35  C   UNL A   1      44.294  27.960  28.229  1.00  0.00     0.016 A 
ATOM     36  C   UNL A   1      43.269  26.087  29.392  1.00  0.00     0.016 A 
ATOM     37  C   UNL A   1      43.715  28.847  29.138  1.00  0.00     0.010 A 
ATOM     38  C   UNL A   1      42.704  26.974  30.309  1.00  0.00     0.010 A 
ATOM     39  C   UNL A   1      42.954  28.352  30.207  1.00  0.00    -0.014 A 
BRANCH  39  40
ATOM     40  C   UNL A   1      42.579  29.248  31.326  1.00  0.00     0.031 A 
ATOM     41  C   UNL A   1      41.327  30.070  31.190  1.00  0.00     0.074 A 
ATOM     42  C   UNL A   1      43.339  29.337  32.432  1.00  0.00     0.049 A 
ATOM     43  N   UNL A   1      40.825  30.956  32.010  1.00  0.00    -0.248 NA
ATOM     44  C   UNL A   1      40.537  29.868  29.963  1.00  0.00     0.031 C 
ATOM     45  C   UNL A   1      44.562  28.577  32.684  1.00  0.00     0.029 A 
ATOM     46  N   UNL A   1      43.195  30.123  33.547  1.00  0.00    -0.354 N 
ATOM     47  C   UNL A   1      39.666  31.420  31.398  1.00  0.00     0.074 A 
ATOM     48  C   UNL A   1      39.548  30.733  30.130  1.00  0.00     0.031 C 
ATOM     49  C   UNL A   1      45.068  28.949  33.874  1.00  0.00     0.029 A 
ATOM     50  C   UNL A   1      44.218  29.986  34.454  1.00  0.00     0.049 A 
ATOM     51  H   UNL A   1      42.431  30.730  33.683  1.00  0.00     0.167 HD
ATOM     52  C   UNL A   1      38.775  32.330  31.856  1.00  0.00     0.037 A 
ATOM     53  C   UNL A   1      44.445  30.641  35.611  1.00  0.00     0.037 A 
ATOM     54  C   UNL A   1      38.895  33.012  33.115  1.00  0.00     0.049 A 
ATOM     55  C   UNL A   1      43.466  31.690  36.073  1.00  0.00     0.074 A 
ATOM     56  C   UNL A   1      38.031  33.935  33.679  1.00  0.00     0.029 A 
ATOM     57  N   UNL A   1      39.947  32.852  34.003  1.00  0.00    -0.354 N 
ATOM     58  N   UNL A   1      42.353  32.088  35.505  1.00  0.00    -0.248 NA
ATOM     59  C   UNL A   1      43.774  32.379  37.336  1.00  0.00     0.031 C 
ATOM     60  C   UNL A   1      38.581  34.361  34.893  1.00  0.00     0.029 A 
ATOM     61  C   UNL A   1      39.767  33.674  35.102  1.00  0.00     0.049 A 
ATOM     62  H   UNL A   1      40.711  32.245  33.872  1.00  0.00     0.167 HD
ATOM     63  C   UNL A   1      41.814  33.050  36.353  1.00  0.00     0.074 A 
ATOM     64  C   UNL A   1      42.719  33.171  37.477  1.00  0.00     0.031 C 
ATOM     65  C   UNL A   1      40.671  33.768  36.218  1.00  0.00     0.037 A 
BRANCH  52  66
ATOM     66  C   UNL A   1      37.600  32.651  30.982  1.00  0.00     0.058 A 
ATOM     67  C   UNL A   1      36.317  32.156  31.265  1.00  0.00     0.135 A 
ATOM     68  C   UNL A   1      37.748  33.495  29.870  1.00  0.00     0.135 A 
ATOM     69  F   UNL A   1      36.128  31.326  32.303  1.00  0.00    -0.206 F 
ATOM     70  C   UNL A   1      35.223  32.479  30.470  1.00  0.00     0.059 A 
ATOM     71  C   UNL A   1      36.664  33.847  29.073  1.00  0.00     0.059 A 
ATOM     72  F   UNL A   1      38.956  33.987  29.552  1.00  0.00    -0.206 F 
ATOM     73  C   UNL A   1      35.407  33.326  29.376  1.00  0.00     0.060 A 
BRANCH  73  74
ATOM     74  S   UNL A   1      33.974  33.755  28.366  1.00  0.00     0.124 S 
ATOM     75  O   UNL A   1      33.585  32.447  27.843  1.00  0.00    -0.237 OA
ATOM     76  O   UNL A   1      33.064  34.342  29.343  1.00  0.00    -0.237 OA
ATOM     77  O   UNL A   1      34.518  34.686  27.382  1.00  0.00    -0.744 OA
ENDBRANCH  73  74
ENDBRANCH  52  66
BRANCH  53  78
ATOM     78  C   UNL A   1      45.659  30.341  36.416  1.00  0.00     0.058 A 
ATOM     79  C   UNL A   1      45.639  29.355  37.414  1.00  0.00     0.135 A 
ATOM     80  C   UNL A   1      46.851  31.056  36.226  1.00  0.00     0.135 A 
ATOM     81  F   UNL A   1      44.517  28.653  37.641  1.00  0.00    -0.206 F 
ATOM     82  C   UNL A   1      46.750  29.103  38.212  1.00  0.00     0.059 A 
ATOM     83  C   UNL A   1      47.983  30.807  36.995  1.00  0.00     0.059 A 
ATOM     84  F   UNL A   1      46.925  32.001  35.277  1.00  0.00    -0.206 F 
ATOM     85  C   UNL A   1      47.917  29.838  37.997  1.00  0.00     0.060 A 
BRANCH  85  86
ATOM     86  S   UNL A   1      49.366  29.490  39.019  1.00  0.00     0.124 S 
ATOM     87  O   UNL A   1      49.245  28.051  39.217  1.00  0.00    -0.237 OA
ATOM     88  O   UNL A   1      50.462  29.928  38.159  1.00  0.00    -0.237 OA
ATOM     89  O   UNL A   1      49.143  30.314  40.203  1.00  0.00    -0.744 OA
ENDBRANCH  85  86
ENDBRANCH  53  78
BRANCH  65  90
ATOM     90  C   UNL A   1      40.311  34.717  37.326  1.00  0.00     0.058 A 
ATOM     91  C   UNL A   1      39.551  34.304  38.431  1.00  0.00     0.135 A 
ATOM     92  C   UNL A   1      40.788  36.037  37.312  1.00  0.00     0.135 A 
ATOM     93  F   UNL A   1      39.068  33.053  38.490  1.00  0.00    -0.206 F 
ATOM     94  C   UNL A   1      39.261  35.175  39.477  1.00  0.00     0.059 A 
ATOM     95  C   UNL A   1      40.530  36.918  38.357  1.00  0.00     0.059 A 
ATOM     96  F   UNL A   1      41.531  36.476  36.282  1.00  0.00    -0.206 F 
ATOM     97  C   UNL A   1      39.756  36.479  39.432  1.00  0.00     0.060 A 
BRANCH  97  98
ATOM     98  S   UNL A   1      39.408  37.590  40.812  1.00  0.00     0.124 S 
ATOM     99  O   UNL A   1      40.717  38.194  41.039  1.00  0.00    -0.237 OA
ATOM    100  O   UNL A   1      38.390  38.475  40.256  1.00  0.00    -0.237 OA
ATOM    101  O   UNL A   1      38.941  36.689  41.862  1.00  0.00    -0.744 OA
ENDBRANCH  97  98
ENDBRANCH  65  90
ENDBRANCH  39  40
ENDBRANCH  32  34
ENDBRANCH  31  32
ENDBRANCH  30  31
ENDBRANCH  29  30
ENDBRANCH  28  29
ENDBRANCH  27  28
ENDBRANCH  26  27
ENDBRANCH   1  26
TORSDOF 26
ENDMDL
MODEL 2
REMARK VINA RESULT:      -8.4      7.981      9.797
REMARK SMILES COc1ccccc1Nc1nc(C)c(C(=O)OCCOCCOCCOCCOC(=O)c2ccc(-c3c4nc(c(-c5c(F)cc(S(=O)(=O)[O-])cc5F)c5ccc([nH]5)c(-c5c(F)cc(S(=O)(=O)[O-])cc5F)c5nc(c(-c6c(F)cc(S(=O)(=O)[O-])cc6F)c6ccc3[nH]6)C=C5)C=C4)cc2)s1
REMARK SMILES IDX 23 1 22 2 21 3 20 4 19 5 18 6 17 7 15 8 16 9 14 10 10 11
REMARK SMILES IDX 11 12 98 13 12 14 13 15 9 16 8 18 3 19 4 20 5 21 7 22 6 23
REMARK SMILES IDX 2 24 1 25 24 26 25 27 26 28 27 29 28 30 29 31 30 32 31 33
REMARK SMILES IDX 32 34 33 35 97 36 34 37 96 38 35 39 36 40 37 41 90 42 38 43
REMARK SMILES IDX 95 44 89 45 91 46 39 47 94 48 88 49 87 50 40 52 74 53 53 54
REMARK SMILES IDX 73 55 54 56 57 57 72 58 92 59 55 60 56 61 71 63 93 64 58 65
REMARK SMILES IDX 41 66 42 67 51 68 43 69 44 70 50 71 52 72 45 73 46 74 47 75
REMARK SMILES IDX 48 76 49 77 75 78 76 79 85 80 77 81 78 82 84 83 86 84 79 85
REMARK SMILES IDX 80 86 81 87 82 88 83 89 59 90 60 91 69 92 61 93 62 94 68 95
REMARK SMILES IDX 70 96 63 97 64 98 65 99 66 100 67 101
REMARK H PARENT 9 17 91 51 57 62
REMARK Flexibility Score: inf
ROOT
ATOM      1  O   UNL A   1      44.623  21.031  24.995  1.00  0.00    -0.377 OA
ENDROOT
BRANCH   1   2
ATOM      2  C   UNL A   1      44.901  20.001  24.060  1.00  0.00     0.188 C 
BRANCH   2   3
ATOM      3  C   UNL A   1      44.231  18.672  24.449  1.00  0.00     0.188 C 
BRANCH   3   4
ATOM      4  O   UNL A   1      44.207  18.445  25.859  1.00  0.00    -0.376 OA
BRANCH   4   5
ATOM      5  C   UNL A   1      42.938  18.124  26.425  1.00  0.00     0.202 C 
BRANCH   5   6
ATOM      6  C   UNL A   1      42.204  19.264  27.147  1.00  0.00     0.261 C 
BRANCH   6   7
ATOM      7  O   UNL A   1      41.581  20.234  26.291  1.00  0.00    -0.459 OA
BRANCH   7   8
ATOM      8  C   UNL A   1      40.264  20.109  25.998  1.00  0.00     0.350 C 
ATOM      9  O   UNL A   1      39.716  19.045  25.734  1.00  0.00    -0.245 OA
BRANCH   8  10
ATOM     10  C   UNL A   1      39.615  21.387  26.193  1.00  0.00     0.137 A 
ATOM     11  C   UNL A   1      39.146  23.706  26.794  1.00  0.00     0.188 A 
ATOM     12  N   UNL A   1      38.166  23.211  26.079  1.00  0.00    -0.224 NA
ATOM     13  S   UNL A   1      40.405  22.586  27.142  1.00  0.00    -0.089 S 
ATOM     14  C   UNL A   1      38.448  21.918  25.662  1.00  0.00     0.065 A 
ATOM     15  C   UNL A   1      37.469  21.287  24.734  1.00  0.00     0.069 C 
BRANCH  11  16
ATOM     16  N   UNL A   1      39.096  24.950  27.312  1.00  0.00    -0.328 N 
ATOM     17  H   UNL A   1      38.329  25.141  27.899  1.00  0.00     0.169 HD
BRANCH  16  18
ATOM     18  C   UNL A   1      40.006  26.012  27.119  1.00  0.00     0.083 A 
ATOM     19  C   UNL A   1      40.020  27.079  28.040  1.00  0.00     0.142 A 
ATOM     20  C   UNL A   1      40.796  28.219  27.825  1.00  0.00     0.048 A 
ATOM     21  C   UNL A   1      41.620  28.291  26.705  1.00  0.00     0.004 A 
ATOM     22  C   UNL A   1      40.870  26.088  26.019  1.00  0.00     0.030 A 
ATOM     23  C   UNL A   1      41.666  27.223  25.810  1.00  0.00     0.002 A 
BRANCH  19  24
ATOM     24  O   UNL A   1      39.220  27.076  29.160  1.00  0.00    -0.495 OA
ATOM     25  C   UNL A   1      39.067  28.404  29.670  1.00  0.00     0.278 C 
ENDBRANCH  19  24
ENDBRANCH  16  18
ENDBRANCH  11  16
ENDBRANCH   8  10
ENDBRANCH   7   8
ENDBRANCH   6   7
ENDBRANCH   5   6
ENDBRANCH   4   5
ENDBRANCH   3   4
ENDBRANCH   2   3
ENDBRANCH   1   2
BRANCH   1  26
ATOM     26  C   UNL A   1      45.746  21.728  25.532  1.00  0.00     0.188 C 
BRANCH  26  27
ATOM     27  C   UNL A   1      45.524  23.000  26.376  1.00  0.00     0.188 C 
BRANCH  27  28
ATOM     28  O   UNL A   1      44.301  22.986  27.121  1.00  0.00    -0.376 OA
BRANCH  28  29
ATOM     29  C   UNL A   1      43.797  24.256  27.523  1.00  0.00     0.202 C 
BRANCH  29  30
ATOM     30  C   UNL A   1      44.517  24.846  28.742  1.00  0.00     0.261 C 
BRANCH  30  31
ATOM     31  O   UNL A   1      44.970  26.198  28.573  1.00  0.00    -0.460 OA
BRANCH  31  32
ATOM     32  C   UNL A   1      46.262  26.369  28.218  1.00  0.00     0.338 C 
ATOM     33  O   UNL A   1      47.067  25.502  27.933  1.00  0.00    -0.246 OA
BRANCH  32  34
ATOM     34  C   UNL A   1      46.500  27.816  28.048  1.00  0.00     0.060 A 
ATOM     35  C   UNL A   1      47.262  28.487  29.012  1.00  0.00     0.016 A 
ATOM     36  C   UNL A   1      45.959  28.504  26.959  1.00  0.00     0.016 A 
ATOM     37  C   UNL A   1      47.445  29.867  28.913  1.00  0.00     0.010 A 
ATOM     38  C   UNL A   1      46.130  29.886  26.871  1.00  0.00     0.010 A 
ATOM     39  C   UNL A   1      46.842  30.577  27.865  1.00  0.00    -0.014 A 
BRANCH  39  40
ATOM     40  C   UNL A   1      46.788  32.057  27.907  1.00  0.00     0.031 A 
ATOM     41  C   UNL A   1      45.540  32.707  28.437  1.00  0.00     0.074 A 
ATOM     42  C   UNL A   1      47.818  32.805  27.475  1.00  0.00     0.049 A 
ATOM     43  N   UNL A   1      45.241  33.977  28.525  1.00  0.00    -0.248 NA
ATOM     44  C   UNL A   1      44.486  31.805  28.931  1.00  0.00     0.031 C 
ATOM     45  C   UNL A   1      49.085  32.286  26.958  1.00  0.00     0.029 A 
ATOM     46  N   UNL A   1      47.952  34.167  27.390  1.00  0.00    -0.354 N 
ATOM     47  C   UNL A   1      43.967  34.026  29.078  1.00  0.00     0.074 A 
ATOM     48  C   UNL A   1      43.539  32.660  29.287  1.00  0.00     0.031 C 
ATOM     49  C   UNL A   1      49.861  33.322  26.593  1.00  0.00     0.029 A 
ATOM     50  C   UNL A   1      49.140  34.571  26.829  1.00  0.00     0.049 A 
ATOM     51  H   UNL A   1      47.261  34.796  27.701  1.00  0.00     0.167 HD
ATOM     52  C   UNL A   1      43.223  35.112  29.391  1.00  0.00     0.037 A 
ATOM     53  C   UNL A   1      49.580  35.809  26.525  1.00  0.00     0.037 A 
ATOM     54  C   UNL A   1      43.649  36.469  29.182  1.00  0.00     0.049 A 
ATOM     55  C   UNL A   1      48.709  37.001  26.834  1.00  0.00     0.074 A 
ATOM     56  C   UNL A   1      42.977  37.639  29.488  1.00  0.00     0.029 A 
ATOM     57  N   UNL A   1      44.854  36.838  28.604  1.00  0.00    -0.354 N 
ATOM     58  N   UNL A   1      47.524  37.034  27.396  1.00  0.00    -0.248 NA
ATOM     59  C   UNL A   1      49.237  38.324  26.469  1.00  0.00     0.031 C 
ATOM     60  C   UNL A   1      43.761  38.717  29.062  1.00  0.00     0.029 A 
ATOM     61  C   UNL A   1      44.938  38.217  28.527  1.00  0.00     0.049 A 
ATOM     62  H   UNL A   1      45.548  36.212  28.295  1.00  0.00     0.167 HD
ATOM     63  C   UNL A   1      47.178  38.379  27.478  1.00  0.00     0.074 A 
ATOM     64  C   UNL A   1      48.282  39.130  26.914  1.00  0.00     0.031 C 
ATOM     65  C   UNL A   1      46.052  38.945  27.977  1.00  0.00     0.037 A 
BRANCH  52  66
ATOM     66  C   UNL A   1      41.865  34.877  29.982  1.00  0.00     0.058 A 
ATOM     67  C   UNL A   1      40.700  34.975  29.206  1.00  0.00     0.135 A 
ATOM     68  C   UNL A   1      41.728  34.509  31.330  1.00  0.00     0.135 A 
ATOM     69  F   UNL A   1      40.776  35.346  27.918  1.00  0.00    -0.206 F 
ATOM     70  C   UNL A   1      39.443  34.728  29.748  1.00  0.00     0.059 A 
ATOM     71  C   UNL A   1      40.484  34.237  31.888  1.00  0.00     0.059 A 
ATOM     72  F   UNL A   1      42.812  34.409  32.116  1.00  0.00    -0.206 F 
ATOM     73  C   UNL A   1      39.346  34.357  31.090  1.00  0.00     0.060 A 
BRANCH  73  74
ATOM     74  S   UNL A   1      37.711  34.017  31.776  1.00  0.00     0.124 S 
ATOM     75  O   UNL A   1      37.913  32.698  32.369  1.00  0.00    -0.237 OA
ATOM     76  O   UNL A   1      37.531  35.115  32.719  1.00  0.00    -0.237 OA
ATOM     77  O   UNL A   1      36.839  34.051  30.605  1.00  0.00    -0.744 OA
ENDBRANCH  73  74
ENDBRANCH  52  66
BRANCH  53  78
ATOM     78  C   UNL A   1      50.905  35.996  25.879  1.00  0.00     0.058 A 
ATOM     79  C   UNL A   1      51.011  36.216  24.498  1.00  0.00     0.135 A 
ATOM     80  C   UNL A   1      52.092  35.927  26.624  1.00  0.00     0.135 A 
ATOM     81  F   UNL A   1      49.904  36.278  23.742  1.00  0.00    -0.206 F 
ATOM     82  C   UNL A   1      52.249  36.336  23.872  1.00  0.00     0.059 A 
ATOM     83  C   UNL A   1      53.340  36.067  26.025  1.00  0.00     0.059 A 
ATOM     84  F   UNL A   1      52.044  35.729  27.950  1.00  0.00    -0.206 F 
ATOM     85  C   UNL A   1      53.408  36.257  24.645  1.00  0.00     0.060 A 
BRANCH  85  86
ATOM     86  S   UNL A   1      55.010  36.440  23.832  1.00  0.00     0.124 S 
ATOM     87  O   UNL A   1      55.883  35.698  24.734  1.00  0.00    -0.237 OA
ATOM     88  O   UNL A   1      54.767  35.827  22.529  1.00  0.00    -0.237 OA
ATOM     89  O   UNL A   1      55.208  37.886  23.807  1.00  0.00    -0.744 OA
ENDBRANCH  85  86
ENDBRANCH  53  78
BRANCH  65  90
ATOM     90  C   UNL A   1      45.968  40.445  27.976  1.00  0.00     0.058 A 
ATOM     91  C   UNL A   1      46.530  41.215  29.005  1.00  0.00     0.135 A 
ATOM     92  C   UNL A   1      45.375  41.122  26.898  1.00  0.00     0.135 A 
ATOM     93  F   UNL A   1      47.104  40.616  30.061  1.00  0.00    -0.206 F 
ATOM     94  C   UNL A   1      46.491  42.606  28.975  1.00  0.00     0.059 A 
ATOM     95  C   UNL A   1      45.345  42.510  26.835  1.00  0.00     0.059 A 
ATOM     96  F   UNL A   1      44.834  40.429  25.881  1.00  0.00    -0.206 F 
ATOM     97  C   UNL A   1      45.897  43.244  27.885  1.00  0.00     0.060 A 
BRANCH  97  98
ATOM     98  S   UNL A   1      45.887  45.049  27.835  1.00  0.00     0.124 S 
ATOM     99  O   UNL A   1      47.298  45.357  28.041  1.00  0.00    -0.237 OA
ATOM    100  O   UNL A   1      45.366  45.324  26.499  1.00  0.00    -0.237 OA
ATOM    101  O   UNL A   1      44.996  45.413  28.933  1.00  0.00    -0.744 OA
ENDBRANCH  97  98
ENDBRANCH  65  90
ENDBRANCH  39  40
ENDBRANCH  32  34
ENDBRANCH  31  32
ENDBRANCH  30  31
ENDBRANCH  29  30
ENDBRANCH  28  29
ENDBRANCH  27  28
ENDBRANCH  26  27
ENDBRANCH   1  26
TORSDOF 26
ENDMDL
MODEL 3
REMARK VINA RESULT:      -8.3      1.379      8.130
REMARK SMILES COc1ccccc1Nc1nc(C)c(C(=O)OCCOCCOCCOCCOC(=O)c2ccc(-c3c4nc(c(-c5c(F)cc(S(=O)(=O)[O-])cc5F)c5ccc([nH]5)c(-c5c(F)cc(S(=O)(=O)[O-])cc5F)c5nc(c(-c6c(F)cc(S(=O)(=O)[O-])cc6F)c6ccc3[nH]6)C=C5)C=C4)cc2)s1
REMARK SMILES IDX 23 1 22 2 21 3 20 4 19 5 18 6 17 7 15 8 16 9 14 10 10 11
REMARK SMILES IDX 11 12 98 13 12 14 13 15 9 16 8 18 3 19 4 20 5 21 7 22 6 23
REMARK SMILES IDX 2 24 1 25 24 26 25 27 26 28 27 29 28 30 29 31 30 32 31 33
REMARK SMILES IDX 32 34 33 35 97 36 34 37 96 38 35 39 36 40 37 41 90 42 38 43
REMARK SMILES IDX 95 44 89 45 91 46 39 47 94 48 88 49 87 50 40 52 74 53 53 54
REMARK SMILES IDX 73 55 54 56 57 57 72 58 92 59 55 60 56 61 71 63 93 64 58 65
REMARK SMILES IDX 41 66 42 67 51 68 43 69 44 70 50 71 52 72 45 73 46 74 47 75
REMARK SMILES IDX 48 76 49 77 75 78 76 79 85 80 77 81 78 82 84 83 86 84 79 85
REMARK SMILES IDX 80 86 81 87 82 88 83 89 59 90 60 91 69 92 61 93 62 94 68 95
REMARK SMILES IDX 70 96 63 97 64 98 65 99 66 100 67 101
REMARK H PARENT 9 17 91 51 57 62
REMARK Flexibility Score: inf
ROOT
ATOM      1  O   UNL A   1      40.003  24.861  27.521  1.00  0.00    -0.377 OA
ENDROOT
BRANCH   1   2
ATOM      2  C   UNL A   1      39.528  23.555  27.236  1.00  0.00     0.188 C 
BRANCH   2   3
ATOM      3  C   UNL A   1      38.335  23.571  26.266  1.00  0.00     0.188 C 
BRANCH   3   4
ATOM      4  O   UNL A   1      37.976  22.272  25.793  1.00  0.00    -0.376 OA
BRANCH   4   5
ATOM      5  C   UNL A   1      37.161  22.229  24.624  1.00  0.00     0.202 C 
BRANCH   5   6
ATOM      6  C   UNL A   1      35.902  23.108  24.634  1.00  0.00     0.261 C 
BRANCH   6   7
ATOM      7  O   UNL A   1      34.709  22.480  24.139  1.00  0.00    -0.459 OA
BRANCH   7   8
ATOM      8  C   UNL A   1      33.909  21.809  25.002  1.00  0.00     0.350 C 
ATOM      9  O   UNL A   1      34.036  20.621  25.277  1.00  0.00    -0.245 OA
BRANCH   8  10
ATOM     10  C   UNL A   1      33.004  22.746  25.631  1.00  0.00     0.137 A 
ATOM     11  C   UNL A   1      31.248  24.395  26.031  1.00  0.00     0.188 A 
ATOM     12  N   UNL A   1      31.727  23.951  27.167  1.00  0.00    -0.224 NA
ATOM     13  S   UNL A   1      32.023  23.752  24.636  1.00  0.00    -0.089 S 
ATOM     14  C   UNL A   1      32.673  22.957  26.962  1.00  0.00     0.065 A 
ATOM     15  C   UNL A   1      33.203  22.278  28.178  1.00  0.00     0.069 C 
BRANCH  11  16
ATOM     16  N   UNL A   1      30.316  25.367  25.980  1.00  0.00    -0.328 N 
ATOM     17  H   UNL A   1      29.595  25.308  26.648  1.00  0.00     0.169 HD
BRANCH  16  18
ATOM     18  C   UNL A   1      30.243  26.460  25.090  1.00  0.00     0.083 A 
ATOM     19  C   UNL A   1      31.115  27.554  25.273  1.00  0.00     0.142 A 
ATOM     20  C   UNL A   1      30.994  28.718  24.513  1.00  0.00     0.048 A 
ATOM     21  C   UNL A   1      30.029  28.792  23.512  1.00  0.00     0.004 A 
ATOM     22  C   UNL A   1      29.305  26.540  24.052  1.00  0.00     0.030 A 
ATOM     23  C   UNL A   1      29.195  27.700  23.274  1.00  0.00     0.002 A 
BRANCH  19  24
ATOM     24  O   UNL A   1      32.081  27.550  26.253  1.00  0.00    -0.495 OA
ATOM     25  C   UNL A   1      31.609  28.226  27.423  1.00  0.00     0.278 C 
ENDBRANCH  19  24
ENDBRANCH  16  18
ENDBRANCH  11  16
ENDBRANCH   8  10
ENDBRANCH   7   8
ENDBRANCH   6   7
ENDBRANCH   5   6
ENDBRANCH   4   5
ENDBRANCH   3   4
ENDBRANCH   2   3
ENDBRANCH   1   2
BRANCH   1  26
ATOM     26  C   UNL A   1      39.935  25.812  26.461  1.00  0.00     0.188 C 
BRANCH  26  27
ATOM     27  C   UNL A   1      41.098  26.803  26.247  1.00  0.00     0.188 C 
BRANCH  27  28
ATOM     28  O   UNL A   1      41.780  26.625  25.001  1.00  0.00    -0.376 OA
BRANCH  28  29
ATOM     29  C   UNL A   1      43.192  26.458  25.077  1.00  0.00     0.202 C 
BRANCH  29  30
ATOM     30  C   UNL A   1      43.622  25.047  25.501  1.00  0.00     0.261 C 
BRANCH  30  31
ATOM     31  O   UNL A   1      43.421  24.753  26.891  1.00  0.00    -0.460 OA
BRANCH  31  32
ATOM     32  C   UNL A   1      44.521  24.732  27.676  1.00  0.00     0.338 C 
ATOM     33  O   UNL A   1      45.538  24.087  27.499  1.00  0.00    -0.246 OA
BRANCH  32  34
ATOM     34  C   UNL A   1      44.364  25.775  28.708  1.00  0.00     0.060 A 
ATOM     35  C   UNL A   1      43.835  25.412  29.952  1.00  0.00     0.016 A 
ATOM     36  C   UNL A   1      44.717  27.100  28.441  1.00  0.00     0.016 A 
ATOM     37  C   UNL A   1      43.612  26.391  30.922  1.00  0.00     0.010 A 
ATOM     38  C   UNL A   1      44.478  28.079  29.406  1.00  0.00     0.010 A 
ATOM     39  C   UNL A   1      43.892  27.734  30.635  1.00  0.00    -0.014 A 
BRANCH  39  40
ATOM     40  C   UNL A   1      43.399  28.802  31.535  1.00  0.00     0.031 A 
ATOM     41  C   UNL A   1      44.166  29.077  32.799  1.00  0.00     0.074 A 
ATOM     42  C   UNL A   1      42.290  29.504  31.242  1.00  0.00     0.049 A 
ATOM     43  N   UNL A   1      43.902  29.922  33.761  1.00  0.00    -0.248 NA
ATOM     44  C   UNL A   1      45.393  28.289  33.009  1.00  0.00     0.031 C 
ATOM     45  C   UNL A   1      41.476  29.340  30.038  1.00  0.00     0.029 A 
ATOM     46  N   UNL A   1      41.651  30.490  31.949  1.00  0.00    -0.354 N 
ATOM     47  C   UNL A   1      44.924  29.766  34.690  1.00  0.00     0.074 A 
ATOM     48  C   UNL A   1      45.802  28.731  34.189  1.00  0.00     0.031 C 
ATOM     49  C   UNL A   1      40.433  30.187  30.100  1.00  0.00     0.029 A 
ATOM     50  C   UNL A   1      40.494  30.933  31.355  1.00  0.00     0.049 A 
ATOM     51  H   UNL A   1      41.988  30.845  32.803  1.00  0.00     0.167 HD
ATOM     52  C   UNL A   1      45.118  30.431  35.852  1.00  0.00     0.037 A 
ATOM     53  C   UNL A   1      39.582  31.827  31.790  1.00  0.00     0.037 A 
ATOM     54  C   UNL A   1      44.244  31.458  36.349  1.00  0.00     0.049 A 
ATOM     55  C   UNL A   1      39.793  32.515  33.115  1.00  0.00     0.074 A 
ATOM     56  C   UNL A   1      44.368  32.208  37.506  1.00  0.00     0.029 A 
ATOM     57  N   UNL A   1      43.078  31.873  35.724  1.00  0.00    -0.354 N 
ATOM     58  N   UNL A   1      40.785  32.388  33.962  1.00  0.00    -0.248 NA
ATOM     59  C   UNL A   1      38.759  33.470  33.541  1.00  0.00     0.031 C 
ATOM     60  C   UNL A   1      43.256  33.053  37.599  1.00  0.00     0.029 A 
ATOM     61  C   UNL A   1      42.462  32.856  36.480  1.00  0.00     0.049 A 
ATOM     62  H   UNL A   1      42.739  31.523  34.869  1.00  0.00     0.167 HD
ATOM     63  C   UNL A   1      40.511  33.266  35.006  1.00  0.00     0.074 A 
ATOM     64  C   UNL A   1      39.262  33.924  34.682  1.00  0.00     0.031 C 
ATOM     65  C   UNL A   1      41.228  33.510  36.131  1.00  0.00     0.037 A 
BRANCH  52  66
ATOM     66  C   UNL A   1      46.316  30.057  36.674  1.00  0.00     0.058 A 
ATOM     67  C   UNL A   1      46.250  29.056  37.654  1.00  0.00     0.135 A 
ATOM     68  C   UNL A   1      47.555  30.680  36.451  1.00  0.00     0.135 A 
ATOM     69  F   UNL A   1      45.084  28.447  37.921  1.00  0.00    -0.206 F 
ATOM     70  C   UNL A   1      47.369  28.691  38.395  1.00  0.00     0.059 A 
ATOM     71  C   UNL A   1      48.691  30.317  37.166  1.00  0.00     0.059 A 
ATOM     72  F   UNL A   1      47.667  31.650  35.530  1.00  0.00    -0.206 F 
ATOM     73  C   UNL A   1      48.586  29.327  38.142  1.00  0.00     0.060 A 
BRANCH  73  74
ATOM     74  S   UNL A   1      50.035  28.827  39.095  1.00  0.00     0.124 S 
ATOM     75  O   UNL A   1      50.928  29.963  38.883  1.00  0.00    -0.237 OA
ATOM     76  O   UNL A   1      49.494  28.691  40.443  1.00  0.00    -0.237 OA
ATOM     77  O   UNL A   1      50.447  27.580  38.458  1.00  0.00    -0.744 OA
ENDBRANCH  73  74
ENDBRANCH  52  66
BRANCH  53  78
ATOM     78  C   UNL A   1      38.372  32.120  30.976  1.00  0.00     0.058 A 
ATOM     79  C   UNL A   1      38.395  33.103  29.976  1.00  0.00     0.135 A 
ATOM     80  C   UNL A   1      37.163  31.447  31.205  1.00  0.00     0.135 A 
ATOM     81  F   UNL A   1      39.526  33.782  29.728  1.00  0.00    -0.206 F 
ATOM     82  C   UNL A   1      37.255  33.426  29.246  1.00  0.00     0.059 A 
ATOM     83  C   UNL A   1      36.016  31.735  30.473  1.00  0.00     0.059 A 
ATOM     84  F   UNL A   1      37.092  30.490  32.144  1.00  0.00    -0.206 F 
ATOM     85  C   UNL A   1      36.069  32.738  29.505  1.00  0.00     0.060 A 
BRANCH  85  86
ATOM     86  S   UNL A   1      34.599  33.144  28.537  1.00  0.00     0.124 S 
ATOM     87  O   UNL A   1      33.694  33.633  29.570  1.00  0.00    -0.237 OA
ATOM     88  O   UNL A   1      35.109  34.146  27.606  1.00  0.00    -0.237 OA
ATOM     89  O   UNL A   1      34.236  31.866  27.931  1.00  0.00    -0.744 OA
ENDBRANCH  85  86
ENDBRANCH  53  78
BRANCH  65  90
ATOM     90  C   UNL A   1      40.705  34.556  37.075  1.00  0.00     0.058 A 
ATOM     91  C   UNL A   1      39.701  34.268  38.010  1.00  0.00     0.135 A 
ATOM     92  C   UNL A   1      41.264  35.844  37.085  1.00  0.00     0.135 A 
ATOM     93  F   UNL A   1      39.131  33.052  38.038  1.00  0.00    -0.206 F 
ATOM     94  C   UNL A   1      39.254  35.228  38.913  1.00  0.00     0.059 A 
ATOM     95  C   UNL A   1      40.850  36.812  37.993  1.00  0.00     0.059 A 
ATOM     96  F   UNL A   1      42.238  36.165  36.217  1.00  0.00    -0.206 F 
ATOM     97  C   UNL A   1      39.835  36.497  38.898  1.00  0.00     0.060 A 
BRANCH  97  98
ATOM     98  S   UNL A   1      39.278  37.723  40.100  1.00  0.00     0.124 S 
ATOM     99  O   UNL A   1      40.450  38.586  40.204  1.00  0.00    -0.237 OA
ATOM    100  O   UNL A   1      38.117  38.308  39.438  1.00  0.00    -0.237 OA
ATOM    101  O   UNL A   1      38.979  36.925  41.285  1.00  0.00    -0.744 OA
ENDBRANCH  97  98
ENDBRANCH  65  90
ENDBRANCH  39  40
ENDBRANCH  32  34
ENDBRANCH  31  32
ENDBRANCH  30  31
ENDBRANCH  29  30
ENDBRANCH  28  29
ENDBRANCH  27  28
ENDBRANCH  26  27
ENDBRANCH   1  26
TORSDOF 26
ENDMDL
