MODEL 1
REMARK VINA RESULT:     -10.0      0.000      0.000
REMARK SMILES Cc1ccc(S(=O)(=O)n2cc(C(=O)C(=O)NCC(=O)OCCOCCOCCOCCOC(=O)c3ccc(-c4c5nc(c(-c6c(F)cc(S(=O)(=O)[O-])cc6F)c6ccc([nH]6)c(-c6c(F)cc(S(=O)(=O)[O-])cc6F)c6nc(c(-c7c(F)cc(S(=O)(=O)[O-])cc7F)c7ccc4[nH]7)C=C6)C=C5)cc3)c3ccccc32)cc1
REMARK SMILES IDX 25 1 24 2 23 3 22 4 21 5 20 6 18 7 19 8 17 9 16 10 14 11
REMARK SMILES IDX 15 12 12 14 13 15 11 16 9 17 10 18 106 19 101 20 105 21
REMARK SMILES IDX 102 22 104 23 103 24 6 25 7 26 8 27 5 28 1 29 2 30 3 31
REMARK SMILES IDX 108 32 4 33 107 34 26 35 27 36 28 37 29 38 30 39 31 40 32 41
REMARK SMILES IDX 33 42 34 43 35 44 36 45 100 46 37 47 99 48 38 49 39 50 40 51
REMARK SMILES IDX 93 52 41 53 98 54 92 55 94 56 42 57 97 58 91 59 90 60 43 62
REMARK SMILES IDX 77 63 56 64 76 65 57 66 60 67 75 68 95 69 58 70 59 71 74 73
REMARK SMILES IDX 96 74 61 75 44 76 45 77 54 78 46 79 47 80 53 81 55 82 48 83
REMARK SMILES IDX 49 84 50 85 51 86 52 87 78 88 79 89 88 90 80 91 81 92 87 93
REMARK SMILES IDX 89 94 82 95 83 96 84 97 85 98 86 99 62 100 63 101 72 102
REMARK SMILES IDX 64 103 65 104 71 105 73 106 66 107 67 108 68 109 69 110
REMARK SMILES IDX 70 111
REMARK H PARENT 16 13 94 61 60 72
REMARK Flexibility Score: inf
ROOT
ATOM      1  C   UNL A   1      41.803  19.580  26.612  1.00  0.00     0.188 C 
ENDROOT
BRANCH   1   2
ATOM      2  C   UNL A   1      40.414  19.894  26.031  1.00  0.00     0.188 C 
BRANCH   2   3
ATOM      3  O   UNL A   1      39.555  20.793  26.717  1.00  0.00    -0.376 OA
BRANCH   3   4
ATOM      4  C   UNL A   1      39.444  22.103  26.159  1.00  0.00     0.202 C 
BRANCH   4   5
ATOM      5  C   UNL A   1      38.037  22.568  25.794  1.00  0.00     0.261 C 
BRANCH   5   6
ATOM      6  O   UNL A   1      37.590  21.835  24.646  1.00  0.00    -0.462 OA
BRANCH   6   7
ATOM      7  C   UNL A   1      36.584  22.385  23.931  1.00  0.00     0.325 C 
ATOM      8  O   UNL A   1      36.648  22.745  22.763  1.00  0.00    -0.250 OA
BRANCH   7   9
ATOM      9  C   UNL A   1      35.300  22.457  24.755  1.00  0.00     0.239 C 
BRANCH   9  10
ATOM     10  N   UNL A   1      34.741  21.164  25.152  1.00  0.00    -0.338 N 
ATOM     11  C   UNL A   1      33.649  20.447  24.746  1.00  0.00     0.292 C 
ATOM     12  O   UNL A   1      33.496  19.291  25.123  1.00  0.00    -0.265 OA
ATOM     13  H   UNL A   1      35.258  20.717  25.861  1.00  0.00     0.164 HD
BRANCH  11  14
ATOM     14  C   UNL A   1      32.650  21.075  23.783  1.00  0.00     0.252 C 
ATOM     15  O   UNL A   1      32.119  20.332  22.961  1.00  0.00    -0.283 OA
BRANCH  14  16
ATOM     16  C   UNL A   1      32.296  22.497  23.851  1.00  0.00     0.054 A 
ATOM     17  N   UNL A   1      31.558  24.506  24.491  1.00  0.00    -0.240 N 
ATOM     18  C   UNL A   1      31.691  23.196  24.884  1.00  0.00     0.117 A 
ATOM     19  C   UNL A   1      32.031  24.691  23.209  1.00  0.00     0.065 A 
ATOM     20  C   UNL A   1      32.507  23.442  22.793  1.00  0.00     0.012 A 
ATOM     21  C   UNL A   1      32.064  25.809  22.355  1.00  0.00     0.028 A 
ATOM     22  C   UNL A   1      33.048  23.317  21.496  1.00  0.00     0.011 A 
ATOM     23  C   UNL A   1      32.575  25.641  21.064  1.00  0.00     0.002 A 
ATOM     24  C   UNL A   1      33.067  24.414  20.639  1.00  0.00     0.001 A 
BRANCH  17  25
ATOM     25  S   UNL A   1      30.727  25.684  25.403  1.00  0.00     0.268 S 
ATOM     26  O   UNL A   1      30.222  24.979  26.579  1.00  0.00    -0.201 OA
ATOM     27  O   UNL A   1      29.856  26.381  24.491  1.00  0.00    -0.201 OA
BRANCH  25  28
ATOM     28  C   UNL A   1      31.923  26.863  25.986  1.00  0.00     0.088 A 
ATOM     29  C   UNL A   1      34.751  29.575  27.762  1.00  0.00     0.044 C 
ATOM     30  C   UNL A   1      33.759  28.649  27.121  1.00  0.00    -0.051 A 
ATOM     31  C   UNL A   1      32.443  28.597  27.593  1.00  0.00     0.005 A 
ATOM     32  C   UNL A   1      34.135  27.826  26.052  1.00  0.00     0.005 A 
ATOM     33  C   UNL A   1      31.528  27.704  27.034  1.00  0.00     0.022 A 
ATOM     34  C   UNL A   1      33.219  26.943  25.474  1.00  0.00     0.022 A 
ENDBRANCH  25  28
ENDBRANCH  17  25
ENDBRANCH  14  16
ENDBRANCH  11  14
ENDBRANCH   9  10
ENDBRANCH   7   9
ENDBRANCH   6   7
ENDBRANCH   5   6
ENDBRANCH   4   5
ENDBRANCH   3   4
ENDBRANCH   2   3
ENDBRANCH   1   2
BRANCH   1  35
ATOM     35  O   UNL A   1      42.590  20.694  26.986  1.00  0.00    -0.377 OA
BRANCH  35  36
ATOM     36  C   UNL A   1      43.103  21.549  25.948  1.00  0.00     0.188 C 
BRANCH  36  37
ATOM     37  C   UNL A   1      44.441  22.249  26.157  1.00  0.00     0.188 C 
BRANCH  37  38
ATOM     38  O   UNL A   1      44.398  23.474  25.421  1.00  0.00    -0.376 OA
BRANCH  38  39
ATOM     39  C   UNL A   1      43.141  23.865  24.900  1.00  0.00     0.202 C 
BRANCH  39  40
ATOM     40  C   UNL A   1      42.432  24.923  25.738  1.00  0.00     0.261 C 
BRANCH  40  41
ATOM     41  O   UNL A   1      43.335  25.545  26.686  1.00  0.00    -0.460 OA
BRANCH  41  42
ATOM     42  C   UNL A   1      43.099  25.400  28.025  1.00  0.00     0.338 C 
ATOM     43  O   UNL A   1      43.264  24.341  28.609  1.00  0.00    -0.246 OA
BRANCH  42  44
ATOM     44  C   UNL A   1      42.844  26.691  28.728  1.00  0.00     0.060 A 
ATOM     45  C   UNL A   1      43.883  27.562  29.085  1.00  0.00     0.016 A 
ATOM     46  C   UNL A   1      41.558  27.004  29.124  1.00  0.00     0.016 A 
ATOM     47  C   UNL A   1      43.671  28.613  30.009  1.00  0.00     0.010 A 
ATOM     48  C   UNL A   1      41.377  27.967  30.104  1.00  0.00     0.010 A 
ATOM     49  C   UNL A   1      42.422  28.770  30.600  1.00  0.00    -0.014 A 
BRANCH  49  50
ATOM     50  C   UNL A   1      42.061  29.613  31.775  1.00  0.00     0.031 A 
ATOM     51  C   UNL A   1      42.502  29.132  33.142  1.00  0.00     0.074 A 
ATOM     52  C   UNL A   1      41.712  30.918  31.604  1.00  0.00     0.049 A 
ATOM     53  N   UNL A   1      42.590  29.850  34.210  1.00  0.00    -0.248 NA
ATOM     54  C   UNL A   1      42.940  27.757  33.400  1.00  0.00     0.031 C 
ATOM     55  C   UNL A   1      42.116  32.037  32.470  1.00  0.00     0.029 A 
ATOM     56  N   UNL A   1      41.041  31.585  30.585  1.00  0.00    -0.354 N 
ATOM     57  C   UNL A   1      43.277  29.154  35.195  1.00  0.00     0.074 A 
ATOM     58  C   UNL A   1      43.461  27.842  34.632  1.00  0.00     0.031 C 
ATOM     59  C   UNL A   1      41.656  33.207  32.008  1.00  0.00     0.029 A 
ATOM     60  C   UNL A   1      40.671  32.876  31.017  1.00  0.00     0.049 A 
ATOM     61  H   UNL A   1      40.851  31.212  29.694  1.00  0.00     0.167 HD
ATOM     62  C   UNL A   1      43.658  29.819  36.333  1.00  0.00     0.037 A 
ATOM     63  C   UNL A   1      39.355  33.203  31.204  1.00  0.00     0.037 A 
ATOM     64  C   UNL A   1      42.978  31.126  36.392  1.00  0.00     0.049 A 
ATOM     65  C   UNL A   1      38.981  33.310  32.685  1.00  0.00     0.074 A 
ATOM     66  C   UNL A   1      43.385  32.447  36.452  1.00  0.00     0.029 A 
ATOM     67  N   UNL A   1      41.595  31.162  36.212  1.00  0.00    -0.354 N 
ATOM     68  N   UNL A   1      39.656  32.730  33.653  1.00  0.00    -0.248 NA
ATOM     69  C   UNL A   1      37.924  34.172  33.215  1.00  0.00     0.031 C 
ATOM     70  C   UNL A   1      42.251  33.270  36.205  1.00  0.00     0.029 A 
ATOM     71  C   UNL A   1      41.140  32.451  36.079  1.00  0.00     0.049 A 
ATOM     72  H   UNL A   1      41.018  30.364  36.184  1.00  0.00     0.167 HD
ATOM     73  C   UNL A   1      39.176  33.126  34.876  1.00  0.00     0.074 A 
ATOM     74  C   UNL A   1      38.089  34.025  34.544  1.00  0.00     0.031 C 
ATOM     75  C   UNL A   1      39.710  32.722  36.071  1.00  0.00     0.037 A 
BRANCH  62  76
ATOM     76  C   UNL A   1      44.715  29.410  37.383  1.00  0.00     0.058 A 
ATOM     77  C   UNL A   1      45.818  30.262  37.659  1.00  0.00     0.135 A 
ATOM     78  C   UNL A   1      44.774  28.185  38.088  1.00  0.00     0.135 A 
ATOM     79  F   UNL A   1      45.911  31.487  37.124  1.00  0.00    -0.206 F 
ATOM     80  C   UNL A   1      46.890  29.919  38.495  1.00  0.00     0.059 A 
ATOM     81  C   UNL A   1      45.821  27.836  38.968  1.00  0.00     0.059 A 
ATOM     82  F   UNL A   1      43.832  27.247  37.954  1.00  0.00    -0.206 F 
ATOM     83  C   UNL A   1      46.887  28.703  39.153  1.00  0.00     0.060 A 
BRANCH  83  84
ATOM     84  S   UNL A   1      48.260  28.309  40.260  1.00  0.00     0.124 S 
ATOM     85  O   UNL A   1      49.318  29.183  39.763  1.00  0.00    -0.237 OA
ATOM     86  O   UNL A   1      47.716  28.658  41.569  1.00  0.00    -0.237 OA
ATOM     87  O   UNL A   1      48.478  26.881  40.040  1.00  0.00    -0.744 OA
ENDBRANCH  83  84
ENDBRANCH  62  76
BRANCH  63  88
ATOM     88  C   UNL A   1      38.557  32.819  29.991  1.00  0.00     0.058 A 
ATOM     89  C   UNL A   1      37.509  31.913  30.296  1.00  0.00     0.135 A 
ATOM     90  C   UNL A   1      38.281  33.806  29.029  1.00  0.00     0.135 A 
ATOM     91  F   UNL A   1      37.727  30.917  31.172  1.00  0.00    -0.206 F 
ATOM     92  C   UNL A   1      36.188  32.187  29.948  1.00  0.00     0.059 A 
ATOM     93  C   UNL A   1      36.960  34.086  28.650  1.00  0.00     0.059 A 
ATOM     94  F   UNL A   1      39.240  34.668  28.658  1.00  0.00    -0.206 F 
ATOM     95  C   UNL A   1      35.919  33.328  29.196  1.00  0.00     0.060 A 
BRANCH  95  96
ATOM     96  S   UNL A   1      34.215  33.947  29.191  1.00  0.00     0.124 S 
ATOM     97  O   UNL A   1      34.370  35.283  28.629  1.00  0.00    -0.237 OA
ATOM     98  O   UNL A   1      33.553  32.964  28.334  1.00  0.00    -0.237 OA
ATOM     99  O   UNL A   1      33.839  33.896  30.598  1.00  0.00    -0.744 OA
ENDBRANCH  95  96
ENDBRANCH  63  88
BRANCH  75 100
ATOM    100  C   UNL A   1      38.966  32.590  37.398  1.00  0.00     0.058 A 
ATOM    101  C   UNL A   1      39.038  33.531  38.436  1.00  0.00     0.135 A 
ATOM    102  C   UNL A   1      37.976  31.579  37.586  1.00  0.00     0.135 A 
ATOM    103  F   UNL A   1      39.832  34.606  38.365  1.00  0.00    -0.206 F 
ATOM    104  C   UNL A   1      38.252  33.445  39.586  1.00  0.00     0.059 A 
ATOM    105  C   UNL A   1      37.136  31.515  38.695  1.00  0.00     0.059 A 
ATOM    106  F   UNL A   1      37.750  30.618  36.680  1.00  0.00    -0.206 F 
ATOM    107  C   UNL A   1      37.301  32.440  39.706  1.00  0.00     0.060 A 
BRANCH 107 108
ATOM    108  S   UNL A   1      36.268  32.387  41.176  1.00  0.00     0.124 S 
ATOM    109  O   UNL A   1      36.821  31.231  41.875  1.00  0.00    -0.237 OA
ATOM    110  O   UNL A   1      36.537  33.684  41.791  1.00  0.00    -0.237 OA
ATOM    111  O   UNL A   1      34.920  32.219  40.646  1.00  0.00    -0.744 OA
ENDBRANCH 107 108
ENDBRANCH  75 100
ENDBRANCH  49  50
ENDBRANCH  42  44
ENDBRANCH  41  42
ENDBRANCH  40  41
ENDBRANCH  39  40
ENDBRANCH  38  39
ENDBRANCH  37  38
ENDBRANCH  36  37
ENDBRANCH  35  36
ENDBRANCH   1  35
TORSDOF 28
ENDMDL
MODEL 2
REMARK VINA RESULT:      -8.7      6.368     13.291
REMARK SMILES Cc1ccc(S(=O)(=O)n2cc(C(=O)C(=O)NCC(=O)OCCOCCOCCOCCOC(=O)c3ccc(-c4c5nc(c(-c6c(F)cc(S(=O)(=O)[O-])cc6F)c6ccc([nH]6)c(-c6c(F)cc(S(=O)(=O)[O-])cc6F)c6nc(c(-c7c(F)cc(S(=O)(=O)[O-])cc7F)c7ccc4[nH]7)C=C6)C=C5)cc3)c3ccccc32)cc1
REMARK SMILES IDX 25 1 24 2 23 3 22 4 21 5 20 6 18 7 19 8 17 9 16 10 14 11
REMARK SMILES IDX 15 12 12 14 13 15 11 16 9 17 10 18 106 19 101 20 105 21
REMARK SMILES IDX 102 22 104 23 103 24 6 25 7 26 8 27 5 28 1 29 2 30 3 31
REMARK SMILES IDX 108 32 4 33 107 34 26 35 27 36 28 37 29 38 30 39 31 40 32 41
REMARK SMILES IDX 33 42 34 43 35 44 36 45 100 46 37 47 99 48 38 49 39 50 40 51
REMARK SMILES IDX 93 52 41 53 98 54 92 55 94 56 42 57 97 58 91 59 90 60 43 62
REMARK SMILES IDX 77 63 56 64 76 65 57 66 60 67 75 68 95 69 58 70 59 71 74 73
REMARK SMILES IDX 96 74 61 75 44 76 45 77 54 78 46 79 47 80 53 81 55 82 48 83
REMARK SMILES IDX 49 84 50 85 51 86 52 87 78 88 79 89 88 90 80 91 81 92 87 93
REMARK SMILES IDX 89 94 82 95 83 96 84 97 85 98 86 99 62 100 63 101 72 102
REMARK SMILES IDX 64 103 65 104 71 105 73 106 66 107 67 108 68 109 69 110
REMARK SMILES IDX 70 111
REMARK H PARENT 16 13 94 61 60 72
REMARK Flexibility Score: inf
ROOT
ATOM      1  C   UNL A   1      46.631  24.585  25.151  1.00  0.00     0.188 C 
ENDROOT
BRANCH   1   2
ATOM      2  C   UNL A   1      46.256  26.077  25.148  1.00  0.00     0.188 C 
BRANCH   2   3
ATOM      3  O   UNL A   1      47.219  27.042  25.542  1.00  0.00    -0.376 OA
BRANCH   3   4
ATOM      4  C   UNL A   1      46.730  28.366  25.756  1.00  0.00     0.202 C 
BRANCH   4   5
ATOM      5  C   UNL A   1      45.389  28.485  26.475  1.00  0.00     0.261 C 
BRANCH   5   6
ATOM      6  O   UNL A   1      45.190  29.852  26.859  1.00  0.00    -0.462 OA
BRANCH   6   7
ATOM      7  C   UNL A   1      43.966  30.375  26.624  1.00  0.00     0.325 C 
ATOM      8  O   UNL A   1      42.939  29.738  26.431  1.00  0.00    -0.250 OA
BRANCH   7   9
ATOM      9  C   UNL A   1      44.001  31.900  26.684  1.00  0.00     0.239 C 
BRANCH   9  10
ATOM     10  N   UNL A   1      44.078  32.574  25.388  1.00  0.00    -0.338 N 
ATOM     11  C   UNL A   1      44.577  33.782  24.983  1.00  0.00     0.292 C 
ATOM     12  O   UNL A   1      44.675  34.039  23.788  1.00  0.00    -0.265 OA
ATOM     13  H   UNL A   1      43.689  32.048  24.652  1.00  0.00     0.164 HD
BRANCH  11  14
ATOM     14  C   UNL A   1      45.056  34.786  26.022  1.00  0.00     0.252 C 
ATOM     15  O   UNL A   1      44.195  35.413  26.636  1.00  0.00    -0.283 OA
BRANCH  14  16
ATOM     16  C   UNL A   1      46.480  34.976  26.319  1.00  0.00     0.054 A 
ATOM     17  N   UNL A   1      48.641  34.671  26.795  1.00  0.00    -0.240 N 
ATOM     18  C   UNL A   1      47.454  34.019  26.564  1.00  0.00     0.117 A 
ATOM     19  C   UNL A   1      48.476  36.039  26.742  1.00  0.00     0.065 A 
ATOM     20  C   UNL A   1      47.127  36.250  26.435  1.00  0.00     0.012 A 
ATOM     21  C   UNL A   1      49.355  37.117  26.961  1.00  0.00     0.028 A 
ATOM     22  C   UNL A   1      46.652  37.574  26.326  1.00  0.00     0.011 A 
ATOM     23  C   UNL A   1      48.842  38.416  26.879  1.00  0.00     0.002 A 
ATOM     24  C   UNL A   1      47.510  38.645  26.560  1.00  0.00     0.001 A 
BRANCH  17  25
ATOM     25  S   UNL A   1      50.071  33.880  27.286  1.00  0.00     0.268 S 
ATOM     26  O   UNL A   1      49.849  32.466  26.997  1.00  0.00    -0.201 OA
ATOM     27  O   UNL A   1      50.379  34.356  28.610  1.00  0.00    -0.201 OA
BRANCH  25  28
ATOM     28  C   UNL A   1      51.385  34.422  26.218  1.00  0.00     0.088 A 
ATOM     29  C   UNL A   1      54.290  35.940  23.432  1.00  0.00     0.044 C 
ATOM     30  C   UNL A   1      53.294  35.386  24.407  1.00  0.00    -0.051 A 
ATOM     31  C   UNL A   1      52.154  34.721  23.942  1.00  0.00     0.005 A 
ATOM     32  C   UNL A   1      53.486  35.530  25.787  1.00  0.00     0.005 A 
ATOM     33  C   UNL A   1      51.198  34.245  24.841  1.00  0.00     0.022 A 
ATOM     34  C   UNL A   1      52.542  35.039  26.694  1.00  0.00     0.022 A 
ENDBRANCH  25  28
ENDBRANCH  17  25
ENDBRANCH  14  16
ENDBRANCH  11  14
ENDBRANCH   9  10
ENDBRANCH   7   9
ENDBRANCH   6   7
ENDBRANCH   5   6
ENDBRANCH   4   5
ENDBRANCH   3   4
ENDBRANCH   2   3
ENDBRANCH   1   2
BRANCH   1  35
ATOM     35  O   UNL A   1      46.428  23.888  23.936  1.00  0.00    -0.377 OA
BRANCH  35  36
ATOM     36  C   UNL A   1      45.439  22.843  23.905  1.00  0.00     0.188 C 
BRANCH  36  37
ATOM     37  C   UNL A   1      45.743  21.514  24.589  1.00  0.00     0.188 C 
BRANCH  37  38
ATOM     38  O   UNL A   1      44.628  20.650  24.350  1.00  0.00    -0.376 OA
BRANCH  38  39
ATOM     39  C   UNL A   1      44.105  19.954  25.467  1.00  0.00     0.202 C 
BRANCH  39  40
ATOM     40  C   UNL A   1      42.622  20.209  25.708  1.00  0.00     0.261 C 
BRANCH  40  41
ATOM     41  O   UNL A   1      42.237  21.546  25.300  1.00  0.00    -0.460 OA
BRANCH  41  42
ATOM     42  C   UNL A   1      41.418  22.281  26.112  1.00  0.00     0.338 C 
ATOM     43  O   UNL A   1      40.219  22.066  26.202  1.00  0.00    -0.246 OA
BRANCH  42  44
ATOM     44  C   UNL A   1      42.155  23.199  27.027  1.00  0.00     0.060 A 
ATOM     45  C   UNL A   1      42.146  23.030  28.420  1.00  0.00     0.016 A 
ATOM     46  C   UNL A   1      42.796  24.306  26.505  1.00  0.00     0.016 A 
ATOM     47  C   UNL A   1      42.578  24.062  29.285  1.00  0.00     0.010 A 
ATOM     48  C   UNL A   1      43.123  25.352  27.353  1.00  0.00     0.010 A 
ATOM     49  C   UNL A   1      42.992  25.279  28.754  1.00  0.00    -0.014 A 
BRANCH  49  50
ATOM     50  C   UNL A   1      43.219  26.566  29.471  1.00  0.00     0.031 A 
ATOM     51  C   UNL A   1      42.187  27.660  29.289  1.00  0.00     0.074 A 
ATOM     52  C   UNL A   1      44.075  26.622  30.529  1.00  0.00     0.049 A 
ATOM     53  N   UNL A   1      42.018  28.682  30.057  1.00  0.00    -0.248 NA
ATOM     54  C   UNL A   1      41.198  27.649  28.207  1.00  0.00     0.031 C 
ATOM     55  C   UNL A   1      43.857  27.377  31.772  1.00  0.00     0.029 A 
ATOM     56  N   UNL A   1      45.256  25.946  30.818  1.00  0.00    -0.354 N 
ATOM     57  C   UNL A   1      40.824  29.319  29.744  1.00  0.00     0.074 A 
ATOM     58  C   UNL A   1      40.360  28.632  28.567  1.00  0.00     0.031 C 
ATOM     59  C   UNL A   1      44.857  27.188  32.643  1.00  0.00     0.029 A 
ATOM     60  C   UNL A   1      45.916  26.573  31.895  1.00  0.00     0.049 A 
ATOM     61  H   UNL A   1      45.582  25.150  30.342  1.00  0.00     0.167 HD
ATOM     62  C   UNL A   1      40.359  30.302  30.579  1.00  0.00     0.037 A 
ATOM     63  C   UNL A   1      47.107  27.224  31.706  1.00  0.00     0.037 A 
ATOM     64  C   UNL A   1      41.421  30.687  31.527  1.00  0.00     0.049 A 
ATOM     65  C   UNL A   1      46.958  28.747  31.761  1.00  0.00     0.074 A 
ATOM     66  C   UNL A   1      41.555  30.702  32.905  1.00  0.00     0.029 A 
ATOM     67  N   UNL A   1      42.684  30.995  31.019  1.00  0.00    -0.354 N 
ATOM     68  N   UNL A   1      45.825  29.379  31.550  1.00  0.00    -0.248 NA
ATOM     69  C   UNL A   1      48.012  29.669  32.187  1.00  0.00     0.031 C 
ATOM     70  C   UNL A   1      42.927  30.920  33.213  1.00  0.00     0.029 A 
ATOM     71  C   UNL A   1      43.611  31.122  32.024  1.00  0.00     0.049 A 
ATOM     72  H   UNL A   1      42.883  31.108  30.061  1.00  0.00     0.167 HD
ATOM     73  C   UNL A   1      45.968  30.718  31.813  1.00  0.00     0.074 A 
ATOM     74  C   UNL A   1      47.358  30.845  32.204  1.00  0.00     0.031 C 
ATOM     75  C   UNL A   1      44.944  31.624  31.726  1.00  0.00     0.037 A 
BRANCH  62  76
ATOM     76  C   UNL A   1      38.936  30.894  30.677  1.00  0.00     0.058 A 
ATOM     77  C   UNL A   1      38.692  32.242  30.302  1.00  0.00     0.135 A 
ATOM     78  C   UNL A   1      37.789  30.253  31.203  1.00  0.00     0.135 A 
ATOM     79  F   UNL A   1      39.644  32.996  29.736  1.00  0.00    -0.206 F 
ATOM     80  C   UNL A   1      37.468  32.902  30.477  1.00  0.00     0.059 A 
ATOM     81  C   UNL A   1      36.535  30.883  31.349  1.00  0.00     0.059 A 
ATOM     82  F   UNL A   1      37.820  28.984  31.622  1.00  0.00    -0.206 F 
ATOM     83  C   UNL A   1      36.387  32.217  31.001  1.00  0.00     0.060 A 
BRANCH  83  84
ATOM     84  S   UNL A   1      34.809  33.081  31.172  1.00  0.00     0.124 S 
ATOM     85  O   UNL A   1      34.194  32.381  32.296  1.00  0.00    -0.237 OA
ATOM     86  O   UNL A   1      35.230  34.453  31.436  1.00  0.00    -0.237 OA
ATOM     87  O   UNL A   1      34.161  32.870  29.879  1.00  0.00    -0.744 OA
ENDBRANCH  83  84
ENDBRANCH  62  76
BRANCH  63  88
ATOM     88  C   UNL A   1      48.062  26.332  30.965  1.00  0.00     0.058 A 
ATOM     89  C   UNL A   1      48.348  26.810  29.660  1.00  0.00     0.135 A 
ATOM     90  C   UNL A   1      49.128  25.753  31.675  1.00  0.00     0.135 A 
ATOM     91  F   UNL A   1      47.359  27.330  28.912  1.00  0.00    -0.206 F 
ATOM     92  C   UNL A   1      49.658  27.028  29.238  1.00  0.00     0.059 A 
ATOM     93  C   UNL A   1      50.453  25.943  31.257  1.00  0.00     0.059 A 
ATOM     94  F   UNL A   1      48.919  25.239  32.896  1.00  0.00    -0.206 F 
ATOM     95  C   UNL A   1      50.702  26.668  30.087  1.00  0.00     0.060 A 
BRANCH  95  96
ATOM     96  S   UNL A   1      52.328  27.405  29.775  1.00  0.00     0.124 S 
ATOM     97  O   UNL A   1      52.651  28.004  31.065  1.00  0.00    -0.237 OA
ATOM     98  O   UNL A   1      53.112  26.228  29.401  1.00  0.00    -0.237 OA
ATOM     99  O   UNL A   1      52.065  28.345  28.693  1.00  0.00    -0.744 OA
ENDBRANCH  95  96
ENDBRANCH  63  88
BRANCH  75 100
ATOM    100  C   UNL A   1      45.076  33.112  31.409  1.00  0.00     0.058 A 
ATOM    101  C   UNL A   1      45.401  33.620  30.142  1.00  0.00     0.135 A 
ATOM    102  C   UNL A   1      44.674  34.102  32.356  1.00  0.00     0.135 A 
ATOM    103  F   UNL A   1      45.688  32.820  29.109  1.00  0.00    -0.206 F 
ATOM    104  C   UNL A   1      45.394  34.986  29.854  1.00  0.00     0.059 A 
ATOM    105  C   UNL A   1      44.596  35.462  32.068  1.00  0.00     0.059 A 
ATOM    106  F   UNL A   1      44.301  33.791  33.604  1.00  0.00    -0.206 F 
ATOM    107  C   UNL A   1      44.987  35.898  30.818  1.00  0.00     0.060 A 
BRANCH 107 108
ATOM    108  S   UNL A   1      44.938  37.646  30.400  1.00  0.00     0.124 S 
ATOM    109  O   UNL A   1      44.025  38.160  31.416  1.00  0.00    -0.237 OA
ATOM    110  O   UNL A   1      46.336  38.040  30.550  1.00  0.00    -0.237 OA
ATOM    111  O   UNL A   1      44.433  37.661  29.032  1.00  0.00    -0.744 OA
ENDBRANCH 107 108
ENDBRANCH  75 100
ENDBRANCH  49  50
ENDBRANCH  42  44
ENDBRANCH  41  42
ENDBRANCH  40  41
ENDBRANCH  39  40
ENDBRANCH  38  39
ENDBRANCH  37  38
ENDBRANCH  36  37
ENDBRANCH  35  36
ENDBRANCH   1  35
TORSDOF 28
ENDMDL
MODEL 3
REMARK VINA RESULT:      -8.6      6.009     13.042
REMARK SMILES Cc1ccc(S(=O)(=O)n2cc(C(=O)C(=O)NCC(=O)OCCOCCOCCOCCOC(=O)c3ccc(-c4c5nc(c(-c6c(F)cc(S(=O)(=O)[O-])cc6F)c6ccc([nH]6)c(-c6c(F)cc(S(=O)(=O)[O-])cc6F)c6nc(c(-c7c(F)cc(S(=O)(=O)[O-])cc7F)c7ccc4[nH]7)C=C6)C=C5)cc3)c3ccccc32)cc1
REMARK SMILES IDX 25 1 24 2 23 3 22 4 21 5 20 6 18 7 19 8 17 9 16 10 14 11
REMARK SMILES IDX 15 12 12 14 13 15 11 16 9 17 10 18 106 19 101 20 105 21
REMARK SMILES IDX 102 22 104 23 103 24 6 25 7 26 8 27 5 28 1 29 2 30 3 31
REMARK SMILES IDX 108 32 4 33 107 34 26 35 27 36 28 37 29 38 30 39 31 40 32 41
REMARK SMILES IDX 33 42 34 43 35 44 36 45 100 46 37 47 99 48 38 49 39 50 40 51
REMARK SMILES IDX 93 52 41 53 98 54 92 55 94 56 42 57 97 58 91 59 90 60 43 62
REMARK SMILES IDX 77 63 56 64 76 65 57 66 60 67 75 68 95 69 58 70 59 71 74 73
REMARK SMILES IDX 96 74 61 75 44 76 45 77 54 78 46 79 47 80 53 81 55 82 48 83
REMARK SMILES IDX 49 84 50 85 51 86 52 87 78 88 79 89 88 90 80 91 81 92 87 93
REMARK SMILES IDX 89 94 82 95 83 96 84 97 85 98 86 99 62 100 63 101 72 102
REMARK SMILES IDX 64 103 65 104 71 105 73 106 66 107 67 108 68 109 69 110
REMARK SMILES IDX 70 111
REMARK H PARENT 16 13 94 61 60 72
REMARK Flexibility Score: inf
ROOT
ATOM      1  C   UNL A   1      46.703  24.785  25.192  1.00  0.00     0.188 C 
ENDROOT
BRANCH   1   2
ATOM      2  C   UNL A   1      46.283  26.264  25.118  1.00  0.00     0.188 C 
BRANCH   2   3
ATOM      3  O   UNL A   1      47.202  27.273  25.508  1.00  0.00    -0.376 OA
BRANCH   3   4
ATOM      4  C   UNL A   1      46.663  28.586  25.663  1.00  0.00     0.202 C 
BRANCH   4   5
ATOM      5  C   UNL A   1      45.339  28.691  26.413  1.00  0.00     0.261 C 
BRANCH   5   6
ATOM      6  O   UNL A   1      45.146  30.050  26.824  1.00  0.00    -0.462 OA
BRANCH   6   7
ATOM      7  C   UNL A   1      43.914  30.573  26.632  1.00  0.00     0.325 C 
ATOM      8  O   UNL A   1      42.884  29.935  26.455  1.00  0.00    -0.250 OA
BRANCH   7   9
ATOM      9  C   UNL A   1      43.945  32.097  26.720  1.00  0.00     0.239 C 
BRANCH   9  10
ATOM     10  N   UNL A   1      44.109  32.791  25.442  1.00  0.00    -0.338 N 
ATOM     11  C   UNL A   1      44.583  34.027  25.097  1.00  0.00     0.292 C 
ATOM     12  O   UNL A   1      44.780  34.306  23.920  1.00  0.00    -0.265 OA
ATOM     13  H   UNL A   1      43.817  32.257  24.668  1.00  0.00     0.164 HD
BRANCH  11  14
ATOM     14  C   UNL A   1      44.912  35.039  26.186  1.00  0.00     0.252 C 
ATOM     15  O   UNL A   1      43.978  35.690  26.650  1.00  0.00    -0.283 OA
BRANCH  14  16
ATOM     16  C   UNL A   1      46.276  35.210  26.700  1.00  0.00     0.054 A 
ATOM     17  N   UNL A   1      48.277  34.903  27.644  1.00  0.00    -0.240 N 
ATOM     18  C   UNL A   1      47.084  34.289  27.348  1.00  0.00     0.117 A 
ATOM     19  C   UNL A   1      48.272  36.221  27.237  1.00  0.00     0.065 A 
ATOM     20  C   UNL A   1      47.027  36.430  26.634  1.00  0.00     0.012 A 
ATOM     21  C   UNL A   1      49.210  37.263  27.361  1.00  0.00     0.028 A 
ATOM     22  C   UNL A   1      46.722  37.710  26.124  1.00  0.00     0.011 A 
ATOM     23  C   UNL A   1      48.862  38.528  26.876  1.00  0.00     0.002 A 
ATOM     24  C   UNL A   1      47.638  38.750  26.259  1.00  0.00     0.001 A 
BRANCH  17  25
ATOM     25  S   UNL A   1      49.507  34.176  28.576  1.00  0.00     0.268 S 
ATOM     26  O   UNL A   1      50.731  34.894  28.230  1.00  0.00    -0.201 OA
ATOM     27  O   UNL A   1      49.376  32.752  28.404  1.00  0.00    -0.201 OA
BRANCH  25  28
ATOM     28  C   UNL A   1      49.172  34.527  30.287  1.00  0.00     0.088 A 
ATOM     29  C   UNL A   1      48.683  35.161  34.513  1.00  0.00     0.044 C 
ATOM     30  C   UNL A   1      48.824  34.942  33.035  1.00  0.00    -0.051 A 
ATOM     31  C   UNL A   1      48.929  33.643  32.527  1.00  0.00     0.005 A 
ATOM     32  C   UNL A   1      48.857  36.028  32.151  1.00  0.00     0.005 A 
ATOM     33  C   UNL A   1      49.109  33.433  31.159  1.00  0.00     0.022 A 
ATOM     34  C   UNL A   1      49.017  35.824  30.777  1.00  0.00     0.022 A 
ENDBRANCH  25  28
ENDBRANCH  17  25
ENDBRANCH  14  16
ENDBRANCH  11  14
ENDBRANCH   9  10
ENDBRANCH   7   9
ENDBRANCH   6   7
ENDBRANCH   5   6
ENDBRANCH   4   5
ENDBRANCH   3   4
ENDBRANCH   2   3
ENDBRANCH   1   2
BRANCH   1  35
ATOM     35  O   UNL A   1      46.604  24.048  23.989  1.00  0.00    -0.377 OA
BRANCH  35  36
ATOM     36  C   UNL A   1      45.693  22.934  23.943  1.00  0.00     0.188 C 
BRANCH  36  37
ATOM     37  C   UNL A   1      46.009  21.684  24.757  1.00  0.00     0.188 C 
BRANCH  37  38
ATOM     38  O   UNL A   1      44.983  20.727  24.479  1.00  0.00    -0.376 OA
BRANCH  38  39
ATOM     39  C   UNL A   1      44.402  20.067  25.589  1.00  0.00     0.202 C 
BRANCH  39  40
ATOM     40  C   UNL A   1      42.886  20.208  25.661  1.00  0.00     0.261 C 
BRANCH  40  41
ATOM     41  O   UNL A   1      42.454  21.534  25.263  1.00  0.00    -0.460 OA
BRANCH  41  42
ATOM     42  C   UNL A   1      41.626  22.241  26.090  1.00  0.00     0.338 C 
ATOM     43  O   UNL A   1      40.426  22.026  26.157  1.00  0.00    -0.246 OA
BRANCH  42  44
ATOM     44  C   UNL A   1      42.353  23.126  27.046  1.00  0.00     0.060 A 
ATOM     45  C   UNL A   1      42.347  22.892  28.429  1.00  0.00     0.016 A 
ATOM     46  C   UNL A   1      42.979  24.263  26.576  1.00  0.00     0.016 A 
ATOM     47  C   UNL A   1      42.767  23.889  29.341  1.00  0.00     0.010 A 
ATOM     48  C   UNL A   1      43.294  25.273  27.471  1.00  0.00     0.010 A 
ATOM     49  C   UNL A   1      43.165  25.135  28.866  1.00  0.00    -0.014 A 
BRANCH  49  50
ATOM     50  C   UNL A   1      43.377  26.390  29.642  1.00  0.00     0.031 A 
ATOM     51  C   UNL A   1      42.379  27.512  29.442  1.00  0.00     0.074 A 
ATOM     52  C   UNL A   1      44.172  26.388  30.748  1.00  0.00     0.049 A 
ATOM     53  N   UNL A   1      42.188  28.510  30.236  1.00  0.00    -0.248 NA
ATOM     54  C   UNL A   1      41.454  27.562  28.306  1.00  0.00     0.031 C 
ATOM     55  C   UNL A   1      43.899  27.104  32.004  1.00  0.00     0.029 A 
ATOM     56  N   UNL A   1      45.320  25.677  31.079  1.00  0.00    -0.354 N 
ATOM     57  C   UNL A   1      41.027  29.184  29.880  1.00  0.00     0.074 A 
ATOM     58  C   UNL A   1      40.617  28.549  28.655  1.00  0.00     0.031 C 
ATOM     59  C   UNL A   1      44.843  26.862  32.923  1.00  0.00     0.029 A 
ATOM     60  C   UNL A   1      45.930  26.250  32.214  1.00  0.00     0.049 A 
ATOM     61  H   UNL A   1      45.657  24.890  30.592  1.00  0.00     0.167 HD
ATOM     62  C   UNL A   1      40.535  30.147  30.723  1.00  0.00     0.037 A 
ATOM     63  C   UNL A   1      47.142  26.880  32.116  1.00  0.00     0.037 A 
ATOM     64  C   UNL A   1      41.548  30.474  31.743  1.00  0.00     0.049 A 
ATOM     65  C   UNL A   1      47.022  28.403  32.219  1.00  0.00     0.074 A 
ATOM     66  C   UNL A   1      41.603  30.437  33.125  1.00  0.00     0.029 A 
ATOM     67  N   UNL A   1      42.844  30.772  31.319  1.00  0.00    -0.354 N 
ATOM     68  N   UNL A   1      45.916  29.068  31.966  1.00  0.00    -0.248 NA
ATOM     69  C   UNL A   1      48.069  29.286  32.736  1.00  0.00     0.031 C 
ATOM     70  C   UNL A   1      42.960  30.613  33.518  1.00  0.00     0.029 A 
ATOM     71  C   UNL A   1      43.715  30.842  32.378  1.00  0.00     0.049 A 
ATOM     72  H   UNL A   1      43.101  30.914  30.379  1.00  0.00     0.167 HD
ATOM     73  C   UNL A   1      46.071  30.394  32.287  1.00  0.00     0.074 A 
ATOM     74  C   UNL A   1      47.438  30.475  32.760  1.00  0.00     0.031 C 
ATOM     75  C   UNL A   1      45.073  31.325  32.175  1.00  0.00     0.037 A 
BRANCH  62  76
ATOM     76  C   UNL A   1      39.121  30.767  30.762  1.00  0.00     0.058 A 
ATOM     77  C   UNL A   1      38.926  32.132  30.422  1.00  0.00     0.135 A 
ATOM     78  C   UNL A   1      37.933  30.133  31.199  1.00  0.00     0.135 A 
ATOM     79  F   UNL A   1      39.924  32.884  29.939  1.00  0.00    -0.206 F 
ATOM     80  C   UNL A   1      37.708  32.813  30.552  1.00  0.00     0.059 A 
ATOM     81  C   UNL A   1      36.686  30.786  31.297  1.00  0.00     0.059 A 
ATOM     82  F   UNL A   1      37.914  28.851  31.573  1.00  0.00    -0.206 F 
ATOM     83  C   UNL A   1      36.585  32.134  30.989  1.00  0.00     0.060 A 
BRANCH  83  84
ATOM     84  S   UNL A   1      35.017  33.027  31.102  1.00  0.00     0.124 S 
ATOM     85  O   UNL A   1      35.452  34.368  31.482  1.00  0.00    -0.237 OA
ATOM     86  O   UNL A   1      34.484  32.895  29.750  1.00  0.00    -0.237 OA
ATOM     87  O   UNL A   1      34.282  32.297  32.133  1.00  0.00    -0.744 OA
ENDBRANCH  83  84
ENDBRANCH  62  76
BRANCH  63  88
ATOM     88  C   UNL A   1      48.121  25.994  31.397  1.00  0.00     0.058 A 
ATOM     89  C   UNL A   1      48.468  26.496  30.117  1.00  0.00     0.135 A 
ATOM     90  C   UNL A   1      49.148  25.389  32.141  1.00  0.00     0.135 A 
ATOM     91  F   UNL A   1      47.518  27.043  29.338  1.00  0.00    -0.206 F 
ATOM     92  C   UNL A   1      49.797  26.709  29.757  1.00  0.00     0.059 A 
ATOM     93  C   UNL A   1      50.492  25.574  31.785  1.00  0.00     0.059 A 
ATOM     94  F   UNL A   1      48.882  24.851  33.340  1.00  0.00    -0.206 F 
ATOM     95  C   UNL A   1      50.799  26.320  30.642  1.00  0.00     0.060 A 
BRANCH  95  96
ATOM     96  S   UNL A   1      52.445  27.046  30.417  1.00  0.00     0.124 S 
ATOM     97  O   UNL A   1      52.916  27.181  31.790  1.00  0.00    -0.237 OA
ATOM     98  O   UNL A   1      53.106  26.020  29.612  1.00  0.00    -0.237 OA
ATOM     99  O   UNL A   1      52.165  28.296  29.722  1.00  0.00    -0.744 OA
ENDBRANCH  95  96
ENDBRANCH  63  88
BRANCH  75 100
ATOM    100  C   UNL A   1      45.253  32.819  31.921  1.00  0.00     0.058 A 
ATOM    101  C   UNL A   1      45.353  33.393  30.644  1.00  0.00     0.135 A 
ATOM    102  C   UNL A   1      45.129  33.764  32.984  1.00  0.00     0.135 A 
ATOM    103  F   UNL A   1      45.363  32.650  29.531  1.00  0.00    -0.206 F 
ATOM    104  C   UNL A   1      45.394  34.773  30.440  1.00  0.00     0.059 A 
ATOM    105  C   UNL A   1      45.100  35.143  32.794  1.00  0.00     0.059 A 
ATOM    106  F   UNL A   1      44.993  33.390  34.263  1.00  0.00    -0.206 F 
ATOM    107  C   UNL A   1      45.262  35.640  31.517  1.00  0.00     0.060 A 
BRANCH 107 108
ATOM    108  S   UNL A   1      45.266  37.413  31.215  1.00  0.00     0.124 S 
ATOM    109  O   UNL A   1      45.927  37.481  29.916  1.00  0.00    -0.237 OA
ATOM    110  O   UNL A   1      43.840  37.730  31.215  1.00  0.00    -0.237 OA
ATOM    111  O   UNL A   1      46.022  37.954  32.338  1.00  0.00    -0.744 OA
ENDBRANCH 107 108
ENDBRANCH  75 100
ENDBRANCH  49  50
ENDBRANCH  42  44
ENDBRANCH  41  42
ENDBRANCH  40  41
ENDBRANCH  39  40
ENDBRANCH  38  39
ENDBRANCH  37  38
ENDBRANCH  36  37
ENDBRANCH  35  36
ENDBRANCH   1  35
TORSDOF 28
ENDMDL
