MODEL 1
REMARK VINA RESULT:      -9.9      0.000      0.000
REMARK SMILES O=C(NC[C@@H]1CC[C@@H](C(=O)OCCOCCOCCOCCOC(=O)c2ccc(-c3c4nc(c(-c5c(F)cc(S(=O)(=O)[O-])cc5F)c5ccc([nH]5)c(-c5c(F)cc(S(=O)(=O)[O-])cc5F)c5nc(c(-c6c(F)cc(S(=O)(=O)[O-])cc6F)c6ccc3[nH]6)C=C5)C=C4)cc2)O1)c1ccc(Cl)cc1
REMARK SMILES IDX 17 1 16 2 15 3 14 4 13 5 12 6 11 7 9 8 10 9 8 10 5 11 6 12
REMARK SMILES IDX 92 13 7 14 4 15 3 16 1 17 2 18 93 20 94 21 99 22 95 23 98 24
REMARK SMILES IDX 96 25 97 26 18 27 19 28 20 29 21 30 22 31 23 32 24 33 25 34
REMARK SMILES IDX 26 35 27 36 91 37 28 38 90 39 29 40 30 41 31 42 84 43 32 44
REMARK SMILES IDX 89 45 83 46 85 47 33 48 88 49 82 50 81 51 34 53 68 54 47 55
REMARK SMILES IDX 67 56 48 57 51 58 66 59 86 60 49 61 50 62 65 64 87 65 52 66
REMARK SMILES IDX 35 67 36 68 45 69 37 70 38 71 44 72 46 73 39 74 40 75 41 76
REMARK SMILES IDX 42 77 43 78 69 79 70 80 79 81 71 82 72 83 78 84 80 85 73 86
REMARK SMILES IDX 74 87 75 88 76 89 77 90 53 91 54 92 63 93 55 94 56 95 62 96
REMARK SMILES IDX 64 97 57 98 58 99 59 100 60 101 61 102
REMARK H PARENT 3 19 85 52 51 63
REMARK Flexibility Score: inf
ROOT
ATOM      1  O   UNL A   1      39.911  22.301  26.319  1.00  0.00    -0.377 OA
ENDROOT
BRANCH   1   2
ATOM      2  C   UNL A   1      39.042  23.310  26.795  1.00  0.00     0.188 C 
BRANCH   2   3
ATOM      3  C   UNL A   1      37.881  23.687  25.851  1.00  0.00     0.188 C 
BRANCH   3   4
ATOM      4  O   UNL A   1      36.833  22.766  25.567  1.00  0.00    -0.376 OA
BRANCH   4   5
ATOM      5  C   UNL A   1      37.104  21.577  24.839  1.00  0.00     0.202 C 
BRANCH   5   6
ATOM      6  C   UNL A   1      36.204  20.341  25.011  1.00  0.00     0.261 C 
BRANCH   6   7
ATOM      7  O   UNL A   1      34.815  20.598  25.289  1.00  0.00    -0.461 OA
BRANCH   7   8
ATOM      8  C   UNL A   1      33.912  19.718  24.781  1.00  0.00     0.335 C 
ATOM      9  O   UNL A   1      34.016  18.498  24.849  1.00  0.00    -0.249 OA
BRANCH   8  10
ATOM     10  C   UNL A   1      32.678  20.413  24.173  1.00  0.00     0.228 C 
ATOM     11  C   UNL A   1      32.097  22.501  23.254  1.00  0.00     0.138 C 
ATOM     12  C   UNL A   1      31.543  21.401  22.366  1.00  0.00     0.037 C 
ATOM     13  O   UNL A   1      32.564  21.825  24.447  1.00  0.00    -0.361 OA
ATOM     14  C   UNL A   1      32.506  20.269  22.668  1.00  0.00     0.047 C 
BRANCH  11  15
ATOM     15  C   UNL A   1      31.109  23.603  23.655  1.00  0.00     0.148 C 
BRANCH  15  16
ATOM     16  N   UNL A   1      30.593  23.465  25.015  1.00  0.00    -0.349 N 
ATOM     17  O   UNL A   1      30.275  23.875  27.205  1.00  0.00    -0.269 OA
ATOM     18  C   UNL A   1      30.804  24.207  26.149  1.00  0.00     0.251 C 
ATOM     19  H   UNL A   1      29.985  22.703  25.141  1.00  0.00     0.163 HD
BRANCH  18  20
ATOM     20  C   UNL A   1      31.702  25.380  26.128  1.00  0.00     0.039 A 
ATOM     21  C   UNL A   1      33.057  25.266  25.807  1.00  0.00     0.015 A 
ATOM     22  C   UNL A   1      31.153  26.636  26.414  1.00  0.00     0.015 A 
ATOM     23  C   UNL A   1      33.887  26.386  25.893  1.00  0.00     0.021 A 
ATOM     24  C   UNL A   1      31.980  27.759  26.474  1.00  0.00     0.021 A 
ATOM     25  C   UNL A   1      33.347  27.624  26.240  1.00  0.00     0.041 A 
ATOM     26  Cl  UNL A   1      34.379  28.993  26.375  1.00  0.00    -0.084 Cl
ENDBRANCH  18  20
ENDBRANCH  15  16
ENDBRANCH  11  15
ENDBRANCH   8  10
ENDBRANCH   7   8
ENDBRANCH   6   7
ENDBRANCH   5   6
ENDBRANCH   4   5
ENDBRANCH   3   4
ENDBRANCH   2   3
ENDBRANCH   1   2
BRANCH   1  27
ATOM     27  C   UNL A   1      40.855  21.810  27.256  1.00  0.00     0.188 C 
BRANCH  27  28
ATOM     28  C   UNL A   1      42.019  20.987  26.675  1.00  0.00     0.188 C 
BRANCH  28  29
ATOM     29  O   UNL A   1      42.464  21.465  25.408  1.00  0.00    -0.376 OA
BRANCH  29  30
ATOM     30  C   UNL A   1      43.625  22.283  25.375  1.00  0.00     0.202 C 
BRANCH  30  31
ATOM     31  C   UNL A   1      43.410  23.787  25.132  1.00  0.00     0.261 C 
BRANCH  31  32
ATOM     32  O   UNL A   1      42.926  24.554  26.244  1.00  0.00    -0.460 OA
BRANCH  32  33
ATOM     33  C   UNL A   1      42.032  25.538  25.995  1.00  0.00     0.338 C 
ATOM     34  O   UNL A   1      41.299  25.630  25.034  1.00  0.00    -0.246 OA
BRANCH  33  35
ATOM     35  C   UNL A   1      41.944  26.373  27.217  1.00  0.00     0.060 A 
ATOM     36  C   UNL A   1      40.978  26.062  28.183  1.00  0.00     0.016 A 
ATOM     37  C   UNL A   1      42.831  27.433  27.423  1.00  0.00     0.016 A 
ATOM     38  C   UNL A   1      40.887  26.817  29.354  1.00  0.00     0.010 A 
ATOM     39  C   UNL A   1      42.718  28.208  28.581  1.00  0.00     0.010 A 
ATOM     40  C   UNL A   1      41.731  27.918  29.541  1.00  0.00    -0.014 A 
BRANCH  40  41
ATOM     41  C   UNL A   1      41.468  28.884  30.636  1.00  0.00     0.031 A 
ATOM     42  C   UNL A   1      42.303  28.786  31.884  1.00  0.00     0.074 A 
ATOM     43  C   UNL A   1      40.506  29.818  30.537  1.00  0.00     0.049 A 
ATOM     44  N   UNL A   1      42.190  29.432  33.013  1.00  0.00    -0.248 NA
ATOM     45  C   UNL A   1      43.415  27.820  31.849  1.00  0.00     0.031 C 
ATOM     46  C   UNL A   1      39.668  30.048  29.362  1.00  0.00     0.029 A 
ATOM     47  N   UNL A   1      40.058  30.738  31.454  1.00  0.00    -0.354 N 
ATOM     48  C   UNL A   1      43.203  28.943  33.830  1.00  0.00     0.074 A 
ATOM     49  C   UNL A   1      43.907  27.931  33.075  1.00  0.00     0.031 C 
ATOM     50  C   UNL A   1      38.787  31.027  29.640  1.00  0.00     0.029 A 
ATOM     51  C   UNL A   1      38.971  31.463  31.024  1.00  0.00     0.049 A 
ATOM     52  H   UNL A   1      40.476  30.866  32.337  1.00  0.00     0.167 HD
ATOM     53  C   UNL A   1      43.516  29.307  35.096  1.00  0.00     0.037 A 
ATOM     54  C   UNL A   1      38.193  32.345  31.684  1.00  0.00     0.037 A 
ATOM     55  C   UNL A   1      42.806  30.312  35.840  1.00  0.00     0.049 A 
ATOM     56  C   UNL A   1      38.503  32.668  33.126  1.00  0.00     0.074 A 
ATOM     57  C   UNL A   1      43.061  30.773  37.121  1.00  0.00     0.029 A 
ATOM     58  N   UNL A   1      41.691  31.001  35.382  1.00  0.00    -0.354 N 
ATOM     59  N   UNL A   1      39.482  32.225  33.880  1.00  0.00    -0.248 NA
ATOM     60  C   UNL A   1      37.599  33.604  33.811  1.00  0.00     0.031 C 
ATOM     61  C   UNL A   1      42.063  31.691  37.459  1.00  0.00     0.029 A 
ATOM     62  C   UNL A   1      41.222  31.851  36.368  1.00  0.00     0.049 A 
ATOM     63  H   UNL A   1      41.293  30.898  34.487  1.00  0.00     0.167 HD
ATOM     64  C   UNL A   1      39.322  32.842  35.118  1.00  0.00     0.074 A 
ATOM     65  C   UNL A   1      38.163  33.703  35.008  1.00  0.00     0.031 C 
ATOM     66  C   UNL A   1      40.067  32.706  36.243  1.00  0.00     0.037 A 
BRANCH  53  67
ATOM     67  C   UNL A   1      44.652  28.588  35.768  1.00  0.00     0.058 A 
ATOM     68  C   UNL A   1      45.972  29.062  35.709  1.00  0.00     0.135 A 
ATOM     69  C   UNL A   1      44.410  27.421  36.513  1.00  0.00     0.135 A 
ATOM     70  F   UNL A   1      46.264  30.160  34.994  1.00  0.00    -0.206 F 
ATOM     71  C   UNL A   1      47.014  28.393  36.343  1.00  0.00     0.059 A 
ATOM     72  C   UNL A   1      45.431  26.754  37.180  1.00  0.00     0.059 A 
ATOM     73  F   UNL A   1      43.166  26.921  36.599  1.00  0.00    -0.206 F 
ATOM     74  C   UNL A   1      46.733  27.240  37.078  1.00  0.00     0.060 A 
BRANCH  74  75
ATOM     75  S   UNL A   1      48.096  26.391  37.900  1.00  0.00     0.124 S 
ATOM     76  O   UNL A   1      47.877  25.011  37.478  1.00  0.00    -0.237 OA
ATOM     77  O   UNL A   1      49.264  27.052  37.328  1.00  0.00    -0.237 OA
ATOM     78  O   UNL A   1      47.859  26.657  39.316  1.00  0.00    -0.744 OA
ENDBRANCH  74  75
ENDBRANCH  53  67
BRANCH  54  79
ATOM     79  C   UNL A   1      37.018  32.958  31.005  1.00  0.00     0.058 A 
ATOM     80  C   UNL A   1      37.173  34.022  30.105  1.00  0.00     0.135 A 
ATOM     81  C   UNL A   1      35.715  32.493  31.246  1.00  0.00     0.135 A 
ATOM     82  F   UNL A   1      38.396  34.516  29.854  1.00  0.00    -0.206 F 
ATOM     83  C   UNL A   1      36.080  34.609  29.473  1.00  0.00     0.059 A 
ATOM     84  C   UNL A   1      34.609  33.044  30.605  1.00  0.00     0.059 A 
ATOM     85  F   UNL A   1      35.510  31.476  32.097  1.00  0.00    -0.206 F 
ATOM     86  C   UNL A   1      34.802  34.108  29.725  1.00  0.00     0.060 A 
BRANCH  86  87
ATOM     87  S   UNL A   1      33.397  34.836  28.854  1.00  0.00     0.124 S 
ATOM     88  O   UNL A   1      32.445  35.030  29.941  1.00  0.00    -0.237 OA
ATOM     89  O   UNL A   1      33.985  36.051  28.295  1.00  0.00    -0.237 OA
ATOM     90  O   UNL A   1      33.041  33.814  27.876  1.00  0.00    -0.744 OA
ENDBRANCH  86  87
ENDBRANCH  54  79
BRANCH  66  91
ATOM     91  C   UNL A   1      39.673  33.515  37.451  1.00  0.00     0.058 A 
ATOM     92  C   UNL A   1      38.776  33.018  38.408  1.00  0.00     0.135 A 
ATOM     93  C   UNL A   1      40.272  34.761  37.700  1.00  0.00     0.135 A 
ATOM     94  F   UNL A   1      38.167  31.837  38.215  1.00  0.00    -0.206 F 
ATOM     95  C   UNL A   1      38.483  33.728  39.567  1.00  0.00     0.059 A 
ATOM     96  C   UNL A   1      40.018  35.476  38.867  1.00  0.00     0.059 A 
ATOM     97  F   UNL A   1      41.146  35.279  36.822  1.00  0.00    -0.206 F 
ATOM     98  C   UNL A   1      39.117  34.952  39.794  1.00  0.00     0.060 A 
BRANCH  98  99
ATOM     99  S   UNL A   1      38.777  35.829  41.335  1.00  0.00     0.124 S 
ATOM    100  O   UNL A   1      39.833  35.319  42.204  1.00  0.00    -0.237 OA
ATOM    101  O   UNL A   1      38.906  37.226  40.932  1.00  0.00    -0.237 OA
ATOM    102  O   UNL A   1      37.423  35.404  41.678  1.00  0.00    -0.744 OA
ENDBRANCH  98  99
ENDBRANCH  66  91
ENDBRANCH  40  41
ENDBRANCH  33  35
ENDBRANCH  32  33
ENDBRANCH  31  32
ENDBRANCH  30  31
ENDBRANCH  29  30
ENDBRANCH  28  29
ENDBRANCH  27  28
ENDBRANCH   1  27
TORSDOF 26
ENDMDL
MODEL 2
REMARK VINA RESULT:      -9.8      1.314      2.261
REMARK SMILES O=C(NC[C@@H]1CC[C@@H](C(=O)OCCOCCOCCOCCOC(=O)c2ccc(-c3c4nc(c(-c5c(F)cc(S(=O)(=O)[O-])cc5F)c5ccc([nH]5)c(-c5c(F)cc(S(=O)(=O)[O-])cc5F)c5nc(c(-c6c(F)cc(S(=O)(=O)[O-])cc6F)c6ccc3[nH]6)C=C5)C=C4)cc2)O1)c1ccc(Cl)cc1
REMARK SMILES IDX 17 1 16 2 15 3 14 4 13 5 12 6 11 7 9 8 10 9 8 10 5 11 6 12
REMARK SMILES IDX 92 13 7 14 4 15 3 16 1 17 2 18 93 20 94 21 99 22 95 23 98 24
REMARK SMILES IDX 96 25 97 26 18 27 19 28 20 29 21 30 22 31 23 32 24 33 25 34
REMARK SMILES IDX 26 35 27 36 91 37 28 38 90 39 29 40 30 41 31 42 84 43 32 44
REMARK SMILES IDX 89 45 83 46 85 47 33 48 88 49 82 50 81 51 34 53 68 54 47 55
REMARK SMILES IDX 67 56 48 57 51 58 66 59 86 60 49 61 50 62 65 64 87 65 52 66
REMARK SMILES IDX 35 67 36 68 45 69 37 70 38 71 44 72 46 73 39 74 40 75 41 76
REMARK SMILES IDX 42 77 43 78 69 79 70 80 79 81 71 82 72 83 78 84 80 85 73 86
REMARK SMILES IDX 74 87 75 88 76 89 77 90 53 91 54 92 63 93 55 94 56 95 62 96
REMARK SMILES IDX 64 97 57 98 58 99 59 100 60 101 61 102
REMARK H PARENT 3 19 85 52 51 63
REMARK Flexibility Score: inf
ROOT
ATOM      1  O   UNL A   1      38.732  22.854  26.122  1.00  0.00    -0.377 OA
ENDROOT
BRANCH   1   2
ATOM      2  C   UNL A   1      37.687  23.806  26.106  1.00  0.00     0.188 C 
BRANCH   2   3
ATOM      3  C   UNL A   1      36.351  23.316  25.512  1.00  0.00     0.188 C 
BRANCH   3   4
ATOM      4  O   UNL A   1      35.303  22.838  26.349  1.00  0.00    -0.376 OA
BRANCH   4   5
ATOM      5  C   UNL A   1      33.977  22.741  25.849  1.00  0.00     0.202 C 
BRANCH   5   6
ATOM      6  C   UNL A   1      32.861  22.145  26.725  1.00  0.00     0.261 C 
BRANCH   6   7
ATOM      7  O   UNL A   1      32.099  23.080  27.510  1.00  0.00    -0.461 OA
BRANCH   7   8
ATOM      8  C   UNL A   1      30.891  23.458  27.016  1.00  0.00     0.335 C 
ATOM      9  O   UNL A   1      29.816  22.983  27.368  1.00  0.00    -0.249 OA
BRANCH   8  10
ATOM     10  C   UNL A   1      30.994  24.625  26.014  1.00  0.00     0.228 C 
ATOM     11  C   UNL A   1      30.301  25.144  23.825  1.00  0.00     0.138 C 
ATOM     12  C   UNL A   1      30.022  26.335  24.725  1.00  0.00     0.037 C 
ATOM     13  O   UNL A   1      31.103  24.243  24.627  1.00  0.00    -0.361 OA
ATOM     14  C   UNL A   1      29.875  25.654  26.072  1.00  0.00     0.047 C 
BRANCH  11  15
ATOM     15  C   UNL A   1      31.041  25.448  22.518  1.00  0.00     0.148 C 
BRANCH  15  16
ATOM     16  N   UNL A   1      32.379  24.863  22.449  1.00  0.00    -0.349 N 
ATOM     17  O   UNL A   1      34.587  24.593  22.792  1.00  0.00    -0.269 OA
ATOM     18  C   UNL A   1      33.567  25.234  23.024  1.00  0.00     0.251 C 
ATOM     19  H   UNL A   1      32.438  24.056  21.888  1.00  0.00     0.163 HD
BRANCH  18  20
ATOM     20  C   UNL A   1      33.646  26.432  23.885  1.00  0.00     0.039 A 
ATOM     21  C   UNL A   1      33.884  26.339  25.259  1.00  0.00     0.015 A 
ATOM     22  C   UNL A   1      33.504  27.688  23.282  1.00  0.00     0.015 A 
ATOM     23  C   UNL A   1      33.856  27.491  26.048  1.00  0.00     0.021 A 
ATOM     24  C   UNL A   1      33.503  28.841  24.069  1.00  0.00     0.021 A 
ATOM     25  C   UNL A   1      33.652  28.735  25.451  1.00  0.00     0.041 A 
ATOM     26  Cl  UNL A   1      33.587  30.147  26.431  1.00  0.00    -0.084 Cl
ENDBRANCH  18  20
ENDBRANCH  15  16
ENDBRANCH  11  15
ENDBRANCH   8  10
ENDBRANCH   7   8
ENDBRANCH   6   7
ENDBRANCH   5   6
ENDBRANCH   4   5
ENDBRANCH   3   4
ENDBRANCH   2   3
ENDBRANCH   1   2
BRANCH   1  27
ATOM     27  C   UNL A   1      39.811  23.139  26.997  1.00  0.00     0.188 C 
BRANCH  27  28
ATOM     28  C   UNL A   1      40.763  21.968  27.301  1.00  0.00     0.188 C 
BRANCH  28  29
ATOM     29  O   UNL A   1      41.665  21.688  26.232  1.00  0.00    -0.376 OA
BRANCH  29  30
ATOM     30  C   UNL A   1      43.049  21.599  26.535  1.00  0.00     0.202 C 
BRANCH  30  31
ATOM     31  C   UNL A   1      43.881  22.882  26.374  1.00  0.00     0.261 C 
BRANCH  31  32
ATOM     32  O   UNL A   1      43.439  24.031  27.112  1.00  0.00    -0.460 OA
BRANCH  32  33
ATOM     33  C   UNL A   1      43.004  25.105  26.415  1.00  0.00     0.338 C 
ATOM     34  O   UNL A   1      42.851  25.182  25.214  1.00  0.00    -0.246 OA
BRANCH  33  35
ATOM     35  C   UNL A   1      42.532  26.108  27.400  1.00  0.00     0.060 A 
ATOM     36  C   UNL A   1      43.066  27.403  27.357  1.00  0.00     0.016 A 
ATOM     37  C   UNL A   1      41.545  25.784  28.334  1.00  0.00     0.016 A 
ATOM     38  C   UNL A   1      42.625  28.375  28.258  1.00  0.00     0.010 A 
ATOM     39  C   UNL A   1      41.127  26.748  29.255  1.00  0.00     0.010 A 
ATOM     40  C   UNL A   1      41.681  28.042  29.237  1.00  0.00    -0.014 A 
BRANCH  40  41
ATOM     41  C   UNL A   1      41.408  28.972  30.359  1.00  0.00     0.031 A 
ATOM     42  C   UNL A   1      42.247  28.849  31.602  1.00  0.00     0.074 A 
ATOM     43  C   UNL A   1      40.434  29.897  30.289  1.00  0.00     0.049 A 
ATOM     44  N   UNL A   1      42.128  29.461  32.750  1.00  0.00    -0.248 NA
ATOM     45  C   UNL A   1      43.370  27.898  31.538  1.00  0.00     0.031 C 
ATOM     46  C   UNL A   1      39.591  30.149  29.122  1.00  0.00     0.029 A 
ATOM     47  N   UNL A   1      39.977  30.784  31.232  1.00  0.00    -0.354 N 
ATOM     48  C   UNL A   1      43.149  28.961  33.551  1.00  0.00     0.074 A 
ATOM     49  C   UNL A   1      43.864  27.980  32.765  1.00  0.00     0.031 C 
ATOM     50  C   UNL A   1      38.699  31.109  29.429  1.00  0.00     0.029 A 
ATOM     51  C   UNL A   1      38.880  31.507  30.825  1.00  0.00     0.049 A 
ATOM     52  H   UNL A   1      40.395  30.892  32.118  1.00  0.00     0.167 HD
ATOM     53  C   UNL A   1      43.459  29.293  34.826  1.00  0.00     0.037 A 
ATOM     54  C   UNL A   1      38.093  32.360  31.512  1.00  0.00     0.037 A 
ATOM     55  C   UNL A   1      42.738  30.267  35.600  1.00  0.00     0.049 A 
ATOM     56  C   UNL A   1      38.401  32.646  32.962  1.00  0.00     0.074 A 
ATOM     57  C   UNL A   1      42.990  30.694  36.892  1.00  0.00     0.029 A 
ATOM     58  N   UNL A   1      41.615  30.954  35.164  1.00  0.00    -0.354 N 
ATOM     59  N   UNL A   1      39.387  32.193  33.700  1.00  0.00    -0.248 NA
ATOM     60  C   UNL A   1      37.487  33.550  33.675  1.00  0.00     0.031 C 
ATOM     61  C   UNL A   1      41.982  31.590  37.258  1.00  0.00     0.029 A 
ATOM     62  C   UNL A   1      41.137  31.770  36.174  1.00  0.00     0.049 A 
ATOM     63  H   UNL A   1      41.216  30.872  34.267  1.00  0.00     0.167 HD
ATOM     64  C   UNL A   1      39.222  32.772  34.956  1.00  0.00     0.074 A 
ATOM     65  C   UNL A   1      38.052  33.622  34.873  1.00  0.00     0.031 C 
ATOM     66  C   UNL A   1      39.971  32.614  36.076  1.00  0.00     0.037 A 
BRANCH  53  67
ATOM     67  C   UNL A   1      44.606  28.569  35.476  1.00  0.00     0.058 A 
ATOM     68  C   UNL A   1      45.921  29.059  35.424  1.00  0.00     0.135 A 
ATOM     69  C   UNL A   1      44.379  27.381  36.191  1.00  0.00     0.135 A 
ATOM     70  F   UNL A   1      46.198  30.178  34.737  1.00  0.00    -0.206 F 
ATOM     71  C   UNL A   1      46.972  28.385  36.036  1.00  0.00     0.059 A 
ATOM     72  C   UNL A   1      45.410  26.707  36.836  1.00  0.00     0.059 A 
ATOM     73  F   UNL A   1      43.141  26.864  36.267  1.00  0.00    -0.206 F 
ATOM     74  C   UNL A   1      46.706  27.210  36.743  1.00  0.00     0.060 A 
BRANCH  74  75
ATOM     75  S   UNL A   1      48.081  26.355  37.538  1.00  0.00     0.124 S 
ATOM     76  O   UNL A   1      47.379  25.376  38.362  1.00  0.00    -0.237 OA
ATOM     77  O   UNL A   1      48.813  25.815  36.397  1.00  0.00    -0.237 OA
ATOM     78  O   UNL A   1      48.764  27.416  38.272  1.00  0.00    -0.744 OA
ENDBRANCH  74  75
ENDBRANCH  53  67
BRANCH  54  79
ATOM     79  C   UNL A   1      36.909  32.978  30.852  1.00  0.00     0.058 A 
ATOM     80  C   UNL A   1      35.609  32.532  31.128  1.00  0.00     0.135 A 
ATOM     81  C   UNL A   1      37.056  34.026  29.929  1.00  0.00     0.135 A 
ATOM     82  F   UNL A   1      35.414  31.520  31.989  1.00  0.00    -0.206 F 
ATOM     83  C   UNL A   1      34.496  33.095  30.508  1.00  0.00     0.059 A 
ATOM     84  C   UNL A   1      35.958  34.625  29.318  1.00  0.00     0.059 A 
ATOM     85  F   UNL A   1      38.278  34.494  29.629  1.00  0.00    -0.206 F 
ATOM     86  C   UNL A   1      34.681  34.147  29.609  1.00  0.00     0.060 A 
BRANCH  86  87
ATOM     87  S   UNL A   1      33.228  34.911  28.857  1.00  0.00     0.124 S 
ATOM     88  O   UNL A   1      32.392  35.166  30.023  1.00  0.00    -0.237 OA
ATOM     89  O   UNL A   1      33.804  36.088  28.213  1.00  0.00    -0.237 OA
ATOM     90  O   UNL A   1      32.742  33.881  27.943  1.00  0.00    -0.744 OA
ENDBRANCH  86  87
ENDBRANCH  54  79
BRANCH  66  91
ATOM     91  C   UNL A   1      39.569  33.383  37.307  1.00  0.00     0.058 A 
ATOM     92  C   UNL A   1      38.690  32.843  38.256  1.00  0.00     0.135 A 
ATOM     93  C   UNL A   1      40.145  34.634  37.585  1.00  0.00     0.135 A 
ATOM     94  F   UNL A   1      38.103  31.655  38.037  1.00  0.00    -0.206 F 
ATOM     95  C   UNL A   1      38.390  33.517  39.436  1.00  0.00     0.059 A 
ATOM     96  C   UNL A   1      39.884  35.313  38.771  1.00  0.00     0.059 A 
ATOM     97  F   UNL A   1      41.002  35.192  36.715  1.00  0.00    -0.206 F 
ATOM     98  C   UNL A   1      39.001  34.747  39.690  1.00  0.00     0.060 A 
BRANCH  98  99
ATOM     99  S   UNL A   1      38.655  35.576  41.256  1.00  0.00     0.124 S 
ATOM    100  O   UNL A   1      37.353  35.017  41.605  1.00  0.00    -0.237 OA
ATOM    101  O   UNL A   1      39.774  35.146  42.089  1.00  0.00    -0.237 OA
ATOM    102  O   UNL A   1      38.654  36.991  40.900  1.00  0.00    -0.744 OA
ENDBRANCH  98  99
ENDBRANCH  66  91
ENDBRANCH  40  41
ENDBRANCH  33  35
ENDBRANCH  32  33
ENDBRANCH  31  32
ENDBRANCH  30  31
ENDBRANCH  29  30
ENDBRANCH  28  29
ENDBRANCH  27  28
ENDBRANCH   1  27
TORSDOF 26
ENDMDL
MODEL 3
REMARK VINA RESULT:      -9.4      1.464      8.243
REMARK SMILES O=C(NC[C@@H]1CC[C@@H](C(=O)OCCOCCOCCOCCOC(=O)c2ccc(-c3c4nc(c(-c5c(F)cc(S(=O)(=O)[O-])cc5F)c5ccc([nH]5)c(-c5c(F)cc(S(=O)(=O)[O-])cc5F)c5nc(c(-c6c(F)cc(S(=O)(=O)[O-])cc6F)c6ccc3[nH]6)C=C5)C=C4)cc2)O1)c1ccc(Cl)cc1
REMARK SMILES IDX 17 1 16 2 15 3 14 4 13 5 12 6 11 7 9 8 10 9 8 10 5 11 6 12
REMARK SMILES IDX 92 13 7 14 4 15 3 16 1 17 2 18 93 20 94 21 99 22 95 23 98 24
REMARK SMILES IDX 96 25 97 26 18 27 19 28 20 29 21 30 22 31 23 32 24 33 25 34
REMARK SMILES IDX 26 35 27 36 91 37 28 38 90 39 29 40 30 41 31 42 84 43 32 44
REMARK SMILES IDX 89 45 83 46 85 47 33 48 88 49 82 50 81 51 34 53 68 54 47 55
REMARK SMILES IDX 67 56 48 57 51 58 66 59 86 60 49 61 50 62 65 64 87 65 52 66
REMARK SMILES IDX 35 67 36 68 45 69 37 70 38 71 44 72 46 73 39 74 40 75 41 76
REMARK SMILES IDX 42 77 43 78 69 79 70 80 79 81 71 82 72 83 78 84 80 85 73 86
REMARK SMILES IDX 74 87 75 88 76 89 77 90 53 91 54 92 63 93 55 94 56 95 62 96
REMARK SMILES IDX 64 97 57 98 58 99 59 100 60 101 61 102
REMARK H PARENT 3 19 85 52 51 63
REMARK Flexibility Score: inf
ROOT
ATOM      1  O   UNL A   1      38.709  20.987  25.318  1.00  0.00    -0.377 OA
ENDROOT
BRANCH   1   2
ATOM      2  C   UNL A   1      37.375  21.384  25.069  1.00  0.00     0.188 C 
BRANCH   2   3
ATOM      3  C   UNL A   1      36.332  20.247  25.070  1.00  0.00     0.188 C 
BRANCH   3   4
ATOM      4  O   UNL A   1      34.999  20.470  25.518  1.00  0.00    -0.376 OA
BRANCH   4   5
ATOM      5  C   UNL A   1      33.903  19.926  24.797  1.00  0.00     0.202 C 
BRANCH   5   6
ATOM      6  C   UNL A   1      32.516  20.587  24.880  1.00  0.00     0.261 C 
BRANCH   6   7
ATOM      7  O   UNL A   1      32.164  21.468  23.797  1.00  0.00    -0.461 OA
BRANCH   7   8
ATOM      8  C   UNL A   1      32.993  22.520  23.565  1.00  0.00     0.335 C 
ATOM      9  O   UNL A   1      33.823  22.565  22.664  1.00  0.00    -0.249 OA
BRANCH   8  10
ATOM     10  C   UNL A   1      32.725  23.710  24.508  1.00  0.00     0.228 C 
ATOM     11  C   UNL A   1      31.184  24.336  26.173  1.00  0.00     0.138 C 
ATOM     12  C   UNL A   1      32.587  24.653  26.658  1.00  0.00     0.037 C 
ATOM     13  O   UNL A   1      31.335  23.989  24.775  1.00  0.00    -0.361 OA
ATOM     14  C   UNL A   1      33.403  23.647  25.869  1.00  0.00     0.047 C 
BRANCH  11  15
ATOM     15  C   UNL A   1      30.156  25.466  26.302  1.00  0.00     0.148 C 
BRANCH  15  16
ATOM     16  N   UNL A   1      30.753  26.784  26.506  1.00  0.00    -0.349 N 
ATOM     17  O   UNL A   1      31.886  28.681  26.074  1.00  0.00    -0.269 OA
ATOM     18  C   UNL A   1      31.447  27.612  25.661  1.00  0.00     0.251 C 
ATOM     19  H   UNL A   1      30.636  27.144  27.415  1.00  0.00     0.163 HD
BRANCH  18  20
ATOM     20  C   UNL A   1      31.717  27.211  24.265  1.00  0.00     0.039 A 
ATOM     21  C   UNL A   1      30.686  26.987  23.349  1.00  0.00     0.015 A 
ATOM     22  C   UNL A   1      33.052  27.083  23.863  1.00  0.00     0.015 A 
ATOM     23  C   UNL A   1      30.985  26.517  22.068  1.00  0.00     0.021 A 
ATOM     24  C   UNL A   1      33.350  26.639  22.573  1.00  0.00     0.021 A 
ATOM     25  C   UNL A   1      32.315  26.332  21.692  1.00  0.00     0.041 A 
ATOM     26  Cl  UNL A   1      32.677  25.723  20.124  1.00  0.00    -0.084 Cl
ENDBRANCH  18  20
ENDBRANCH  15  16
ENDBRANCH  11  15
ENDBRANCH   8  10
ENDBRANCH   7   8
ENDBRANCH   6   7
ENDBRANCH   5   6
ENDBRANCH   4   5
ENDBRANCH   3   4
ENDBRANCH   2   3
ENDBRANCH   1   2
BRANCH   1  27
ATOM     27  C   UNL A   1      39.459  21.844  26.162  1.00  0.00     0.188 C 
BRANCH  27  28
ATOM     28  C   UNL A   1      40.801  21.287  26.671  1.00  0.00     0.188 C 
BRANCH  28  29
ATOM     29  O   UNL A   1      41.873  21.484  25.751  1.00  0.00    -0.376 OA
BRANCH  29  30
ATOM     30  C   UNL A   1      43.181  21.649  26.278  1.00  0.00     0.202 C 
BRANCH  30  31
ATOM     31  C   UNL A   1      43.826  23.036  26.119  1.00  0.00     0.261 C 
BRANCH  31  32
ATOM     32  O   UNL A   1      43.339  24.074  26.983  1.00  0.00    -0.460 OA
BRANCH  32  33
ATOM     33  C   UNL A   1      42.851  25.198  26.412  1.00  0.00     0.338 C 
ATOM     34  O   UNL A   1      42.644  25.386  25.232  1.00  0.00    -0.246 OA
BRANCH  33  35
ATOM     35  C   UNL A   1      42.400  26.089  27.508  1.00  0.00     0.060 A 
ATOM     36  C   UNL A   1      43.090  27.287  27.734  1.00  0.00     0.016 A 
ATOM     37  C   UNL A   1      41.285  25.761  28.283  1.00  0.00     0.016 A 
ATOM     38  C   UNL A   1      42.674  28.157  28.745  1.00  0.00     0.010 A 
ATOM     39  C   UNL A   1      40.889  26.616  29.315  1.00  0.00     0.010 A 
ATOM     40  C   UNL A   1      41.595  27.807  29.566  1.00  0.00    -0.014 A 
BRANCH  40  41
ATOM     41  C   UNL A   1      41.317  28.577  30.803  1.00  0.00     0.031 A 
ATOM     42  C   UNL A   1      40.190  29.573  30.779  1.00  0.00     0.074 A 
ATOM     43  C   UNL A   1      42.050  28.411  31.918  1.00  0.00     0.049 A 
ATOM     44  N   UNL A   1      39.827  30.441  31.686  1.00  0.00    -0.248 NA
ATOM     45  C   UNL A   1      39.363  29.593  29.560  1.00  0.00     0.031 C 
ATOM     46  C   UNL A   1      43.131  27.442  32.083  1.00  0.00     0.029 A 
ATOM     47  N   UNL A   1      42.005  29.073  33.121  1.00  0.00    -0.354 N 
ATOM     48  C   UNL A   1      38.742  31.121  31.144  1.00  0.00     0.074 A 
ATOM     49  C   UNL A   1      38.518  30.580  29.822  1.00  0.00     0.031 C 
ATOM     50  C   UNL A   1      43.668  27.592  33.308  1.00  0.00     0.029 A 
ATOM     51  C   UNL A   1      42.996  28.694  33.997  1.00  0.00     0.049 A 
ATOM     52  H   UNL A   1      41.328  29.755  33.336  1.00  0.00     0.167 HD
ATOM     53  C   UNL A   1      38.001  32.107  31.701  1.00  0.00     0.037 A 
ATOM     54  C   UNL A   1      43.343  29.204  35.196  1.00  0.00     0.037 A 
ATOM     55  C   UNL A   1      38.234  32.641  33.015  1.00  0.00     0.049 A 
ATOM     56  C   UNL A   1      42.562  30.366  35.759  1.00  0.00     0.074 A 
ATOM     57  C   UNL A   1      37.522  33.624  33.682  1.00  0.00     0.029 A 
ATOM     58  N   UNL A   1      39.266  32.254  33.858  1.00  0.00    -0.354 N 
ATOM     59  N   UNL A   1      41.518  30.980  35.254  1.00  0.00    -0.248 NA
ATOM     60  C   UNL A   1      43.008  30.911  37.050  1.00  0.00     0.031 C 
ATOM     61  C   UNL A   1      38.162  33.874  34.899  1.00  0.00     0.029 A 
ATOM     62  C   UNL A   1      39.236  33.006  35.020  1.00  0.00     0.049 A 
ATOM     63  H   UNL A   1      39.924  31.548  33.658  1.00  0.00     0.167 HD
ATOM     64  C   UNL A   1      41.172  31.968  36.173  1.00  0.00     0.074 A 
ATOM     65  C   UNL A   1      42.107  31.859  37.273  1.00  0.00     0.031 C 
ATOM     66  C   UNL A   1      40.173  32.883  36.110  1.00  0.00     0.037 A 
BRANCH  53  67
ATOM     67  C   UNL A   1      36.891  32.697  30.875  1.00  0.00     0.058 A 
ATOM     68  C   UNL A   1      35.557  32.283  31.017  1.00  0.00     0.135 A 
ATOM     69  C   UNL A   1      37.163  33.718  29.949  1.00  0.00     0.135 A 
ATOM     70  F   UNL A   1      35.243  31.297  31.872  1.00  0.00    -0.206 F 
ATOM     71  C   UNL A   1      34.537  32.843  30.254  1.00  0.00     0.059 A 
ATOM     72  C   UNL A   1      36.155  34.313  29.198  1.00  0.00     0.059 A 
ATOM     73  F   UNL A   1      38.423  34.148  29.769  1.00  0.00    -0.206 F 
ATOM     74  C   UNL A   1      34.847  33.860  29.348  1.00  0.00     0.060 A 
BRANCH  74  75
ATOM     75  S   UNL A   1      33.509  34.579  28.374  1.00  0.00     0.124 S 
ATOM     76  O   UNL A   1      32.663  35.149  29.417  1.00  0.00    -0.237 OA
ATOM     77  O   UNL A   1      34.218  35.541  27.537  1.00  0.00    -0.237 OA
ATOM     78  O   UNL A   1      32.946  33.432  27.668  1.00  0.00    -0.744 OA
ENDBRANCH  74  75
ENDBRANCH  53  67
BRANCH  54  79
ATOM     79  C   UNL A   1      44.513  28.649  35.932  1.00  0.00     0.058 A 
ATOM     80  C   UNL A   1      45.810  29.129  35.703  1.00  0.00     0.135 A 
ATOM     81  C   UNL A   1      44.356  27.624  36.879  1.00  0.00     0.135 A 
ATOM     82  F   UNL A   1      46.018  30.095  34.794  1.00  0.00    -0.206 F 
ATOM     83  C   UNL A   1      46.912  28.609  36.378  1.00  0.00     0.059 A 
ATOM     84  C   UNL A   1      45.437  27.108  37.588  1.00  0.00     0.059 A 
ATOM     85  F   UNL A   1      43.136  27.129  37.140  1.00  0.00    -0.206 F 
ATOM     86  C   UNL A   1      46.713  27.602  37.324  1.00  0.00     0.060 A 
BRANCH  86  87
ATOM     87  S   UNL A   1      48.140  26.978  38.238  1.00  0.00     0.124 S 
ATOM     88  O   UNL A   1      47.499  26.190  39.283  1.00  0.00    -0.237 OA
ATOM     89  O   UNL A   1      48.850  26.221  37.211  1.00  0.00    -0.237 OA
ATOM     90  O   UNL A   1      48.812  28.194  38.686  1.00  0.00    -0.744 OA
ENDBRANCH  86  87
ENDBRANCH  54  79
BRANCH  66  91
ATOM     91  C   UNL A   1      40.016  33.836  37.266  1.00  0.00     0.058 A 
ATOM     92  C   UNL A   1      40.633  35.095  37.269  1.00  0.00     0.135 A 
ATOM     93  C   UNL A   1      39.162  33.522  38.337  1.00  0.00     0.135 A 
ATOM     94  F   UNL A   1      41.466  35.443  36.275  1.00  0.00    -0.206 F 
ATOM     95  C   UNL A   1      40.414  36.009  38.295  1.00  0.00     0.059 A 
ATOM     96  C   UNL A   1      38.905  34.431  39.358  1.00  0.00     0.059 A 
ATOM     97  F   UNL A   1      38.538  32.333  38.378  1.00  0.00    -0.206 F 
ATOM     98  C   UNL A   1      39.539  35.672  39.331  1.00  0.00     0.060 A 
BRANCH  98  99
ATOM     99  S   UNL A   1      39.213  36.895  40.618  1.00  0.00     0.124 S 
ATOM    100  O   UNL A   1      40.564  37.233  41.054  1.00  0.00    -0.237 OA
ATOM    101  O   UNL A   1      38.504  37.938  39.883  1.00  0.00    -0.237 OA
ATOM    102  O   UNL A   1      38.406  36.162  41.589  1.00  0.00    -0.744 OA
ENDBRANCH  98  99
ENDBRANCH  66  91
ENDBRANCH  40  41
ENDBRANCH  33  35
ENDBRANCH  32  33
ENDBRANCH  31  32
ENDBRANCH  30  31
ENDBRANCH  29  30
ENDBRANCH  28  29
ENDBRANCH  27  28
ENDBRANCH   1  27
TORSDOF 26
ENDMDL
