MODEL 1
REMARK VINA RESULT:     -11.7      0.000      0.000
REMARK SMILES C[N@@H+]1CCN(C(=O)c2ccc3[nH]c4c(c3c2)CSCC4)C[C@H]1C(=O)OCCOCCOCCOCCOC(=O)c1ccc(-c2c3nc(c(-c4c(F)cc(S(=O)(=O)[O-])cc4F)c4ccc([nH]4)c(-c4c(F)cc(S(=O)(=O)[O-])cc4F)c4nc(c(-c5c(F)cc(S(=O)(=O)[O-])cc5F)c5ccc2[nH]5)C=C4)C=C3)cc1
REMARK SMILES IDX 32 1 31 2 30 3 29 4 28 5 27 6 26 7 25 8 23 9 24 10 22 11
REMARK SMILES IDX 1 12 2 13 3 14 4 16 21 17 5 18 6 19 7 20 8 21 9 22 16 23
REMARK SMILES IDX 10 24 15 25 11 26 14 27 12 28 13 29 17 30 20 32 18 33 19 34
REMARK SMILES IDX 33 35 34 36 35 37 36 38 37 39 38 40 39 41 40 42 41 43 105 44
REMARK SMILES IDX 42 45 104 46 43 47 44 48 45 49 98 50 46 51 103 52 97 53
REMARK SMILES IDX 99 54 47 55 102 56 96 57 95 58 48 60 82 61 61 62 81 63 62 64
REMARK SMILES IDX 65 65 80 66 100 67 63 68 64 69 79 71 101 72 66 73 49 74
REMARK SMILES IDX 50 75 59 76 51 77 52 78 58 79 60 80 53 81 54 82 55 83 56 84
REMARK SMILES IDX 57 85 83 86 84 87 93 88 85 89 86 90 92 91 94 92 87 93 88 94
REMARK SMILES IDX 89 95 90 96 91 97 67 98 68 99 77 100 69 101 70 102 76 103
REMARK SMILES IDX 78 104 71 105 72 106 73 107 74 108 75 109
REMARK H PARENT 2 15 12 31 99 59 65 70
REMARK Flexibility Score: inf
ROOT
ATOM      1  C   UNL A   1      39.724  21.491  26.366  1.00  0.00     0.188 C 
ENDROOT
BRANCH   1   2
ATOM      2  O   UNL A   1      38.542  21.469  25.564  1.00  0.00    -0.377 OA
BRANCH   2   3
ATOM      3  C   UNL A   1      37.448  22.277  25.972  1.00  0.00     0.188 C 
BRANCH   3   4
ATOM      4  C   UNL A   1      37.457  23.724  25.467  1.00  0.00     0.188 C 
BRANCH   4   5
ATOM      5  O   UNL A   1      36.217  24.073  24.890  1.00  0.00    -0.376 OA
BRANCH   5   6
ATOM      6  C   UNL A   1      35.671  23.238  23.865  1.00  0.00     0.202 C 
BRANCH   6   7
ATOM      7  C   UNL A   1      34.329  23.483  23.123  1.00  0.00     0.261 C 
BRANCH   7   8
ATOM      8  O   UNL A   1      34.133  24.688  22.343  1.00  0.00    -0.459 OA
BRANCH   8   9
ATOM      9  C   UNL A   1      32.916  25.259  22.534  1.00  0.00     0.366 C 
ATOM     10  O   UNL A   1      32.113  25.456  21.615  1.00  0.00    -0.245 OA
BRANCH   9  11
ATOM     11  C   UNL A   1      32.519  25.758  23.911  1.00  0.00     0.314 C 
ATOM     12  C   UNL A   1      33.750  27.903  24.042  1.00  0.00     0.333 C 
ATOM     13  N   UNL A   1      32.506  27.207  24.325  1.00  0.00    -0.323 N 
ATOM     14  C   UNL A   1      32.281  27.228  25.804  1.00  0.00     0.284 C 
ATOM     15  H   UNL A   1      31.776  27.682  23.794  1.00  0.00     0.348 HD
ATOM     16  C   UNL A   1      30.996  26.499  26.248  1.00  0.00     0.181 C 
ATOM     17  C   UNL A   1      31.121  25.167  24.193  1.00  0.00     0.197 C 
ATOM     18  N   UNL A   1      30.904  25.173  25.649  1.00  0.00    -0.326 N 
BRANCH  18  19
ATOM     19  C   UNL A   1      30.733  24.047  26.438  1.00  0.00     0.254 C 
ATOM     20  O   UNL A   1      29.751  23.847  27.149  1.00  0.00    -0.269 OA
BRANCH  19  21
ATOM     21  C   UNL A   1      31.784  23.011  26.392  1.00  0.00     0.040 A 
ATOM     22  C   UNL A   1      32.885  23.073  27.249  1.00  0.00     0.016 A 
ATOM     23  C   UNL A   1      31.661  22.013  25.419  1.00  0.00     0.024 A 
ATOM     24  C   UNL A   1      33.927  22.150  27.121  1.00  0.00     0.027 A 
ATOM     25  C   UNL A   1      32.692  21.064  25.293  1.00  0.00     0.004 A 
ATOM     26  C   UNL A   1      33.802  21.162  26.135  1.00  0.00     0.046 A 
ATOM     27  C   UNL A   1      32.906  19.953  24.422  1.00  0.00    -0.009 A 
ATOM     28  N   UNL A   1      34.685  20.179  25.746  1.00  0.00    -0.358 N 
ATOM     29  C   UNL A   1      34.108  19.387  24.793  1.00  0.00     0.021 A 
ATOM     30  C   UNL A   1      32.018  19.495  23.316  1.00  0.00     0.107 C 
ATOM     31  H   UNL A   1      35.597  20.065  26.101  1.00  0.00     0.166 HD
ATOM     32  C   UNL A   1      34.739  18.177  24.212  1.00  0.00     0.065 C 
ATOM     33  S   UNL A   1      32.533  17.951  22.468  1.00  0.00    -0.157 SA
ATOM     34  C   UNL A   1      33.648  17.219  23.724  1.00  0.00     0.076 C 
ENDBRANCH  19  21
ENDBRANCH  18  19
ENDBRANCH   9  11
ENDBRANCH   8   9
ENDBRANCH   7   8
ENDBRANCH   6   7
ENDBRANCH   5   6
ENDBRANCH   4   5
ENDBRANCH   3   4
ENDBRANCH   2   3
ENDBRANCH   1   2
BRANCH   1  35
ATOM     35  C   UNL A   1      40.688  20.332  26.112  1.00  0.00     0.188 C 
BRANCH  35  36
ATOM     36  O   UNL A   1      41.211  19.693  27.281  1.00  0.00    -0.376 OA
BRANCH  36  37
ATOM     37  C   UNL A   1      42.504  19.092  27.164  1.00  0.00     0.202 C 
BRANCH  37  38
ATOM     38  C   UNL A   1      43.052  18.995  25.733  1.00  0.00     0.261 C 
BRANCH  38  39
ATOM     39  O   UNL A   1      44.371  19.556  25.662  1.00  0.00    -0.460 OA
BRANCH  39  40
ATOM     40  C   UNL A   1      44.556  20.539  24.747  1.00  0.00     0.338 C 
ATOM     41  O   UNL A   1      44.732  20.407  23.548  1.00  0.00    -0.246 OA
BRANCH  40  42
ATOM     42  C   UNL A   1      44.210  21.816  25.409  1.00  0.00     0.060 A 
ATOM     43  C   UNL A   1      43.226  22.660  24.889  1.00  0.00     0.016 A 
ATOM     44  C   UNL A   1      45.022  22.236  26.474  1.00  0.00     0.016 A 
ATOM     45  C   UNL A   1      43.076  23.933  25.429  1.00  0.00     0.010 A 
ATOM     46  C   UNL A   1      44.880  23.520  26.999  1.00  0.00     0.010 A 
ATOM     47  C   UNL A   1      43.904  24.370  26.480  1.00  0.00    -0.014 A 
BRANCH  47  48
ATOM     48  C   UNL A   1      43.523  25.618  27.150  1.00  0.00     0.031 A 
ATOM     49  C   UNL A   1      44.502  26.724  26.937  1.00  0.00     0.074 A 
ATOM     50  C   UNL A   1      42.364  25.925  27.767  1.00  0.00     0.049 A 
ATOM     51  N   UNL A   1      45.244  27.322  27.810  1.00  0.00    -0.248 NA
ATOM     52  C   UNL A   1      44.742  27.143  25.548  1.00  0.00     0.031 C 
ATOM     53  C   UNL A   1      41.110  25.175  27.789  1.00  0.00     0.029 A 
ATOM     54  N   UNL A   1      42.058  27.069  28.456  1.00  0.00    -0.354 N 
ATOM     55  C   UNL A   1      45.924  28.317  27.111  1.00  0.00     0.074 A 
ATOM     56  C   UNL A   1      45.675  28.080  25.712  1.00  0.00     0.031 C 
ATOM     57  C   UNL A   1      40.132  25.965  28.292  1.00  0.00     0.029 A 
ATOM     58  C   UNL A   1      40.709  27.224  28.743  1.00  0.00     0.049 A 
ATOM     59  H   UNL A   1      42.739  27.726  28.726  1.00  0.00     0.167 HD
ATOM     60  C   UNL A   1      46.512  29.376  27.729  1.00  0.00     0.037 A 
ATOM     61  C   UNL A   1      40.112  28.329  29.258  1.00  0.00     0.037 A 
ATOM     62  C   UNL A   1      46.677  29.161  29.140  1.00  0.00     0.049 A 
ATOM     63  C   UNL A   1      41.154  29.141  29.936  1.00  0.00     0.074 A 
ATOM     64  C   UNL A   1      47.359  28.246  29.919  1.00  0.00     0.029 A 
ATOM     65  N   UNL A   1      45.823  29.813  29.992  1.00  0.00    -0.354 N 
ATOM     66  N   UNL A   1      41.778  28.794  31.028  1.00  0.00    -0.248 NA
ATOM     67  C   UNL A   1      41.736  30.268  29.222  1.00  0.00     0.031 C 
ATOM     68  C   UNL A   1      46.570  28.087  31.095  1.00  0.00     0.029 A 
ATOM     69  C   UNL A   1      45.457  28.919  30.966  1.00  0.00     0.049 A 
ATOM     70  H   UNL A   1      45.527  30.750  29.918  1.00  0.00     0.167 HD
ATOM     71  C   UNL A   1      43.025  29.386  30.931  1.00  0.00     0.074 A 
ATOM     72  C   UNL A   1      42.891  30.383  29.878  1.00  0.00     0.031 C 
ATOM     73  C   UNL A   1      44.122  28.825  31.519  1.00  0.00     0.037 A 
BRANCH  60  74
ATOM     74  C   UNL A   1      46.658  30.741  27.102  1.00  0.00     0.058 A 
ATOM     75  C   UNL A   1      47.926  31.356  27.050  1.00  0.00     0.135 A 
ATOM     76  C   UNL A   1      45.559  31.575  26.801  1.00  0.00     0.135 A 
ATOM     77  F   UNL A   1      49.037  30.658  27.337  1.00  0.00    -0.206 F 
ATOM     78  C   UNL A   1      48.084  32.715  26.779  1.00  0.00     0.059 A 
ATOM     79  C   UNL A   1      45.699  32.920  26.472  1.00  0.00     0.059 A 
ATOM     80  F   UNL A   1      44.295  31.149  26.910  1.00  0.00    -0.206 F 
ATOM     81  C   UNL A   1      46.960  33.491  26.509  1.00  0.00     0.060 A 
BRANCH  81  82
ATOM     82  S   UNL A   1      47.148  35.270  26.289  1.00  0.00     0.124 S 
ATOM     83  O   UNL A   1      47.137  35.733  27.672  1.00  0.00    -0.237 OA
ATOM     84  O   UNL A   1      48.429  35.359  25.594  1.00  0.00    -0.237 OA
ATOM     85  O   UNL A   1      45.982  35.633  25.489  1.00  0.00    -0.744 OA
ENDBRANCH  81  82
ENDBRANCH  60  74
BRANCH  61  86
ATOM     86  C   UNL A   1      38.751  28.873  29.005  1.00  0.00     0.058 A 
ATOM     87  C   UNL A   1      37.838  29.068  30.061  1.00  0.00     0.135 A 
ATOM     88  C   UNL A   1      38.421  29.489  27.782  1.00  0.00     0.135 A 
ATOM     89  F   UNL A   1      38.075  28.534  31.268  1.00  0.00    -0.206 F 
ATOM     90  C   UNL A   1      36.705  29.878  29.930  1.00  0.00     0.059 A 
ATOM     91  C   UNL A   1      37.289  30.286  27.623  1.00  0.00     0.059 A 
ATOM     92  F   UNL A   1      39.244  29.414  26.726  1.00  0.00    -0.206 F 
ATOM     93  C   UNL A   1      36.452  30.503  28.712  1.00  0.00     0.060 A 
BRANCH  93  94
ATOM     94  S   UNL A   1      35.101  31.700  28.593  1.00  0.00     0.124 S 
ATOM     95  O   UNL A   1      35.663  32.700  27.693  1.00  0.00    -0.237 OA
ATOM     96  O   UNL A   1      34.020  30.886  28.049  1.00  0.00    -0.237 OA
ATOM     97  O   UNL A   1      34.914  32.136  29.974  1.00  0.00    -0.744 OA
ENDBRANCH  93  94
ENDBRANCH  61  86
BRANCH  73  98
ATOM     98  C   UNL A   1      43.907  27.825  32.622  1.00  0.00     0.058 A 
ATOM     99  C   UNL A   1      43.639  28.163  33.959  1.00  0.00     0.135 A 
ATOM    100  C   UNL A   1      43.824  26.466  32.273  1.00  0.00     0.135 A 
ATOM    101  F   UNL A   1      43.594  29.444  34.355  1.00  0.00    -0.206 F 
ATOM    102  C   UNL A   1      43.330  27.191  34.912  1.00  0.00     0.059 A 
ATOM    103  C   UNL A   1      43.480  25.483  33.200  1.00  0.00     0.059 A 
ATOM    104  F   UNL A   1      44.016  26.086  30.999  1.00  0.00    -0.206 F 
ATOM    105  C   UNL A   1      43.237  25.855  34.520  1.00  0.00     0.060 A 
BRANCH 105 106
ATOM    106  S   UNL A   1      42.661  24.638  35.728  1.00  0.00     0.124 S 
ATOM    107  O   UNL A   1      43.528  24.900  36.873  1.00  0.00    -0.237 OA
ATOM    108  O   UNL A   1      41.260  25.023  35.889  1.00  0.00    -0.237 OA
ATOM    109  O   UNL A   1      42.882  23.363  35.052  1.00  0.00    -0.744 OA
ENDBRANCH 105 106
ENDBRANCH  73  98
ENDBRANCH  47  48
ENDBRANCH  40  42
ENDBRANCH  39  40
ENDBRANCH  38  39
ENDBRANCH  37  38
ENDBRANCH  36  37
ENDBRANCH  35  36
ENDBRANCH   1  35
TORSDOF 25
ENDMDL
MODEL 2
REMARK VINA RESULT:     -10.3      3.684      8.559
REMARK SMILES C[N@@H+]1CCN(C(=O)c2ccc3[nH]c4c(c3c2)CSCC4)C[C@H]1C(=O)OCCOCCOCCOCCOC(=O)c1ccc(-c2c3nc(c(-c4c(F)cc(S(=O)(=O)[O-])cc4F)c4ccc([nH]4)c(-c4c(F)cc(S(=O)(=O)[O-])cc4F)c4nc(c(-c5c(F)cc(S(=O)(=O)[O-])cc5F)c5ccc2[nH]5)C=C4)C=C3)cc1
REMARK SMILES IDX 32 1 31 2 30 3 29 4 28 5 27 6 26 7 25 8 23 9 24 10 22 11
REMARK SMILES IDX 1 12 2 13 3 14 4 16 21 17 5 18 6 19 7 20 8 21 9 22 16 23
REMARK SMILES IDX 10 24 15 25 11 26 14 27 12 28 13 29 17 30 20 32 18 33 19 34
REMARK SMILES IDX 33 35 34 36 35 37 36 38 37 39 38 40 39 41 40 42 41 43 105 44
REMARK SMILES IDX 42 45 104 46 43 47 44 48 45 49 98 50 46 51 103 52 97 53
REMARK SMILES IDX 99 54 47 55 102 56 96 57 95 58 48 60 82 61 61 62 81 63 62 64
REMARK SMILES IDX 65 65 80 66 100 67 63 68 64 69 79 71 101 72 66 73 49 74
REMARK SMILES IDX 50 75 59 76 51 77 52 78 58 79 60 80 53 81 54 82 55 83 56 84
REMARK SMILES IDX 57 85 83 86 84 87 93 88 85 89 86 90 92 91 94 92 87 93 88 94
REMARK SMILES IDX 89 95 90 96 91 97 67 98 68 99 77 100 69 101 70 102 76 103
REMARK SMILES IDX 78 104 71 105 72 106 73 107 74 108 75 109
REMARK H PARENT 2 15 12 31 99 59 65 70
REMARK Flexibility Score: inf
ROOT
ATOM      1  C   UNL A   1      33.177  16.825  25.388  1.00  0.00     0.188 C 
ENDROOT
BRANCH   1   2
ATOM      2  O   UNL A   1      32.496  18.078  25.480  1.00  0.00    -0.377 OA
BRANCH   2   3
ATOM      3  C   UNL A   1      32.123  18.721  24.271  1.00  0.00     0.188 C 
BRANCH   3   4
ATOM      4  C   UNL A   1      32.580  20.176  24.114  1.00  0.00     0.188 C 
BRANCH   4   5
ATOM      5  O   UNL A   1      32.912  20.747  25.362  1.00  0.00    -0.376 OA
BRANCH   5   6
ATOM      6  C   UNL A   1      33.713  21.931  25.390  1.00  0.00     0.202 C 
BRANCH   6   7
ATOM      7  C   UNL A   1      33.800  22.931  26.575  1.00  0.00     0.261 C 
BRANCH   7   8
ATOM      8  O   UNL A   1      33.426  24.319  26.392  1.00  0.00    -0.459 OA
BRANCH   8   9
ATOM      9  C   UNL A   1      32.085  24.524  26.434  1.00  0.00     0.366 C 
ATOM     10  O   UNL A   1      31.371  24.116  27.358  1.00  0.00    -0.245 OA
BRANCH   9  11
ATOM     11  C   UNL A   1      31.384  25.215  25.279  1.00  0.00     0.314 C 
ATOM     12  C   UNL A   1      30.829  23.300  23.811  1.00  0.00     0.333 C 
ATOM     13  N   UNL A   1      30.373  24.559  24.376  1.00  0.00    -0.323 N 
ATOM     14  C   UNL A   1      30.117  25.513  23.252  1.00  0.00     0.284 C 
ATOM     15  H   UNL A   1      29.542  24.348  24.929  1.00  0.00     0.348 HD
ATOM     16  C   UNL A   1      29.645  26.907  23.716  1.00  0.00     0.181 C 
ATOM     17  C   UNL A   1      30.744  26.490  25.868  1.00  0.00     0.197 C 
ATOM     18  N   UNL A   1      30.506  27.437  24.766  1.00  0.00    -0.326 N 
BRANCH  18  19
ATOM     19  C   UNL A   1      31.103  28.681  24.636  1.00  0.00     0.254 C 
ATOM     20  O   UNL A   1      30.724  29.547  23.852  1.00  0.00    -0.269 OA
BRANCH  19  21
ATOM     21  C   UNL A   1      32.244  28.990  25.520  1.00  0.00     0.040 A 
ATOM     22  C   UNL A   1      33.189  28.011  25.834  1.00  0.00     0.016 A 
ATOM     23  C   UNL A   1      32.300  30.274  26.073  1.00  0.00     0.024 A 
ATOM     24  C   UNL A   1      34.202  28.283  26.758  1.00  0.00     0.027 A 
ATOM     25  C   UNL A   1      33.326  30.570  26.988  1.00  0.00     0.004 A 
ATOM     26  C   UNL A   1      34.241  29.568  27.318  1.00  0.00     0.046 A 
ATOM     27  C   UNL A   1      33.667  31.733  27.743  1.00  0.00    -0.009 A 
ATOM     28  N   UNL A   1      35.072  30.090  28.285  1.00  0.00    -0.358 N 
ATOM     29  C   UNL A   1      34.799  31.417  28.465  1.00  0.00     0.021 A 
ATOM     30  C   UNL A   1      32.940  33.034  27.766  1.00  0.00     0.107 C 
ATOM     31  H   UNL A   1      35.759  29.582  28.775  1.00  0.00     0.166 HD
ATOM     32  C   UNL A   1      35.560  32.316  29.366  1.00  0.00     0.065 C 
ATOM     33  S   UNL A   1      33.721  34.367  28.756  1.00  0.00    -0.157 SA
ATOM     34  C   UNL A   1      35.445  33.758  28.860  1.00  0.00     0.076 C 
ENDBRANCH  19  21
ENDBRANCH  18  19
ENDBRANCH   9  11
ENDBRANCH   8   9
ENDBRANCH   7   8
ENDBRANCH   6   7
ENDBRANCH   5   6
ENDBRANCH   4   5
ENDBRANCH   3   4
ENDBRANCH   2   3
ENDBRANCH   1   2
BRANCH   1  35
ATOM     35  C   UNL A   1      34.353  16.809  24.411  1.00  0.00     0.188 C 
BRANCH  35  36
ATOM     36  O   UNL A   1      35.564  17.403  24.889  1.00  0.00    -0.376 OA
BRANCH  36  37
ATOM     37  C   UNL A   1      35.750  18.795  24.621  1.00  0.00     0.202 C 
BRANCH  37  38
ATOM     38  C   UNL A   1      37.183  19.311  24.812  1.00  0.00     0.261 C 
BRANCH  38  39
ATOM     39  O   UNL A   1      37.187  20.494  25.624  1.00  0.00    -0.460 OA
BRANCH  39  40
ATOM     40  C   UNL A   1      37.470  21.657  24.988  1.00  0.00     0.338 C 
ATOM     41  O   UNL A   1      36.915  22.113  24.002  1.00  0.00    -0.246 OA
BRANCH  40  42
ATOM     42  C   UNL A   1      38.373  22.426  25.873  1.00  0.00     0.060 A 
ATOM     43  C   UNL A   1      38.276  23.815  25.979  1.00  0.00     0.016 A 
ATOM     44  C   UNL A   1      39.442  21.736  26.466  1.00  0.00     0.016 A 
ATOM     45  C   UNL A   1      39.268  24.509  26.663  1.00  0.00     0.010 A 
ATOM     46  C   UNL A   1      40.443  22.438  27.135  1.00  0.00     0.010 A 
ATOM     47  C   UNL A   1      40.356  23.826  27.238  1.00  0.00    -0.014 A 
BRANCH  47  48
ATOM     48  C   UNL A   1      41.217  24.595  28.144  1.00  0.00     0.031 A 
ATOM     49  C   UNL A   1      40.676  25.948  28.465  1.00  0.00     0.074 A 
ATOM     50  C   UNL A   1      42.306  24.185  28.825  1.00  0.00     0.049 A 
ATOM     51  N   UNL A   1      41.170  27.105  28.170  1.00  0.00    -0.248 NA
ATOM     52  C   UNL A   1      39.360  26.000  29.122  1.00  0.00     0.031 C 
ATOM     53  C   UNL A   1      42.827  22.830  28.992  1.00  0.00     0.029 A 
ATOM     54  N   UNL A   1      43.143  24.940  29.603  1.00  0.00    -0.354 N 
ATOM     55  C   UNL A   1      40.318  28.041  28.753  1.00  0.00     0.074 A 
ATOM     56  C   UNL A   1      39.163  27.314  29.213  1.00  0.00     0.031 C 
ATOM     57  C   UNL A   1      43.770  22.835  29.964  1.00  0.00     0.029 A 
ATOM     58  C   UNL A   1      44.010  24.204  30.398  1.00  0.00     0.049 A 
ATOM     59  H   UNL A   1      43.131  25.925  29.598  1.00  0.00     0.167 HD
ATOM     60  C   UNL A   1      40.689  29.330  28.977  1.00  0.00     0.037 A 
ATOM     61  C   UNL A   1      44.818  24.685  31.377  1.00  0.00     0.037 A 
ATOM     62  C   UNL A   1      41.859  29.699  28.228  1.00  0.00     0.049 A 
ATOM     63  C   UNL A   1      45.021  26.136  31.134  1.00  0.00     0.074 A 
ATOM     64  C   UNL A   1      42.183  29.770  26.888  1.00  0.00     0.029 A 
ATOM     65  N   UNL A   1      43.048  29.795  28.905  1.00  0.00    -0.354 N 
ATOM     66  N   UNL A   1      45.694  26.638  30.135  1.00  0.00    -0.248 NA
ATOM     67  C   UNL A   1      44.210  27.089  31.877  1.00  0.00     0.031 C 
ATOM     68  C   UNL A   1      43.572  29.458  26.816  1.00  0.00     0.029 A 
ATOM     69  C   UNL A   1      44.013  29.220  28.118  1.00  0.00     0.049 A 
ATOM     70  H   UNL A   1      43.184  30.201  29.792  1.00  0.00     0.167 HD
ATOM     71  C   UNL A   1      45.097  27.861  29.883  1.00  0.00     0.074 A 
ATOM     72  C   UNL A   1      44.292  28.142  31.063  1.00  0.00     0.031 C 
ATOM     73  C   UNL A   1      45.093  28.401  28.629  1.00  0.00     0.037 A 
BRANCH  60  74
ATOM     74  C   UNL A   1      40.166  30.171  30.116  1.00  0.00     0.058 A 
ATOM     75  C   UNL A   1      39.236  31.198  29.859  1.00  0.00     0.135 A 
ATOM     76  C   UNL A   1      40.752  30.180  31.401  1.00  0.00     0.135 A 
ATOM     77  F   UNL A   1      38.635  31.293  28.663  1.00  0.00    -0.206 F 
ATOM     78  C   UNL A   1      38.955  32.198  30.791  1.00  0.00     0.059 A 
ATOM     79  C   UNL A   1      40.443  31.135  32.365  1.00  0.00     0.059 A 
ATOM     80  F   UNL A   1      41.723  29.325  31.744  1.00  0.00    -0.206 F 
ATOM     81  C   UNL A   1      39.579  32.165  32.035  1.00  0.00     0.060 A 
BRANCH  81  82
ATOM     82  S   UNL A   1      39.318  33.525  33.189  1.00  0.00     0.124 S 
ATOM     83  O   UNL A   1      40.489  33.400  34.049  1.00  0.00    -0.237 OA
ATOM     84  O   UNL A   1      39.298  34.681  32.299  1.00  0.00    -0.237 OA
ATOM     85  O   UNL A   1      38.037  33.196  33.809  1.00  0.00    -0.744 OA
ENDBRANCH  81  82
ENDBRANCH  60  74
BRANCH  61  86
ATOM     86  C   UNL A   1      45.238  24.049  32.655  1.00  0.00     0.058 A 
ATOM     87  C   UNL A   1      46.435  24.425  33.296  1.00  0.00     0.135 A 
ATOM     88  C   UNL A   1      44.340  23.282  33.423  1.00  0.00     0.135 A 
ATOM     89  F   UNL A   1      47.343  25.171  32.649  1.00  0.00    -0.206 F 
ATOM     90  C   UNL A   1      46.695  24.118  34.635  1.00  0.00     0.059 A 
ATOM     91  C   UNL A   1      44.586  22.949  34.754  1.00  0.00     0.059 A 
ATOM     92  F   UNL A   1      43.149  22.914  32.932  1.00  0.00    -0.206 F 
ATOM     93  C   UNL A   1      45.751  23.399  35.364  1.00  0.00     0.060 A 
BRANCH  93  94
ATOM     94  S   UNL A   1      45.993  23.166  37.141  1.00  0.00     0.124 S 
ATOM     95  O   UNL A   1      47.387  23.562  37.310  1.00  0.00    -0.237 OA
ATOM     96  O   UNL A   1      44.999  24.072  37.706  1.00  0.00    -0.237 OA
ATOM     97  O   UNL A   1      45.719  21.745  37.337  1.00  0.00    -0.744 OA
ENDBRANCH  93  94
ENDBRANCH  61  86
BRANCH  73  98
ATOM     98  C   UNL A   1      46.098  27.894  27.630  1.00  0.00     0.058 A 
ATOM     99  C   UNL A   1      45.966  26.694  26.911  1.00  0.00     0.135 A 
ATOM    100  C   UNL A   1      47.165  28.739  27.281  1.00  0.00     0.135 A 
ATOM    101  F   UNL A   1      44.918  25.880  27.106  1.00  0.00    -0.206 F 
ATOM    102  C   UNL A   1      46.872  26.338  25.911  1.00  0.00     0.059 A 
ATOM    103  C   UNL A   1      48.059  28.421  26.260  1.00  0.00     0.059 A 
ATOM    104  F   UNL A   1      47.312  29.925  27.895  1.00  0.00    -0.206 F 
ATOM    105  C   UNL A   1      47.906  27.214  25.581  1.00  0.00     0.060 A 
BRANCH 105 106
ATOM    106  S   UNL A   1      48.958  26.817  24.164  1.00  0.00     0.124 S 
ATOM    107  O   UNL A   1      49.000  28.085  23.442  1.00  0.00    -0.237 OA
ATOM    108  O   UNL A   1      50.200  26.416  24.821  1.00  0.00    -0.237 OA
ATOM    109  O   UNL A   1      48.230  25.739  23.498  1.00  0.00    -0.744 OA
ENDBRANCH 105 106
ENDBRANCH  73  98
ENDBRANCH  47  48
ENDBRANCH  40  42
ENDBRANCH  39  40
ENDBRANCH  38  39
ENDBRANCH  37  38
ENDBRANCH  36  37
ENDBRANCH  35  36
ENDBRANCH   1  35
TORSDOF 25
ENDMDL
MODEL 3
REMARK VINA RESULT:     -10.3      1.504      2.461
REMARK SMILES C[N@@H+]1CCN(C(=O)c2ccc3[nH]c4c(c3c2)CSCC4)C[C@H]1C(=O)OCCOCCOCCOCCOC(=O)c1ccc(-c2c3nc(c(-c4c(F)cc(S(=O)(=O)[O-])cc4F)c4ccc([nH]4)c(-c4c(F)cc(S(=O)(=O)[O-])cc4F)c4nc(c(-c5c(F)cc(S(=O)(=O)[O-])cc5F)c5ccc2[nH]5)C=C4)C=C3)cc1
REMARK SMILES IDX 32 1 31 2 30 3 29 4 28 5 27 6 26 7 25 8 23 9 24 10 22 11
REMARK SMILES IDX 1 12 2 13 3 14 4 16 21 17 5 18 6 19 7 20 8 21 9 22 16 23
REMARK SMILES IDX 10 24 15 25 11 26 14 27 12 28 13 29 17 30 20 32 18 33 19 34
REMARK SMILES IDX 33 35 34 36 35 37 36 38 37 39 38 40 39 41 40 42 41 43 105 44
REMARK SMILES IDX 42 45 104 46 43 47 44 48 45 49 98 50 46 51 103 52 97 53
REMARK SMILES IDX 99 54 47 55 102 56 96 57 95 58 48 60 82 61 61 62 81 63 62 64
REMARK SMILES IDX 65 65 80 66 100 67 63 68 64 69 79 71 101 72 66 73 49 74
REMARK SMILES IDX 50 75 59 76 51 77 52 78 58 79 60 80 53 81 54 82 55 83 56 84
REMARK SMILES IDX 57 85 83 86 84 87 93 88 85 89 86 90 92 91 94 92 87 93 88 94
REMARK SMILES IDX 89 95 90 96 91 97 67 98 68 99 77 100 69 101 70 102 76 103
REMARK SMILES IDX 78 104 71 105 72 106 73 107 74 108 75 109
REMARK H PARENT 2 15 12 31 99 59 65 70
REMARK Flexibility Score: inf
ROOT
ATOM      1  C   UNL A   1      37.208  21.989  24.260  1.00  0.00     0.188 C 
ENDROOT
BRANCH   1   2
ATOM      2  O   UNL A   1      36.478  22.816  25.168  1.00  0.00    -0.377 OA
BRANCH   2   3
ATOM      3  C   UNL A   1      35.395  23.574  24.651  1.00  0.00     0.188 C 
BRANCH   3   4
ATOM      4  C   UNL A   1      35.234  23.563  23.126  1.00  0.00     0.188 C 
BRANCH   4   5
ATOM      5  O   UNL A   1      34.130  22.776  22.733  1.00  0.00    -0.376 OA
BRANCH   5   6
ATOM      6  C   UNL A   1      32.993  23.421  22.154  1.00  0.00     0.202 C 
BRANCH   6   7
ATOM      7  C   UNL A   1      32.909  24.923  21.769  1.00  0.00     0.261 C 
BRANCH   7   8
ATOM      8  O   UNL A   1      31.624  25.545  21.520  1.00  0.00    -0.459 OA
BRANCH   8   9
ATOM      9  C   UNL A   1      31.304  26.498  22.434  1.00  0.00     0.366 C 
ATOM     10  O   UNL A   1      30.664  27.516  22.148  1.00  0.00    -0.245 OA
BRANCH   9  11
ATOM     11  C   UNL A   1      31.800  26.378  23.863  1.00  0.00     0.314 C 
ATOM     12  C   UNL A   1      33.905  27.680  23.774  1.00  0.00     0.333 C 
ATOM     13  N   UNL A   1      32.708  27.371  24.539  1.00  0.00    -0.323 N 
ATOM     14  C   UNL A   1      33.127  26.756  25.838  1.00  0.00     0.284 C 
ATOM     15  H   UNL A   1      32.196  28.247  24.649  1.00  0.00     0.348 HD
ATOM     16  C   UNL A   1      31.944  26.357  26.745  1.00  0.00     0.181 C 
ATOM     17  C   UNL A   1      30.542  26.205  24.740  1.00  0.00     0.197 C 
ATOM     18  N   UNL A   1      30.949  25.585  26.012  1.00  0.00    -0.326 N 
BRANCH  18  19
ATOM     19  C   UNL A   1      30.539  24.341  26.464  1.00  0.00     0.254 C 
ATOM     20  O   UNL A   1      29.394  24.084  26.828  1.00  0.00    -0.269 OA
BRANCH  19  21
ATOM     21  C   UNL A   1      31.536  23.253  26.476  1.00  0.00     0.040 A 
ATOM     22  C   UNL A   1      32.536  23.211  27.451  1.00  0.00     0.016 A 
ATOM     23  C   UNL A   1      31.474  22.311  25.442  1.00  0.00     0.024 A 
ATOM     24  C   UNL A   1      33.539  22.240  27.387  1.00  0.00     0.027 A 
ATOM     25  C   UNL A   1      32.464  21.315  25.378  1.00  0.00     0.004 A 
ATOM     26  C   UNL A   1      33.476  21.310  26.339  1.00  0.00     0.046 A 
ATOM     27  C   UNL A   1      32.719  20.237  24.476  1.00  0.00    -0.009 A 
ATOM     28  N   UNL A   1      34.349  20.300  25.996  1.00  0.00    -0.358 N 
ATOM     29  C   UNL A   1      33.843  19.589  24.944  1.00  0.00     0.021 A 
ATOM     30  C   UNL A   1      31.940  19.884  23.255  1.00  0.00     0.107 C 
ATOM     31  H   UNL A   1      35.208  20.119  26.441  1.00  0.00     0.166 HD
ATOM     32  C   UNL A   1      34.475  18.376  24.369  1.00  0.00     0.065 C 
ATOM     33  S   UNL A   1      32.469  18.358  22.386  1.00  0.00    -0.157 SA
ATOM     34  C   UNL A   1      33.399  17.505  23.713  1.00  0.00     0.076 C 
ENDBRANCH  19  21
ENDBRANCH  18  19
ENDBRANCH   9  11
ENDBRANCH   8   9
ENDBRANCH   7   8
ENDBRANCH   6   7
ENDBRANCH   5   6
ENDBRANCH   4   5
ENDBRANCH   3   4
ENDBRANCH   2   3
ENDBRANCH   1   2
BRANCH   1  35
ATOM     35  C   UNL A   1      37.529  20.591  24.789  1.00  0.00     0.188 C 
BRANCH  35  36
ATOM     36  O   UNL A   1      38.364  20.544  25.950  1.00  0.00    -0.376 OA
BRANCH  36  37
ATOM     37  C   UNL A   1      39.713  20.993  25.795  1.00  0.00     0.202 C 
BRANCH  37  38
ATOM     38  C   UNL A   1      40.790  19.945  26.109  1.00  0.00     0.261 C 
BRANCH  38  39
ATOM     39  O   UNL A   1      41.834  20.522  26.906  1.00  0.00    -0.460 OA
BRANCH  39  40
ATOM     40  C   UNL A   1      42.659  21.394  26.275  1.00  0.00     0.338 C 
ATOM     41  O   UNL A   1      43.281  21.206  25.244  1.00  0.00    -0.246 OA
BRANCH  40  42
ATOM     42  C   UNL A   1      42.442  22.720  26.894  1.00  0.00     0.060 A 
ATOM     43  C   UNL A   1      41.156  23.222  27.105  1.00  0.00     0.016 A 
ATOM     44  C   UNL A   1      43.569  23.532  27.100  1.00  0.00     0.016 A 
ATOM     45  C   UNL A   1      41.005  24.546  27.502  1.00  0.00     0.010 A 
ATOM     46  C   UNL A   1      43.412  24.864  27.481  1.00  0.00     0.010 A 
ATOM     47  C   UNL A   1      42.130  25.373  27.686  1.00  0.00    -0.014 A 
BRANCH  47  48
ATOM     48  C   UNL A   1      41.901  26.667  28.337  1.00  0.00     0.031 A 
ATOM     49  C   UNL A   1      43.023  27.632  28.141  1.00  0.00     0.074 A 
ATOM     50  C   UNL A   1      40.779  27.132  28.922  1.00  0.00     0.049 A 
ATOM     51  N   UNL A   1      43.817  28.136  29.028  1.00  0.00    -0.248 NA
ATOM     52  C   UNL A   1      43.349  28.001  26.755  1.00  0.00     0.031 C 
ATOM     53  C   UNL A   1      39.436  26.555  28.918  1.00  0.00     0.029 A 
ATOM     54  N   UNL A   1      40.611  28.314  29.595  1.00  0.00    -0.354 N 
ATOM     55  C   UNL A   1      44.639  29.024  28.338  1.00  0.00     0.074 A 
ATOM     56  C   UNL A   1      44.394  28.807  26.936  1.00  0.00     0.031 C 
ATOM     57  C   UNL A   1      38.560  27.473  29.391  1.00  0.00     0.029 A 
ATOM     58  C   UNL A   1      39.288  28.649  29.847  1.00  0.00     0.049 A 
ATOM     59  H   UNL A   1      41.367  28.878  29.878  1.00  0.00     0.167 HD
ATOM     60  C   UNL A   1      45.347  30.003  28.964  1.00  0.00     0.037 A 
ATOM     61  C   UNL A   1      38.831  29.828  30.339  1.00  0.00     0.037 A 
ATOM     62  C   UNL A   1      45.449  29.782  30.380  1.00  0.00     0.049 A 
ATOM     63  C   UNL A   1      39.955  30.502  31.036  1.00  0.00     0.074 A 
ATOM     64  C   UNL A   1      45.984  28.794  31.182  1.00  0.00     0.029 A 
ATOM     65  N   UNL A   1      44.668  30.551  31.205  1.00  0.00    -0.354 N 
ATOM     66  N   UNL A   1      40.500  30.088  32.147  1.00  0.00    -0.248 NA
ATOM     67  C   UNL A   1      40.698  31.535  30.329  1.00  0.00     0.031 C 
ATOM     68  C   UNL A   1      45.154  28.754  32.340  1.00  0.00     0.029 A 
ATOM     69  C   UNL A   1      44.164  29.724  32.176  1.00  0.00     0.049 A 
ATOM     70  H   UNL A   1      44.501  31.518  31.117  1.00  0.00     0.167 HD
ATOM     71  C   UNL A   1      41.817  30.508  32.076  1.00  0.00     0.074 A 
ATOM     72  C   UNL A   1      41.841  31.503  31.014  1.00  0.00     0.031 C 
ATOM     73  C   UNL A   1      42.815  29.814  32.696  1.00  0.00     0.037 A 
BRANCH  60  74
ATOM     74  C   UNL A   1      45.689  31.330  28.330  1.00  0.00     0.058 A 
ATOM     75  C   UNL A   1      44.659  32.232  27.996  1.00  0.00     0.135 A 
ATOM     76  C   UNL A   1      46.961  31.625  27.793  1.00  0.00     0.135 A 
ATOM     77  F   UNL A   1      43.407  32.035  28.439  1.00  0.00    -0.206 F 
ATOM     78  C   UNL A   1      44.865  33.314  27.140  1.00  0.00     0.059 A 
ATOM     79  C   UNL A   1      47.201  32.730  26.983  1.00  0.00     0.059 A 
ATOM     80  F   UNL A   1      48.004  30.799  27.946  1.00  0.00    -0.206 F 
ATOM     81  C   UNL A   1      46.139  33.543  26.625  1.00  0.00     0.060 A 
BRANCH  81  82
ATOM     82  S   UNL A   1      46.379  34.859  25.418  1.00  0.00     0.124 S 
ATOM     83  O   UNL A   1      45.432  34.472  24.379  1.00  0.00    -0.237 OA
ATOM     84  O   UNL A   1      46.034  36.048  26.189  1.00  0.00    -0.237 OA
ATOM     85  O   UNL A   1      47.791  34.735  25.066  1.00  0.00    -0.744 OA
ENDBRANCH  81  82
ENDBRANCH  60  74
BRANCH  61  86
ATOM     86  C   UNL A   1      37.560  30.545  30.048  1.00  0.00     0.058 A 
ATOM     87  C   UNL A   1      36.828  31.173  31.075  1.00  0.00     0.135 A 
ATOM     88  C   UNL A   1      37.193  30.885  28.731  1.00  0.00     0.135 A 
ATOM     89  F   UNL A   1      37.116  30.925  32.361  1.00  0.00    -0.206 F 
ATOM     90  C   UNL A   1      35.839  32.128  30.813  1.00  0.00     0.059 A 
ATOM     91  C   UNL A   1      36.200  31.821  28.446  1.00  0.00     0.059 A 
ATOM     92  F   UNL A   1      37.857  30.388  27.678  1.00  0.00    -0.206 F 
ATOM     93  C   UNL A   1      35.550  32.464  29.493  1.00  0.00     0.060 A 
BRANCH  93  94
ATOM     94  S   UNL A   1      34.416  33.831  29.154  1.00  0.00     0.124 S 
ATOM     95  O   UNL A   1      33.784  34.027  30.454  1.00  0.00    -0.237 OA
ATOM     96  O   UNL A   1      35.328  34.884  28.721  1.00  0.00    -0.237 OA
ATOM     97  O   UNL A   1      33.545  33.297  28.110  1.00  0.00    -0.744 OA
ENDBRANCH  93  94
ENDBRANCH  61  86
BRANCH  73  98
ATOM     98  C   UNL A   1      42.444  28.862  33.801  1.00  0.00     0.058 A 
ATOM     99  C   UNL A   1      42.293  27.475  33.635  1.00  0.00     0.135 A 
ATOM    100  C   UNL A   1      42.385  29.364  35.112  1.00  0.00     0.135 A 
ATOM    101  F   UNL A   1      42.440  26.899  32.433  1.00  0.00    -0.206 F 
ATOM    102  C   UNL A   1      42.067  26.629  34.723  1.00  0.00     0.059 A 
ATOM    103  C   UNL A   1      42.197  28.533  36.215  1.00  0.00     0.059 A 
ATOM    104  F   UNL A   1      42.576  30.674  35.340  1.00  0.00    -0.206 F 
ATOM    105  C   UNL A   1      42.036  27.165  36.010  1.00  0.00     0.060 A 
BRANCH 105 106
ATOM    106  S   UNL A   1      41.921  26.031  37.416  1.00  0.00     0.124 S 
ATOM    107  O   UNL A   1      40.558  26.257  37.888  1.00  0.00    -0.237 OA
ATOM    108  O   UNL A   1      42.166  24.741  36.775  1.00  0.00    -0.237 OA
ATOM    109  O   UNL A   1      42.979  26.495  38.308  1.00  0.00    -0.744 OA
ENDBRANCH 105 106
ENDBRANCH  73  98
ENDBRANCH  47  48
ENDBRANCH  40  42
ENDBRANCH  39  40
ENDBRANCH  38  39
ENDBRANCH  37  38
ENDBRANCH  36  37
ENDBRANCH  35  36
ENDBRANCH   1  35
TORSDOF 25
ENDMDL
