MODEL 1
REMARK VINA RESULT:      -9.7      0.000      0.000
REMARK SMILES CC[C@H](C)c1ccccc1Oc1cccc(F)c1C(=O)OCCOCCOCCOCCOC(=O)c1ccc(-c2c3nc(c(-c4c(F)cc(S(=O)(=O)[O-])cc4F)c4ccc([nH]4)c(-c4c(F)cc(S(=O)(=O)[O-])cc4F)c4nc(c(-c5c(F)cc(S(=O)(=O)[O-])cc5F)c5ccc2[nH]5)C=C4)C=C3)cc1
REMARK SMILES IDX 26 1 25 2 24 3 23 4 22 5 21 6 19 7 20 8 18 9 12 10 13 11
REMARK SMILES IDX 14 12 16 13 15 14 17 15 11 16 10 17 5 18 6 19 7 20 9 21 8 22
REMARK SMILES IDX 3 23 4 24 2 25 1 26 27 27 28 28 29 29 30 30 31 31 32 32
REMARK SMILES IDX 33 33 34 34 35 35 36 36 37 37 101 38 38 39 100 40 39 41
REMARK SMILES IDX 40 42 41 43 94 44 42 45 99 46 93 47 95 48 43 49 98 50 92 51
REMARK SMILES IDX 91 52 44 54 78 55 57 56 77 57 58 58 61 59 76 60 96 61 59 62
REMARK SMILES IDX 60 63 75 65 97 66 62 67 45 68 46 69 55 70 47 71 48 72 54 73
REMARK SMILES IDX 56 74 49 75 50 76 51 77 52 78 53 79 79 80 80 81 89 82 81 83
REMARK SMILES IDX 82 84 88 85 90 86 83 87 84 88 85 89 86 90 87 91 63 92 64 93
REMARK SMILES IDX 73 94 65 95 66 96 72 97 74 98 67 99 68 100 69 101 70 102
REMARK SMILES IDX 71 103
REMARK H PARENT 95 53 61 64
REMARK Flexibility Score: inf
ROOT
ATOM      1  C   UNL A   1      33.615  33.593  28.192  1.00  0.00     0.188 C 
ENDROOT
BRANCH   1   2
ATOM      2  C   UNL A   1      33.107  32.297  27.520  1.00  0.00     0.188 C 
BRANCH   2   3
ATOM      3  O   UNL A   1      33.714  31.064  27.850  1.00  0.00    -0.376 OA
BRANCH   3   4
ATOM      4  C   UNL A   1      33.491  29.857  27.138  1.00  0.00     0.202 C 
BRANCH   4   5
ATOM      5  C   UNL A   1      32.740  29.706  25.808  1.00  0.00     0.261 C 
BRANCH   5   6
ATOM      6  O   UNL A   1      33.214  28.697  24.929  1.00  0.00    -0.459 OA
BRANCH   6   7
ATOM      7  C   UNL A   1      32.633  28.668  23.716  1.00  0.00     0.345 C 
ATOM      8  O   UNL A   1      33.101  29.123  22.683  1.00  0.00    -0.246 OA
BRANCH   7   9
ATOM      9  C   UNL A   1      31.376  27.887  23.772  1.00  0.00     0.138 A 
ATOM     10  C   UNL A   1      31.248  26.576  24.250  1.00  0.00     0.144 A 
ATOM     11  C   UNL A   1      29.978  25.966  24.233  1.00  0.00     0.048 A 
ATOM     12  C   UNL A   1      28.840  26.663  23.833  1.00  0.00     0.007 A 
ATOM     13  C   UNL A   1      30.218  28.577  23.381  1.00  0.00     0.141 A 
ATOM     14  C   UNL A   1      28.961  27.981  23.416  1.00  0.00     0.040 A 
ATOM     15  F   UNL A   1      30.288  29.836  22.922  1.00  0.00    -0.206 F 
BRANCH  10  16
ATOM     16  O   UNL A   1      32.198  25.735  24.772  1.00  0.00    -0.456 OA
BRANCH  16  17
ATOM     17  C   UNL A   1      32.441  24.463  24.314  1.00  0.00     0.130 A 
ATOM     18  C   UNL A   1      32.357  23.251  25.040  1.00  0.00    -0.002 A 
ATOM     19  C   UNL A   1      32.715  22.078  24.342  1.00  0.00     0.008 A 
ATOM     20  C   UNL A   1      33.067  22.096  22.985  1.00  0.00     0.001 A 
ATOM     21  C   UNL A   1      32.735  24.461  22.936  1.00  0.00     0.047 A 
ATOM     22  C   UNL A   1      33.048  23.284  22.272  1.00  0.00     0.004 A 
BRANCH  18  23
ATOM     23  C   UNL A   1      31.963  23.181  26.518  1.00  0.00     0.019 C 
ATOM     24  C   UNL A   1      30.450  23.153  26.761  1.00  0.00     0.013 C 
BRANCH  23  25
ATOM     25  C   UNL A   1      32.728  22.191  27.421  1.00  0.00     0.005 C 
ATOM     26  C   UNL A   1      34.166  22.647  27.673  1.00  0.00     0.004 C 
ENDBRANCH  23  25
ENDBRANCH  18  23
ENDBRANCH  16  17
ENDBRANCH  10  16
ENDBRANCH   7   9
ENDBRANCH   6   7
ENDBRANCH   5   6
ENDBRANCH   4   5
ENDBRANCH   3   4
ENDBRANCH   2   3
ENDBRANCH   1   2
BRANCH   1  27
ATOM     27  O   UNL A   1      32.718  34.264  29.048  1.00  0.00    -0.377 OA
BRANCH  27  28
ATOM     28  C   UNL A   1      33.113  35.489  29.646  1.00  0.00     0.188 C 
BRANCH  28  29
ATOM     29  C   UNL A   1      32.826  35.796  31.134  1.00  0.00     0.188 C 
BRANCH  29  30
ATOM     30  O   UNL A   1      33.908  36.341  31.868  1.00  0.00    -0.376 OA
BRANCH  30  31
ATOM     31  C   UNL A   1      34.193  35.855  33.166  1.00  0.00     0.202 C 
BRANCH  31  32
ATOM     32  C   UNL A   1      34.996  34.551  33.303  1.00  0.00     0.261 C 
BRANCH  32  33
ATOM     33  O   UNL A   1      35.585  34.040  32.102  1.00  0.00    -0.460 OA
BRANCH  33  34
ATOM     34  C   UNL A   1      35.169  32.827  31.680  1.00  0.00     0.338 C 
ATOM     35  O   UNL A   1      34.015  32.450  31.551  1.00  0.00    -0.246 OA
BRANCH  34  36
ATOM     36  C   UNL A   1      36.356  32.091  31.205  1.00  0.00     0.060 A 
ATOM     37  C   UNL A   1      37.083  31.310  32.113  1.00  0.00     0.016 A 
ATOM     38  C   UNL A   1      36.736  32.158  29.862  1.00  0.00     0.016 A 
ATOM     39  C   UNL A   1      38.219  30.626  31.690  1.00  0.00     0.010 A 
ATOM     40  C   UNL A   1      37.892  31.496  29.446  1.00  0.00     0.010 A 
ATOM     41  C   UNL A   1      38.659  30.763  30.369  1.00  0.00    -0.014 A 
BRANCH  41  42
ATOM     42  C   UNL A   1      40.037  30.353  30.015  1.00  0.00     0.031 A 
ATOM     43  C   UNL A   1      41.128  31.381  30.147  1.00  0.00     0.074 A 
ATOM     44  C   UNL A   1      40.321  29.101  29.619  1.00  0.00     0.049 A 
ATOM     45  N   UNL A   1      42.396  31.293  29.846  1.00  0.00    -0.248 NA
ATOM     46  C   UNL A   1      40.727  32.691  30.689  1.00  0.00     0.031 C 
ATOM     47  C   UNL A   1      39.359  28.007  29.513  1.00  0.00     0.029 A 
ATOM     48  N   UNL A   1      41.512  28.545  29.224  1.00  0.00    -0.354 N 
ATOM     49  C   UNL A   1      42.943  32.533  30.157  1.00  0.00     0.074 A 
ATOM     50  C   UNL A   1      41.864  33.367  30.633  1.00  0.00     0.031 C 
ATOM     51  C   UNL A   1      39.997  26.908  29.068  1.00  0.00     0.029 A 
ATOM     52  C   UNL A   1      41.402  27.234  28.824  1.00  0.00     0.049 A 
ATOM     53  H   UNL A   1      42.364  29.037  29.226  1.00  0.00     0.167 HD
ATOM     54  C   UNL A   1      44.232  32.935  30.064  1.00  0.00     0.037 A 
ATOM     55  C   UNL A   1      42.328  26.407  28.299  1.00  0.00     0.037 A 
ATOM     56  C   UNL A   1      45.297  32.099  29.576  1.00  0.00     0.049 A 
ATOM     57  C   UNL A   1      43.739  26.908  28.111  1.00  0.00     0.074 A 
ATOM     58  C   UNL A   1      46.638  32.407  29.437  1.00  0.00     0.029 A 
ATOM     59  N   UNL A   1      45.138  30.792  29.139  1.00  0.00    -0.354 N 
ATOM     60  N   UNL A   1      44.250  28.078  28.415  1.00  0.00    -0.248 NA
ATOM     61  C   UNL A   1      44.701  25.973  27.509  1.00  0.00     0.031 C 
ATOM     62  C   UNL A   1      47.280  31.307  28.860  1.00  0.00     0.029 A 
ATOM     63  C   UNL A   1      46.353  30.287  28.703  1.00  0.00     0.049 A 
ATOM     64  H   UNL A   1      44.288  30.295  29.138  1.00  0.00     0.167 HD
ATOM     65  C   UNL A   1      45.598  28.007  28.076  1.00  0.00     0.074 A 
ATOM     66  C   UNL A   1      45.824  26.676  27.550  1.00  0.00     0.031 C 
ATOM     67  C   UNL A   1      46.562  28.954  28.192  1.00  0.00     0.037 A 
BRANCH  54  68
ATOM     68  C   UNL A   1      44.547  34.351  30.462  1.00  0.00     0.058 A 
ATOM     69  C   UNL A   1      44.921  34.687  31.774  1.00  0.00     0.135 A 
ATOM     70  C   UNL A   1      44.481  35.387  29.516  1.00  0.00     0.135 A 
ATOM     71  F   UNL A   1      44.977  33.741  32.725  1.00  0.00    -0.206 F 
ATOM     72  C   UNL A   1      45.186  36.003  32.140  1.00  0.00     0.059 A 
ATOM     73  C   UNL A   1      44.776  36.706  29.853  1.00  0.00     0.059 A 
ATOM     74  F   UNL A   1      44.124  35.125  28.249  1.00  0.00    -0.206 F 
ATOM     75  C   UNL A   1      45.110  37.005  31.172  1.00  0.00     0.060 A 
BRANCH  75  76
ATOM     76  S   UNL A   1      45.453  38.708  31.665  1.00  0.00     0.124 S 
ATOM     77  O   UNL A   1      46.167  39.210  30.496  1.00  0.00    -0.237 OA
ATOM     78  O   UNL A   1      44.113  39.248  31.869  1.00  0.00    -0.237 OA
ATOM     79  O   UNL A   1      46.257  38.557  32.873  1.00  0.00    -0.744 OA
ENDBRANCH  75  76
ENDBRANCH  54  68
BRANCH  55  80
ATOM     80  C   UNL A   1      41.954  25.020  27.909  1.00  0.00     0.058 A 
ATOM     81  C   UNL A   1      41.213  24.771  26.744  1.00  0.00     0.135 A 
ATOM     82  C   UNL A   1      42.321  23.917  28.696  1.00  0.00     0.135 A 
ATOM     83  F   UNL A   1      40.825  25.792  25.965  1.00  0.00    -0.206 F 
ATOM     84  C   UNL A   1      40.840  23.482  26.378  1.00  0.00     0.059 A 
ATOM     85  C   UNL A   1      41.985  22.615  28.336  1.00  0.00     0.059 A 
ATOM     86  F   UNL A   1      43.035  24.097  29.819  1.00  0.00    -0.206 F 
ATOM     87  C   UNL A   1      41.238  22.409  27.177  1.00  0.00     0.060 A 
BRANCH  87  88
ATOM     88  S   UNL A   1      40.794  20.736  26.660  1.00  0.00     0.124 S 
ATOM     89  O   UNL A   1      39.488  20.953  26.049  1.00  0.00    -0.237 OA
ATOM     90  O   UNL A   1      41.882  20.403  25.746  1.00  0.00    -0.237 OA
ATOM     91  O   UNL A   1      40.787  19.988  27.914  1.00  0.00    -0.744 OA
ENDBRANCH  87  88
ENDBRANCH  55  80
BRANCH  67  92
ATOM     92  C   UNL A   1      47.964  28.577  27.790  1.00  0.00     0.058 A 
ATOM     93  C   UNL A   1      48.382  28.583  26.450  1.00  0.00     0.135 A 
ATOM     94  C   UNL A   1      48.921  28.264  28.772  1.00  0.00     0.135 A 
ATOM     95  F   UNL A   1      47.510  28.870  25.471  1.00  0.00    -0.206 F 
ATOM     96  C   UNL A   1      49.690  28.265  26.095  1.00  0.00     0.059 A 
ATOM     97  C   UNL A   1      50.242  27.977  28.441  1.00  0.00     0.059 A 
ATOM     98  F   UNL A   1      48.581  28.256  30.070  1.00  0.00    -0.206 F 
ATOM     99  C   UNL A   1      50.614  27.968  27.098  1.00  0.00     0.060 A 
BRANCH  99 100
ATOM    100  S   UNL A   1      52.315  27.593  26.624  1.00  0.00     0.124 S 
ATOM    101  O   UNL A   1      52.404  26.173  26.946  1.00  0.00    -0.237 OA
ATOM    102  O   UNL A   1      52.322  27.924  25.203  1.00  0.00    -0.237 OA
ATOM    103  O   UNL A   1      53.108  28.479  27.472  1.00  0.00    -0.744 OA
ENDBRANCH  99 100
ENDBRANCH  67  92
ENDBRANCH  41  42
ENDBRANCH  34  36
ENDBRANCH  33  34
ENDBRANCH  32  33
ENDBRANCH  31  32
ENDBRANCH  30  31
ENDBRANCH  29  30
ENDBRANCH  28  29
ENDBRANCH  27  28
ENDBRANCH   1  27
TORSDOF 27
ENDMDL
MODEL 2
REMARK VINA RESULT:      -9.1      1.207      8.084
REMARK SMILES CC[C@H](C)c1ccccc1Oc1cccc(F)c1C(=O)OCCOCCOCCOCCOC(=O)c1ccc(-c2c3nc(c(-c4c(F)cc(S(=O)(=O)[O-])cc4F)c4ccc([nH]4)c(-c4c(F)cc(S(=O)(=O)[O-])cc4F)c4nc(c(-c5c(F)cc(S(=O)(=O)[O-])cc5F)c5ccc2[nH]5)C=C4)C=C3)cc1
REMARK SMILES IDX 26 1 25 2 24 3 23 4 22 5 21 6 19 7 20 8 18 9 12 10 13 11
REMARK SMILES IDX 14 12 16 13 15 14 17 15 11 16 10 17 5 18 6 19 7 20 9 21 8 22
REMARK SMILES IDX 3 23 4 24 2 25 1 26 27 27 28 28 29 29 30 30 31 31 32 32
REMARK SMILES IDX 33 33 34 34 35 35 36 36 37 37 101 38 38 39 100 40 39 41
REMARK SMILES IDX 40 42 41 43 94 44 42 45 99 46 93 47 95 48 43 49 98 50 92 51
REMARK SMILES IDX 91 52 44 54 78 55 57 56 77 57 58 58 61 59 76 60 96 61 59 62
REMARK SMILES IDX 60 63 75 65 97 66 62 67 45 68 46 69 55 70 47 71 48 72 54 73
REMARK SMILES IDX 56 74 49 75 50 76 51 77 52 78 53 79 79 80 80 81 89 82 81 83
REMARK SMILES IDX 82 84 88 85 90 86 83 87 84 88 85 89 86 90 87 91 63 92 64 93
REMARK SMILES IDX 73 94 65 95 66 96 72 97 74 98 67 99 68 100 69 101 70 102
REMARK SMILES IDX 71 103
REMARK H PARENT 95 53 61 64
REMARK Flexibility Score: inf
ROOT
ATOM      1  C   UNL A   1      33.839  33.642  27.949  1.00  0.00     0.188 C 
ENDROOT
BRANCH   1   2
ATOM      2  C   UNL A   1      33.800  32.160  27.510  1.00  0.00     0.188 C 
BRANCH   2   3
ATOM      3  O   UNL A   1      34.824  31.286  27.938  1.00  0.00    -0.376 OA
BRANCH   3   4
ATOM      4  C   UNL A   1      34.848  29.896  27.652  1.00  0.00     0.202 C 
BRANCH   4   5
ATOM      5  C   UNL A   1      33.641  28.949  27.622  1.00  0.00     0.261 C 
BRANCH   5   6
ATOM      6  O   UNL A   1      33.442  28.223  26.418  1.00  0.00    -0.459 OA
BRANCH   6   7
ATOM      7  C   UNL A   1      32.274  27.560  26.329  1.00  0.00     0.345 C 
ATOM      8  O   UNL A   1      31.443  27.445  27.217  1.00  0.00    -0.246 OA
BRANCH   7   9
ATOM      9  C   UNL A   1      32.067  27.078  24.944  1.00  0.00     0.138 A 
ATOM     10  C   UNL A   1      32.191  25.751  24.512  1.00  0.00     0.144 A 
ATOM     11  C   UNL A   1      31.966  25.452  23.154  1.00  0.00     0.048 A 
ATOM     12  C   UNL A   1      31.542  26.428  22.254  1.00  0.00     0.007 A 
ATOM     13  C   UNL A   1      31.632  28.046  24.026  1.00  0.00     0.141 A 
ATOM     14  C   UNL A   1      31.363  27.730  22.698  1.00  0.00     0.040 A 
ATOM     15  F   UNL A   1      31.491  29.330  24.393  1.00  0.00    -0.206 F 
BRANCH  10  16
ATOM     16  O   UNL A   1      32.503  24.621  25.226  1.00  0.00    -0.456 OA
BRANCH  16  17
ATOM     17  C   UNL A   1      33.644  23.878  25.039  1.00  0.00     0.130 A 
ATOM     18  C   UNL A   1      33.742  22.545  24.573  1.00  0.00    -0.002 A 
ATOM     19  C   UNL A   1      35.040  21.994  24.525  1.00  0.00     0.008 A 
ATOM     20  C   UNL A   1      36.180  22.742  24.851  1.00  0.00     0.001 A 
ATOM     21  C   UNL A   1      34.800  24.639  25.304  1.00  0.00     0.047 A 
ATOM     22  C   UNL A   1      36.065  24.075  25.212  1.00  0.00     0.004 A 
BRANCH  18  23
ATOM     23  C   UNL A   1      32.527  21.696  24.191  1.00  0.00     0.019 C 
ATOM     24  C   UNL A   1      32.108  21.828  22.723  1.00  0.00     0.013 C 
BRANCH  23  25
ATOM     25  C   UNL A   1      32.483  20.237  24.693  1.00  0.00     0.005 C 
ATOM     26  C   UNL A   1      32.512  19.238  23.536  1.00  0.00     0.004 C 
ENDBRANCH  23  25
ENDBRANCH  18  23
ENDBRANCH  16  17
ENDBRANCH  10  16
ENDBRANCH   7   9
ENDBRANCH   6   7
ENDBRANCH   5   6
ENDBRANCH   4   5
ENDBRANCH   3   4
ENDBRANCH   2   3
ENDBRANCH   1   2
BRANCH   1  27
ATOM     27  O   UNL A   1      33.203  33.965  29.166  1.00  0.00    -0.377 OA
BRANCH  27  28
ATOM     28  C   UNL A   1      33.189  35.315  29.604  1.00  0.00     0.188 C 
BRANCH  28  29
ATOM     29  C   UNL A   1      32.863  35.690  31.068  1.00  0.00     0.188 C 
BRANCH  29  30
ATOM     30  O   UNL A   1      33.901  36.342  31.781  1.00  0.00    -0.376 OA
BRANCH  30  31
ATOM     31  C   UNL A   1      34.237  35.908  33.086  1.00  0.00     0.202 C 
BRANCH  31  32
ATOM     32  C   UNL A   1      34.972  34.567  33.248  1.00  0.00     0.261 C 
BRANCH  32  33
ATOM     33  O   UNL A   1      35.687  34.093  32.101  1.00  0.00    -0.460 OA
BRANCH  33  34
ATOM     34  C   UNL A   1      35.422  32.835  31.689  1.00  0.00     0.338 C 
ATOM     35  O   UNL A   1      34.323  32.318  31.566  1.00  0.00    -0.246 OA
BRANCH  34  36
ATOM     36  C   UNL A   1      36.690  32.248  31.214  1.00  0.00     0.060 A 
ATOM     37  C   UNL A   1      37.490  31.534  32.115  1.00  0.00     0.016 A 
ATOM     38  C   UNL A   1      37.074  32.387  29.878  1.00  0.00     0.016 A 
ATOM     39  C   UNL A   1      38.701  30.991  31.693  1.00  0.00     0.010 A 
ATOM     40  C   UNL A   1      38.302  31.869  29.463  1.00  0.00     0.010 A 
ATOM     41  C   UNL A   1      39.137  31.206  30.380  1.00  0.00    -0.014 A 
BRANCH  41  42
ATOM     42  C   UNL A   1      40.556  30.962  30.037  1.00  0.00     0.031 A 
ATOM     43  C   UNL A   1      40.923  29.603  29.505  1.00  0.00     0.074 A 
ATOM     44  C   UNL A   1      41.488  31.922  30.163  1.00  0.00     0.049 A 
ATOM     45  N   UNL A   1      42.095  29.121  29.190  1.00  0.00    -0.248 NA
ATOM     46  C   UNL A   1      39.810  28.659  29.307  1.00  0.00     0.031 C 
ATOM     47  C   UNL A   1      41.240  33.291  30.609  1.00  0.00     0.029 A 
ATOM     48  N   UNL A   1      42.840  31.881  29.930  1.00  0.00    -0.354 N 
ATOM     49  C   UNL A   1      41.863  27.818  28.762  1.00  0.00     0.074 A 
ATOM     50  C   UNL A   1      40.445  27.573  28.893  1.00  0.00     0.031 C 
ATOM     51  C   UNL A   1      42.408  33.960  30.629  1.00  0.00     0.029 A 
ATOM     52  C   UNL A   1      43.487  33.055  30.234  1.00  0.00     0.049 A 
ATOM     53  H   UNL A   1      43.303  31.087  29.580  1.00  0.00     0.167 HD
ATOM     54  C   UNL A   1      42.752  26.913  28.290  1.00  0.00     0.037 A 
ATOM     55  C   UNL A   1      44.802  33.351  30.215  1.00  0.00     0.037 A 
ATOM     56  C   UNL A   1      44.163  27.164  28.175  1.00  0.00     0.049 A 
ATOM     57  C   UNL A   1      45.787  32.294  29.781  1.00  0.00     0.074 A 
ATOM     58  C   UNL A   1      45.154  26.316  27.714  1.00  0.00     0.029 A 
ATOM     59  N   UNL A   1      44.787  28.351  28.534  1.00  0.00    -0.354 N 
ATOM     60  N   UNL A   1      45.559  31.068  29.370  1.00  0.00    -0.248 NA
ATOM     61  C   UNL A   1      47.210  32.661  29.807  1.00  0.00     0.031 C 
ATOM     62  C   UNL A   1      46.384  26.967  27.850  1.00  0.00     0.029 A 
ATOM     63  C   UNL A   1      46.154  28.248  28.331  1.00  0.00     0.049 A 
ATOM     64  H   UNL A   1      44.327  29.149  28.882  1.00  0.00     0.167 HD
ATOM     65  C   UNL A   1      46.804  30.532  29.054  1.00  0.00     0.074 A 
ATOM     66  C   UNL A   1      47.781  31.569  29.314  1.00  0.00     0.031 C 
ATOM     67  C   UNL A   1      47.112  29.296  28.586  1.00  0.00     0.037 A 
BRANCH  54  68
ATOM     68  C   UNL A   1      42.222  25.558  27.904  1.00  0.00     0.058 A 
ATOM     69  C   UNL A   1      41.560  25.342  26.683  1.00  0.00     0.135 A 
ATOM     70  C   UNL A   1      42.386  24.460  28.762  1.00  0.00     0.135 A 
ATOM     71  F   UNL A   1      41.355  26.361  25.834  1.00  0.00    -0.206 F 
ATOM     72  C   UNL A   1      41.052  24.092  26.344  1.00  0.00     0.059 A 
ATOM     73  C   UNL A   1      41.915  23.193  28.428  1.00  0.00     0.059 A 
ATOM     74  F   UNL A   1      43.006  24.610  29.943  1.00  0.00    -0.206 F 
ATOM     75  C   UNL A   1      41.234  23.024  27.224  1.00  0.00     0.060 A 
BRANCH  75  76
ATOM     76  S   UNL A   1      40.564  21.410  26.770  1.00  0.00     0.124 S 
ATOM     77  O   UNL A   1      40.802  20.644  27.989  1.00  0.00    -0.237 OA
ATOM     78  O   UNL A   1      39.168  21.724  26.481  1.00  0.00    -0.237 OA
ATOM     79  O   UNL A   1      41.367  21.019  25.617  1.00  0.00    -0.744 OA
ENDBRANCH  75  76
ENDBRANCH  54  68
BRANCH  55  80
ATOM     80  C   UNL A   1      45.268  34.704  30.624  1.00  0.00     0.058 A 
ATOM     81  C   UNL A   1      45.606  34.981  31.957  1.00  0.00     0.135 A 
ATOM     82  C   UNL A   1      45.379  35.749  29.693  1.00  0.00     0.135 A 
ATOM     83  F   UNL A   1      45.504  34.021  32.888  1.00  0.00    -0.206 F 
ATOM     84  C   UNL A   1      46.024  36.246  32.356  1.00  0.00     0.059 A 
ATOM     85  C   UNL A   1      45.823  37.015  30.062  1.00  0.00     0.059 A 
ATOM     86  F   UNL A   1      45.073  35.538  28.403  1.00  0.00    -0.206 F 
ATOM     87  C   UNL A   1      46.137  37.256  31.399  1.00  0.00     0.060 A 
BRANCH  87  88
ATOM     88  S   UNL A   1      46.734  38.878  31.922  1.00  0.00     0.124 S 
ATOM     89  O   UNL A   1      47.702  39.187  30.875  1.00  0.00    -0.237 OA
ATOM     90  O   UNL A   1      45.507  39.669  31.915  1.00  0.00    -0.237 OA
ATOM     91  O   UNL A   1      47.296  38.618  33.244  1.00  0.00    -0.744 OA
ENDBRANCH  87  88
ENDBRANCH  55  80
BRANCH  67  92
ATOM     92  C   UNL A   1      48.557  29.006  28.277  1.00  0.00     0.058 A 
ATOM     93  C   UNL A   1      49.436  28.488  29.242  1.00  0.00     0.135 A 
ATOM     94  C   UNL A   1      49.053  29.192  26.975  1.00  0.00     0.135 A 
ATOM     95  F   UNL A   1      49.017  28.294  30.503  1.00  0.00    -0.206 F 
ATOM     96  C   UNL A   1      50.761  28.193  28.936  1.00  0.00     0.059 A 
ATOM     97  C   UNL A   1      50.365  28.871  26.638  1.00  0.00     0.059 A 
ATOM     98  F   UNL A   1      48.254  29.672  26.009  1.00  0.00    -0.206 F 
ATOM     99  C   UNL A   1      51.215  28.383  27.629  1.00  0.00     0.060 A 
BRANCH  99 100
ATOM    100  S   UNL A   1      52.926  27.961  27.238  1.00  0.00     0.124 S 
ATOM    101  O   UNL A   1      53.013  28.351  25.835  1.00  0.00    -0.237 OA
ATOM    102  O   UNL A   1      53.674  28.792  28.175  1.00  0.00    -0.237 OA
ATOM    103  O   UNL A   1      52.989  26.525  27.494  1.00  0.00    -0.744 OA
ENDBRANCH  99 100
ENDBRANCH  67  92
ENDBRANCH  41  42
ENDBRANCH  34  36
ENDBRANCH  33  34
ENDBRANCH  32  33
ENDBRANCH  31  32
ENDBRANCH  30  31
ENDBRANCH  29  30
ENDBRANCH  28  29
ENDBRANCH  27  28
ENDBRANCH   1  27
TORSDOF 27
ENDMDL
MODEL 3
REMARK VINA RESULT:      -8.5      1.822      2.428
REMARK SMILES CC[C@H](C)c1ccccc1Oc1cccc(F)c1C(=O)OCCOCCOCCOCCOC(=O)c1ccc(-c2c3nc(c(-c4c(F)cc(S(=O)(=O)[O-])cc4F)c4ccc([nH]4)c(-c4c(F)cc(S(=O)(=O)[O-])cc4F)c4nc(c(-c5c(F)cc(S(=O)(=O)[O-])cc5F)c5ccc2[nH]5)C=C4)C=C3)cc1
REMARK SMILES IDX 26 1 25 2 24 3 23 4 22 5 21 6 19 7 20 8 18 9 12 10 13 11
REMARK SMILES IDX 14 12 16 13 15 14 17 15 11 16 10 17 5 18 6 19 7 20 9 21 8 22
REMARK SMILES IDX 3 23 4 24 2 25 1 26 27 27 28 28 29 29 30 30 31 31 32 32
REMARK SMILES IDX 33 33 34 34 35 35 36 36 37 37 101 38 38 39 100 40 39 41
REMARK SMILES IDX 40 42 41 43 94 44 42 45 99 46 93 47 95 48 43 49 98 50 92 51
REMARK SMILES IDX 91 52 44 54 78 55 57 56 77 57 58 58 61 59 76 60 96 61 59 62
REMARK SMILES IDX 60 63 75 65 97 66 62 67 45 68 46 69 55 70 47 71 48 72 54 73
REMARK SMILES IDX 56 74 49 75 50 76 51 77 52 78 53 79 79 80 80 81 89 82 81 83
REMARK SMILES IDX 82 84 88 85 90 86 83 87 84 88 85 89 86 90 87 91 63 92 64 93
REMARK SMILES IDX 73 94 65 95 66 96 72 97 74 98 67 99 68 100 69 101 70 102
REMARK SMILES IDX 71 103
REMARK H PARENT 95 53 61 64
REMARK Flexibility Score: inf
ROOT
ATOM      1  C   UNL A   1      34.456  33.179  28.059  1.00  0.00     0.188 C 
ENDROOT
BRANCH   1   2
ATOM      2  C   UNL A   1      34.330  31.656  28.292  1.00  0.00     0.188 C 
BRANCH   2   3
ATOM      3  O   UNL A   1      33.575  30.879  27.384  1.00  0.00    -0.376 OA
BRANCH   3   4
ATOM      4  C   UNL A   1      33.727  29.476  27.228  1.00  0.00     0.202 C 
BRANCH   4   5
ATOM      5  C   UNL A   1      32.732  28.519  26.559  1.00  0.00     0.261 C 
BRANCH   5   6
ATOM      6  O   UNL A   1      33.285  27.363  25.946  1.00  0.00    -0.459 OA
BRANCH   6   7
ATOM      7  C   UNL A   1      32.409  26.381  25.668  1.00  0.00     0.345 C 
ATOM      8  O   UNL A   1      31.809  25.700  26.484  1.00  0.00    -0.246 OA
BRANCH   7   9
ATOM      9  C   UNL A   1      32.170  26.312  24.208  1.00  0.00     0.138 A 
ATOM     10  C   UNL A   1      32.803  25.437  23.315  1.00  0.00     0.144 A 
ATOM     11  C   UNL A   1      32.469  25.499  21.948  1.00  0.00     0.048 A 
ATOM     12  C   UNL A   1      31.468  26.347  21.480  1.00  0.00     0.007 A 
ATOM     13  C   UNL A   1      31.159  27.154  23.721  1.00  0.00     0.141 A 
ATOM     14  C   UNL A   1      30.801  27.170  22.376  1.00  0.00     0.040 A 
ATOM     15  F   UNL A   1      30.518  28.005  24.537  1.00  0.00    -0.206 F 
BRANCH  10  16
ATOM     16  O   UNL A   1      33.742  24.465  23.555  1.00  0.00    -0.456 OA
BRANCH  16  17
ATOM     17  C   UNL A   1      33.458  23.126  23.676  1.00  0.00     0.130 A 
ATOM     18  C   UNL A   1      33.910  22.232  24.676  1.00  0.00    -0.002 A 
ATOM     19  C   UNL A   1      33.513  20.886  24.536  1.00  0.00     0.008 A 
ATOM     20  C   UNL A   1      32.659  20.463  23.507  1.00  0.00     0.001 A 
ATOM     21  C   UNL A   1      32.551  22.703  22.684  1.00  0.00     0.047 A 
ATOM     22  C   UNL A   1      32.153  21.377  22.596  1.00  0.00     0.004 A 
BRANCH  18  23
ATOM     23  C   UNL A   1      34.829  22.652  25.826  1.00  0.00     0.019 C 
ATOM     24  C   UNL A   1      36.087  23.405  25.379  1.00  0.00     0.013 C 
BRANCH  23  25
ATOM     25  C   UNL A   1      34.176  23.277  27.077  1.00  0.00     0.005 C 
ATOM     26  C   UNL A   1      33.591  22.211  28.004  1.00  0.00     0.004 C 
ENDBRANCH  23  25
ENDBRANCH  18  23
ENDBRANCH  16  17
ENDBRANCH  10  16
ENDBRANCH   7   9
ENDBRANCH   6   7
ENDBRANCH   5   6
ENDBRANCH   4   5
ENDBRANCH   3   4
ENDBRANCH   2   3
ENDBRANCH   1   2
BRANCH   1  27
ATOM     27  O   UNL A   1      33.257  33.919  28.007  1.00  0.00    -0.377 OA
BRANCH  27  28
ATOM     28  C   UNL A   1      33.188  35.176  28.664  1.00  0.00     0.188 C 
BRANCH  28  29
ATOM     29  C   UNL A   1      32.919  35.286  30.182  1.00  0.00     0.188 C 
BRANCH  29  30
ATOM     30  O   UNL A   1      34.037  35.633  30.980  1.00  0.00    -0.376 OA
BRANCH  30  31
ATOM     31  C   UNL A   1      33.887  35.762  32.382  1.00  0.00     0.202 C 
BRANCH  31  32
ATOM     32  C   UNL A   1      34.343  34.600  33.279  1.00  0.00     0.261 C 
BRANCH  32  33
ATOM     33  O   UNL A   1      35.487  33.863  32.831  1.00  0.00    -0.460 OA
BRANCH  33  34
ATOM     34  C   UNL A   1      35.256  32.777  32.063  1.00  0.00     0.338 C 
ATOM     35  O   UNL A   1      34.170  32.328  31.734  1.00  0.00    -0.246 OA
BRANCH  34  36
ATOM     36  C   UNL A   1      36.554  32.336  31.516  1.00  0.00     0.060 A 
ATOM     37  C   UNL A   1      37.392  31.541  32.309  1.00  0.00     0.016 A 
ATOM     38  C   UNL A   1      36.929  32.692  30.219  1.00  0.00     0.016 A 
ATOM     39  C   UNL A   1      38.631  31.133  31.820  1.00  0.00     0.010 A 
ATOM     40  C   UNL A   1      38.183  32.309  29.741  1.00  0.00     0.010 A 
ATOM     41  C   UNL A   1      39.054  31.563  30.557  1.00  0.00    -0.014 A 
BRANCH  41  42
ATOM     42  C   UNL A   1      40.484  31.450  30.193  1.00  0.00     0.031 A 
ATOM     43  C   UNL A   1      41.377  32.623  30.490  1.00  0.00     0.074 A 
ATOM     44  C   UNL A   1      40.985  30.331  29.642  1.00  0.00     0.049 A 
ATOM     45  N   UNL A   1      42.642  32.798  30.217  1.00  0.00    -0.248 NA
ATOM     46  C   UNL A   1      40.750  33.759  31.190  1.00  0.00     0.031 C 
ATOM     47  C   UNL A   1      40.230  29.112  29.364  1.00  0.00     0.029 A 
ATOM     48  N   UNL A   1      42.257  30.048  29.211  1.00  0.00    -0.354 N 
ATOM     49  C   UNL A   1      42.962  34.060  30.706  1.00  0.00     0.074 A 
ATOM     50  C   UNL A   1      41.751  34.623  31.257  1.00  0.00     0.031 C 
ATOM     51  C   UNL A   1      41.053  28.211  28.796  1.00  0.00     0.029 A 
ATOM     52  C   UNL A   1      42.381  28.805  28.638  1.00  0.00     0.049 A 
ATOM     53  H   UNL A   1      43.009  30.675  29.303  1.00  0.00     0.167 HD
ATOM     54  C   UNL A   1      44.161  34.688  30.704  1.00  0.00     0.037 A 
ATOM     55  C   UNL A   1      43.440  28.229  28.035  1.00  0.00     0.037 A 
ATOM     56  C   UNL A   1      45.358  34.122  30.141  1.00  0.00     0.049 A 
ATOM     57  C   UNL A   1      44.742  28.987  27.956  1.00  0.00     0.074 A 
ATOM     58  C   UNL A   1      46.625  34.674  30.082  1.00  0.00     0.029 A 
ATOM     59  N   UNL A   1      45.434  32.879  29.529  1.00  0.00    -0.354 N 
ATOM     60  N   UNL A   1      45.038  30.176  28.427  1.00  0.00    -0.248 NA
ATOM     61  C   UNL A   1      45.856  28.324  27.263  1.00  0.00     0.031 C 
ATOM     62  C   UNL A   1      47.453  33.790  29.383  1.00  0.00     0.029 A 
ATOM     63  C   UNL A   1      46.720  32.656  29.066  1.00  0.00     0.049 A 
ATOM     64  H   UNL A   1      44.684  32.247  29.438  1.00  0.00     0.167 HD
ATOM     65  C   UNL A   1      46.380  30.387  28.120  1.00  0.00     0.074 A 
ATOM     66  C   UNL A   1      46.838  29.198  27.429  1.00  0.00     0.031 C 
ATOM     67  C   UNL A   1      47.162  31.461  28.388  1.00  0.00     0.037 A 
BRANCH  54  68
ATOM     68  C   UNL A   1      44.221  36.070  31.295  1.00  0.00     0.058 A 
ATOM     69  C   UNL A   1      44.416  36.281  32.670  1.00  0.00     0.135 A 
ATOM     70  C   UNL A   1      44.088  37.201  30.474  1.00  0.00     0.135 A 
ATOM     71  F   UNL A   1      44.526  35.236  33.506  1.00  0.00    -0.206 F 
ATOM     72  C   UNL A   1      44.445  37.561  33.213  1.00  0.00     0.059 A 
ATOM     73  C   UNL A   1      44.148  38.492  30.991  1.00  0.00     0.059 A 
ATOM     74  F   UNL A   1      43.893  37.059  29.153  1.00  0.00    -0.206 F 
ATOM     75  C   UNL A   1      44.309  38.661  32.365  1.00  0.00     0.060 A 
BRANCH  75  76
ATOM     76  S   UNL A   1      44.345  40.316  33.086  1.00  0.00     0.124 S 
ATOM     77  O   UNL A   1      45.633  40.306  33.772  1.00  0.00    -0.237 OA
ATOM     78  O   UNL A   1      44.262  41.170  31.905  1.00  0.00    -0.237 OA
ATOM     79  O   UNL A   1      43.172  40.335  33.954  1.00  0.00    -0.744 OA
ENDBRANCH  75  76
ENDBRANCH  54  68
BRANCH  55  80
ATOM     80  C   UNL A   1      43.316  26.864  27.454  1.00  0.00     0.058 A 
ATOM     81  C   UNL A   1      42.903  26.678  26.127  1.00  0.00     0.135 A 
ATOM     82  C   UNL A   1      43.601  25.719  28.215  1.00  0.00     0.135 A 
ATOM     83  F   UNL A   1      42.605  27.738  25.362  1.00  0.00    -0.206 F 
ATOM     84  C   UNL A   1      42.765  25.407  25.577  1.00  0.00     0.059 A 
ATOM     85  C   UNL A   1      43.499  24.439  27.679  1.00  0.00     0.059 A 
ATOM     86  F   UNL A   1      44.006  25.840  29.489  1.00  0.00    -0.206 F 
ATOM     87  C   UNL A   1      43.073  24.293  26.360  1.00  0.00     0.060 A 
BRANCH  87  88
ATOM     88  S   UNL A   1      42.942  22.653  25.616  1.00  0.00     0.124 S 
ATOM     89  O   UNL A   1      41.526  22.359  25.796  1.00  0.00    -0.237 OA
ATOM     90  O   UNL A   1      43.375  22.908  24.244  1.00  0.00    -0.237 OA
ATOM     91  O   UNL A   1      43.860  21.848  26.415  1.00  0.00    -0.744 OA
ENDBRANCH  87  88
ENDBRANCH  55  80
BRANCH  67  92
ATOM     92  C   UNL A   1      48.611  31.391  27.981  1.00  0.00     0.058 A 
ATOM     93  C   UNL A   1      49.113  32.112  26.886  1.00  0.00     0.135 A 
ATOM     94  C   UNL A   1      49.522  30.635  28.738  1.00  0.00     0.135 A 
ATOM     95  F   UNL A   1      48.286  32.846  26.124  1.00  0.00    -0.206 F 
ATOM     96  C   UNL A   1      50.460  32.065  26.539  1.00  0.00     0.059 A 
ATOM     97  C   UNL A   1      50.880  30.601  28.431  1.00  0.00     0.059 A 
ATOM     98  F   UNL A   1      49.101  29.936  29.804  1.00  0.00    -0.206 F 
ATOM     99  C   UNL A   1      51.337  31.310  27.321  1.00  0.00     0.060 A 
BRANCH  99 100
ATOM    100  S   UNL A   1      53.087  31.287  26.881  1.00  0.00     0.124 S 
ATOM    101  O   UNL A   1      53.158  32.366  25.901  1.00  0.00    -0.237 OA
ATOM    102  O   UNL A   1      53.734  31.550  28.162  1.00  0.00    -0.237 OA
ATOM    103  O   UNL A   1      53.287  29.943  26.348  1.00  0.00    -0.744 OA
ENDBRANCH  99 100
ENDBRANCH  67  92
ENDBRANCH  41  42
ENDBRANCH  34  36
ENDBRANCH  33  34
ENDBRANCH  32  33
ENDBRANCH  31  32
ENDBRANCH  30  31
ENDBRANCH  29  30
ENDBRANCH  28  29
ENDBRANCH  27  28
ENDBRANCH   1  27
TORSDOF 27
ENDMDL
