MODEL 1
REMARK VINA RESULT:      -7.5      0.000      0.000
REMARK SMILES CC(=O)Nc1cnc(N(C)CCc2cn[nH]c2)c(C(=O)OCCOCCOCCOCCOC(=O)c2ccc(-c3c4nc(c(-c5c(F)cc(S(=O)(=O)[O-])cc5F)c5ccc([nH]5)c(-c5c(F)cc(S(=O)(=O)[O-])cc5F)c5nc(c(-c6c(F)cc(S(=O)(=O)[O-])cc6F)c6ccc3[nH]6)C=C5)C=C4)cc2)c1
REMARK SMILES IDX 26 1 25 2 24 3 23 4 22 5 21 6 19 7 20 8 18 9 5 10 6 11
REMARK SMILES IDX 102 12 7 13 8 14 4 15 1 16 2 17 3 18 9 20 10 21 11 22 12 23
REMARK SMILES IDX 13 24 14 25 17 26 15 27 16 28 27 30 28 31 29 32 30 33 31 34
REMARK SMILES IDX 32 35 33 36 34 37 35 38 36 39 37 40 101 41 38 42 100 43
REMARK SMILES IDX 39 44 40 45 41 46 94 47 42 48 99 49 93 50 95 51 43 52 98 53
REMARK SMILES IDX 92 54 91 55 44 57 78 58 57 59 77 60 58 61 61 62 76 63 96 64
REMARK SMILES IDX 59 65 60 66 75 68 97 69 62 70 45 71 46 72 55 73 47 74 48 75
REMARK SMILES IDX 54 76 56 77 49 78 50 79 51 80 52 81 53 82 79 83 80 84 89 85
REMARK SMILES IDX 81 86 82 87 88 88 90 89 83 90 84 91 85 92 86 93 87 94 63 95
REMARK SMILES IDX 64 96 73 97 65 98 66 99 72 100 74 101 67 102 68 103 69 104
REMARK SMILES IDX 70 105 71 106
REMARK H PARENT 4 19 16 29 95 56 61 67
REMARK Flexibility Score: inf
ROOT
ATOM      1  C   UNL A   1      46.592  42.543  27.337  1.00  0.00     0.188 C 
ENDROOT
BRANCH   1   2
ATOM      2  C   UNL A   1      46.280  43.830  26.551  1.00  0.00     0.188 C 
BRANCH   2   3
ATOM      3  O   UNL A   1      44.928  43.977  26.140  1.00  0.00    -0.376 OA
BRANCH   3   4
ATOM      4  C   UNL A   1      44.509  43.359  24.932  1.00  0.00     0.202 C 
BRANCH   4   5
ATOM      5  C   UNL A   1      45.592  42.680  24.066  1.00  0.00     0.261 C 
BRANCH   5   6
ATOM      6  O   UNL A   1      45.857  43.285  22.787  1.00  0.00    -0.460 OA
BRANCH   6   7
ATOM      7  C   UNL A   1      45.860  42.423  21.743  1.00  0.00     0.342 C 
ATOM      8  O   UNL A   1      46.228  41.273  21.863  1.00  0.00    -0.246 OA
BRANCH   7   9
ATOM      9  C   UNL A   1      45.264  43.056  20.537  1.00  0.00     0.104 A 
ATOM     10  C   UNL A   1      43.161  43.434  19.351  1.00  0.00     0.060 A 
ATOM     11  C   UNL A   1      43.936  43.897  18.311  1.00  0.00     0.139 A 
ATOM     12  C   UNL A   1      43.850  42.954  20.450  1.00  0.00     0.047 A 
ATOM     13  N   UNL A   1      45.279  44.033  18.377  1.00  0.00    -0.236 NA
ATOM     14  C   UNL A   1      45.978  43.688  19.501  1.00  0.00     0.143 A 
BRANCH  10  15
ATOM     15  N   UNL A   1      41.766  43.463  19.221  1.00  0.00    -0.325 N 
ATOM     16  C   UNL A   1      41.477  45.728  18.218  1.00  0.00     0.114 C 
ATOM     17  C   UNL A   1      40.925  44.453  18.795  1.00  0.00     0.221 C 
ATOM     18  O   UNL A   1      39.711  44.240  18.817  1.00  0.00    -0.275 OA
ATOM     19  H   UNL A   1      41.314  42.628  19.480  1.00  0.00     0.169 HD
ENDBRANCH  10  15
BRANCH  14  20
ATOM     20  N   UNL A   1      47.313  44.041  19.440  1.00  0.00    -0.359 N 
ATOM     21  C   UNL A   1      47.630  45.237  18.647  1.00  0.00     0.145 C 
BRANCH  20  22
ATOM     22  C   UNL A   1      48.469  43.341  20.019  1.00  0.00     0.122 C 
BRANCH  22  23
ATOM     23  C   UNL A   1      49.070  43.942  21.310  1.00  0.00     0.060 C 
BRANCH  23  24
ATOM     24  C   UNL A   1      50.407  44.614  21.256  1.00  0.00    -0.008 A 
ATOM     25  C   UNL A   1      50.970  45.345  20.173  1.00  0.00     0.138 A 
ATOM     26  C   UNL A   1      51.401  44.644  22.212  1.00  0.00     0.108 A 
ATOM     27  N   UNL A   1      52.227  45.731  20.409  1.00  0.00    -0.184 NA
ATOM     28  N   UNL A   1      52.473  45.264  21.638  1.00  0.00    -0.285 N 
ATOM     29  H   UNL A   1      53.345  45.358  22.087  1.00  0.00     0.189 HD
ENDBRANCH  23  24
ENDBRANCH  22  23
ENDBRANCH  20  22
ENDBRANCH  14  20
ENDBRANCH   7   9
ENDBRANCH   6   7
ENDBRANCH   5   6
ENDBRANCH   4   5
ENDBRANCH   3   4
ENDBRANCH   2   3
ENDBRANCH   1   2
BRANCH   1  30
ATOM     30  O   UNL A   1      46.246  42.494  28.709  1.00  0.00    -0.377 OA
BRANCH  30  31
ATOM     31  C   UNL A   1      44.882  42.319  29.079  1.00  0.00     0.188 C 
BRANCH  31  32
ATOM     32  C   UNL A   1      44.006  41.243  28.404  1.00  0.00     0.188 C 
BRANCH  32  33
ATOM     33  O   UNL A   1      43.725  40.105  29.209  1.00  0.00    -0.376 OA
BRANCH  33  34
ATOM     34  C   UNL A   1      44.238  38.869  28.734  1.00  0.00     0.202 C 
BRANCH  34  35
ATOM     35  C   UNL A   1      44.267  38.747  27.205  1.00  0.00     0.261 C 
BRANCH  35  36
ATOM     36  O   UNL A   1      43.134  38.084  26.622  1.00  0.00    -0.460 OA
BRANCH  36  37
ATOM     37  C   UNL A   1      42.480  37.184  27.390  1.00  0.00     0.338 C 
ATOM     38  O   UNL A   1      41.421  37.346  27.969  1.00  0.00    -0.246 OA
BRANCH  37  39
ATOM     39  C   UNL A   1      43.151  35.876  27.225  1.00  0.00     0.060 A 
ATOM     40  C   UNL A   1      43.611  35.214  28.372  1.00  0.00     0.016 A 
ATOM     41  C   UNL A   1      43.281  35.286  25.964  1.00  0.00     0.016 A 
ATOM     42  C   UNL A   1      44.263  33.990  28.252  1.00  0.00     0.010 A 
ATOM     43  C   UNL A   1      43.961  34.072  25.840  1.00  0.00     0.010 A 
ATOM     44  C   UNL A   1      44.501  33.452  26.980  1.00  0.00    -0.014 A 
BRANCH  44  45
ATOM     45  C   UNL A   1      45.592  32.459  26.838  1.00  0.00     0.031 A 
ATOM     46  C   UNL A   1      46.988  33.001  26.674  1.00  0.00     0.074 A 
ATOM     47  C   UNL A   1      45.375  31.135  26.919  1.00  0.00     0.049 A 
ATOM     48  N   UNL A   1      48.127  32.365  26.604  1.00  0.00    -0.248 NA
ATOM     49  C   UNL A   1      47.112  34.468  26.585  1.00  0.00     0.031 C 
ATOM     50  C   UNL A   1      44.076  30.494  27.108  1.00  0.00     0.029 A 
ATOM     51  N   UNL A   1      46.262  30.090  26.860  1.00  0.00    -0.354 N 
ATOM     52  C   UNL A   1      49.100  33.351  26.483  1.00  0.00     0.074 A 
ATOM     53  C   UNL A   1      48.417  34.625  26.442  1.00  0.00     0.031 C 
ATOM     54  C   UNL A   1      44.250  29.160  27.150  1.00  0.00     0.029 A 
ATOM     55  C   UNL A   1      45.671  28.854  26.979  1.00  0.00     0.049 A 
ATOM     56  H   UNL A   1      47.232  30.212  26.744  1.00  0.00     0.167 HD
ATOM     57  C   UNL A   1      50.444  33.215  26.426  1.00  0.00     0.037 A 
ATOM     58  C   UNL A   1      46.222  27.625  26.952  1.00  0.00     0.037 A 
ATOM     59  C   UNL A   1      51.119  31.948  26.438  1.00  0.00     0.049 A 
ATOM     60  C   UNL A   1      47.720  27.492  26.819  1.00  0.00     0.074 A 
ATOM     61  C   UNL A   1      52.476  31.692  26.361  1.00  0.00     0.029 A 
ATOM     62  N   UNL A   1      50.482  30.718  26.524  1.00  0.00    -0.354 N 
ATOM     63  N   UNL A   1      48.631  28.433  26.727  1.00  0.00    -0.248 NA
ATOM     64  C   UNL A   1      48.265  26.127  26.803  1.00  0.00     0.031 C 
ATOM     65  C   UNL A   1      52.657  30.304  26.364  1.00  0.00     0.029 A 
ATOM     66  C   UNL A   1      51.417  29.699  26.490  1.00  0.00     0.049 A 
ATOM     67  H   UNL A   1      49.508  30.590  26.599  1.00  0.00     0.167 HD
ATOM     68  C   UNL A   1      49.857  27.775  26.678  1.00  0.00     0.074 A 
ATOM     69  C   UNL A   1      49.571  26.357  26.758  1.00  0.00     0.031 C 
ATOM     70  C   UNL A   1      51.107  28.294  26.582  1.00  0.00     0.037 A 
BRANCH  57  71
ATOM     71  C   UNL A   1      51.254  34.475  26.315  1.00  0.00     0.058 A 
ATOM     72  C   UNL A   1      51.624  35.212  27.452  1.00  0.00     0.135 A 
ATOM     73  C   UNL A   1      51.651  34.960  25.061  1.00  0.00     0.135 A 
ATOM     74  F   UNL A   1      51.244  34.807  28.675  1.00  0.00    -0.206 F 
ATOM     75  C   UNL A   1      52.337  36.402  27.347  1.00  0.00     0.059 A 
ATOM     76  C   UNL A   1      52.386  36.134  24.932  1.00  0.00     0.059 A 
ATOM     77  F   UNL A   1      51.311  34.300  23.942  1.00  0.00    -0.206 F 
ATOM     78  C   UNL A   1      52.710  36.856  26.080  1.00  0.00     0.060 A 
BRANCH  78  79
ATOM     79  S   UNL A   1      53.629  38.405  25.955  1.00  0.00     0.124 S 
ATOM     80  O   UNL A   1      53.562  38.667  24.521  1.00  0.00    -0.237 OA
ATOM     81  O   UNL A   1      52.847  39.302  26.800  1.00  0.00    -0.237 OA
ATOM     82  O   UNL A   1      54.950  38.059  26.469  1.00  0.00    -0.744 OA
ENDBRANCH  78  79
ENDBRANCH  57  71
BRANCH  58  83
ATOM     83  C   UNL A   1      45.363  26.415  27.068  1.00  0.00     0.058 A 
ATOM     84  C   UNL A   1      44.898  25.740  25.929  1.00  0.00     0.135 A 
ATOM     85  C   UNL A   1      44.973  25.921  28.322  1.00  0.00     0.135 A 
ATOM     86  F   UNL A   1      45.233  26.181  24.706  1.00  0.00    -0.206 F 
ATOM     87  C   UNL A   1      44.062  24.632  26.026  1.00  0.00     0.059 A 
ATOM     88  C   UNL A   1      44.156  24.800  28.446  1.00  0.00     0.059 A 
ATOM     89  F   UNL A   1      45.395  26.525  29.444  1.00  0.00    -0.206 F 
ATOM     90  C   UNL A   1      43.697  24.169  27.292  1.00  0.00     0.060 A 
BRANCH  90  91
ATOM     91  S   UNL A   1      42.644  22.705  27.410  1.00  0.00     0.124 S 
ATOM     92  O   UNL A   1      43.031  21.968  26.213  1.00  0.00    -0.237 OA
ATOM     93  O   UNL A   1      43.067  22.126  28.682  1.00  0.00    -0.237 OA
ATOM     94  O   UNL A   1      41.295  23.262  27.403  1.00  0.00    -0.744 OA
ENDBRANCH  90  91
ENDBRANCH  58  83
BRANCH  70  95
ATOM     95  C   UNL A   1      52.261  27.329  26.612  1.00  0.00     0.058 A 
ATOM     96  C   UNL A   1      52.724  26.691  25.450  1.00  0.00     0.135 A 
ATOM     97  C   UNL A   1      52.931  27.065  27.817  1.00  0.00     0.135 A 
ATOM     98  F   UNL A   1      52.120  26.910  24.271  1.00  0.00    -0.206 F 
ATOM     99  C   UNL A   1      53.786  25.792  25.491  1.00  0.00     0.059 A 
ATOM    100  C   UNL A   1      54.012  26.192  27.876  1.00  0.00     0.059 A 
ATOM    101  F   UNL A   1      52.540  27.663  28.953  1.00  0.00    -0.206 F 
ATOM    102  C   UNL A   1      54.420  25.545  26.710  1.00  0.00     0.060 A 
BRANCH 102 103
ATOM    103  S   UNL A   1      55.796  24.377  26.754  1.00  0.00     0.124 S 
ATOM    104  O   UNL A   1      56.823  25.108  26.020  1.00  0.00    -0.237 OA
ATOM    105  O   UNL A   1      56.030  24.220  28.186  1.00  0.00    -0.237 OA
ATOM    106  O   UNL A   1      55.260  23.197  26.081  1.00  0.00    -0.744 OA
ENDBRANCH 102 103
ENDBRANCH  70  95
ENDBRANCH  44  45
ENDBRANCH  37  39
ENDBRANCH  36  37
ENDBRANCH  35  36
ENDBRANCH  34  35
ENDBRANCH  33  34
ENDBRANCH  32  33
ENDBRANCH  31  32
ENDBRANCH  30  31
ENDBRANCH   1  30
TORSDOF 28
ENDMDL
MODEL 2
REMARK VINA RESULT:      -7.4     10.513     14.653
REMARK SMILES CC(=O)Nc1cnc(N(C)CCc2cn[nH]c2)c(C(=O)OCCOCCOCCOCCOC(=O)c2ccc(-c3c4nc(c(-c5c(F)cc(S(=O)(=O)[O-])cc5F)c5ccc([nH]5)c(-c5c(F)cc(S(=O)(=O)[O-])cc5F)c5nc(c(-c6c(F)cc(S(=O)(=O)[O-])cc6F)c6ccc3[nH]6)C=C5)C=C4)cc2)c1
REMARK SMILES IDX 26 1 25 2 24 3 23 4 22 5 21 6 19 7 20 8 18 9 5 10 6 11
REMARK SMILES IDX 102 12 7 13 8 14 4 15 1 16 2 17 3 18 9 20 10 21 11 22 12 23
REMARK SMILES IDX 13 24 14 25 17 26 15 27 16 28 27 30 28 31 29 32 30 33 31 34
REMARK SMILES IDX 32 35 33 36 34 37 35 38 36 39 37 40 101 41 38 42 100 43
REMARK SMILES IDX 39 44 40 45 41 46 94 47 42 48 99 49 93 50 95 51 43 52 98 53
REMARK SMILES IDX 92 54 91 55 44 57 78 58 57 59 77 60 58 61 61 62 76 63 96 64
REMARK SMILES IDX 59 65 60 66 75 68 97 69 62 70 45 71 46 72 55 73 47 74 48 75
REMARK SMILES IDX 54 76 56 77 49 78 50 79 51 80 52 81 53 82 79 83 80 84 89 85
REMARK SMILES IDX 81 86 82 87 88 88 90 89 83 90 84 91 85 92 86 93 87 94 63 95
REMARK SMILES IDX 64 96 73 97 65 98 66 99 72 100 74 101 67 102 68 103 69 104
REMARK SMILES IDX 70 105 71 106
REMARK H PARENT 4 19 16 29 95 56 61 67
REMARK Flexibility Score: inf
ROOT
ATOM      1  C   UNL A   1      32.243  36.117  32.357  1.00  0.00     0.188 C 
ENDROOT
BRANCH   1   2
ATOM      2  C   UNL A   1      32.388  34.585  32.404  1.00  0.00     0.188 C 
BRANCH   2   3
ATOM      3  O   UNL A   1      33.392  34.097  33.283  1.00  0.00    -0.376 OA
BRANCH   3   4
ATOM      4  C   UNL A   1      34.511  33.417  32.732  1.00  0.00     0.202 C 
BRANCH   4   5
ATOM      5  C   UNL A   1      35.906  34.036  32.966  1.00  0.00     0.261 C 
BRANCH   5   6
ATOM      6  O   UNL A   1      36.554  33.695  34.206  1.00  0.00    -0.460 OA
BRANCH   6   7
ATOM      7  C   UNL A   1      37.887  33.930  34.230  1.00  0.00     0.342 C 
ATOM      8  O   UNL A   1      38.355  35.001  33.903  1.00  0.00    -0.246 OA
BRANCH   7   9
ATOM      9  C   UNL A   1      38.616  32.767  34.800  1.00  0.00     0.104 A 
ATOM     10  C   UNL A   1      39.296  30.462  34.356  1.00  0.00     0.060 A 
ATOM     11  C   UNL A   1      39.668  30.413  35.680  1.00  0.00     0.139 A 
ATOM     12  C   UNL A   1      38.706  31.642  33.938  1.00  0.00     0.047 A 
ATOM     13  N   UNL A   1      39.622  31.474  36.515  1.00  0.00    -0.236 NA
ATOM     14  C   UNL A   1      39.166  32.693  36.095  1.00  0.00     0.143 A 
BRANCH  10  15
ATOM     15  N   UNL A   1      39.514  29.338  33.548  1.00  0.00    -0.325 N 
ATOM     16  C   UNL A   1      37.242  29.076  32.555  1.00  0.00     0.114 C 
ATOM     17  C   UNL A   1      38.657  28.613  32.769  1.00  0.00     0.221 C 
ATOM     18  O   UNL A   1      39.095  27.622  32.180  1.00  0.00    -0.275 OA
ATOM     19  H   UNL A   1      40.444  29.015  33.540  1.00  0.00     0.169 HD
ENDBRANCH  10  15
BRANCH  14  20
ATOM     20  N   UNL A   1      39.337  33.691  37.037  1.00  0.00    -0.359 N 
ATOM     21  C   UNL A   1      40.560  34.495  36.911  1.00  0.00     0.145 C 
BRANCH  20  22
ATOM     22  C   UNL A   1      38.479  34.018  38.186  1.00  0.00     0.122 C 
BRANCH  22  23
ATOM     23  C   UNL A   1      38.377  32.953  39.301  1.00  0.00     0.060 C 
BRANCH  23  24
ATOM     24  C   UNL A   1      37.041  32.361  39.634  1.00  0.00    -0.008 A 
ATOM     25  C   UNL A   1      35.772  32.729  39.108  1.00  0.00     0.138 A 
ATOM     26  C   UNL A   1      36.734  31.369  40.541  1.00  0.00     0.108 A 
ATOM     27  N   UNL A   1      34.762  32.075  39.688  1.00  0.00    -0.184 NA
ATOM     28  N   UNL A   1      35.373  31.282  40.576  1.00  0.00    -0.285 N 
ATOM     29  H   UNL A   1      34.886  30.692  41.197  1.00  0.00     0.189 HD
ENDBRANCH  23  24
ENDBRANCH  22  23
ENDBRANCH  20  22
ENDBRANCH  14  20
ENDBRANCH   7   9
ENDBRANCH   6   7
ENDBRANCH   5   6
ENDBRANCH   4   5
ENDBRANCH   3   4
ENDBRANCH   2   3
ENDBRANCH   1   2
BRANCH   1  30
ATOM     30  O   UNL A   1      32.254  36.753  31.091  1.00  0.00    -0.377 OA
BRANCH  30  31
ATOM     31  C   UNL A   1      33.322  36.489  30.187  1.00  0.00     0.188 C 
BRANCH  31  32
ATOM     32  C   UNL A   1      33.292  35.258  29.257  1.00  0.00     0.188 C 
BRANCH  32  33
ATOM     33  O   UNL A   1      34.396  34.372  29.396  1.00  0.00    -0.376 OA
BRANCH  33  34
ATOM     34  C   UNL A   1      34.471  33.322  28.444  1.00  0.00     0.202 C 
BRANCH  34  35
ATOM     35  C   UNL A   1      35.746  32.474  28.544  1.00  0.00     0.261 C 
BRANCH  35  36
ATOM     36  O   UNL A   1      36.560  32.726  29.701  1.00  0.00    -0.460 OA
BRANCH  36  37
ATOM     37  C   UNL A   1      37.580  33.602  29.561  1.00  0.00     0.338 C 
ATOM     38  O   UNL A   1      37.495  34.804  29.389  1.00  0.00    -0.246 OA
BRANCH  37  39
ATOM     39  C   UNL A   1      38.835  32.890  29.885  1.00  0.00     0.060 A 
ATOM     40  C   UNL A   1      38.787  31.500  30.059  1.00  0.00     0.016 A 
ATOM     41  C   UNL A   1      40.053  33.574  29.965  1.00  0.00     0.016 A 
ATOM     42  C   UNL A   1      39.946  30.800  30.382  1.00  0.00     0.010 A 
ATOM     43  C   UNL A   1      41.210  32.878  30.317  1.00  0.00     0.010 A 
ATOM     44  C   UNL A   1      41.146  31.499  30.581  1.00  0.00    -0.014 A 
BRANCH  44  45
ATOM     45  C   UNL A   1      42.204  30.847  31.387  1.00  0.00     0.031 A 
ATOM     46  C   UNL A   1      42.925  29.686  30.753  1.00  0.00     0.074 A 
ATOM     47  C   UNL A   1      42.566  31.298  32.600  1.00  0.00     0.049 A 
ATOM     48  N   UNL A   1      43.935  28.986  31.198  1.00  0.00    -0.248 NA
ATOM     49  C   UNL A   1      42.442  29.264  29.425  1.00  0.00     0.031 C 
ATOM     50  C   UNL A   1      41.965  32.430  33.303  1.00  0.00     0.029 A 
ATOM     51  N   UNL A   1      43.544  30.854  33.453  1.00  0.00    -0.354 N 
ATOM     52  C   UNL A   1      44.217  28.059  30.202  1.00  0.00     0.074 A 
ATOM     53  C   UNL A   1      43.246  28.252  29.148  1.00  0.00     0.031 C 
ATOM     54  C   UNL A   1      42.590  32.592  34.484  1.00  0.00     0.029 A 
ATOM     55  C   UNL A   1      43.626  31.568  34.624  1.00  0.00     0.049 A 
ATOM     56  H   UNL A   1      44.134  30.094  33.245  1.00  0.00     0.167 HD
ATOM     57  C   UNL A   1      45.204  27.136  30.156  1.00  0.00     0.037 A 
ATOM     58  C   UNL A   1      44.446  31.407  35.682  1.00  0.00     0.037 A 
ATOM     59  C   UNL A   1      46.151  26.927  31.215  1.00  0.00     0.049 A 
ATOM     60  C   UNL A   1      45.499  30.327  35.639  1.00  0.00     0.074 A 
ATOM     61  C   UNL A   1      47.178  26.003  31.284  1.00  0.00     0.029 A 
ATOM     62  N   UNL A   1      46.177  27.648  32.400  1.00  0.00    -0.354 N 
ATOM     63  N   UNL A   1      45.769  29.470  34.681  1.00  0.00    -0.248 NA
ATOM     64  C   UNL A   1      46.369  30.202  36.817  1.00  0.00     0.031 C 
ATOM     65  C   UNL A   1      47.804  26.143  32.528  1.00  0.00     0.029 A 
ATOM     66  C   UNL A   1      47.196  27.184  33.212  1.00  0.00     0.049 A 
ATOM     67  H   UNL A   1      45.562  28.382  32.628  1.00  0.00     0.167 HD
ATOM     68  C   UNL A   1      46.862  28.730  35.127  1.00  0.00     0.074 A 
ATOM     69  C   UNL A   1      47.206  29.246  36.436  1.00  0.00     0.031 C 
ATOM     70  C   UNL A   1      47.526  27.721  34.509  1.00  0.00     0.037 A 
BRANCH  57  71
ATOM     71  C   UNL A   1      45.278  26.275  28.927  1.00  0.00     0.058 A 
ATOM     72  C   UNL A   1      44.555  25.075  28.826  1.00  0.00     0.135 A 
ATOM     73  C   UNL A   1      46.091  26.644  27.846  1.00  0.00     0.135 A 
ATOM     74  F   UNL A   1      43.785  24.661  29.846  1.00  0.00    -0.206 F 
ATOM     75  C   UNL A   1      44.657  24.256  27.707  1.00  0.00     0.059 A 
ATOM     76  C   UNL A   1      46.190  25.854  26.705  1.00  0.00     0.059 A 
ATOM     77  F   UNL A   1      46.814  27.774  27.897  1.00  0.00    -0.206 F 
ATOM     78  C   UNL A   1      45.481  24.654  26.652  1.00  0.00     0.060 A 
BRANCH  78  79
ATOM     79  S   UNL A   1      45.612  23.580  25.206  1.00  0.00     0.124 S 
ATOM     80  O   UNL A   1      46.271  22.409  25.774  1.00  0.00    -0.237 OA
ATOM     81  O   UNL A   1      44.215  23.398  24.825  1.00  0.00    -0.237 OA
ATOM     82  O   UNL A   1      46.416  24.363  24.274  1.00  0.00    -0.744 OA
ENDBRANCH  78  79
ENDBRANCH  57  71
BRANCH  58  83
ATOM     83  C   UNL A   1      44.322  32.296  36.869  1.00  0.00     0.058 A 
ATOM     84  C   UNL A   1      45.154  33.414  37.032  1.00  0.00     0.135 A 
ATOM     85  C   UNL A   1      43.382  32.031  37.877  1.00  0.00     0.135 A 
ATOM     86  F   UNL A   1      46.077  33.703  36.102  1.00  0.00    -0.206 F 
ATOM     87  C   UNL A   1      45.072  34.228  38.157  1.00  0.00     0.059 A 
ATOM     88  C   UNL A   1      43.265  32.843  39.001  1.00  0.00     0.059 A 
ATOM     89  F   UNL A   1      42.558  30.978  37.768  1.00  0.00    -0.206 F 
ATOM     90  C   UNL A   1      44.123  33.933  39.138  1.00  0.00     0.060 A 
BRANCH  90  91
ATOM     91  S   UNL A   1      43.995  35.018  40.577  1.00  0.00     0.124 S 
ATOM     92  O   UNL A   1      42.729  35.696  40.323  1.00  0.00    -0.237 OA
ATOM     93  O   UNL A   1      43.999  34.064  41.682  1.00  0.00    -0.237 OA
ATOM     94  O   UNL A   1      45.190  35.850  40.475  1.00  0.00    -0.744 OA
ENDBRANCH  90  91
ENDBRANCH  58  83
BRANCH  70  95
ATOM     95  C   UNL A   1      48.721  27.144  35.217  1.00  0.00     0.058 A 
ATOM     96  C   UNL A   1      50.011  27.670  35.044  1.00  0.00     0.135 A 
ATOM     97  C   UNL A   1      48.564  26.068  36.106  1.00  0.00     0.135 A 
ATOM     98  F   UNL A   1      50.216  28.699  34.207  1.00  0.00    -0.206 F 
ATOM     99  C   UNL A   1      51.111  27.121  35.697  1.00  0.00     0.059 A 
ATOM    100  C   UNL A   1      49.645  25.523  36.791  1.00  0.00     0.059 A 
ATOM    101  F   UNL A   1      47.349  25.541  36.322  1.00  0.00    -0.206 F 
ATOM    102  C   UNL A   1      50.918  26.044  36.564  1.00  0.00     0.060 A 
BRANCH 102 103
ATOM    103  S   UNL A   1      52.351  25.338  37.406  1.00  0.00     0.124 S 
ATOM    104  O   UNL A   1      51.721  24.351  38.277  1.00  0.00    -0.237 OA
ATOM    105  O   UNL A   1      53.133  24.799  36.298  1.00  0.00    -0.237 OA
ATOM    106  O   UNL A   1      52.945  26.487  38.084  1.00  0.00    -0.744 OA
ENDBRANCH 102 103
ENDBRANCH  70  95
ENDBRANCH  44  45
ENDBRANCH  37  39
ENDBRANCH  36  37
ENDBRANCH  35  36
ENDBRANCH  34  35
ENDBRANCH  33  34
ENDBRANCH  32  33
ENDBRANCH  31  32
ENDBRANCH  30  31
ENDBRANCH   1  30
TORSDOF 28
ENDMDL
MODEL 3
REMARK VINA RESULT:      -7.4      6.631     13.457
REMARK SMILES CC(=O)Nc1cnc(N(C)CCc2cn[nH]c2)c(C(=O)OCCOCCOCCOCCOC(=O)c2ccc(-c3c4nc(c(-c5c(F)cc(S(=O)(=O)[O-])cc5F)c5ccc([nH]5)c(-c5c(F)cc(S(=O)(=O)[O-])cc5F)c5nc(c(-c6c(F)cc(S(=O)(=O)[O-])cc6F)c6ccc3[nH]6)C=C5)C=C4)cc2)c1
REMARK SMILES IDX 26 1 25 2 24 3 23 4 22 5 21 6 19 7 20 8 18 9 5 10 6 11
REMARK SMILES IDX 102 12 7 13 8 14 4 15 1 16 2 17 3 18 9 20 10 21 11 22 12 23
REMARK SMILES IDX 13 24 14 25 17 26 15 27 16 28 27 30 28 31 29 32 30 33 31 34
REMARK SMILES IDX 32 35 33 36 34 37 35 38 36 39 37 40 101 41 38 42 100 43
REMARK SMILES IDX 39 44 40 45 41 46 94 47 42 48 99 49 93 50 95 51 43 52 98 53
REMARK SMILES IDX 92 54 91 55 44 57 78 58 57 59 77 60 58 61 61 62 76 63 96 64
REMARK SMILES IDX 59 65 60 66 75 68 97 69 62 70 45 71 46 72 55 73 47 74 48 75
REMARK SMILES IDX 54 76 56 77 49 78 50 79 51 80 52 81 53 82 79 83 80 84 89 85
REMARK SMILES IDX 81 86 82 87 88 88 90 89 83 90 84 91 85 92 86 93 87 94 63 95
REMARK SMILES IDX 64 96 73 97 65 98 66 99 72 100 74 101 67 102 68 103 69 104
REMARK SMILES IDX 70 105 71 106
REMARK H PARENT 4 19 16 29 95 56 61 67
REMARK Flexibility Score: inf
ROOT
ATOM      1  C   UNL A   1      34.051  34.900  31.727  1.00  0.00     0.188 C 
ENDROOT
BRANCH   1   2
ATOM      2  C   UNL A   1      34.485  34.149  32.999  1.00  0.00     0.188 C 
BRANCH   2   3
ATOM      3  O   UNL A   1      35.735  33.480  32.912  1.00  0.00    -0.376 OA
BRANCH   3   4
ATOM      4  C   UNL A   1      35.748  32.068  32.764  1.00  0.00     0.202 C 
BRANCH   4   5
ATOM      5  C   UNL A   1      37.048  31.324  33.137  1.00  0.00     0.261 C 
BRANCH   5   6
ATOM      6  O   UNL A   1      37.883  30.913  32.038  1.00  0.00    -0.460 OA
BRANCH   6   7
ATOM      7  C   UNL A   1      37.891  29.579  31.803  1.00  0.00     0.342 C 
ATOM      8  O   UNL A   1      36.896  28.986  31.440  1.00  0.00    -0.246 OA
BRANCH   7   9
ATOM      9  C   UNL A   1      39.265  29.029  31.943  1.00  0.00     0.104 A 
ATOM     10  C   UNL A   1      40.935  28.300  33.572  1.00  0.00     0.060 A 
ATOM     11  C   UNL A   1      41.816  28.259  32.515  1.00  0.00     0.139 A 
ATOM     12  C   UNL A   1      39.660  28.752  33.278  1.00  0.00     0.047 A 
ATOM     13  N   UNL A   1      41.461  28.488  31.231  1.00  0.00    -0.236 NA
ATOM     14  C   UNL A   1      40.176  28.810  30.891  1.00  0.00     0.143 A 
BRANCH  10  15
ATOM     15  N   UNL A   1      41.382  27.912  34.842  1.00  0.00    -0.325 N 
ATOM     16  C   UNL A   1      42.094  30.127  35.741  1.00  0.00     0.114 C 
ATOM     17  C   UNL A   1      41.971  28.631  35.844  1.00  0.00     0.221 C 
ATOM     18  O   UNL A   1      42.318  28.036  36.867  1.00  0.00    -0.275 OA
ATOM     19  H   UNL A   1      41.250  26.958  35.048  1.00  0.00     0.169 HD
ENDBRANCH  10  15
BRANCH  14  20
ATOM     20  N   UNL A   1      39.970  28.855  29.525  1.00  0.00    -0.359 N 
ATOM     21  C   UNL A   1      39.350  30.081  29.005  1.00  0.00     0.145 C 
BRANCH  20  22
ATOM     22  C   UNL A   1      40.239  27.809  28.527  1.00  0.00     0.122 C 
BRANCH  22  23
ATOM     23  C   UNL A   1      39.509  26.461  28.720  1.00  0.00     0.060 C 
BRANCH  23  24
ATOM     24  C   UNL A   1      39.607  25.411  27.655  1.00  0.00    -0.008 A 
ATOM     25  C   UNL A   1      38.606  24.485  27.252  1.00  0.00     0.138 A 
ATOM     26  C   UNL A   1      40.686  25.079  26.862  1.00  0.00     0.108 A 
ATOM     27  N   UNL A   1      39.046  23.611  26.343  1.00  0.00    -0.184 NA
ATOM     28  N   UNL A   1      40.319  23.974  26.150  1.00  0.00    -0.285 N 
ATOM     29  H   UNL A   1      40.934  23.490  25.552  1.00  0.00     0.189 HD
ENDBRANCH  23  24
ENDBRANCH  22  23
ENDBRANCH  20  22
ENDBRANCH  14  20
ENDBRANCH   7   9
ENDBRANCH   6   7
ENDBRANCH   5   6
ENDBRANCH   4   5
ENDBRANCH   3   4
ENDBRANCH   2   3
ENDBRANCH   1   2
BRANCH   1  30
ATOM     30  O   UNL A   1      34.022  34.188  30.503  1.00  0.00    -0.377 OA
BRANCH  30  31
ATOM     31  C   UNL A   1      35.074  34.376  29.562  1.00  0.00     0.188 C 
BRANCH  31  32
ATOM     32  C   UNL A   1      36.368  33.539  29.636  1.00  0.00     0.188 C 
BRANCH  32  33
ATOM     33  O   UNL A   1      37.536  34.268  29.992  1.00  0.00    -0.376 OA
BRANCH  33  34
ATOM     34  C   UNL A   1      38.771  33.597  29.789  1.00  0.00     0.202 C 
BRANCH  34  35
ATOM     35  C   UNL A   1      39.775  34.376  28.932  1.00  0.00     0.261 C 
BRANCH  35  36
ATOM     36  O   UNL A   1      40.886  34.939  29.647  1.00  0.00    -0.460 OA
BRANCH  36  37
ATOM     37  C   UNL A   1      41.885  35.479  28.914  1.00  0.00     0.338 C 
ATOM     38  O   UNL A   1      42.063  36.660  28.675  1.00  0.00    -0.246 OA
BRANCH  37  39
ATOM     39  C   UNL A   1      42.871  34.412  28.636  1.00  0.00     0.060 A 
ATOM     40  C   UNL A   1      43.204  33.526  29.670  1.00  0.00     0.016 A 
ATOM     41  C   UNL A   1      43.423  34.254  27.360  1.00  0.00     0.016 A 
ATOM     42  C   UNL A   1      44.141  32.521  29.449  1.00  0.00     0.010 A 
ATOM     43  C   UNL A   1      44.384  33.264  27.146  1.00  0.00     0.010 A 
ATOM     44  C   UNL A   1      44.785  32.434  28.207  1.00  0.00    -0.014 A 
BRANCH  44  45
ATOM     45  C   UNL A   1      46.085  31.726  28.146  1.00  0.00     0.031 A 
ATOM     46  C   UNL A   1      46.044  30.250  27.846  1.00  0.00     0.074 A 
ATOM     47  C   UNL A   1      47.260  32.366  28.279  1.00  0.00     0.049 A 
ATOM     48  N   UNL A   1      47.026  29.408  27.662  1.00  0.00    -0.248 NA
ATOM     49  C   UNL A   1      44.704  29.645  27.730  1.00  0.00     0.031 C 
ATOM     50  C   UNL A   1      47.427  33.795  28.539  1.00  0.00     0.029 A 
ATOM     51  N   UNL A   1      48.542  31.885  28.202  1.00  0.00    -0.354 N 
ATOM     52  C   UNL A   1      46.424  28.185  27.391  1.00  0.00     0.074 A 
ATOM     53  C   UNL A   1      44.995  28.380  27.479  1.00  0.00     0.031 C 
ATOM     54  C   UNL A   1      48.742  34.074  28.600  1.00  0.00     0.029 A 
ATOM     55  C   UNL A   1      49.507  32.844  28.396  1.00  0.00     0.049 A 
ATOM     56  H   UNL A   1      48.752  30.940  28.025  1.00  0.00     0.167 HD
ATOM     57  C   UNL A   1      47.005  27.003  27.081  1.00  0.00     0.037 A 
ATOM     58  C   UNL A   1      50.850  32.732  28.404  1.00  0.00     0.037 A 
ATOM     59  C   UNL A   1      48.425  26.804  27.021  1.00  0.00     0.049 A 
ATOM     60  C   UNL A   1      51.478  31.389  28.122  1.00  0.00     0.074 A 
ATOM     61  C   UNL A   1      49.122  25.643  26.740  1.00  0.00     0.029 A 
ATOM     62  N   UNL A   1      49.369  27.793  27.258  1.00  0.00    -0.354 N 
ATOM     63  N   UNL A   1      50.898  30.243  27.846  1.00  0.00    -0.248 NA
ATOM     64  C   UNL A   1      52.947  31.328  28.138  1.00  0.00     0.031 C 
ATOM     65  C   UNL A   1      50.490  25.922  26.843  1.00  0.00     0.029 A 
ATOM     66  C   UNL A   1      50.643  27.267  27.141  1.00  0.00     0.049 A 
ATOM     67  H   UNL A   1      49.162  28.730  27.477  1.00  0.00     0.167 HD
ATOM     68  C   UNL A   1      51.931  29.336  27.621  1.00  0.00     0.074 A 
ATOM     69  C   UNL A   1      53.170  30.068  27.785  1.00  0.00     0.031 C 
ATOM     70  C   UNL A   1      51.863  28.019  27.300  1.00  0.00     0.037 A 
BRANCH  57  71
ATOM     71  C   UNL A   1      46.090  25.842  26.815  1.00  0.00     0.058 A 
ATOM     72  C   UNL A   1      45.635  25.012  27.852  1.00  0.00     0.135 A 
ATOM     73  C   UNL A   1      45.677  25.545  25.507  1.00  0.00     0.135 A 
ATOM     74  F   UNL A   1      46.025  25.234  29.118  1.00  0.00    -0.206 F 
ATOM     75  C   UNL A   1      44.824  23.911  27.600  1.00  0.00     0.059 A 
ATOM     76  C   UNL A   1      44.845  24.464  25.233  1.00  0.00     0.059 A 
ATOM     77  F   UNL A   1      46.095  26.299  24.478  1.00  0.00    -0.206 F 
ATOM     78  C   UNL A   1      44.437  23.643  26.285  1.00  0.00     0.060 A 
BRANCH  78  79
ATOM     79  S   UNL A   1      43.389  22.208  25.968  1.00  0.00     0.124 S 
ATOM     80  O   UNL A   1      44.384  21.149  25.825  1.00  0.00    -0.237 OA
ATOM     81  O   UNL A   1      42.568  22.148  27.173  1.00  0.00    -0.237 OA
ATOM     82  O   UNL A   1      42.678  22.570  24.747  1.00  0.00    -0.744 OA
ENDBRANCH  78  79
ENDBRANCH  57  71
BRANCH  58  83
ATOM     83  C   UNL A   1      51.701  33.923  28.674  1.00  0.00     0.058 A 
ATOM     84  C   UNL A   1      52.201  34.712  27.627  1.00  0.00     0.135 A 
ATOM     85  C   UNL A   1      52.048  34.283  29.985  1.00  0.00     0.135 A 
ATOM     86  F   UNL A   1      51.908  34.402  26.355  1.00  0.00    -0.206 F 
ATOM     87  C   UNL A   1      53.029  35.804  27.867  1.00  0.00     0.059 A 
ATOM     88  C   UNL A   1      52.856  35.385  30.252  1.00  0.00     0.059 A 
ATOM     89  F   UNL A   1      51.591  33.565  31.023  1.00  0.00    -0.206 F 
ATOM     90  C   UNL A   1      53.351  36.133  29.186  1.00  0.00     0.060 A 
BRANCH  90  91
ATOM     91  S   UNL A   1      54.394  37.576  29.491  1.00  0.00     0.124 S 
ATOM     92  O   UNL A   1      53.541  38.376  30.363  1.00  0.00    -0.237 OA
ATOM     93  O   UNL A   1      55.568  36.979  30.120  1.00  0.00    -0.237 OA
ATOM     94  O   UNL A   1      54.616  38.116  28.154  1.00  0.00    -0.744 OA
ENDBRANCH  90  91
ENDBRANCH  58  83
BRANCH  70  95
ATOM     95  C   UNL A   1      53.160  27.299  27.055  1.00  0.00     0.058 A 
ATOM     96  C   UNL A   1      53.805  26.567  28.065  1.00  0.00     0.135 A 
ATOM     97  C   UNL A   1      53.749  27.318  25.780  1.00  0.00     0.135 A 
ATOM     98  F   UNL A   1      53.283  26.516  29.300  1.00  0.00    -0.206 F 
ATOM     99  C   UNL A   1      55.011  25.913  27.829  1.00  0.00     0.059 A 
ATOM    100  C   UNL A   1      54.939  26.648  25.514  1.00  0.00     0.059 A 
ATOM    101  F   UNL A   1      53.164  27.987  24.774  1.00  0.00    -0.206 F 
ATOM    102  C   UNL A   1      55.572  25.965  26.552  1.00  0.00     0.060 A 
BRANCH 102 103
ATOM    103  S   UNL A   1      57.137  25.114  26.255  1.00  0.00     0.124 S 
ATOM    104  O   UNL A   1      57.044  23.997  27.190  1.00  0.00    -0.237 OA
ATOM    105  O   UNL A   1      57.043  24.766  24.841  1.00  0.00    -0.237 OA
ATOM    106  O   UNL A   1      58.139  26.125  26.579  1.00  0.00    -0.744 OA
ENDBRANCH 102 103
ENDBRANCH  70  95
ENDBRANCH  44  45
ENDBRANCH  37  39
ENDBRANCH  36  37
ENDBRANCH  35  36
ENDBRANCH  34  35
ENDBRANCH  33  34
ENDBRANCH  32  33
ENDBRANCH  31  32
ENDBRANCH  30  31
ENDBRANCH   1  30
TORSDOF 28
ENDMDL
