MODEL 1
REMARK VINA RESULT:      -7.9      0.000      0.000
REMARK SMILES C[C@@H](C(=O)OCCOCCOCCOCCOC(=O)c1ccc(-c2c3nc(c(-c4c(F)cc(S(=O)(=O)[O-])cc4F)c4ccc([nH]4)c(-c4c(F)cc(S(=O)(=O)[O-])cc4F)c4nc(c(-c5c(F)cc(S(=O)(=O)[O-])cc5F)c5ccc2[nH]5)C=C4)C=C3)cc1)c1ccc(-c2cccc(OC(=O)NCCC3CCCCC3)c2)c(F)c1
REMARK SMILES IDX 9 1 8 2 7 3 6 4 5 5 3 6 4 7 2 8 1 9 86 10 87 11 110 12 88 13
REMARK SMILES IDX 108 14 89 15 109 16 90 17 91 18 107 19 92 20 94 21 93 22
REMARK SMILES IDX 95 23 96 24 97 25 98 26 99 28 100 29 101 30 102 31 106 32
REMARK SMILES IDX 103 33 105 34 104 35 10 36 11 37 12 38 13 39 14 40 15 41
REMARK SMILES IDX 16 42 17 43 18 44 19 45 20 46 21 47 85 48 22 49 84 50 23 51
REMARK SMILES IDX 24 52 25 53 78 54 26 55 83 56 77 57 79 58 27 59 82 60 76 61
REMARK SMILES IDX 75 62 28 64 62 65 41 66 61 67 42 68 45 69 60 70 80 71 43 72
REMARK SMILES IDX 44 73 59 75 81 76 46 77 29 78 30 79 39 80 31 81 32 82 38 83
REMARK SMILES IDX 40 84 33 85 34 86 35 87 36 88 37 89 63 90 64 91 73 92 65 93
REMARK SMILES IDX 66 94 72 95 74 96 67 97 68 98 69 99 70 100 71 101 47 102
REMARK SMILES IDX 48 103 57 104 49 105 50 106 56 107 58 108 51 109 52 110
REMARK SMILES IDX 53 111 54 112 55 113
REMARK H PARENT 98 27 79 63 45 74
REMARK Flexibility Score: inf
ROOT
ATOM      1  C   UNL A   1      47.864  29.451  27.485  1.00  0.00     0.188 C 
ENDROOT
BRANCH   1   2
ATOM      2  O   UNL A   1      48.009  30.863  27.478  1.00  0.00    -0.376 OA
BRANCH   2   3
ATOM      3  C   UNL A   1      47.305  31.664  28.417  1.00  0.00     0.202 C 
BRANCH   3   4
ATOM      4  C   UNL A   1      47.242  33.202  28.318  1.00  0.00     0.261 C 
BRANCH   4   5
ATOM      5  O   UNL A   1      46.125  33.769  27.607  1.00  0.00    -0.463 OA
BRANCH   5   6
ATOM      6  C   UNL A   1      44.907  33.236  27.863  1.00  0.00     0.313 C 
ATOM      7  O   UNL A   1      44.699  32.406  28.744  1.00  0.00    -0.252 OA
BRANCH   6   8
ATOM      8  C   UNL A   1      43.771  33.793  26.977  1.00  0.00     0.126 C 
ATOM      9  C   UNL A   1      43.837  33.546  25.462  1.00  0.00     0.025 C 
BRANCH   8  10
ATOM     10  C   UNL A   1      43.430  35.229  27.387  1.00  0.00    -0.031 A 
ATOM     11  C   UNL A   1      43.065  36.256  26.499  1.00  0.00     0.005 A 
ATOM     12  C   UNL A   1      43.606  35.572  28.733  1.00  0.00     0.044 A 
ATOM     13  C   UNL A   1      42.926  37.585  26.939  1.00  0.00     0.012 A 
ATOM     14  C   UNL A   1      43.449  36.884  29.166  1.00  0.00     0.131 A 
ATOM     15  C   UNL A   1      43.129  37.925  28.284  1.00  0.00     0.018 A 
ATOM     16  F   UNL A   1      43.639  37.135  30.470  1.00  0.00    -0.206 F 
BRANCH  15  17
ATOM     17  C   UNL A   1      43.077  39.319  28.756  1.00  0.00    -0.012 A 
ATOM     18  C   UNL A   1      41.968  39.843  29.434  1.00  0.00     0.009 A 
ATOM     19  C   UNL A   1      44.184  40.162  28.544  1.00  0.00     0.056 A 
ATOM     20  C   UNL A   1      41.980  41.159  29.911  1.00  0.00     0.004 A 
ATOM     21  C   UNL A   1      44.192  41.475  29.004  1.00  0.00     0.133 A 
ATOM     22  C   UNL A   1      43.094  41.974  29.703  1.00  0.00     0.047 A 
BRANCH  21  23
ATOM     23  O   UNL A   1      45.277  42.372  28.828  1.00  0.00    -0.410 OA
BRANCH  23  24
ATOM     24  C   UNL A   1      45.574  43.428  29.687  1.00  0.00     0.412 C 
ATOM     25  O   UNL A   1      45.194  43.563  30.847  1.00  0.00    -0.224 OA
ATOM     26  N   UNL A   1      46.396  44.371  29.151  1.00  0.00    -0.321 N 
ATOM     27  H   UNL A   1      46.647  45.112  29.748  1.00  0.00     0.167 HD
BRANCH  26  28
ATOM     28  C   UNL A   1      46.950  44.424  27.817  1.00  0.00     0.119 C 
BRANCH  28  29
ATOM     29  C   UNL A   1      45.940  44.998  26.819  1.00  0.00     0.025 C 
BRANCH  29  30
ATOM     30  C   UNL A   1      45.441  43.991  25.758  1.00  0.00    -0.009 C 
ATOM     31  C   UNL A   1      44.632  44.678  24.645  1.00  0.00     0.003 C 
ATOM     32  C   UNL A   1      46.634  43.220  25.167  1.00  0.00     0.003 C 
ATOM     33  C   UNL A   1      44.217  43.700  23.547  1.00  0.00     0.000 C 
ATOM     34  C   UNL A   1      46.194  42.239  24.083  1.00  0.00     0.000 C 
ATOM     35  C   UNL A   1      45.412  42.943  22.981  1.00  0.00     0.000 C 
ENDBRANCH  29  30
ENDBRANCH  28  29
ENDBRANCH  26  28
ENDBRANCH  23  24
ENDBRANCH  21  23
ENDBRANCH  15  17
ENDBRANCH   8  10
ENDBRANCH   6   8
ENDBRANCH   5   6
ENDBRANCH   4   5
ENDBRANCH   3   4
ENDBRANCH   2   3
ENDBRANCH   1   2
BRANCH   1  36
ATOM     36  C   UNL A   1      48.935  28.558  26.833  1.00  0.00     0.188 C 
BRANCH  36  37
ATOM     37  O   UNL A   1      48.812  28.400  25.435  1.00  0.00    -0.377 OA
BRANCH  37  38
ATOM     38  C   UNL A   1      48.327  27.150  24.972  1.00  0.00     0.188 C 
BRANCH  38  39
ATOM     39  C   UNL A   1      46.827  27.029  24.645  1.00  0.00     0.188 C 
BRANCH  39  40
ATOM     40  O   UNL A   1      46.335  25.692  24.646  1.00  0.00    -0.376 OA
BRANCH  40  41
ATOM     41  C   UNL A   1      45.037  25.443  25.163  1.00  0.00     0.202 C 
BRANCH  41  42
ATOM     42  C   UNL A   1      44.852  24.208  26.062  1.00  0.00     0.261 C 
BRANCH  42  43
ATOM     43  O   UNL A   1      43.833  24.291  27.066  1.00  0.00    -0.460 OA
BRANCH  43  44
ATOM     44  C   UNL A   1      42.591  24.649  26.674  1.00  0.00     0.338 C 
ATOM     45  O   UNL A   1      41.900  24.091  25.843  1.00  0.00    -0.246 OA
BRANCH  44  46
ATOM     46  C   UNL A   1      42.123  25.720  27.581  1.00  0.00     0.060 A 
ATOM     47  C   UNL A   1      42.802  26.945  27.587  1.00  0.00     0.016 A 
ATOM     48  C   UNL A   1      41.012  25.525  28.405  1.00  0.00     0.016 A 
ATOM     49  C   UNL A   1      42.396  27.966  28.445  1.00  0.00     0.010 A 
ATOM     50  C   UNL A   1      40.622  26.539  29.284  1.00  0.00     0.010 A 
ATOM     51  C   UNL A   1      41.333  27.751  29.333  1.00  0.00    -0.014 A 
BRANCH  51  52
ATOM     52  C   UNL A   1      41.108  28.700  30.450  1.00  0.00     0.031 A 
ATOM     53  C   UNL A   1      41.977  28.575  31.673  1.00  0.00     0.074 A 
ATOM     54  C   UNL A   1      40.179  29.669  30.376  1.00  0.00     0.049 A 
ATOM     55  N   UNL A   1      41.932  29.237  32.797  1.00  0.00    -0.248 NA
ATOM     56  C   UNL A   1      43.044  27.560  31.614  1.00  0.00     0.031 C 
ATOM     57  C   UNL A   1      39.310  29.922  29.228  1.00  0.00     0.029 A 
ATOM     58  N   UNL A   1      39.806  30.617  31.297  1.00  0.00    -0.354 N 
ATOM     59  C   UNL A   1      42.960  28.723  33.580  1.00  0.00     0.074 A 
ATOM     60  C   UNL A   1      43.585  27.666  32.818  1.00  0.00     0.031 C 
ATOM     61  C   UNL A   1      38.490  30.947  29.521  1.00  0.00     0.029 A 
ATOM     62  C   UNL A   1      38.751  31.398  30.889  1.00  0.00     0.049 A 
ATOM     63  H   UNL A   1      40.251  30.726  32.168  1.00  0.00     0.167 HD
ATOM     64  C   UNL A   1      43.355  29.107  34.815  1.00  0.00     0.037 A 
ATOM     65  C   UNL A   1      38.059  32.347  31.552  1.00  0.00     0.037 A 
ATOM     66  C   UNL A   1      42.719  30.154  35.573  1.00  0.00     0.049 A 
ATOM     67  C   UNL A   1      38.461  32.704  32.961  1.00  0.00     0.074 A 
ATOM     68  C   UNL A   1      43.035  30.612  36.839  1.00  0.00     0.029 A 
ATOM     69  N   UNL A   1      41.637  30.904  35.135  1.00  0.00    -0.354 N 
ATOM     70  N   UNL A   1      39.431  32.207  33.693  1.00  0.00    -0.248 NA
ATOM     71  C   UNL A   1      37.681  33.753  33.633  1.00  0.00     0.031 C 
ATOM     72  C   UNL A   1      42.111  31.601  37.189  1.00  0.00     0.029 A 
ATOM     73  C   UNL A   1      41.261  31.807  36.114  1.00  0.00     0.049 A 
ATOM     74  H   UNL A   1      41.201  30.808  34.258  1.00  0.00     0.167 HD
ATOM     75  C   UNL A   1      39.395  32.903  34.899  1.00  0.00     0.074 A 
ATOM     76  C   UNL A   1      38.315  33.862  34.793  1.00  0.00     0.031 C 
ATOM     77  C   UNL A   1      40.186  32.762  35.993  1.00  0.00     0.037 A 
BRANCH  64  78
ATOM     78  C   UNL A   1      44.518  28.380  35.433  1.00  0.00     0.058 A 
ATOM     79  C   UNL A   1      45.843  28.794  35.221  1.00  0.00     0.135 A 
ATOM     80  C   UNL A   1      44.304  27.277  36.275  1.00  0.00     0.135 A 
ATOM     81  F   UNL A   1      46.107  29.827  34.405  1.00  0.00    -0.206 F 
ATOM     82  C   UNL A   1      46.916  28.129  35.807  1.00  0.00     0.059 A 
ATOM     83  C   UNL A   1      45.360  26.617  36.897  1.00  0.00     0.059 A 
ATOM     84  F   UNL A   1      43.058  26.834  36.506  1.00  0.00    -0.206 F 
ATOM     85  C   UNL A   1      46.663  27.044  36.648  1.00  0.00     0.060 A 
BRANCH  85  86
ATOM     86  S   UNL A   1      48.065  26.208  37.417  1.00  0.00     0.124 S 
ATOM     87  O   UNL A   1      47.392  25.206  38.240  1.00  0.00    -0.237 OA
ATOM     88  O   UNL A   1      48.791  25.693  36.261  1.00  0.00    -0.237 OA
ATOM     89  O   UNL A   1      48.737  27.274  38.154  1.00  0.00    -0.744 OA
ENDBRANCH  85  86
ENDBRANCH  64  78
BRANCH  65  90
ATOM     90  C   UNL A   1      36.901  33.012  30.897  1.00  0.00     0.058 A 
ATOM     91  C   UNL A   1      37.081  33.966  29.884  1.00  0.00     0.135 A 
ATOM     92  C   UNL A   1      35.583  32.693  31.263  1.00  0.00     0.135 A 
ATOM     93  F   UNL A   1      38.320  34.319  29.509  1.00  0.00    -0.206 F 
ATOM     94  C   UNL A   1      36.001  34.584  29.262  1.00  0.00     0.059 A 
ATOM     95  C   UNL A   1      34.486  33.276  30.636  1.00  0.00     0.059 A 
ATOM     96  F   UNL A   1      35.352  31.783  32.223  1.00  0.00    -0.206 F 
ATOM     97  C   UNL A   1      34.705  34.225  29.639  1.00  0.00     0.060 A 
BRANCH  97  98
ATOM     98  S   UNL A   1      33.311  34.980  28.775  1.00  0.00     0.124 S 
ATOM     99  O   UNL A   1      33.869  36.268  28.382  1.00  0.00    -0.237 OA
ATOM    100  O   UNL A   1      33.075  34.029  27.693  1.00  0.00    -0.237 OA
ATOM    101  O   UNL A   1      32.269  35.028  29.796  1.00  0.00    -0.744 OA
ENDBRANCH  97  98
ENDBRANCH  65  90
BRANCH  77 102
ATOM    102  C   UNL A   1      39.948  33.692  37.155  1.00  0.00     0.058 A 
ATOM    103  C   UNL A   1      40.647  34.900  37.294  1.00  0.00     0.135 A 
ATOM    104  C   UNL A   1      38.959  33.395  38.108  1.00  0.00     0.135 A 
ATOM    105  F   UNL A   1      41.605  35.234  36.415  1.00  0.00    -0.206 F 
ATOM    106  C   UNL A   1      40.391  35.771  38.350  1.00  0.00     0.059 A 
ATOM    107  C   UNL A   1      38.664  34.265  39.152  1.00  0.00     0.059 A 
ATOM    108  F   UNL A   1      38.250  32.258  38.016  1.00  0.00    -0.206 F 
ATOM    109  C   UNL A   1      39.394  35.447  39.272  1.00  0.00     0.060 A 
BRANCH 109 110
ATOM    110  S   UNL A   1      39.050  36.601  40.616  1.00  0.00     0.124 S 
ATOM    111  O   UNL A   1      38.550  37.762  39.888  1.00  0.00    -0.237 OA
ATOM    112  O   UNL A   1      38.060  35.873  41.406  1.00  0.00    -0.237 OA
ATOM    113  O   UNL A   1      40.350  36.775  41.258  1.00  0.00    -0.744 OA
ENDBRANCH 109 110
ENDBRANCH  77 102
ENDBRANCH  51  52
ENDBRANCH  44  46
ENDBRANCH  43  44
ENDBRANCH  42  43
ENDBRANCH  41  42
ENDBRANCH  40  41
ENDBRANCH  39  40
ENDBRANCH  38  39
ENDBRANCH  37  38
ENDBRANCH  36  37
ENDBRANCH   1  36
TORSDOF 30
ENDMDL
MODEL 2
REMARK VINA RESULT:      -7.5      1.517      3.231
REMARK SMILES C[C@@H](C(=O)OCCOCCOCCOCCOC(=O)c1ccc(-c2c3nc(c(-c4c(F)cc(S(=O)(=O)[O-])cc4F)c4ccc([nH]4)c(-c4c(F)cc(S(=O)(=O)[O-])cc4F)c4nc(c(-c5c(F)cc(S(=O)(=O)[O-])cc5F)c5ccc2[nH]5)C=C4)C=C3)cc1)c1ccc(-c2cccc(OC(=O)NCCC3CCCCC3)c2)c(F)c1
REMARK SMILES IDX 9 1 8 2 7 3 6 4 5 5 3 6 4 7 2 8 1 9 86 10 87 11 110 12 88 13
REMARK SMILES IDX 108 14 89 15 109 16 90 17 91 18 107 19 92 20 94 21 93 22
REMARK SMILES IDX 95 23 96 24 97 25 98 26 99 28 100 29 101 30 102 31 106 32
REMARK SMILES IDX 103 33 105 34 104 35 10 36 11 37 12 38 13 39 14 40 15 41
REMARK SMILES IDX 16 42 17 43 18 44 19 45 20 46 21 47 85 48 22 49 84 50 23 51
REMARK SMILES IDX 24 52 25 53 78 54 26 55 83 56 77 57 79 58 27 59 82 60 76 61
REMARK SMILES IDX 75 62 28 64 62 65 41 66 61 67 42 68 45 69 60 70 80 71 43 72
REMARK SMILES IDX 44 73 59 75 81 76 46 77 29 78 30 79 39 80 31 81 32 82 38 83
REMARK SMILES IDX 40 84 33 85 34 86 35 87 36 88 37 89 63 90 64 91 73 92 65 93
REMARK SMILES IDX 66 94 72 95 74 96 67 97 68 98 69 99 70 100 71 101 47 102
REMARK SMILES IDX 48 103 57 104 49 105 50 106 56 107 58 108 51 109 52 110
REMARK SMILES IDX 53 111 54 112 55 113
REMARK H PARENT 98 27 79 63 45 74
REMARK Flexibility Score: inf
ROOT
ATOM      1  C   UNL A   1      48.047  29.707  27.758  1.00  0.00     0.188 C 
ENDROOT
BRANCH   1   2
ATOM      2  O   UNL A   1      48.314  31.100  27.813  1.00  0.00    -0.376 OA
BRANCH   2   3
ATOM      3  C   UNL A   1      47.739  31.903  28.834  1.00  0.00     0.202 C 
BRANCH   3   4
ATOM      4  C   UNL A   1      47.773  33.446  28.799  1.00  0.00     0.261 C 
BRANCH   4   5
ATOM      5  O   UNL A   1      46.627  34.115  28.239  1.00  0.00    -0.463 OA
BRANCH   5   6
ATOM      6  C   UNL A   1      45.411  33.629  28.582  1.00  0.00     0.313 C 
ATOM      7  O   UNL A   1      45.235  32.806  29.477  1.00  0.00    -0.252 OA
BRANCH   6   8
ATOM      8  C   UNL A   1      44.237  34.229  27.778  1.00  0.00     0.126 C 
ATOM      9  C   UNL A   1      43.986  33.713  26.354  1.00  0.00     0.025 C 
BRANCH   8  10
ATOM     10  C   UNL A   1      44.211  35.754  27.931  1.00  0.00    -0.031 A 
ATOM     11  C   UNL A   1      43.763  36.654  26.948  1.00  0.00     0.005 A 
ATOM     12  C   UNL A   1      44.782  36.294  29.089  1.00  0.00     0.044 A 
ATOM     13  C   UNL A   1      43.924  38.043  27.106  1.00  0.00     0.012 A 
ATOM     14  C   UNL A   1      44.922  37.667  29.248  1.00  0.00     0.131 A 
ATOM     15  C   UNL A   1      44.520  38.575  28.257  1.00  0.00     0.018 A 
ATOM     16  F   UNL A   1      45.482  38.109  30.384  1.00  0.00    -0.206 F 
BRANCH  15  17
ATOM     17  C   UNL A   1      44.781  40.017  28.410  1.00  0.00    -0.012 A 
ATOM     18  C   UNL A   1      45.282  40.805  27.365  1.00  0.00     0.009 A 
ATOM     19  C   UNL A   1      44.502  40.643  29.639  1.00  0.00     0.056 A 
ATOM     20  C   UNL A   1      45.467  42.182  27.537  1.00  0.00     0.004 A 
ATOM     21  C   UNL A   1      44.701  42.008  29.818  1.00  0.00     0.133 A 
ATOM     22  C   UNL A   1      45.171  42.786  28.761  1.00  0.00     0.047 A 
BRANCH  21  23
ATOM     23  O   UNL A   1      44.434  42.699  31.027  1.00  0.00    -0.410 OA
BRANCH  23  24
ATOM     24  C   UNL A   1      43.336  43.530  31.234  1.00  0.00     0.412 C 
ATOM     25  O   UNL A   1      43.152  44.644  30.748  1.00  0.00    -0.224 OA
ATOM     26  N   UNL A   1      42.379  43.001  32.046  1.00  0.00    -0.321 N 
ATOM     27  H   UNL A   1      41.578  43.557  32.183  1.00  0.00     0.167 HD
BRANCH  26  28
ATOM     28  C   UNL A   1      42.388  41.729  32.731  1.00  0.00     0.119 C 
BRANCH  28  29
ATOM     29  C   UNL A   1      43.628  41.585  33.618  1.00  0.00     0.025 C 
BRANCH  29  30
ATOM     30  C   UNL A   1      44.244  40.168  33.636  1.00  0.00    -0.009 C 
ATOM     31  C   UNL A   1      44.776  39.787  35.028  1.00  0.00     0.003 C 
ATOM     32  C   UNL A   1      43.206  39.141  33.152  1.00  0.00     0.003 C 
ATOM     33  C   UNL A   1      45.300  38.353  35.072  1.00  0.00     0.000 C 
ATOM     34  C   UNL A   1      43.756  37.717  33.190  1.00  0.00     0.000 C 
ATOM     35  C   UNL A   1      44.260  37.354  34.582  1.00  0.00     0.000 C 
ENDBRANCH  29  30
ENDBRANCH  28  29
ENDBRANCH  26  28
ENDBRANCH  23  24
ENDBRANCH  21  23
ENDBRANCH  15  17
ENDBRANCH   8  10
ENDBRANCH   6   8
ENDBRANCH   5   6
ENDBRANCH   4   5
ENDBRANCH   3   4
ENDBRANCH   2   3
ENDBRANCH   1   2
BRANCH   1  36
ATOM     36  C   UNL A   1      49.070  28.746  27.126  1.00  0.00     0.188 C 
BRANCH  36  37
ATOM     37  O   UNL A   1      49.041  28.682  25.716  1.00  0.00    -0.377 OA
BRANCH  37  38
ATOM     38  C   UNL A   1      48.573  27.474  25.139  1.00  0.00     0.188 C 
BRANCH  38  39
ATOM     39  C   UNL A   1      47.079  27.371  24.779  1.00  0.00     0.188 C 
BRANCH  39  40
ATOM     40  O   UNL A   1      46.591  26.036  24.688  1.00  0.00    -0.376 OA
BRANCH  40  41
ATOM     41  C   UNL A   1      45.294  25.750  25.187  1.00  0.00     0.202 C 
BRANCH  41  42
ATOM     42  C   UNL A   1      45.130  24.500  26.070  1.00  0.00     0.261 C 
BRANCH  42  43
ATOM     43  O   UNL A   1      44.072  24.532  27.037  1.00  0.00    -0.460 OA
BRANCH  43  44
ATOM     44  C   UNL A   1      42.837  24.871  26.608  1.00  0.00     0.338 C 
ATOM     45  O   UNL A   1      42.194  24.327  25.730  1.00  0.00    -0.246 OA
BRANCH  44  46
ATOM     46  C   UNL A   1      42.305  25.897  27.532  1.00  0.00     0.060 A 
ATOM     47  C   UNL A   1      42.869  27.179  27.515  1.00  0.00     0.016 A 
ATOM     48  C   UNL A   1      41.248  25.602  28.395  1.00  0.00     0.016 A 
ATOM     49  C   UNL A   1      42.402  28.161  28.388  1.00  0.00     0.010 A 
ATOM     50  C   UNL A   1      40.798  26.579  29.289  1.00  0.00     0.010 A 
ATOM     51  C   UNL A   1      41.396  27.851  29.313  1.00  0.00    -0.014 A 
BRANCH  51  52
ATOM     52  C   UNL A   1      41.124  28.778  30.439  1.00  0.00     0.031 A 
ATOM     53  C   UNL A   1      41.976  28.660  31.675  1.00  0.00     0.074 A 
ATOM     54  C   UNL A   1      40.170  29.721  30.361  1.00  0.00     0.049 A 
ATOM     55  N   UNL A   1      41.891  29.306  32.807  1.00  0.00    -0.248 NA
ATOM     56  C   UNL A   1      43.071  27.676  31.622  1.00  0.00     0.031 C 
ATOM     57  C   UNL A   1      39.315  29.966  29.201  1.00  0.00     0.029 A 
ATOM     58  N   UNL A   1      39.754  30.646  31.287  1.00  0.00    -0.354 N 
ATOM     59  C   UNL A   1      42.920  28.810  33.601  1.00  0.00     0.074 A 
ATOM     60  C   UNL A   1      43.588  27.781  32.837  1.00  0.00     0.031 C 
ATOM     61  C   UNL A   1      38.461  30.963  29.493  1.00  0.00     0.029 A 
ATOM     62  C   UNL A   1      38.685  31.402  30.871  1.00  0.00     0.049 A 
ATOM     63  H   UNL A   1      40.181  30.756  32.167  1.00  0.00     0.167 HD
ATOM     64  C   UNL A   1      43.282  29.188  34.848  1.00  0.00     0.037 A 
ATOM     65  C   UNL A   1      37.955  32.322  31.534  1.00  0.00     0.037 A 
ATOM     66  C   UNL A   1      42.604  30.206  35.608  1.00  0.00     0.049 A 
ATOM     67  C   UNL A   1      38.323  32.672  32.954  1.00  0.00     0.074 A 
ATOM     68  C   UNL A   1      42.885  30.655  36.886  1.00  0.00     0.029 A 
ATOM     69  N   UNL A   1      41.509  30.931  35.161  1.00  0.00    -0.354 N 
ATOM     70  N   UNL A   1      39.293  32.192  33.698  1.00  0.00    -0.248 NA
ATOM     71  C   UNL A   1      37.502  33.689  33.626  1.00  0.00     0.031 C 
ATOM     72  C   UNL A   1      41.927  31.613  37.232  1.00  0.00     0.029 A 
ATOM     73  C   UNL A   1      41.091  31.810  36.145  1.00  0.00     0.049 A 
ATOM     74  H   UNL A   1      41.091  30.835  34.275  1.00  0.00     0.167 HD
ATOM     75  C   UNL A   1      39.216  32.870  34.911  1.00  0.00     0.074 A 
ATOM     76  C   UNL A   1      38.111  33.799  34.799  1.00  0.00     0.031 C 
ATOM     77  C   UNL A   1      39.991  32.736  36.018  1.00  0.00     0.037 A 
BRANCH  64  78
ATOM     78  C   UNL A   1      44.454  28.485  35.477  1.00  0.00     0.058 A 
ATOM     79  C   UNL A   1      44.286  27.355  36.293  1.00  0.00     0.135 A 
ATOM     80  C   UNL A   1      45.765  28.926  35.233  1.00  0.00     0.135 A 
ATOM     81  F   UNL A   1      43.054  26.904  36.579  1.00  0.00    -0.206 F 
ATOM     82  C   UNL A   1      45.373  26.697  36.858  1.00  0.00     0.059 A 
ATOM     83  C   UNL A   1      46.870  28.265  35.763  1.00  0.00     0.059 A 
ATOM     84  F   UNL A   1      45.984  30.007  34.467  1.00  0.00    -0.206 F 
ATOM     85  C   UNL A   1      46.662  27.157  36.584  1.00  0.00     0.060 A 
BRANCH  85  86
ATOM     86  S   UNL A   1      48.062  26.279  37.309  1.00  0.00     0.124 S 
ATOM     87  O   UNL A   1      49.053  26.377  36.241  1.00  0.00    -0.237 OA
ATOM     88  O   UNL A   1      48.337  27.069  38.504  1.00  0.00    -0.237 OA
ATOM     89  O   UNL A   1      47.535  24.939  37.553  1.00  0.00    -0.744 OA
ENDBRANCH  85  86
ENDBRANCH  64  78
BRANCH  65  90
ATOM     90  C   UNL A   1      36.790  32.964  30.867  1.00  0.00     0.058 A 
ATOM     91  C   UNL A   1      36.960  33.984  29.919  1.00  0.00     0.135 A 
ATOM     92  C   UNL A   1      35.477  32.557  31.156  1.00  0.00     0.135 A 
ATOM     93  F   UNL A   1      38.192  34.422  29.619  1.00  0.00    -0.206 F 
ATOM     94  C   UNL A   1      35.874  34.580  29.286  1.00  0.00     0.059 A 
ATOM     95  C   UNL A   1      34.377  33.117  30.515  1.00  0.00     0.059 A 
ATOM     96  F   UNL A   1      35.258  31.581  32.052  1.00  0.00    -0.206 F 
ATOM     97  C   UNL A   1      34.585  34.133  29.585  1.00  0.00     0.060 A 
BRANCH  97  98
ATOM     98  S   UNL A   1      33.188  34.865  28.703  1.00  0.00     0.124 S 
ATOM     99  O   UNL A   1      32.290  35.199  29.801  1.00  0.00    -0.237 OA
ATOM    100  O   UNL A   1      33.816  35.994  28.025  1.00  0.00    -0.237 OA
ATOM    101  O   UNL A   1      32.742  33.786  27.828  1.00  0.00    -0.744 OA
ENDBRANCH  97  98
ENDBRANCH  65  90
BRANCH  77 102
ATOM    102  C   UNL A   1      39.707  33.643  37.188  1.00  0.00     0.058 A 
ATOM    103  C   UNL A   1      38.805  33.286  38.201  1.00  0.00     0.135 A 
ATOM    104  C   UNL A   1      40.399  34.858  37.326  1.00  0.00     0.135 A 
ATOM    105  F   UNL A   1      38.114  32.138  38.119  1.00  0.00    -0.206 F 
ATOM    106  C   UNL A   1      38.580  34.113  39.299  1.00  0.00     0.059 A 
ATOM    107  C   UNL A   1      40.214  35.684  38.429  1.00  0.00     0.059 A 
ATOM    108  F   UNL A   1      41.284  35.243  36.392  1.00  0.00    -0.206 F 
ATOM    109  C   UNL A   1      39.293  35.309  39.406  1.00  0.00     0.060 A 
BRANCH 109 110
ATOM    110  S   UNL A   1      39.015  36.355  40.850  1.00  0.00     0.124 S 
ATOM    111  O   UNL A   1      38.546  37.592  40.233  1.00  0.00    -0.237 OA
ATOM    112  O   UNL A   1      38.012  35.597  41.594  1.00  0.00    -0.237 OA
ATOM    113  O   UNL A   1      40.331  36.427  41.478  1.00  0.00    -0.744 OA
ENDBRANCH 109 110
ENDBRANCH  77 102
ENDBRANCH  51  52
ENDBRANCH  44  46
ENDBRANCH  43  44
ENDBRANCH  42  43
ENDBRANCH  41  42
ENDBRANCH  40  41
ENDBRANCH  39  40
ENDBRANCH  38  39
ENDBRANCH  37  38
ENDBRANCH  36  37
ENDBRANCH   1  36
TORSDOF 30
ENDMDL
MODEL 3
REMARK VINA RESULT:      -7.4      5.393     10.969
REMARK SMILES C[C@@H](C(=O)OCCOCCOCCOCCOC(=O)c1ccc(-c2c3nc(c(-c4c(F)cc(S(=O)(=O)[O-])cc4F)c4ccc([nH]4)c(-c4c(F)cc(S(=O)(=O)[O-])cc4F)c4nc(c(-c5c(F)cc(S(=O)(=O)[O-])cc5F)c5ccc2[nH]5)C=C4)C=C3)cc1)c1ccc(-c2cccc(OC(=O)NCCC3CCCCC3)c2)c(F)c1
REMARK SMILES IDX 9 1 8 2 7 3 6 4 5 5 3 6 4 7 2 8 1 9 86 10 87 11 110 12 88 13
REMARK SMILES IDX 108 14 89 15 109 16 90 17 91 18 107 19 92 20 94 21 93 22
REMARK SMILES IDX 95 23 96 24 97 25 98 26 99 28 100 29 101 30 102 31 106 32
REMARK SMILES IDX 103 33 105 34 104 35 10 36 11 37 12 38 13 39 14 40 15 41
REMARK SMILES IDX 16 42 17 43 18 44 19 45 20 46 21 47 85 48 22 49 84 50 23 51
REMARK SMILES IDX 24 52 25 53 78 54 26 55 83 56 77 57 79 58 27 59 82 60 76 61
REMARK SMILES IDX 75 62 28 64 62 65 41 66 61 67 42 68 45 69 60 70 80 71 43 72
REMARK SMILES IDX 44 73 59 75 81 76 46 77 29 78 30 79 39 80 31 81 32 82 38 83
REMARK SMILES IDX 40 84 33 85 34 86 35 87 36 88 37 89 63 90 64 91 73 92 65 93
REMARK SMILES IDX 66 94 72 95 74 96 67 97 68 98 69 99 70 100 71 101 47 102
REMARK SMILES IDX 48 103 57 104 49 105 50 106 56 107 58 108 51 109 52 110
REMARK SMILES IDX 53 111 54 112 55 113
REMARK H PARENT 98 27 79 63 45 74
REMARK Flexibility Score: inf
ROOT
ATOM      1  C   UNL A   1      49.254  39.447  35.621  1.00  0.00     0.188 C 
ENDROOT
BRANCH   1   2
ATOM      2  O   UNL A   1      48.135  40.180  36.094  1.00  0.00    -0.376 OA
BRANCH   2   3
ATOM      3  C   UNL A   1      47.155  40.665  35.186  1.00  0.00     0.202 C 
BRANCH   3   4
ATOM      4  C   UNL A   1      45.874  41.387  35.651  1.00  0.00     0.261 C 
BRANCH   4   5
ATOM      5  O   UNL A   1      45.597  42.675  35.067  1.00  0.00    -0.463 OA
BRANCH   5   6
ATOM      6  C   UNL A   1      44.293  43.020  34.945  1.00  0.00     0.313 C 
ATOM      7  O   UNL A   1      43.444  42.780  35.799  1.00  0.00    -0.252 OA
BRANCH   6   8
ATOM      8  C   UNL A   1      43.959  43.790  33.648  1.00  0.00     0.126 C 
ATOM      9  C   UNL A   1      42.655  44.600  33.595  1.00  0.00     0.025 C 
BRANCH   8  10
ATOM     10  C   UNL A   1      44.230  42.913  32.422  1.00  0.00    -0.031 A 
ATOM     11  C   UNL A   1      43.496  41.765  32.075  1.00  0.00     0.005 A 
ATOM     12  C   UNL A   1      45.363  43.211  31.656  1.00  0.00     0.044 A 
ATOM     13  C   UNL A   1      43.911  40.925  31.025  1.00  0.00     0.012 A 
ATOM     14  C   UNL A   1      45.758  42.388  30.608  1.00  0.00     0.131 A 
ATOM     15  C   UNL A   1      45.061  41.217  30.279  1.00  0.00     0.018 A 
ATOM     16  F   UNL A   1      46.857  42.737  29.922  1.00  0.00    -0.206 F 
BRANCH  15  17
ATOM     17  C   UNL A   1      45.568  40.310  29.234  1.00  0.00    -0.012 A 
ATOM     18  C   UNL A   1      46.283  39.143  29.533  1.00  0.00     0.009 A 
ATOM     19  C   UNL A   1      45.313  40.605  27.882  1.00  0.00     0.056 A 
ATOM     20  C   UNL A   1      46.703  38.282  28.512  1.00  0.00     0.004 A 
ATOM     21  C   UNL A   1      45.744  39.759  26.864  1.00  0.00     0.133 A 
ATOM     22  C   UNL A   1      46.428  38.586  27.177  1.00  0.00     0.047 A 
BRANCH  21  23
ATOM     23  O   UNL A   1      45.515  39.995  25.484  1.00  0.00    -0.410 OA
BRANCH  23  24
ATOM     24  C   UNL A   1      46.520  40.153  24.534  1.00  0.00     0.412 C 
ATOM     25  O   UNL A   1      47.316  39.298  24.153  1.00  0.00    -0.224 OA
ATOM     26  N   UNL A   1      46.570  41.394  23.974  1.00  0.00    -0.321 N 
ATOM     27  H   UNL A   1      47.253  41.522  23.276  1.00  0.00     0.167 HD
BRANCH  26  28
ATOM     28  C   UNL A   1      45.751  42.546  24.273  1.00  0.00     0.119 C 
BRANCH  28  29
ATOM     29  C   UNL A   1      46.511  43.850  24.015  1.00  0.00     0.025 C 
BRANCH  29  30
ATOM     30  C   UNL A   1      46.802  44.685  25.281  1.00  0.00    -0.009 C 
ATOM     31  C   UNL A   1      45.523  45.298  25.877  1.00  0.00     0.003 C 
ATOM     32  C   UNL A   1      47.526  43.817  26.325  1.00  0.00     0.003 C 
ATOM     33  C   UNL A   1      45.796  46.046  27.180  1.00  0.00     0.000 C 
ATOM     34  C   UNL A   1      47.801  44.589  27.613  1.00  0.00     0.000 C 
ATOM     35  C   UNL A   1      46.519  45.170  28.196  1.00  0.00     0.000 C 
ENDBRANCH  29  30
ENDBRANCH  28  29
ENDBRANCH  26  28
ENDBRANCH  23  24
ENDBRANCH  21  23
ENDBRANCH  15  17
ENDBRANCH   8  10
ENDBRANCH   6   8
ENDBRANCH   5   6
ENDBRANCH   4   5
ENDBRANCH   3   4
ENDBRANCH   2   3
ENDBRANCH   1   2
BRANCH   1  36
ATOM     36  C   UNL A   1      49.762  39.652  34.182  1.00  0.00     0.188 C 
BRANCH  36  37
ATOM     37  O   UNL A   1      50.788  40.612  34.041  1.00  0.00    -0.377 OA
BRANCH  37  38
ATOM     38  C   UNL A   1      51.891  40.257  33.223  1.00  0.00     0.188 C 
BRANCH  38  39
ATOM     39  C   UNL A   1      51.671  40.174  31.701  1.00  0.00     0.188 C 
BRANCH  39  40
ATOM     40  O   UNL A   1      52.170  38.981  31.103  1.00  0.00    -0.376 OA
BRANCH  40  41
ATOM     41  C   UNL A   1      51.782  37.730  31.649  1.00  0.00     0.202 C 
BRANCH  41  42
ATOM     42  C   UNL A   1      51.357  36.625  30.665  1.00  0.00     0.261 C 
BRANCH  42  43
ATOM     43  O   UNL A   1      49.950  36.480  30.431  1.00  0.00    -0.460 OA
BRANCH  43  44
ATOM     44  C   UNL A   1      49.531  36.392  29.150  1.00  0.00     0.338 C 
ATOM     45  O   UNL A   1      49.925  37.052  28.206  1.00  0.00    -0.246 OA
BRANCH  44  46
ATOM     46  C   UNL A   1      48.653  35.206  29.043  1.00  0.00     0.060 A 
ATOM     47  C   UNL A   1      48.548  34.342  30.141  1.00  0.00     0.016 A 
ATOM     48  C   UNL A   1      47.925  34.958  27.877  1.00  0.00     0.016 A 
ATOM     49  C   UNL A   1      47.743  33.207  30.063  1.00  0.00     0.010 A 
ATOM     50  C   UNL A   1      47.139  33.805  27.791  1.00  0.00     0.010 A 
ATOM     51  C   UNL A   1      47.073  32.907  28.870  1.00  0.00    -0.014 A 
BRANCH  51  52
ATOM     52  C   UNL A   1      46.485  31.559  28.679  1.00  0.00     0.031 A 
ATOM     53  C   UNL A   1      47.362  30.478  28.104  1.00  0.00     0.074 A 
ATOM     54  C   UNL A   1      45.217  31.285  29.032  1.00  0.00     0.049 A 
ATOM     55  N   UNL A   1      47.063  29.248  27.783  1.00  0.00    -0.248 NA
ATOM     56  C   UNL A   1      48.768  30.841  27.857  1.00  0.00     0.031 C 
ATOM     57  C   UNL A   1      44.286  32.232  29.643  1.00  0.00     0.029 A 
ATOM     58  N   UNL A   1      44.491  30.125  28.916  1.00  0.00    -0.354 N 
ATOM     59  C   UNL A   1      48.241  28.689  27.299  1.00  0.00     0.074 A 
ATOM     60  C   UNL A   1      49.247  29.726  27.328  1.00  0.00     0.031 C 
ATOM     61  C   UNL A   1      43.103  31.620  29.830  1.00  0.00     0.029 A 
ATOM     62  C   UNL A   1      43.183  30.250  29.321  1.00  0.00     0.049 A 
ATOM     63  H   UNL A   1      44.870  29.284  28.575  1.00  0.00     0.167 HD
ATOM     64  C   UNL A   1      48.465  27.422  26.880  1.00  0.00     0.037 A 
ATOM     65  C   UNL A   1      42.163  29.370  29.261  1.00  0.00     0.037 A 
ATOM     66  C   UNL A   1      47.454  26.397  26.843  1.00  0.00     0.049 A 
ATOM     67  C   UNL A   1      42.412  27.988  28.713  1.00  0.00     0.074 A 
ATOM     68  C   UNL A   1      47.576  25.084  26.424  1.00  0.00     0.029 A 
ATOM     69  N   UNL A   1      46.135  26.570  27.236  1.00  0.00    -0.354 N 
ATOM     70  N   UNL A   1      43.528  27.471  28.252  1.00  0.00    -0.248 NA
ATOM     71  C   UNL A   1      41.268  27.065  28.681  1.00  0.00     0.031 C 
ATOM     72  C   UNL A   1      46.319  24.479  26.514  1.00  0.00     0.029 A 
ATOM     73  C   UNL A   1      45.429  25.394  27.051  1.00  0.00     0.049 A 
ATOM     74  H   UNL A   1      45.757  27.406  27.594  1.00  0.00     0.167 HD
ATOM     75  C   UNL A   1      43.226  26.157  27.903  1.00  0.00     0.074 A 
ATOM     76  C   UNL A   1      41.827  25.956  28.216  1.00  0.00     0.031 C 
ATOM     77  C   UNL A   1      44.035  25.204  27.374  1.00  0.00     0.037 A 
BRANCH  64  78
ATOM     78  C   UNL A   1      49.853  27.077  26.413  1.00  0.00     0.058 A 
ATOM     79  C   UNL A   1      50.231  27.207  25.067  1.00  0.00     0.135 A 
ATOM     80  C   UNL A   1      50.828  26.645  27.327  1.00  0.00     0.135 A 
ATOM     81  F   UNL A   1      49.333  27.593  24.146  1.00  0.00    -0.206 F 
ATOM     82  C   UNL A   1      51.521  26.905  24.640  1.00  0.00     0.059 A 
ATOM     83  C   UNL A   1      52.132  26.367  26.928  1.00  0.00     0.059 A 
ATOM     84  F   UNL A   1      50.519  26.496  28.625  1.00  0.00    -0.206 F 
ATOM     85  C   UNL A   1      52.465  26.489  25.581  1.00  0.00     0.060 A 
BRANCH  85  86
ATOM     86  S   UNL A   1      54.138  26.121  25.013  1.00  0.00     0.124 S 
ATOM     87  O   UNL A   1      54.396  27.245  24.116  1.00  0.00    -0.237 OA
ATOM     88  O   UNL A   1      54.896  26.121  26.260  1.00  0.00    -0.237 OA
ATOM     89  O   UNL A   1      54.001  24.821  24.364  1.00  0.00    -0.744 OA
ENDBRANCH  85  86
ENDBRANCH  64  78
BRANCH  65  90
ATOM     90  C   UNL A   1      40.805  29.779  29.714  1.00  0.00     0.058 A 
ATOM     91  C   UNL A   1      39.755  29.968  28.803  1.00  0.00     0.135 A 
ATOM     92  C   UNL A   1      40.528  29.974  31.077  1.00  0.00     0.135 A 
ATOM     93  F   UNL A   1      39.973  29.810  27.489  1.00  0.00    -0.206 F 
ATOM     94  C   UNL A   1      38.483  30.339  29.224  1.00  0.00     0.059 A 
ATOM     95  C   UNL A   1      39.256  30.317  31.525  1.00  0.00     0.059 A 
ATOM     96  F   UNL A   1      41.494  29.801  31.992  1.00  0.00    -0.206 F 
ATOM     97  C   UNL A   1      38.240  30.504  30.589  1.00  0.00     0.060 A 
BRANCH  97  98
ATOM     98  S   UNL A   1      36.566  30.916  31.129  1.00  0.00     0.124 S 
ATOM     99  O   UNL A   1      35.950  31.341  29.878  1.00  0.00    -0.237 OA
ATOM    100  O   UNL A   1      36.101  29.643  31.670  1.00  0.00    -0.237 OA
ATOM    101  O   UNL A   1      36.781  31.968  32.116  1.00  0.00    -0.744 OA
ENDBRANCH  97  98
ENDBRANCH  65  90
BRANCH  77 102
ATOM    102  C   UNL A   1      43.447  23.837  27.136  1.00  0.00     0.058 A 
ATOM    103  C   UNL A   1      43.045  23.414  25.860  1.00  0.00     0.135 A 
ATOM    104  C   UNL A   1      43.344  22.917  28.193  1.00  0.00     0.135 A 
ATOM    105  F   UNL A   1      43.118  24.253  24.814  1.00  0.00    -0.206 F 
ATOM    106  C   UNL A   1      42.541  22.134  25.644  1.00  0.00     0.059 A 
ATOM    107  C   UNL A   1      42.873  21.623  27.994  1.00  0.00     0.059 A 
ATOM    108  F   UNL A   1      43.726  23.265  29.432  1.00  0.00    -0.206 F 
ATOM    109  C   UNL A   1      42.462  21.244  26.717  1.00  0.00     0.060 A 
BRANCH 109 110
ATOM    110  S   UNL A   1      41.836  19.579  26.415  1.00  0.00     0.124 S 
ATOM    111  O   UNL A   1      42.237  18.887  27.636  1.00  0.00    -0.237 OA
ATOM    112  O   UNL A   1      40.403  19.809  26.257  1.00  0.00    -0.237 OA
ATOM    113  O   UNL A   1      42.536  19.166  25.202  1.00  0.00    -0.744 OA
ENDBRANCH 109 110
ENDBRANCH  77 102
ENDBRANCH  51  52
ENDBRANCH  44  46
ENDBRANCH  43  44
ENDBRANCH  42  43
ENDBRANCH  41  42
ENDBRANCH  40  41
ENDBRANCH  39  40
ENDBRANCH  38  39
ENDBRANCH  37  38
ENDBRANCH  36  37
ENDBRANCH   1  36
TORSDOF 30
ENDMDL
