MODEL 1
REMARK VINA RESULT:      -9.2      0.000      0.000
REMARK SMILES CC1=C([C@H](NC(=O)[C@@H]2[C@H](C)c3cc(F)ccc3N2C)C(=O)OCCOCCOCCOCCOC(=O)c2ccc(-c3c4nc(c(-c5c(F)cc(S(=O)(=O)[O-])cc5F)c5ccc([nH]5)c(-c5c(F)cc(S(=O)(=O)[O-])cc5F)c5nc(c(-c6c(F)cc(S(=O)(=O)[O-])cc6F)c6ccc3[nH]6)C=C5)C=C4)cc2)[C@@H](C)N=N1
REMARK SMILES IDX 29 1 28 2 27 3 26 4 25 5 24 6 23 7 22 8 20 9 21 10 4 11 3 12
REMARK SMILES IDX 1 13 2 14 106 15 103 16 105 17 104 18 5 19 6 20 7 22 8 23
REMARK SMILES IDX 9 24 18 25 11 26 10 27 17 28 19 29 12 30 16 31 13 32 15 33
REMARK SMILES IDX 14 34 30 35 31 36 32 37 33 38 34 39 35 40 36 41 37 42 38 43
REMARK SMILES IDX 102 44 39 45 101 46 40 47 41 48 42 49 95 50 43 51 100 52
REMARK SMILES IDX 94 53 96 54 44 55 99 56 93 57 92 58 45 60 79 61 58 62 78 63
REMARK SMILES IDX 59 64 62 65 77 66 97 67 60 68 61 69 76 71 98 72 63 73 46 74
REMARK SMILES IDX 47 75 56 76 48 77 49 78 55 79 57 80 50 81 51 82 52 83 53 84
REMARK SMILES IDX 54 85 80 86 81 87 90 88 82 89 83 90 89 91 91 92 84 93 85 94
REMARK SMILES IDX 86 95 87 96 88 97 64 98 65 99 74 100 66 101 67 102 73 103
REMARK SMILES IDX 75 104 68 105 69 106 70 107 71 108 72 109
REMARK H PARENT 5 21 96 59 62 70
REMARK Flexibility Score: inf
ROOT
ATOM      1  C   UNL A   1      41.808  22.430  26.549  1.00  0.00     0.188 C 
ENDROOT
BRANCH   1   2
ATOM      2  O   UNL A   1      40.582  23.160  26.565  1.00  0.00    -0.377 OA
BRANCH   2   3
ATOM      3  C   UNL A   1      39.404  22.437  26.870  1.00  0.00     0.188 C 
BRANCH   3   4
ATOM      4  C   UNL A   1      38.642  21.859  25.673  1.00  0.00     0.188 C 
BRANCH   4   5
ATOM      5  O   UNL A   1      37.310  22.343  25.607  1.00  0.00    -0.376 OA
BRANCH   5   6
ATOM      6  C   UNL A   1      36.251  21.442  25.908  1.00  0.00     0.202 C 
BRANCH   6   7
ATOM      7  C   UNL A   1      35.115  21.893  26.850  1.00  0.00     0.261 C 
BRANCH   7   8
ATOM      8  O   UNL A   1      33.789  21.871  26.301  1.00  0.00    -0.461 OA
BRANCH   8   9
ATOM      9  C   UNL A   1      32.973  22.858  26.738  1.00  0.00     0.333 C 
ATOM     10  O   UNL A   1      32.444  22.864  27.845  1.00  0.00    -0.249 OA
BRANCH   9  11
ATOM     11  C   UNL A   1      32.830  24.014  25.719  1.00  0.00     0.223 C 
BRANCH  11  12
ATOM     12  C   UNL A   1      32.856  23.509  24.323  1.00  0.00     0.012 C 
ATOM     13  C   UNL A   1      35.253  24.051  23.674  1.00  0.00     0.069 C 
ATOM     14  C   UNL A   1      33.887  23.488  23.469  1.00  0.00     0.064 C 
ATOM     15  N   UNL A   1      33.578  22.838  22.302  1.00  0.00    -0.160 NA
ATOM     16  C   UNL A   1      31.735  22.857  23.590  1.00  0.00     0.156 C 
ATOM     17  N   UNL A   1      32.376  22.459  22.312  1.00  0.00    -0.181 NA
ATOM     18  C   UNL A   1      30.544  23.757  23.293  1.00  0.00     0.040 C 
ENDBRANCH  11  12
BRANCH  11  19
ATOM     19  N   UNL A   1      33.783  25.113  25.859  1.00  0.00    -0.337 N 
ATOM     20  C   UNL A   1      33.573  26.459  25.677  1.00  0.00     0.244 C 
ATOM     21  H   UNL A   1      34.697  24.855  26.118  1.00  0.00     0.164 HD
ATOM     22  O   UNL A   1      34.503  27.227  25.937  1.00  0.00    -0.273 OA
BRANCH  20  23
ATOM     23  C   UNL A   1      32.178  26.952  25.205  1.00  0.00     0.178 C 
ATOM     24  C   UNL A   1      31.916  26.895  23.664  1.00  0.00     0.050 C 
ATOM     25  N   UNL A   1      31.917  28.357  25.631  1.00  0.00    -0.362 N 
ATOM     26  C   UNL A   1      31.087  28.138  23.476  1.00  0.00    -0.016 A 
ATOM     27  C   UNL A   1      33.117  26.896  22.726  1.00  0.00     0.015 C 
ATOM     28  C   UNL A   1      31.138  28.929  24.628  1.00  0.00     0.041 A 
ATOM     29  C   UNL A   1      31.696  28.728  27.008  1.00  0.00     0.144 C 
ATOM     30  C   UNL A   1      30.345  28.520  22.367  1.00  0.00     0.045 A 
ATOM     31  C   UNL A   1      30.447  30.131  24.678  1.00  0.00     0.029 A 
ATOM     32  C   UNL A   1      29.648  29.722  22.432  1.00  0.00     0.123 A 
ATOM     33  C   UNL A   1      29.691  30.527  23.573  1.00  0.00     0.041 A 
ATOM     34  F   UNL A   1      28.920  30.119  21.380  1.00  0.00    -0.207 F 
ENDBRANCH  20  23
ENDBRANCH  11  19
ENDBRANCH   9  11
ENDBRANCH   8   9
ENDBRANCH   7   8
ENDBRANCH   6   7
ENDBRANCH   5   6
ENDBRANCH   4   5
ENDBRANCH   3   4
ENDBRANCH   2   3
ENDBRANCH   1   2
BRANCH   1  35
ATOM     35  C   UNL A   1      42.669  22.414  25.270  1.00  0.00     0.188 C 
BRANCH  35  36
ATOM     36  O   UNL A   1      43.515  21.273  25.187  1.00  0.00    -0.376 OA
BRANCH  36  37
ATOM     37  C   UNL A   1      44.909  21.532  25.112  1.00  0.00     0.202 C 
BRANCH  37  38
ATOM     38  C   UNL A   1      45.266  22.893  24.502  1.00  0.00     0.261 C 
BRANCH  38  39
ATOM     39  O   UNL A   1      45.444  23.932  25.483  1.00  0.00    -0.460 OA
BRANCH  39  40
ATOM     40  C   UNL A   1      46.107  25.054  25.118  1.00  0.00     0.338 C 
ATOM     41  O   UNL A   1      46.856  25.176  24.163  1.00  0.00    -0.246 OA
BRANCH  40  42
ATOM     42  C   UNL A   1      45.470  26.173  25.865  1.00  0.00     0.060 A 
ATOM     43  C   UNL A   1      46.172  27.356  26.114  1.00  0.00     0.016 A 
ATOM     44  C   UNL A   1      44.280  25.903  26.563  1.00  0.00     0.016 A 
ATOM     45  C   UNL A   1      45.742  28.200  27.132  1.00  0.00     0.010 A 
ATOM     46  C   UNL A   1      43.848  26.761  27.580  1.00  0.00     0.010 A 
ATOM     47  C   UNL A   1      44.595  27.896  27.895  1.00  0.00    -0.014 A 
BRANCH  47  48
ATOM     48  C   UNL A   1      44.144  28.937  28.838  1.00  0.00     0.031 A 
ATOM     49  C   UNL A   1      44.130  28.454  30.245  1.00  0.00     0.074 A 
ATOM     50  C   UNL A   1      43.907  30.251  28.627  1.00  0.00     0.049 A 
ATOM     51  N   UNL A   1      43.125  28.318  31.046  1.00  0.00    -0.248 NA
ATOM     52  C   UNL A   1      45.407  27.945  30.774  1.00  0.00     0.031 C 
ATOM     53  C   UNL A   1      44.245  31.033  27.439  1.00  0.00     0.029 A 
ATOM     54  N   UNL A   1      43.391  31.196  29.487  1.00  0.00    -0.354 N 
ATOM     55  C   UNL A   1      43.680  27.908  32.256  1.00  0.00     0.074 A 
ATOM     56  C   UNL A   1      45.044  27.534  31.988  1.00  0.00     0.031 C 
ATOM     57  C   UNL A   1      44.108  32.349  27.721  1.00  0.00     0.029 A 
ATOM     58  C   UNL A   1      43.571  32.508  29.065  1.00  0.00     0.049 A 
ATOM     59  H   UNL A   1      42.934  30.962  30.328  1.00  0.00     0.167 HD
ATOM     60  C   UNL A   1      43.075  28.161  33.445  1.00  0.00     0.037 A 
ATOM     61  C   UNL A   1      43.361  33.650  29.771  1.00  0.00     0.037 A 
ATOM     62  C   UNL A   1      41.697  28.528  33.301  1.00  0.00     0.049 A 
ATOM     63  C   UNL A   1      42.421  33.384  30.888  1.00  0.00     0.074 A 
ATOM     64  C   UNL A   1      40.486  27.895  33.140  1.00  0.00     0.029 A 
ATOM     65  N   UNL A   1      41.497  29.856  33.061  1.00  0.00    -0.354 N 
ATOM     66  N   UNL A   1      41.166  33.065  30.739  1.00  0.00    -0.248 NA
ATOM     67  C   UNL A   1      42.932  33.281  32.253  1.00  0.00     0.031 C 
ATOM     68  C   UNL A   1      39.569  28.884  32.674  1.00  0.00     0.029 A 
ATOM     69  C   UNL A   1      40.245  30.093  32.557  1.00  0.00     0.049 A 
ATOM     70  H   UNL A   1      42.168  30.556  33.229  1.00  0.00     0.167 HD
ATOM     71  C   UNL A   1      40.842  32.375  31.887  1.00  0.00     0.074 A 
ATOM     72  C   UNL A   1      41.898  32.677  32.840  1.00  0.00     0.031 C 
ATOM     73  C   UNL A   1      39.978  31.325  31.852  1.00  0.00     0.037 A 
BRANCH  60  74
ATOM     74  C   UNL A   1      43.845  28.537  34.691  1.00  0.00     0.058 A 
ATOM     75  C   UNL A   1      43.713  27.754  35.854  1.00  0.00     0.135 A 
ATOM     76  C   UNL A   1      44.460  29.798  34.864  1.00  0.00     0.135 A 
ATOM     77  F   UNL A   1      43.112  26.555  35.804  1.00  0.00    -0.206 F 
ATOM     78  C   UNL A   1      44.132  28.209  37.106  1.00  0.00     0.059 A 
ATOM     79  C   UNL A   1      44.937  30.245  36.090  1.00  0.00     0.059 A 
ATOM     80  F   UNL A   1      44.530  30.696  33.872  1.00  0.00    -0.206 F 
ATOM     81  C   UNL A   1      44.734  29.461  37.214  1.00  0.00     0.060 A 
BRANCH  81  82
ATOM     82  S   UNL A   1      45.199  30.088  38.836  1.00  0.00     0.124 S 
ATOM     83  O   UNL A   1      44.166  31.090  39.067  1.00  0.00    -0.237 OA
ATOM     84  O   UNL A   1      45.122  28.886  39.661  1.00  0.00    -0.237 OA
ATOM     85  O   UNL A   1      46.547  30.605  38.620  1.00  0.00    -0.744 OA
ENDBRANCH  81  82
ENDBRANCH  60  74
BRANCH  61  86
ATOM     86  C   UNL A   1      44.078  34.955  29.680  1.00  0.00     0.058 A 
ATOM     87  C   UNL A   1      43.386  36.148  29.385  1.00  0.00     0.135 A 
ATOM     88  C   UNL A   1      45.390  35.107  30.165  1.00  0.00     0.135 A 
ATOM     89  F   UNL A   1      42.124  36.106  28.929  1.00  0.00    -0.206 F 
ATOM     90  C   UNL A   1      43.935  37.411  29.626  1.00  0.00     0.059 A 
ATOM     91  C   UNL A   1      45.968  36.356  30.390  1.00  0.00     0.059 A 
ATOM     92  F   UNL A   1      46.123  34.045  30.529  1.00  0.00    -0.206 F 
ATOM     93  C   UNL A   1      45.221  37.504  30.153  1.00  0.00     0.060 A 
BRANCH  93  94
ATOM     94  S   UNL A   1      45.860  39.118  30.654  1.00  0.00     0.124 S 
ATOM     95  O   UNL A   1      47.297  38.875  30.692  1.00  0.00    -0.237 OA
ATOM     96  O   UNL A   1      45.385  39.983  29.580  1.00  0.00    -0.237 OA
ATOM     97  O   UNL A   1      45.230  39.340  31.955  1.00  0.00    -0.744 OA
ENDBRANCH  93  94
ENDBRANCH  61  86
BRANCH  73  98
ATOM     98  C   UNL A   1      38.799  31.423  30.941  1.00  0.00     0.058 A 
ATOM     99  C   UNL A   1      38.769  31.016  29.598  1.00  0.00     0.135 A 
ATOM    100  C   UNL A   1      37.624  31.970  31.482  1.00  0.00     0.135 A 
ATOM    101  F   UNL A   1      39.821  30.398  29.038  1.00  0.00    -0.206 F 
ATOM    102  C   UNL A   1      37.633  31.208  28.809  1.00  0.00     0.059 A 
ATOM    103  C   UNL A   1      36.473  32.137  30.727  1.00  0.00     0.059 A 
ATOM    104  F   UNL A   1      37.581  32.341  32.772  1.00  0.00    -0.206 F 
ATOM    105  C   UNL A   1      36.492  31.773  29.385  1.00  0.00     0.060 A 
BRANCH 105 106
ATOM    106  S   UNL A   1      35.024  32.044  28.377  1.00  0.00     0.124 S 
ATOM    107  O   UNL A   1      35.422  33.150  27.512  1.00  0.00    -0.237 OA
ATOM    108  O   UNL A   1      34.883  30.750  27.725  1.00  0.00    -0.237 OA
ATOM    109  O   UNL A   1      33.988  32.364  29.355  1.00  0.00    -0.744 OA
ENDBRANCH 105 106
ENDBRANCH  73  98
ENDBRANCH  47  48
ENDBRANCH  40  42
ENDBRANCH  39  40
ENDBRANCH  38  39
ENDBRANCH  37  38
ENDBRANCH  36  37
ENDBRANCH  35  36
ENDBRANCH   1  35
TORSDOF 26
ENDMDL
MODEL 2
REMARK VINA RESULT:      -8.3      7.702     15.411
REMARK SMILES CC1=C([C@H](NC(=O)[C@@H]2[C@H](C)c3cc(F)ccc3N2C)C(=O)OCCOCCOCCOCCOC(=O)c2ccc(-c3c4nc(c(-c5c(F)cc(S(=O)(=O)[O-])cc5F)c5ccc([nH]5)c(-c5c(F)cc(S(=O)(=O)[O-])cc5F)c5nc(c(-c6c(F)cc(S(=O)(=O)[O-])cc6F)c6ccc3[nH]6)C=C5)C=C4)cc2)[C@@H](C)N=N1
REMARK SMILES IDX 29 1 28 2 27 3 26 4 25 5 24 6 23 7 22 8 20 9 21 10 4 11 3 12
REMARK SMILES IDX 1 13 2 14 106 15 103 16 105 17 104 18 5 19 6 20 7 22 8 23
REMARK SMILES IDX 9 24 18 25 11 26 10 27 17 28 19 29 12 30 16 31 13 32 15 33
REMARK SMILES IDX 14 34 30 35 31 36 32 37 33 38 34 39 35 40 36 41 37 42 38 43
REMARK SMILES IDX 102 44 39 45 101 46 40 47 41 48 42 49 95 50 43 51 100 52
REMARK SMILES IDX 94 53 96 54 44 55 99 56 93 57 92 58 45 60 79 61 58 62 78 63
REMARK SMILES IDX 59 64 62 65 77 66 97 67 60 68 61 69 76 71 98 72 63 73 46 74
REMARK SMILES IDX 47 75 56 76 48 77 49 78 55 79 57 80 50 81 51 82 52 83 53 84
REMARK SMILES IDX 54 85 80 86 81 87 90 88 82 89 83 90 89 91 91 92 84 93 85 94
REMARK SMILES IDX 86 95 87 96 88 97 64 98 65 99 74 100 66 101 67 102 73 103
REMARK SMILES IDX 75 104 68 105 69 106 70 107 71 108 72 109
REMARK H PARENT 5 21 96 59 62 70
REMARK Flexibility Score: inf
ROOT
ATOM      1  C   UNL A   1      47.288  21.057  35.320  1.00  0.00     0.188 C 
ENDROOT
BRANCH   1   2
ATOM      2  O   UNL A   1      46.257  21.117  34.336  1.00  0.00    -0.377 OA
BRANCH   2   3
ATOM      3  C   UNL A   1      45.394  22.239  34.373  1.00  0.00     0.188 C 
BRANCH   3   4
ATOM      4  C   UNL A   1      45.796  23.364  35.333  1.00  0.00     0.188 C 
BRANCH   4   5
ATOM      5  O   UNL A   1      44.744  23.706  36.220  1.00  0.00    -0.376 OA
BRANCH   5   6
ATOM      6  C   UNL A   1      45.084  24.193  37.512  1.00  0.00     0.202 C 
BRANCH   6   7
ATOM      7  C   UNL A   1      46.533  24.640  37.799  1.00  0.00     0.261 C 
BRANCH   7   8
ATOM      8  O   UNL A   1      47.322  23.759  38.612  1.00  0.00    -0.461 OA
BRANCH   8   9
ATOM      9  C   UNL A   1      48.493  23.365  38.059  1.00  0.00     0.333 C 
ATOM     10  O   UNL A   1      48.879  23.728  36.952  1.00  0.00    -0.249 OA
BRANCH   9  11
ATOM     11  C   UNL A   1      49.327  22.462  38.999  1.00  0.00     0.223 C 
BRANCH  11  12
ATOM     12  C   UNL A   1      50.352  23.247  39.733  1.00  0.00     0.012 C 
ATOM     13  C   UNL A   1      51.459  21.411  41.099  1.00  0.00     0.069 C 
ATOM     14  C   UNL A   1      51.278  22.803  40.591  1.00  0.00     0.064 C 
ATOM     15  N   UNL A   1      52.135  23.797  40.987  1.00  0.00    -0.160 NA
ATOM     16  C   UNL A   1      50.601  24.711  39.619  1.00  0.00     0.156 C 
ATOM     17  N   UNL A   1      51.804  24.898  40.470  1.00  0.00    -0.181 NA
ATOM     18  C   UNL A   1      49.481  25.602  40.134  1.00  0.00     0.040 C 
ENDBRANCH  11  12
BRANCH  11  19
ATOM     19  N   UNL A   1      49.955  21.298  38.378  1.00  0.00    -0.337 N 
ATOM     20  C   UNL A   1      49.657  19.968  38.550  1.00  0.00     0.244 C 
ATOM     21  H   UNL A   1      50.690  21.493  37.752  1.00  0.00     0.164 HD
ATOM     22  O   UNL A   1      50.260  19.148  37.853  1.00  0.00    -0.273 OA
BRANCH  20  23
ATOM     23  C   UNL A   1      48.555  19.563  39.567  1.00  0.00     0.178 C 
ATOM     24  C   UNL A   1      49.032  18.723  40.796  1.00  0.00     0.050 C 
ATOM     25  N   UNL A   1      47.463  18.785  38.915  1.00  0.00    -0.362 N 
ATOM     26  C   UNL A   1      47.852  17.805  40.981  1.00  0.00    -0.016 A 
ATOM     27  C   UNL A   1      50.326  17.927  40.671  1.00  0.00     0.015 C 
ATOM     28  C   UNL A   1      47.004  17.883  39.871  1.00  0.00     0.041 A 
ATOM     29  C   UNL A   1      46.531  19.376  37.984  1.00  0.00     0.144 C 
ATOM     30  C   UNL A   1      47.563  16.977  42.057  1.00  0.00     0.045 A 
ATOM     31  C   UNL A   1      45.850  17.115  39.822  1.00  0.00     0.029 A 
ATOM     32  C   UNL A   1      46.398  16.219  42.001  1.00  0.00     0.123 A 
ATOM     33  C   UNL A   1      45.542  16.281  40.899  1.00  0.00     0.041 A 
ATOM     34  F   UNL A   1      46.088  15.412  43.024  1.00  0.00    -0.207 F 
ENDBRANCH  20  23
ENDBRANCH  11  19
ENDBRANCH   9  11
ENDBRANCH   8   9
ENDBRANCH   7   8
ENDBRANCH   6   7
ENDBRANCH   5   6
ENDBRANCH   4   5
ENDBRANCH   3   4
ENDBRANCH   2   3
ENDBRANCH   1   2
BRANCH   1  35
ATOM     35  C   UNL A   1      48.633  20.387  34.975  1.00  0.00     0.188 C 
BRANCH  35  36
ATOM     36  O   UNL A   1      49.756  21.180  35.346  1.00  0.00    -0.376 OA
BRANCH  36  37
ATOM     37  C   UNL A   1      50.369  21.920  34.301  1.00  0.00     0.202 C 
BRANCH  37  38
ATOM     38  C   UNL A   1      51.785  22.413  34.623  1.00  0.00     0.261 C 
BRANCH  38  39
ATOM     39  O   UNL A   1      52.374  23.196  33.567  1.00  0.00    -0.460 OA
BRANCH  39  40
ATOM     40  C   UNL A   1      52.514  24.529  33.757  1.00  0.00     0.338 C 
ATOM     41  O   UNL A   1      53.358  25.079  34.446  1.00  0.00    -0.246 OA
BRANCH  40  42
ATOM     42  C   UNL A   1      51.700  25.186  32.699  1.00  0.00     0.060 A 
ATOM     43  C   UNL A   1      50.329  24.936  32.594  1.00  0.00     0.016 A 
ATOM     44  C   UNL A   1      52.381  25.815  31.643  1.00  0.00     0.016 A 
ATOM     45  C   UNL A   1      49.677  25.212  31.396  1.00  0.00     0.010 A 
ATOM     46  C   UNL A   1      51.718  26.099  30.443  1.00  0.00     0.010 A 
ATOM     47  C   UNL A   1      50.371  25.766  30.300  1.00  0.00    -0.014 A 
BRANCH  47  48
ATOM     48  C   UNL A   1      49.549  26.163  29.141  1.00  0.00     0.031 A 
ATOM     49  C   UNL A   1      48.391  27.010  29.535  1.00  0.00     0.074 A 
ATOM     50  C   UNL A   1      49.783  26.002  27.820  1.00  0.00     0.049 A 
ATOM     51  N   UNL A   1      47.128  26.760  29.425  1.00  0.00    -0.248 NA
ATOM     52  C   UNL A   1      48.708  28.253  30.259  1.00  0.00     0.031 C 
ATOM     53  C   UNL A   1      51.029  25.575  27.186  1.00  0.00     0.029 A 
ATOM     54  N   UNL A   1      48.967  26.284  26.746  1.00  0.00    -0.354 N 
ATOM     55  C   UNL A   1      46.491  27.915  29.871  1.00  0.00     0.074 A 
ATOM     56  C   UNL A   1      47.490  28.721  30.524  1.00  0.00     0.031 C 
ATOM     57  C   UNL A   1      50.954  25.810  25.856  1.00  0.00     0.029 A 
ATOM     58  C   UNL A   1      49.624  26.300  25.521  1.00  0.00     0.049 A 
ATOM     59  H   UNL A   1      48.003  26.461  26.838  1.00  0.00     0.167 HD
ATOM     60  C   UNL A   1      45.252  28.264  29.439  1.00  0.00     0.037 A 
ATOM     61  C   UNL A   1      49.151  26.734  24.323  1.00  0.00     0.037 A 
ATOM     62  C   UNL A   1      44.556  27.179  28.812  1.00  0.00     0.049 A 
ATOM     63  C   UNL A   1      47.667  26.724  24.336  1.00  0.00     0.074 A 
ATOM     64  C   UNL A   1      43.808  26.092  29.198  1.00  0.00     0.029 A 
ATOM     65  N   UNL A   1      44.838  27.029  27.486  1.00  0.00    -0.354 N 
ATOM     66  N   UNL A   1      46.935  25.647  24.405  1.00  0.00    -0.248 NA
ATOM     67  C   UNL A   1      46.937  27.983  24.466  1.00  0.00     0.031 C 
ATOM     68  C   UNL A   1      43.751  25.216  28.073  1.00  0.00     0.029 A 
ATOM     69  C   UNL A   1      44.472  25.790  27.032  1.00  0.00     0.049 A 
ATOM     70  H   UNL A   1      45.252  27.724  26.926  1.00  0.00     0.167 HD
ATOM     71  C   UNL A   1      45.744  26.070  24.954  1.00  0.00     0.074 A 
ATOM     72  C   UNL A   1      45.738  27.517  24.818  1.00  0.00     0.031 C 
ATOM     73  C   UNL A   1      45.047  25.275  25.810  1.00  0.00     0.037 A 
BRANCH  60  74
ATOM     74  C   UNL A   1      44.857  29.697  29.158  1.00  0.00     0.058 A 
ATOM     75  C   UNL A   1      45.533  30.422  28.158  1.00  0.00     0.135 A 
ATOM     76  C   UNL A   1      44.054  30.460  30.036  1.00  0.00     0.135 A 
ATOM     77  F   UNL A   1      46.349  29.796  27.295  1.00  0.00    -0.206 F 
ATOM     78  C   UNL A   1      45.445  31.812  28.062  1.00  0.00     0.059 A 
ATOM     79  C   UNL A   1      43.905  31.836  29.921  1.00  0.00     0.059 A 
ATOM     80  F   UNL A   1      43.462  29.918  31.108  1.00  0.00    -0.206 F 
ATOM     81  C   UNL A   1      44.635  32.510  28.955  1.00  0.00     0.060 A 
BRANCH  81  82
ATOM     82  S   UNL A   1      44.582  34.309  28.889  1.00  0.00     0.124 S 
ATOM     83  O   UNL A   1      43.307  34.537  28.219  1.00  0.00    -0.237 OA
ATOM     84  O   UNL A   1      44.636  34.667  30.303  1.00  0.00    -0.237 OA
ATOM     85  O   UNL A   1      45.774  34.650  28.118  1.00  0.00    -0.744 OA
ENDBRANCH  81  82
ENDBRANCH  60  74
BRANCH  61  86
ATOM     86  C   UNL A   1      49.893  27.367  23.195  1.00  0.00     0.058 A 
ATOM     87  C   UNL A   1      50.913  28.313  23.432  1.00  0.00     0.135 A 
ATOM     88  C   UNL A   1      49.825  26.849  21.888  1.00  0.00     0.135 A 
ATOM     89  F   UNL A   1      51.065  28.854  24.650  1.00  0.00    -0.206 F 
ATOM     90  C   UNL A   1      51.849  28.664  22.454  1.00  0.00     0.059 A 
ATOM     91  C   UNL A   1      50.732  27.203  20.891  1.00  0.00     0.059 A 
ATOM     92  F   UNL A   1      48.930  25.904  21.562  1.00  0.00    -0.206 F 
ATOM     93  C   UNL A   1      51.764  28.084  21.192  1.00  0.00     0.060 A 
BRANCH  93  94
ATOM     94  S   UNL A   1      53.083  28.377  19.991  1.00  0.00     0.124 S 
ATOM     95  O   UNL A   1      52.824  29.755  19.590  1.00  0.00    -0.237 OA
ATOM     96  O   UNL A   1      54.282  28.159  20.793  1.00  0.00    -0.237 OA
ATOM     97  O   UNL A   1      52.831  27.369  18.962  1.00  0.00    -0.744 OA
ENDBRANCH  93  94
ENDBRANCH  61  86
BRANCH  73  98
ATOM     98  C   UNL A   1      45.012  23.810  25.528  1.00  0.00     0.058 A 
ATOM     99  C   UNL A   1      45.989  22.879  25.918  1.00  0.00     0.135 A 
ATOM    100  C   UNL A   1      43.904  23.328  24.812  1.00  0.00     0.135 A 
ATOM    101  F   UNL A   1      47.028  23.246  26.686  1.00  0.00    -0.206 F 
ATOM    102  C   UNL A   1      45.896  21.536  25.550  1.00  0.00     0.059 A 
ATOM    103  C   UNL A   1      43.773  21.991  24.468  1.00  0.00     0.059 A 
ATOM    104  F   UNL A   1      42.919  24.165  24.448  1.00  0.00    -0.206 F 
ATOM    105  C   UNL A   1      44.784  21.105  24.822  1.00  0.00     0.060 A 
BRANCH 105 106
ATOM    106  S   UNL A   1      44.655  19.379  24.323  1.00  0.00     0.124 S 
ATOM    107  O   UNL A   1      44.369  19.472  22.895  1.00  0.00    -0.237 OA
ATOM    108  O   UNL A   1      45.979  18.883  24.672  1.00  0.00    -0.237 OA
ATOM    109  O   UNL A   1      43.563  18.862  25.142  1.00  0.00    -0.744 OA
ENDBRANCH 105 106
ENDBRANCH  73  98
ENDBRANCH  47  48
ENDBRANCH  40  42
ENDBRANCH  39  40
ENDBRANCH  38  39
ENDBRANCH  37  38
ENDBRANCH  36  37
ENDBRANCH  35  36
ENDBRANCH   1  35
TORSDOF 26
ENDMDL
MODEL 3
REMARK VINA RESULT:      -8.2      6.249     10.253
REMARK SMILES CC1=C([C@H](NC(=O)[C@@H]2[C@H](C)c3cc(F)ccc3N2C)C(=O)OCCOCCOCCOCCOC(=O)c2ccc(-c3c4nc(c(-c5c(F)cc(S(=O)(=O)[O-])cc5F)c5ccc([nH]5)c(-c5c(F)cc(S(=O)(=O)[O-])cc5F)c5nc(c(-c6c(F)cc(S(=O)(=O)[O-])cc6F)c6ccc3[nH]6)C=C5)C=C4)cc2)[C@@H](C)N=N1
REMARK SMILES IDX 29 1 28 2 27 3 26 4 25 5 24 6 23 7 22 8 20 9 21 10 4 11 3 12
REMARK SMILES IDX 1 13 2 14 106 15 103 16 105 17 104 18 5 19 6 20 7 22 8 23
REMARK SMILES IDX 9 24 18 25 11 26 10 27 17 28 19 29 12 30 16 31 13 32 15 33
REMARK SMILES IDX 14 34 30 35 31 36 32 37 33 38 34 39 35 40 36 41 37 42 38 43
REMARK SMILES IDX 102 44 39 45 101 46 40 47 41 48 42 49 95 50 43 51 100 52
REMARK SMILES IDX 94 53 96 54 44 55 99 56 93 57 92 58 45 60 79 61 58 62 78 63
REMARK SMILES IDX 59 64 62 65 77 66 97 67 60 68 61 69 76 71 98 72 63 73 46 74
REMARK SMILES IDX 47 75 56 76 48 77 49 78 55 79 57 80 50 81 51 82 52 83 53 84
REMARK SMILES IDX 54 85 80 86 81 87 90 88 82 89 83 90 89 91 91 92 84 93 85 94
REMARK SMILES IDX 86 95 87 96 88 97 64 98 65 99 74 100 66 101 67 102 73 103
REMARK SMILES IDX 75 104 68 105 69 106 70 107 71 108 72 109
REMARK H PARENT 5 21 96 59 62 70
REMARK Flexibility Score: inf
ROOT
ATOM      1  C   UNL A   1      53.480  28.530  27.396  1.00  0.00     0.188 C 
ENDROOT
BRANCH   1   2
ATOM      2  O   UNL A   1      52.596  28.019  26.399  1.00  0.00    -0.377 OA
BRANCH   2   3
ATOM      3  C   UNL A   1      52.660  26.631  26.130  1.00  0.00     0.188 C 
BRANCH   3   4
ATOM      4  C   UNL A   1      51.562  26.073  25.217  1.00  0.00     0.188 C 
BRANCH   4   5
ATOM      5  O   UNL A   1      50.281  26.577  25.558  1.00  0.00    -0.376 OA
BRANCH   5   6
ATOM      6  C   UNL A   1      49.158  26.116  24.817  1.00  0.00     0.202 C 
BRANCH   6   7
ATOM      7  C   UNL A   1      47.746  26.615  25.188  1.00  0.00     0.261 C 
BRANCH   7   8
ATOM      8  O   UNL A   1      46.649  25.798  24.754  1.00  0.00    -0.461 OA
BRANCH   8   9
ATOM      9  C   UNL A   1      46.154  24.958  25.694  1.00  0.00     0.333 C 
ATOM     10  O   UNL A   1      46.848  24.193  26.356  1.00  0.00    -0.249 OA
BRANCH   9  11
ATOM     11  C   UNL A   1      44.627  25.112  25.892  1.00  0.00     0.223 C 
BRANCH  11  12
ATOM     12  C   UNL A   1      43.937  23.799  25.810  1.00  0.00     0.012 C 
ATOM     13  C   UNL A   1      43.608  23.287  28.278  1.00  0.00     0.069 C 
ATOM     14  C   UNL A   1      43.472  23.044  26.812  1.00  0.00     0.064 C 
ATOM     15  N   UNL A   1      42.783  21.948  26.358  1.00  0.00    -0.160 NA
ATOM     16  C   UNL A   1      43.563  23.066  24.568  1.00  0.00     0.156 C 
ATOM     17  N   UNL A   1      42.801  21.907  25.098  1.00  0.00    -0.181 NA
ATOM     18  C   UNL A   1      44.732  22.558  23.738  1.00  0.00     0.040 C 
ENDBRANCH  11  12
BRANCH  11  19
ATOM     19  N   UNL A   1      43.960  26.069  25.012  1.00  0.00    -0.337 N 
ATOM     20  C   UNL A   1      43.068  27.062  25.343  1.00  0.00     0.244 C 
ATOM     21  H   UNL A   1      44.179  25.994  24.055  1.00  0.00     0.164 HD
ATOM     22  O   UNL A   1      42.693  27.820  24.446  1.00  0.00    -0.273 OA
BRANCH  20  23
ATOM     23  C   UNL A   1      42.616  27.212  26.821  1.00  0.00     0.178 C 
ATOM     24  C   UNL A   1      41.472  26.255  27.288  1.00  0.00     0.050 C 
ATOM     25  N   UNL A   1      42.160  28.601  27.118  1.00  0.00    -0.362 N 
ATOM     26  C   UNL A   1      40.712  27.162  28.221  1.00  0.00    -0.016 A 
ATOM     27  C   UNL A   1      40.545  25.664  26.232  1.00  0.00     0.015 C 
ATOM     28  C   UNL A   1      41.147  28.483  28.067  1.00  0.00     0.041 A 
ATOM     29  C   UNL A   1      43.063  29.726  27.172  1.00  0.00     0.144 C 
ATOM     30  C   UNL A   1      39.723  26.827  29.134  1.00  0.00     0.045 A 
ATOM     31  C   UNL A   1      40.579  29.495  28.826  1.00  0.00     0.029 A 
ATOM     32  C   UNL A   1      39.168  27.849  29.897  1.00  0.00     0.123 A 
ATOM     33  C   UNL A   1      39.586  29.174  29.753  1.00  0.00     0.041 A 
ATOM     34  F   UNL A   1      38.212  27.560  30.790  1.00  0.00    -0.207 F 
ENDBRANCH  20  23
ENDBRANCH  11  19
ENDBRANCH   9  11
ENDBRANCH   8   9
ENDBRANCH   7   8
ENDBRANCH   6   7
ENDBRANCH   5   6
ENDBRANCH   4   5
ENDBRANCH   3   4
ENDBRANCH   2   3
ENDBRANCH   1   2
BRANCH   1  35
ATOM     35  C   UNL A   1      54.417  29.705  27.054  1.00  0.00     0.188 C 
BRANCH  35  36
ATOM     36  O   UNL A   1      54.198  30.845  27.878  1.00  0.00    -0.376 OA
BRANCH  36  37
ATOM     37  C   UNL A   1      53.159  31.721  27.468  1.00  0.00     0.202 C 
BRANCH  37  38
ATOM     38  C   UNL A   1      53.263  32.188  26.011  1.00  0.00     0.261 C 
BRANCH  38  39
ATOM     39  O   UNL A   1      52.539  33.404  25.746  1.00  0.00    -0.460 OA
BRANCH  39  40
ATOM     40  C   UNL A   1      51.553  33.375  24.819  1.00  0.00     0.338 C 
ATOM     41  O   UNL A   1      51.523  32.688  23.811  1.00  0.00    -0.246 OA
BRANCH  40  42
ATOM     42  C   UNL A   1      50.378  34.044  25.444  1.00  0.00     0.060 A 
ATOM     43  C   UNL A   1      49.993  35.327  25.047  1.00  0.00     0.016 A 
ATOM     44  C   UNL A   1      49.862  33.491  26.628  1.00  0.00     0.016 A 
ATOM     45  C   UNL A   1      49.187  36.086  25.890  1.00  0.00     0.010 A 
ATOM     46  C   UNL A   1      49.044  34.257  27.468  1.00  0.00     0.010 A 
ATOM     47  C   UNL A   1      48.731  35.571  27.121  1.00  0.00    -0.014 A 
BRANCH  47  48
ATOM     48  C   UNL A   1      47.758  36.401  27.856  1.00  0.00     0.031 A 
ATOM     49  C   UNL A   1      46.602  35.606  28.352  1.00  0.00     0.074 A 
ATOM     50  C   UNL A   1      47.848  37.689  28.256  1.00  0.00     0.049 A 
ATOM     51  N   UNL A   1      45.353  35.707  28.036  1.00  0.00    -0.248 NA
ATOM     52  C   UNL A   1      46.921  34.469  29.233  1.00  0.00     0.031 C 
ATOM     53  C   UNL A   1      49.037  38.539  28.247  1.00  0.00     0.029 A 
ATOM     54  N   UNL A   1      46.897  38.487  28.854  1.00  0.00    -0.354 N 
ATOM     55  C   UNL A   1      44.700  34.782  28.847  1.00  0.00     0.074 A 
ATOM     56  C   UNL A   1      45.714  33.941  29.428  1.00  0.00     0.031 C 
ATOM     57  C   UNL A   1      48.794  39.649  28.980  1.00  0.00     0.029 A 
ATOM     58  C   UNL A   1      47.406  39.650  29.421  1.00  0.00     0.049 A 
ATOM     59  H   UNL A   1      45.941  38.254  28.878  1.00  0.00     0.167 HD
ATOM     60  C   UNL A   1      43.400  34.935  29.208  1.00  0.00     0.037 A 
ATOM     61  C   UNL A   1      46.772  40.528  30.242  1.00  0.00     0.037 A 
ATOM     62  C   UNL A   1      42.706  35.889  28.393  1.00  0.00     0.049 A 
ATOM     63  C   UNL A   1      45.303  40.401  30.073  1.00  0.00     0.074 A 
ATOM     64  C   UNL A   1      42.078  35.917  27.170  1.00  0.00     0.029 A 
ATOM     65  N   UNL A   1      42.842  37.181  28.810  1.00  0.00    -0.354 N 
ATOM     66  N   UNL A   1      44.653  40.715  28.987  1.00  0.00    -0.248 NA
ATOM     67  C   UNL A   1      44.515  39.715  31.094  1.00  0.00     0.031 C 
ATOM     68  C   UNL A   1      41.947  37.292  26.810  1.00  0.00     0.029 A 
ATOM     69  C   UNL A   1      42.505  38.067  27.820  1.00  0.00     0.049 A 
ATOM     70  H   UNL A   1      43.144  37.444  29.709  1.00  0.00     0.167 HD
ATOM     71  C   UNL A   1      43.509  39.948  29.031  1.00  0.00     0.074 A 
ATOM     72  C   UNL A   1      43.396  39.486  30.405  1.00  0.00     0.031 C 
ATOM     73  C   UNL A   1      42.968  39.433  27.894  1.00  0.00     0.037 A 
BRANCH  60  74
ATOM     74  C   UNL A   1      42.885  34.581  30.584  1.00  0.00     0.058 A 
ATOM     75  C   UNL A   1      41.880  33.605  30.722  1.00  0.00     0.135 A 
ATOM     76  C   UNL A   1      43.129  35.379  31.726  1.00  0.00     0.135 A 
ATOM     77  F   UNL A   1      41.547  32.818  29.686  1.00  0.00    -0.206 F 
ATOM     78  C   UNL A   1      41.146  33.456  31.900  1.00  0.00     0.059 A 
ATOM     79  C   UNL A   1      42.451  35.208  32.927  1.00  0.00     0.059 A 
ATOM     80  F   UNL A   1      43.961  36.427  31.694  1.00  0.00    -0.206 F 
ATOM     81  C   UNL A   1      41.434  34.270  32.994  1.00  0.00     0.060 A 
BRANCH  81  82
ATOM     82  S   UNL A   1      40.436  34.141  34.487  1.00  0.00     0.124 S 
ATOM     83  O   UNL A   1      40.306  35.542  34.870  1.00  0.00    -0.237 OA
ATOM     84  O   UNL A   1      39.224  33.498  33.989  1.00  0.00    -0.237 OA
ATOM     85  O   UNL A   1      41.258  33.316  35.368  1.00  0.00    -0.744 OA
ENDBRANCH  81  82
ENDBRANCH  60  74
BRANCH  61  86
ATOM     86  C   UNL A   1      47.338  41.360  31.343  1.00  0.00     0.058 A 
ATOM     87  C   UNL A   1      47.423  42.763  31.226  1.00  0.00     0.135 A 
ATOM     88  C   UNL A   1      47.533  40.835  32.634  1.00  0.00     0.135 A 
ATOM     89  F   UNL A   1      47.239  43.357  30.037  1.00  0.00    -0.206 F 
ATOM     90  C   UNL A   1      47.615  43.595  32.333  1.00  0.00     0.059 A 
ATOM     91  C   UNL A   1      47.750  41.644  33.748  1.00  0.00     0.059 A 
ATOM     92  F   UNL A   1      47.422  39.520  32.873  1.00  0.00    -0.206 F 
ATOM     93  C   UNL A   1      47.753  43.025  33.596  1.00  0.00     0.060 A 
BRANCH  93  94
ATOM     94  S   UNL A   1      47.799  44.096  35.052  1.00  0.00     0.124 S 
ATOM     95  O   UNL A   1      47.662  43.132  36.138  1.00  0.00    -0.237 OA
ATOM     96  O   UNL A   1      49.105  44.732  34.923  1.00  0.00    -0.237 OA
ATOM     97  O   UNL A   1      46.653  44.982  34.854  1.00  0.00    -0.744 OA
ENDBRANCH  93  94
ENDBRANCH  61  86
BRANCH  73  98
ATOM     98  C   UNL A   1      42.993  40.280  26.665  1.00  0.00     0.058 A 
ATOM     99  C   UNL A   1      44.125  40.545  25.879  1.00  0.00     0.135 A 
ATOM    100  C   UNL A   1      41.776  40.856  26.267  1.00  0.00     0.135 A 
ATOM    101  F   UNL A   1      45.303  39.955  26.140  1.00  0.00    -0.206 F 
ATOM    102  C   UNL A   1      44.059  41.404  24.780  1.00  0.00     0.059 A 
ATOM    103  C   UNL A   1      41.678  41.682  25.157  1.00  0.00     0.059 A 
ATOM    104  F   UNL A   1      40.651  40.605  26.957  1.00  0.00    -0.206 F 
ATOM    105  C   UNL A   1      42.829  41.969  24.432  1.00  0.00     0.060 A 
BRANCH 105 106
ATOM    106  S   UNL A   1      42.728  43.092  23.027  1.00  0.00     0.124 S 
ATOM    107  O   UNL A   1      41.386  42.846  22.508  1.00  0.00    -0.237 OA
ATOM    108  O   UNL A   1      42.927  44.380  23.678  1.00  0.00    -0.237 OA
ATOM    109  O   UNL A   1      43.818  42.660  22.158  1.00  0.00    -0.744 OA
ENDBRANCH 105 106
ENDBRANCH  73  98
ENDBRANCH  47  48
ENDBRANCH  40  42
ENDBRANCH  39  40
ENDBRANCH  38  39
ENDBRANCH  37  38
ENDBRANCH  36  37
ENDBRANCH  35  36
ENDBRANCH   1  35
TORSDOF 26
ENDMDL
