MODEL 1
REMARK VINA RESULT:     -10.0      0.000      0.000
REMARK SMILES Nc1nccc(N2CCC[C@@](Cc3ccc(F)cc3F)(C(=O)OCCOCCOCCOCCOC(=O)c3ccc(-c4c5nc(c(-c6c(F)cc(S(=O)(=O)[O-])cc6F)c6ccc([nH]6)c(-c6c(F)cc(S(=O)(=O)[O-])cc6F)c6nc(c(-c7c(F)cc(S(=O)(=O)[O-])cc7F)c7ccc4[nH]7)C=C6)C=C5)cc3)C2)n1
REMARK SMILES IDX 30 1 29 2 28 3 27 4 26 5 25 6 24 7 23 8 21 9 22 10 11 11
REMARK SMILES IDX 7 12 8 13 104 14 9 15 10 16 6 17 2 18 3 19 105 20 4 21 5 22
REMARK SMILES IDX 1 23 12 26 13 27 14 28 19 29 15 30 18 31 20 32 16 33 17 34
REMARK SMILES IDX 31 35 32 36 33 37 34 38 35 39 36 40 37 41 38 42 39 43 103 44
REMARK SMILES IDX 40 45 102 46 41 47 42 48 43 49 96 50 44 51 101 52 95 53
REMARK SMILES IDX 97 54 45 55 100 56 94 57 93 58 46 60 80 61 59 62 79 63 60 64
REMARK SMILES IDX 63 65 78 66 98 67 61 68 62 69 77 71 99 72 64 73 47 74 48 75
REMARK SMILES IDX 57 76 49 77 50 78 56 79 58 80 51 81 52 82 53 83 54 84 55 85
REMARK SMILES IDX 81 86 82 87 91 88 83 89 84 90 90 91 92 92 85 93 86 94 87 95
REMARK SMILES IDX 88 96 89 97 65 98 66 99 75 100 67 101 68 102 74 103 76 104
REMARK SMILES IDX 69 105 70 106 71 107 72 108 73 109
REMARK H PARENT 1 24 1 25 97 59 63 70
REMARK Flexibility Score: inf
ROOT
ATOM      1  C   UNL A   1      34.808  17.776  24.710  1.00  0.00     0.188 C 
ENDROOT
BRANCH   1   2
ATOM      2  O   UNL A   1      34.281  17.276  23.486  1.00  0.00    -0.377 OA
BRANCH   2   3
ATOM      3  C   UNL A   1      32.984  17.653  23.074  1.00  0.00     0.188 C 
BRANCH   3   4
ATOM      4  C   UNL A   1      32.543  19.091  23.362  1.00  0.00     0.188 C 
BRANCH   4   5
ATOM      5  O   UNL A   1      31.996  19.878  22.329  1.00  0.00    -0.376 OA
BRANCH   5   6
ATOM      6  C   UNL A   1      31.878  21.288  22.422  1.00  0.00     0.202 C 
BRANCH   6   7
ATOM      7  C   UNL A   1      33.036  22.299  22.466  1.00  0.00     0.261 C 
BRANCH   7   8
ATOM      8  O   UNL A   1      32.859  23.568  21.823  1.00  0.00    -0.463 OA
BRANCH   8   9
ATOM      9  C   UNL A   1      33.290  24.624  22.545  1.00  0.00     0.314 C 
ATOM     10  O   UNL A   1      34.454  24.739  22.928  1.00  0.00    -0.252 OA
BRANCH   9  11
ATOM     11  C   UNL A   1      32.219  25.647  22.923  1.00  0.00     0.090 C 
ATOM     12  N   UNL A   1      32.226  27.798  24.105  1.00  0.00    -0.355 N 
ATOM     13  C   UNL A   1      31.551  28.578  23.089  1.00  0.00     0.118 C 
ATOM     14  C   UNL A   1      33.073  26.714  23.650  1.00  0.00     0.137 C 
ATOM     15  C   UNL A   1      30.646  27.621  22.308  1.00  0.00     0.023 C 
ATOM     16  C   UNL A   1      31.398  26.366  21.807  1.00  0.00     0.023 C 
BRANCH  12  17
ATOM     17  C   UNL A   1      32.603  28.366  25.308  1.00  0.00     0.134 A 
ATOM     18  C   UNL A   1      34.221  29.219  26.683  1.00  0.00     0.221 A 
ATOM     19  N   UNL A   1      33.494  29.034  27.790  1.00  0.00    -0.222 NA
ATOM     20  N   UNL A   1      33.833  28.893  25.446  1.00  0.00    -0.196 NA
ATOM     21  C   UNL A   1      32.273  28.503  27.613  1.00  0.00     0.119 A 
ATOM     22  C   UNL A   1      31.767  28.170  26.385  1.00  0.00     0.067 A 
BRANCH  18  23
ATOM     23  N   UNL A   1      35.470  29.747  26.844  1.00  0.00    -0.368 N 
ATOM     24  H   UNL A   1      35.712  30.190  27.690  1.00  0.00     0.159 HD
ATOM     25  H   UNL A   1      36.130  29.683  26.116  1.00  0.00     0.159 HD
ENDBRANCH  18  23
ENDBRANCH  12  17
BRANCH  11  26
ATOM     26  C   UNL A   1      31.267  24.895  23.909  1.00  0.00     0.059 C 
BRANCH  26  27
ATOM     27  C   UNL A   1      32.000  24.310  25.106  1.00  0.00    -0.011 A 
ATOM     28  C   UNL A   1      33.200  24.875  25.566  1.00  0.00     0.010 A 
ATOM     29  C   UNL A   1      31.569  23.109  25.686  1.00  0.00     0.129 A 
ATOM     30  C   UNL A   1      33.997  24.189  26.485  1.00  0.00     0.040 A 
ATOM     31  C   UNL A   1      32.344  22.432  26.618  1.00  0.00     0.078 A 
ATOM     32  F   UNL A   1      30.411  22.557  25.293  1.00  0.00    -0.207 F 
ATOM     33  C   UNL A   1      33.569  22.967  26.987  1.00  0.00     0.126 A 
ATOM     34  F   UNL A   1      34.359  22.286  27.827  1.00  0.00    -0.207 F 
ENDBRANCH  26  27
ENDBRANCH  11  26
ENDBRANCH   9  11
ENDBRANCH   8   9
ENDBRANCH   7   8
ENDBRANCH   6   7
ENDBRANCH   5   6
ENDBRANCH   4   5
ENDBRANCH   3   4
ENDBRANCH   2   3
ENDBRANCH   1   2
BRANCH   1  35
ATOM     35  C   UNL A   1      35.967  18.790  24.705  1.00  0.00     0.188 C 
BRANCH  35  36
ATOM     36  O   UNL A   1      35.574  20.148  24.803  1.00  0.00    -0.376 OA
BRANCH  36  37
ATOM     37  C   UNL A   1      36.417  21.058  25.495  1.00  0.00     0.202 C 
BRANCH  37  38
ATOM     38  C   UNL A   1      37.909  21.100  25.122  1.00  0.00     0.261 C 
BRANCH  38  39
ATOM     39  O   UNL A   1      38.662  22.234  25.582  1.00  0.00    -0.460 OA
BRANCH  39  40
ATOM     40  C   UNL A   1      39.645  22.029  26.486  1.00  0.00     0.338 C 
ATOM     41  O   UNL A   1      40.265  21.005  26.680  1.00  0.00    -0.246 OA
BRANCH  40  42
ATOM     42  C   UNL A   1      39.982  23.342  27.078  1.00  0.00     0.060 A 
ATOM     43  C   UNL A   1      39.314  24.485  26.622  1.00  0.00     0.016 A 
ATOM     44  C   UNL A   1      40.961  23.440  28.068  1.00  0.00     0.016 A 
ATOM     45  C   UNL A   1      39.652  25.740  27.127  1.00  0.00     0.010 A 
ATOM     46  C   UNL A   1      41.315  24.699  28.556  1.00  0.00     0.010 A 
ATOM     47  C   UNL A   1      40.688  25.857  28.061  1.00  0.00    -0.014 A 
BRANCH  47  48
ATOM     48  C   UNL A   1      41.253  27.192  28.373  1.00  0.00     0.031 A 
ATOM     49  C   UNL A   1      42.697  27.449  28.043  1.00  0.00     0.074 A 
ATOM     50  C   UNL A   1      40.497  28.159  28.922  1.00  0.00     0.049 A 
ATOM     51  N   UNL A   1      43.428  28.506  28.279  1.00  0.00    -0.248 NA
ATOM     52  C   UNL A   1      43.416  26.360  27.359  1.00  0.00     0.031 C 
ATOM     53  C   UNL A   1      39.077  28.041  29.240  1.00  0.00     0.029 A 
ATOM     54  N   UNL A   1      40.829  29.431  29.318  1.00  0.00    -0.354 N 
ATOM     55  C   UNL A   1      44.694  28.208  27.785  1.00  0.00     0.074 A 
ATOM     56  C   UNL A   1      44.638  26.860  27.264  1.00  0.00     0.031 C 
ATOM     57  C   UNL A   1      38.659  29.191  29.797  1.00  0.00     0.029 A 
ATOM     58  C   UNL A   1      39.791  30.111  29.909  1.00  0.00     0.049 A 
ATOM     59  H   UNL A   1      41.725  29.819  29.191  1.00  0.00     0.167 HD
ATOM     60  C   UNL A   1      45.799  28.991  27.763  1.00  0.00     0.037 A 
ATOM     61  C   UNL A   1      39.766  31.325  30.496  1.00  0.00     0.037 A 
ATOM     62  C   UNL A   1      45.841  30.328  28.291  1.00  0.00     0.049 A 
ATOM     63  C   UNL A   1      41.026  32.153  30.530  1.00  0.00     0.074 A 
ATOM     64  C   UNL A   1      46.904  31.214  28.302  1.00  0.00     0.029 A 
ATOM     65  N   UNL A   1      44.779  30.970  28.914  1.00  0.00    -0.354 N 
ATOM     66  N   UNL A   1      42.212  31.870  30.045  1.00  0.00    -0.248 NA
ATOM     67  C   UNL A   1      40.946  33.464  31.189  1.00  0.00     0.031 C 
ATOM     68  C   UNL A   1      46.505  32.366  28.987  1.00  0.00     0.029 A 
ATOM     69  C   UNL A   1      45.172  32.227  29.345  1.00  0.00     0.049 A 
ATOM     70  H   UNL A   1      43.880  30.588  29.032  1.00  0.00     0.167 HD
ATOM     71  C   UNL A   1      43.014  32.973  30.324  1.00  0.00     0.074 A 
ATOM     72  C   UNL A   1      42.174  33.933  31.010  1.00  0.00     0.031 C 
ATOM     73  C   UNL A   1      44.325  33.172  30.033  1.00  0.00     0.037 A 
BRANCH  60  74
ATOM     74  C   UNL A   1      47.057  28.401  27.185  1.00  0.00     0.058 A 
ATOM     75  C   UNL A   1      48.008  27.798  28.026  1.00  0.00     0.135 A 
ATOM     76  C   UNL A   1      47.336  28.441  25.809  1.00  0.00     0.135 A 
ATOM     77  F   UNL A   1      47.794  27.728  29.349  1.00  0.00    -0.206 F 
ATOM     78  C   UNL A   1      49.187  27.252  27.526  1.00  0.00     0.059 A 
ATOM     79  C   UNL A   1      48.493  27.872  25.284  1.00  0.00     0.059 A 
ATOM     80  F   UNL A   1      46.456  28.989  24.956  1.00  0.00    -0.206 F 
ATOM     81  C   UNL A   1      49.412  27.278  26.151  1.00  0.00     0.060 A 
BRANCH  81  82
ATOM     82  S   UNL A   1      50.895  26.528  25.448  1.00  0.00     0.124 S 
ATOM     83  O   UNL A   1      50.941  25.252  26.156  1.00  0.00    -0.237 OA
ATOM     84  O   UNL A   1      50.562  26.455  24.030  1.00  0.00    -0.237 OA
ATOM     85  O   UNL A   1      51.953  27.472  25.794  1.00  0.00    -0.744 OA
ENDBRANCH  81  82
ENDBRANCH  60  74
BRANCH  61  86
ATOM     86  C   UNL A   1      38.499  31.817  31.101  1.00  0.00     0.058 A 
ATOM     87  C   UNL A   1      37.578  32.566  30.349  1.00  0.00     0.135 A 
ATOM     88  C   UNL A   1      38.209  31.598  32.454  1.00  0.00     0.135 A 
ATOM     89  F   UNL A   1      37.811  32.807  29.049  1.00  0.00    -0.206 F 
ATOM     90  C   UNL A   1      36.436  33.116  30.925  1.00  0.00     0.059 A 
ATOM     91  C   UNL A   1      37.060  32.115  33.047  1.00  0.00     0.059 A 
ATOM     92  F   UNL A   1      39.047  30.875  33.212  1.00  0.00    -0.206 F 
ATOM     93  C   UNL A   1      36.188  32.887  32.277  1.00  0.00     0.060 A 
BRANCH  93  94
ATOM     94  S   UNL A   1      34.752  33.627  33.085  1.00  0.00     0.124 S 
ATOM     95  O   UNL A   1      33.661  32.821  32.548  1.00  0.00    -0.237 OA
ATOM     96  O   UNL A   1      35.064  33.422  34.496  1.00  0.00    -0.237 OA
ATOM     97  O   UNL A   1      34.788  35.015  32.637  1.00  0.00    -0.744 OA
ENDBRANCH  93  94
ENDBRANCH  61  86
BRANCH  73  98
ATOM     98  C   UNL A   1      44.944  34.486  30.436  1.00  0.00     0.058 A 
ATOM     99  C   UNL A   1      44.939  35.575  29.548  1.00  0.00     0.135 A 
ATOM    100  C   UNL A   1      45.618  34.642  31.657  1.00  0.00     0.135 A 
ATOM    101  F   UNL A   1      44.320  35.477  28.360  1.00  0.00    -0.206 F 
ATOM    102  C   UNL A   1      45.594  36.767  29.846  1.00  0.00     0.059 A 
ATOM    103  C   UNL A   1      46.253  35.835  31.989  1.00  0.00     0.059 A 
ATOM    104  F   UNL A   1      45.650  33.636  32.544  1.00  0.00    -0.206 F 
ATOM    105  C   UNL A   1      46.242  36.889  31.073  1.00  0.00     0.060 A 
BRANCH 105 106
ATOM    106  S   UNL A   1      47.109  38.414  31.503  1.00  0.00     0.124 S 
ATOM    107  O   UNL A   1      48.458  37.923  31.767  1.00  0.00    -0.237 OA
ATOM    108  O   UNL A   1      46.950  39.212  30.292  1.00  0.00    -0.237 OA
ATOM    109  O   UNL A   1      46.382  38.904  32.671  1.00  0.00    -0.744 OA
ENDBRANCH 105 106
ENDBRANCH  73  98
ENDBRANCH  47  48
ENDBRANCH  40  42
ENDBRANCH  39  40
ENDBRANCH  38  39
ENDBRANCH  37  38
ENDBRANCH  36  37
ENDBRANCH  35  36
ENDBRANCH   1  35
TORSDOF 27
ENDMDL
MODEL 2
REMARK VINA RESULT:     -10.0      4.765      8.687
REMARK SMILES Nc1nccc(N2CCC[C@@](Cc3ccc(F)cc3F)(C(=O)OCCOCCOCCOCCOC(=O)c3ccc(-c4c5nc(c(-c6c(F)cc(S(=O)(=O)[O-])cc6F)c6ccc([nH]6)c(-c6c(F)cc(S(=O)(=O)[O-])cc6F)c6nc(c(-c7c(F)cc(S(=O)(=O)[O-])cc7F)c7ccc4[nH]7)C=C6)C=C5)cc3)C2)n1
REMARK SMILES IDX 30 1 29 2 28 3 27 4 26 5 25 6 24 7 23 8 21 9 22 10 11 11
REMARK SMILES IDX 7 12 8 13 104 14 9 15 10 16 6 17 2 18 3 19 105 20 4 21 5 22
REMARK SMILES IDX 1 23 12 26 13 27 14 28 19 29 15 30 18 31 20 32 16 33 17 34
REMARK SMILES IDX 31 35 32 36 33 37 34 38 35 39 36 40 37 41 38 42 39 43 103 44
REMARK SMILES IDX 40 45 102 46 41 47 42 48 43 49 96 50 44 51 101 52 95 53
REMARK SMILES IDX 97 54 45 55 100 56 94 57 93 58 46 60 80 61 59 62 79 63 60 64
REMARK SMILES IDX 63 65 78 66 98 67 61 68 62 69 77 71 99 72 64 73 47 74 48 75
REMARK SMILES IDX 57 76 49 77 50 78 56 79 58 80 51 81 52 82 53 83 54 84 55 85
REMARK SMILES IDX 81 86 82 87 91 88 83 89 84 90 90 91 92 92 85 93 86 94 87 95
REMARK SMILES IDX 88 96 89 97 65 98 66 99 75 100 67 101 68 102 74 103 76 104
REMARK SMILES IDX 69 105 70 106 71 107 72 108 73 109
REMARK H PARENT 1 24 1 25 97 59 63 70
REMARK Flexibility Score: inf
ROOT
ATOM      1  C   UNL A   1      36.004  21.631  25.216  1.00  0.00     0.188 C 
ENDROOT
BRANCH   1   2
ATOM      2  O   UNL A   1      34.945  20.769  25.616  1.00  0.00    -0.377 OA
BRANCH   2   3
ATOM      3  C   UNL A   1      34.489  19.762  24.738  1.00  0.00     0.188 C 
BRANCH   3   4
ATOM      4  C   UNL A   1      33.101  19.943  24.117  1.00  0.00     0.188 C 
BRANCH   4   5
ATOM      5  O   UNL A   1      32.527  21.228  24.046  1.00  0.00    -0.376 OA
BRANCH   5   6
ATOM      6  C   UNL A   1      32.978  22.217  23.135  1.00  0.00     0.202 C 
BRANCH   6   7
ATOM      7  C   UNL A   1      32.379  23.620  22.942  1.00  0.00     0.261 C 
BRANCH   7   8
ATOM      8  O   UNL A   1      33.263  24.749  22.956  1.00  0.00    -0.463 OA
BRANCH   8   9
ATOM      9  C   UNL A   1      33.568  25.205  24.188  1.00  0.00     0.314 C 
ATOM     10  O   UNL A   1      34.553  24.820  24.817  1.00  0.00    -0.252 OA
BRANCH   9  11
ATOM     11  C   UNL A   1      32.567  26.189  24.795  1.00  0.00     0.090 C 
ATOM     12  N   UNL A   1      32.592  28.591  25.294  1.00  0.00    -0.355 N 
ATOM     13  C   UNL A   1      31.378  28.947  24.589  1.00  0.00     0.118 C 
ATOM     14  C   UNL A   1      33.379  27.505  24.745  1.00  0.00     0.137 C 
ATOM     15  C   UNL A   1      30.472  27.712  24.593  1.00  0.00     0.023 C 
ATOM     16  C   UNL A   1      31.197  26.441  24.092  1.00  0.00     0.023 C 
BRANCH  12  17
ATOM     17  C   UNL A   1      33.316  29.540  25.992  1.00  0.00     0.134 A 
ATOM     18  C   UNL A   1      35.248  30.206  27.021  1.00  0.00     0.221 A 
ATOM     19  N   UNL A   1      34.633  31.137  27.756  1.00  0.00    -0.222 NA
ATOM     20  N   UNL A   1      34.643  29.389  26.154  1.00  0.00    -0.196 NA
ATOM     21  C   UNL A   1      33.309  31.258  27.570  1.00  0.00     0.119 A 
ATOM     22  C   UNL A   1      32.601  30.496  26.680  1.00  0.00     0.067 A 
BRANCH  18  23
ATOM     23  N   UNL A   1      36.594  30.060  27.206  1.00  0.00    -0.368 N 
ATOM     24  H   UNL A   1      37.177  29.856  26.439  1.00  0.00     0.159 HD
ATOM     25  H   UNL A   1      36.981  30.159  28.106  1.00  0.00     0.159 HD
ENDBRANCH  18  23
ENDBRANCH  12  17
BRANCH  11  26
ATOM     26  C   UNL A   1      32.350  25.696  26.263  1.00  0.00     0.059 C 
BRANCH  26  27
ATOM     27  C   UNL A   1      31.255  24.648  26.379  1.00  0.00    -0.011 A 
ATOM     28  C   UNL A   1      29.904  25.020  26.467  1.00  0.00     0.010 A 
ATOM     29  C   UNL A   1      31.581  23.294  26.544  1.00  0.00     0.129 A 
ATOM     30  C   UNL A   1      28.936  24.083  26.834  1.00  0.00     0.040 A 
ATOM     31  C   UNL A   1      30.620  22.351  26.886  1.00  0.00     0.078 A 
ATOM     32  F   UNL A   1      32.858  22.898  26.435  1.00  0.00    -0.207 F 
ATOM     33  C   UNL A   1      29.307  22.763  27.057  1.00  0.00     0.126 A 
ATOM     34  F   UNL A   1      28.387  21.878  27.459  1.00  0.00    -0.207 F 
ENDBRANCH  26  27
ENDBRANCH  11  26
ENDBRANCH   9  11
ENDBRANCH   8   9
ENDBRANCH   7   8
ENDBRANCH   6   7
ENDBRANCH   5   6
ENDBRANCH   4   5
ENDBRANCH   3   4
ENDBRANCH   2   3
ENDBRANCH   1   2
BRANCH   1  35
ATOM     35  C   UNL A   1      37.461  21.131  25.212  1.00  0.00     0.188 C 
BRANCH  35  36
ATOM     36  O   UNL A   1      38.420  22.079  25.648  1.00  0.00    -0.376 OA
BRANCH  36  37
ATOM     37  C   UNL A   1      39.631  21.612  26.224  1.00  0.00     0.202 C 
BRANCH  37  38
ATOM     38  C   UNL A   1      40.514  22.617  26.983  1.00  0.00     0.261 C 
BRANCH  38  39
ATOM     39  O   UNL A   1      40.393  24.000  26.611  1.00  0.00    -0.460 OA
BRANCH  39  40
ATOM     40  C   UNL A   1      41.492  24.784  26.682  1.00  0.00     0.338 C 
ATOM     41  O   UNL A   1      42.468  24.750  25.963  1.00  0.00    -0.246 OA
BRANCH  40  42
ATOM     42  C   UNL A   1      41.215  25.843  27.676  1.00  0.00     0.060 A 
ATOM     43  C   UNL A   1      42.112  26.912  27.799  1.00  0.00     0.016 A 
ATOM     44  C   UNL A   1      40.083  25.770  28.490  1.00  0.00     0.016 A 
ATOM     45  C   UNL A   1      41.900  27.893  28.766  1.00  0.00     0.010 A 
ATOM     46  C   UNL A   1      39.885  26.740  29.473  1.00  0.00     0.010 A 
ATOM     47  C   UNL A   1      40.811  27.786  29.640  1.00  0.00    -0.014 A 
BRANCH  47  48
ATOM     48  C   UNL A   1      40.747  28.643  30.847  1.00  0.00     0.031 A 
ATOM     49  C   UNL A   1      39.720  29.741  30.887  1.00  0.00     0.074 A 
ATOM     50  C   UNL A   1      41.571  28.443  31.890  1.00  0.00     0.049 A 
ATOM     51  N   UNL A   1      39.516  30.655  31.799  1.00  0.00    -0.248 NA
ATOM     52  C   UNL A   1      38.803  29.821  29.737  1.00  0.00     0.031 C 
ATOM     53  C   UNL A   1      42.571  27.383  31.984  1.00  0.00     0.029 A 
ATOM     54  N   UNL A   1      41.700  29.136  33.068  1.00  0.00    -0.354 N 
ATOM     55  C   UNL A   1      38.457  31.426  31.329  1.00  0.00     0.074 A 
ATOM     56  C   UNL A   1      38.083  30.890  30.039  1.00  0.00     0.031 C 
ATOM     57  C   UNL A   1      43.223  27.503  33.153  1.00  0.00     0.029 A 
ATOM     58  C   UNL A   1      42.713  28.671  33.872  1.00  0.00     0.049 A 
ATOM     59  H   UNL A   1      41.122  29.895  33.314  1.00  0.00     0.167 HD
ATOM     60  C   UNL A   1      37.850  32.480  31.924  1.00  0.00     0.037 A 
ATOM     61  C   UNL A   1      43.190  29.149  35.040  1.00  0.00     0.037 A 
ATOM     62  C   UNL A   1      38.237  33.006  33.206  1.00  0.00     0.049 A 
ATOM     63  C   UNL A   1      42.551  30.370  35.652  1.00  0.00     0.074 A 
ATOM     64  C   UNL A   1      37.676  34.058  33.908  1.00  0.00     0.029 A 
ATOM     65  N   UNL A   1      39.291  32.530  33.974  1.00  0.00    -0.354 N 
ATOM     66  N   UNL A   1      41.539  31.081  35.210  1.00  0.00    -0.248 NA
ATOM     67  C   UNL A   1      43.114  30.854  36.919  1.00  0.00     0.031 C 
ATOM     68  C   UNL A   1      38.430  34.259  35.068  1.00  0.00     0.029 A 
ATOM     69  C   UNL A   1      39.420  33.289  35.126  1.00  0.00     0.049 A 
ATOM     70  H   UNL A   1      39.864  31.765  33.736  1.00  0.00     0.167 HD
ATOM     71  C   UNL A   1      41.334  32.084  36.152  1.00  0.00     0.074 A 
ATOM     72  C   UNL A   1      42.320  31.881  37.195  1.00  0.00     0.031 C 
ATOM     73  C   UNL A   1      40.411  33.079  36.154  1.00  0.00     0.037 A 
BRANCH  60  74
ATOM     74  C   UNL A   1      36.733  33.154  31.173  1.00  0.00     0.058 A 
ATOM     75  C   UNL A   1      35.404  33.021  31.608  1.00  0.00     0.135 A 
ATOM     76  C   UNL A   1      36.968  33.918  30.018  1.00  0.00     0.135 A 
ATOM     77  F   UNL A   1      35.121  32.304  32.708  1.00  0.00    -0.206 F 
ATOM     78  C   UNL A   1      34.348  33.623  30.931  1.00  0.00     0.059 A 
ATOM     79  C   UNL A   1      35.929  34.556  29.344  1.00  0.00     0.059 A 
ATOM     80  F   UNL A   1      38.219  34.095  29.565  1.00  0.00    -0.206 F 
ATOM     81  C   UNL A   1      34.623  34.403  29.810  1.00  0.00     0.060 A 
BRANCH  81  82
ATOM     82  S   UNL A   1      33.293  35.255  28.936  1.00  0.00     0.124 S 
ATOM     83  O   UNL A   1      34.008  36.381  28.343  1.00  0.00    -0.237 OA
ATOM     84  O   UNL A   1      32.834  34.233  28.001  1.00  0.00    -0.237 OA
ATOM     85  O   UNL A   1      32.352  35.600  29.997  1.00  0.00    -0.744 OA
ENDBRANCH  81  82
ENDBRANCH  60  74
BRANCH  61  86
ATOM     86  C   UNL A   1      44.338  28.465  35.694  1.00  0.00     0.058 A 
ATOM     87  C   UNL A   1      45.663  28.789  35.360  1.00  0.00     0.135 A 
ATOM     88  C   UNL A   1      44.133  27.434  36.621  1.00  0.00     0.135 A 
ATOM     89  F   UNL A   1      45.913  29.767  34.474  1.00  0.00    -0.206 F 
ATOM     90  C   UNL A   1      46.745  28.092  35.890  1.00  0.00     0.059 A 
ATOM     91  C   UNL A   1      45.199  26.740  37.186  1.00  0.00     0.059 A 
ATOM     92  F   UNL A   1      42.887  27.097  36.987  1.00  0.00    -0.206 F 
ATOM     93  C   UNL A   1      46.502  27.066  36.801  1.00  0.00     0.060 A 
BRANCH  93  94
ATOM     94  S   UNL A   1      47.867  26.091  37.472  1.00  0.00     0.124 S 
ATOM     95  O   UNL A   1      47.268  24.764  37.561  1.00  0.00    -0.237 OA
ATOM     96  O   UNL A   1      48.890  26.262  36.445  1.00  0.00    -0.237 OA
ATOM     97  O   UNL A   1      48.153  26.739  38.748  1.00  0.00    -0.744 OA
ENDBRANCH  93  94
ENDBRANCH  61  86
BRANCH  73  98
ATOM     98  C   UNL A   1      40.398  34.025  37.327  1.00  0.00     0.058 A 
ATOM     99  C   UNL A   1      39.632  33.732  38.468  1.00  0.00     0.135 A 
ATOM    100  C   UNL A   1      41.067  35.258  37.289  1.00  0.00     0.135 A 
ATOM    101  F   UNL A   1      38.960  32.572  38.552  1.00  0.00    -0.206 F 
ATOM    102  C   UNL A   1      39.514  34.633  39.523  1.00  0.00     0.059 A 
ATOM    103  C   UNL A   1      40.988  36.161  38.346  1.00  0.00     0.059 A 
ATOM    104  F   UNL A   1      41.817  35.588  36.226  1.00  0.00    -0.206 F 
ATOM    105  C   UNL A   1      40.202  35.842  39.455  1.00  0.00     0.060 A 
BRANCH 105 106
ATOM    106  S   UNL A   1      40.076  37.044  40.797  1.00  0.00     0.124 S 
ATOM    107  O   UNL A   1      41.185  36.644  41.658  1.00  0.00    -0.237 OA
ATOM    108  O   UNL A   1      40.245  38.311  40.094  1.00  0.00    -0.237 OA
ATOM    109  O   UNL A   1      38.742  36.809  41.344  1.00  0.00    -0.744 OA
ENDBRANCH 105 106
ENDBRANCH  73  98
ENDBRANCH  47  48
ENDBRANCH  40  42
ENDBRANCH  39  40
ENDBRANCH  38  39
ENDBRANCH  37  38
ENDBRANCH  36  37
ENDBRANCH  35  36
ENDBRANCH   1  35
TORSDOF 27
ENDMDL
MODEL 3
REMARK VINA RESULT:      -9.7      1.643      2.541
REMARK SMILES Nc1nccc(N2CCC[C@@](Cc3ccc(F)cc3F)(C(=O)OCCOCCOCCOCCOC(=O)c3ccc(-c4c5nc(c(-c6c(F)cc(S(=O)(=O)[O-])cc6F)c6ccc([nH]6)c(-c6c(F)cc(S(=O)(=O)[O-])cc6F)c6nc(c(-c7c(F)cc(S(=O)(=O)[O-])cc7F)c7ccc4[nH]7)C=C6)C=C5)cc3)C2)n1
REMARK SMILES IDX 30 1 29 2 28 3 27 4 26 5 25 6 24 7 23 8 21 9 22 10 11 11
REMARK SMILES IDX 7 12 8 13 104 14 9 15 10 16 6 17 2 18 3 19 105 20 4 21 5 22
REMARK SMILES IDX 1 23 12 26 13 27 14 28 19 29 15 30 18 31 20 32 16 33 17 34
REMARK SMILES IDX 31 35 32 36 33 37 34 38 35 39 36 40 37 41 38 42 39 43 103 44
REMARK SMILES IDX 40 45 102 46 41 47 42 48 43 49 96 50 44 51 101 52 95 53
REMARK SMILES IDX 97 54 45 55 100 56 94 57 93 58 46 60 80 61 59 62 79 63 60 64
REMARK SMILES IDX 63 65 78 66 98 67 61 68 62 69 77 71 99 72 64 73 47 74 48 75
REMARK SMILES IDX 57 76 49 77 50 78 56 79 58 80 51 81 52 82 53 83 54 84 55 85
REMARK SMILES IDX 81 86 82 87 91 88 83 89 84 90 90 91 92 92 85 93 86 94 87 95
REMARK SMILES IDX 88 96 89 97 65 98 66 99 75 100 67 101 68 102 74 103 76 104
REMARK SMILES IDX 69 105 70 106 71 107 72 108 73 109
REMARK H PARENT 1 24 1 25 97 59 63 70
REMARK Flexibility Score: inf
ROOT
ATOM      1  C   UNL A   1      34.814  18.270  24.679  1.00  0.00     0.188 C 
ENDROOT
BRANCH   1   2
ATOM      2  O   UNL A   1      34.608  17.322  23.638  1.00  0.00    -0.377 OA
BRANCH   2   3
ATOM      3  C   UNL A   1      33.305  17.087  23.149  1.00  0.00     0.188 C 
BRANCH   3   4
ATOM      4  C   UNL A   1      32.254  18.173  23.392  1.00  0.00     0.188 C 
BRANCH   4   5
ATOM      5  O   UNL A   1      32.028  19.162  22.414  1.00  0.00    -0.376 OA
BRANCH   5   6
ATOM      6  C   UNL A   1      32.196  20.546  22.674  1.00  0.00     0.202 C 
BRANCH   6   7
ATOM      7  C   UNL A   1      32.372  21.199  24.055  1.00  0.00     0.261 C 
BRANCH   7   8
ATOM      8  O   UNL A   1      31.382  22.137  24.499  1.00  0.00    -0.463 OA
BRANCH   8   9
ATOM      9  C   UNL A   1      31.296  23.255  23.750  1.00  0.00     0.314 C 
ATOM     10  O   UNL A   1      30.315  23.518  23.055  1.00  0.00    -0.252 OA
BRANCH   9  11
ATOM     11  C   UNL A   1      32.532  24.155  23.761  1.00  0.00     0.090 C 
ATOM     12  N   UNL A   1      33.418  25.855  25.292  1.00  0.00    -0.355 N 
ATOM     13  C   UNL A   1      34.743  25.295  25.456  1.00  0.00     0.118 C 
ATOM     14  C   UNL A   1      32.328  24.922  25.090  1.00  0.00     0.137 C 
ATOM     15  C   UNL A   1      35.070  24.521  24.175  1.00  0.00     0.023 C 
ATOM     16  C   UNL A   1      33.958  23.521  23.785  1.00  0.00     0.023 C 
BRANCH  12  17
ATOM     17  C   UNL A   1      33.063  27.040  25.910  1.00  0.00     0.134 A 
ATOM     18  C   UNL A   1      33.637  29.063  26.812  1.00  0.00     0.221 A 
ATOM     19  N   UNL A   1      32.515  29.153  27.534  1.00  0.00    -0.222 NA
ATOM     20  N   UNL A   1      33.956  28.040  26.014  1.00  0.00    -0.196 NA
ATOM     21  C   UNL A   1      31.648  28.136  27.407  1.00  0.00     0.119 A 
ATOM     22  C   UNL A   1      31.863  27.060  26.588  1.00  0.00     0.067 A 
BRANCH  18  23
ATOM     23  N   UNL A   1      34.537  30.083  26.938  1.00  0.00    -0.368 N 
ATOM     24  H   UNL A   1      34.240  30.964  27.261  1.00  0.00     0.159 HD
ATOM     25  H   UNL A   1      35.483  29.936  26.705  1.00  0.00     0.159 HD
ENDBRANCH  18  23
ENDBRANCH  12  17
BRANCH  11  26
ATOM     26  C   UNL A   1      32.366  25.091  22.519  1.00  0.00     0.059 C 
BRANCH  26  27
ATOM     27  C   UNL A   1      31.768  26.443  22.875  1.00  0.00    -0.011 A 
ATOM     28  C   UNL A   1      30.420  26.562  23.245  1.00  0.00     0.010 A 
ATOM     29  C   UNL A   1      32.514  27.617  22.701  1.00  0.00     0.129 A 
ATOM     30  C   UNL A   1      29.815  27.819  23.314  1.00  0.00     0.040 A 
ATOM     31  C   UNL A   1      31.925  28.872  22.790  1.00  0.00     0.078 A 
ATOM     32  F   UNL A   1      33.813  27.540  22.378  1.00  0.00    -0.207 F 
ATOM     33  C   UNL A   1      30.569  28.959  23.068  1.00  0.00     0.126 A 
ATOM     34  F   UNL A   1      29.976  30.158  23.082  1.00  0.00    -0.207 F 
ENDBRANCH  26  27
ENDBRANCH  11  26
ENDBRANCH   9  11
ENDBRANCH   8   9
ENDBRANCH   7   8
ENDBRANCH   6   7
ENDBRANCH   5   6
ENDBRANCH   4   5
ENDBRANCH   3   4
ENDBRANCH   2   3
ENDBRANCH   1   2
BRANCH   1  35
ATOM     35  C   UNL A   1      36.026  19.221  24.641  1.00  0.00     0.188 C 
BRANCH  35  36
ATOM     36  O   UNL A   1      35.706  20.600  24.704  1.00  0.00    -0.376 OA
BRANCH  36  37
ATOM     37  C   UNL A   1      36.362  21.412  25.667  1.00  0.00     0.202 C 
BRANCH  37  38
ATOM     38  C   UNL A   1      37.898  21.495  25.628  1.00  0.00     0.261 C 
BRANCH  38  39
ATOM     39  O   UNL A   1      38.486  22.776  25.908  1.00  0.00    -0.460 OA
BRANCH  39  40
ATOM     40  C   UNL A   1      39.651  22.813  26.593  1.00  0.00     0.338 C 
ATOM     41  O   UNL A   1      40.470  21.926  26.701  1.00  0.00    -0.246 OA
BRANCH  40  42
ATOM     42  C   UNL A   1      39.858  24.209  27.037  1.00  0.00     0.060 A 
ATOM     43  C   UNL A   1      40.282  25.163  26.104  1.00  0.00     0.016 A 
ATOM     44  C   UNL A   1      39.646  24.565  28.370  1.00  0.00     0.016 A 
ATOM     45  C   UNL A   1      40.536  26.472  26.511  1.00  0.00     0.010 A 
ATOM     46  C   UNL A   1      39.922  25.870  28.781  1.00  0.00     0.010 A 
ATOM     47  C   UNL A   1      40.403  26.819  27.861  1.00  0.00    -0.014 A 
BRANCH  47  48
ATOM     48  C   UNL A   1      40.953  28.107  28.349  1.00  0.00     0.031 A 
ATOM     49  C   UNL A   1      42.441  28.316  28.284  1.00  0.00     0.074 A 
ATOM     50  C   UNL A   1      40.150  29.074  28.825  1.00  0.00     0.049 A 
ATOM     51  N   UNL A   1      43.158  29.323  28.707  1.00  0.00    -0.248 NA
ATOM     52  C   UNL A   1      43.227  27.237  27.660  1.00  0.00     0.031 C 
ATOM     53  C   UNL A   1      38.693  29.003  28.892  1.00  0.00     0.029 A 
ATOM     54  N   UNL A   1      40.454  30.304  29.353  1.00  0.00    -0.354 N 
ATOM     55  C   UNL A   1      44.478  28.996  28.414  1.00  0.00     0.074 A 
ATOM     56  C   UNL A   1      44.464  27.684  27.805  1.00  0.00     0.031 C 
ATOM     57  C   UNL A   1      38.227  30.136  29.444  1.00  0.00     0.029 A 
ATOM     58  C   UNL A   1      39.355  30.996  29.805  1.00  0.00     0.049 A 
ATOM     59  H   UNL A   1      41.371  30.657  29.404  1.00  0.00     0.167 HD
ATOM     60  C   UNL A   1      45.597  29.727  28.629  1.00  0.00     0.037 A 
ATOM     61  C   UNL A   1      39.274  32.173  30.457  1.00  0.00     0.037 A 
ATOM     62  C   UNL A   1      45.596  31.029  29.242  1.00  0.00     0.049 A 
ATOM     63  C   UNL A   1      40.537  32.939  30.756  1.00  0.00     0.074 A 
ATOM     64  C   UNL A   1      46.673  31.862  29.489  1.00  0.00     0.029 A 
ATOM     65  N   UNL A   1      44.467  31.681  29.718  1.00  0.00    -0.354 N 
ATOM     66  N   UNL A   1      41.778  32.631  30.459  1.00  0.00    -0.248 NA
ATOM     67  C   UNL A   1      40.392  34.211  31.476  1.00  0.00     0.031 C 
ATOM     68  C   UNL A   1      46.203  32.990  30.171  1.00  0.00     0.029 A 
ATOM     69  C   UNL A   1      44.825  32.891  30.290  1.00  0.00     0.049 A 
ATOM     70  H   UNL A   1      43.548  31.335  29.659  1.00  0.00     0.167 HD
ATOM     71  C   UNL A   1      42.559  33.677  30.939  1.00  0.00     0.074 A 
ATOM     72  C   UNL A   1      41.649  34.634  31.536  1.00  0.00     0.031 C 
ATOM     73  C   UNL A   1      43.907  33.833  30.887  1.00  0.00     0.037 A 
BRANCH  60  74
ATOM     74  C   UNL A   1      46.914  29.115  28.234  1.00  0.00     0.058 A 
ATOM     75  C   UNL A   1      47.657  28.369  29.164  1.00  0.00     0.135 A 
ATOM     76  C   UNL A   1      47.453  29.273  26.946  1.00  0.00     0.135 A 
ATOM     77  F   UNL A   1      47.190  28.183  30.409  1.00  0.00    -0.206 F 
ATOM     78  C   UNL A   1      48.883  27.798  28.835  1.00  0.00     0.059 A 
ATOM     79  C   UNL A   1      48.662  28.683  26.585  1.00  0.00     0.059 A 
ATOM     80  F   UNL A   1      46.780  29.961  26.010  1.00  0.00    -0.206 F 
ATOM     81  C   UNL A   1      49.368  27.946  27.537  1.00  0.00     0.060 A 
BRANCH  81  82
ATOM     82  S   UNL A   1      50.922  27.171  27.044  1.00  0.00     0.124 S 
ATOM     83  O   UNL A   1      51.804  27.560  28.140  1.00  0.00    -0.237 OA
ATOM     84  O   UNL A   1      50.560  25.759  26.992  1.00  0.00    -0.237 OA
ATOM     85  O   UNL A   1      51.218  27.788  25.754  1.00  0.00    -0.744 OA
ENDBRANCH  81  82
ENDBRANCH  60  74
BRANCH  61  86
ATOM     86  C   UNL A   1      37.940  32.687  30.871  1.00  0.00     0.058 A 
ATOM     87  C   UNL A   1      37.183  33.510  30.021  1.00  0.00     0.135 A 
ATOM     88  C   UNL A   1      37.422  32.413  32.144  1.00  0.00     0.135 A 
ATOM     89  F   UNL A   1      37.637  33.806  28.792  1.00  0.00    -0.206 F 
ATOM     90  C   UNL A   1      35.980  34.078  30.430  1.00  0.00     0.059 A 
ATOM     91  C   UNL A   1      36.207  32.947  32.567  1.00  0.00     0.059 A 
ATOM     92  F   UNL A   1      38.097  31.618  32.987  1.00  0.00    -0.206 F 
ATOM     93  C   UNL A   1      35.501  33.791  31.708  1.00  0.00     0.060 A 
BRANCH  93  94
ATOM     94  S   UNL A   1      33.976  34.550  32.308  1.00  0.00     0.124 S 
ATOM     95  O   UNL A   1      34.481  35.751  32.965  1.00  0.00    -0.237 OA
ATOM     96  O   UNL A   1      33.238  34.764  31.066  1.00  0.00    -0.237 OA
ATOM     97  O   UNL A   1      33.418  33.535  33.195  1.00  0.00    -0.744 OA
ENDBRANCH  93  94
ENDBRANCH  61  86
BRANCH  73  98
ATOM     98  C   UNL A   1      44.494  35.091  31.472  1.00  0.00     0.058 A 
ATOM     99  C   UNL A   1      44.619  36.250  30.685  1.00  0.00     0.135 A 
ATOM    100  C   UNL A   1      45.014  35.128  32.775  1.00  0.00     0.135 A 
ATOM    101  F   UNL A   1      44.150  36.266  29.427  1.00  0.00    -0.206 F 
ATOM    102  C   UNL A   1      45.252  37.394  31.162  1.00  0.00     0.059 A 
ATOM    103  C   UNL A   1      45.625  36.272  33.282  1.00  0.00     0.059 A 
ATOM    104  F   UNL A   1      44.919  34.051  33.571  1.00  0.00    -0.206 F 
ATOM    105  C   UNL A   1      45.746  37.397  32.464  1.00  0.00     0.060 A 
BRANCH 105 106
ATOM    106  S   UNL A   1      46.579  38.856  33.125  1.00  0.00     0.124 S 
ATOM    107  O   UNL A   1      46.883  39.600  31.907  1.00  0.00    -0.237 OA
ATOM    108  O   UNL A   1      45.552  39.437  33.984  1.00  0.00    -0.237 OA
ATOM    109  O   UNL A   1      47.735  38.303  33.826  1.00  0.00    -0.744 OA
ENDBRANCH 105 106
ENDBRANCH  73  98
ENDBRANCH  47  48
ENDBRANCH  40  42
ENDBRANCH  39  40
ENDBRANCH  38  39
ENDBRANCH  37  38
ENDBRANCH  36  37
ENDBRANCH  35  36
ENDBRANCH   1  35
TORSDOF 27
ENDMDL
