MODEL 1
REMARK VINA RESULT:     -10.3      0.000      0.000
REMARK SMILES Cc1nn(C)c(=O)c(C(=O)N[C@H]2C=C[C@H](C(=O)OCCOCCOCCOCCOC(=O)c3ccc(-c4c5nc(c(-c6c(F)cc(S(=O)(=O)[O-])cc6F)c6ccc([nH]6)c(-c6c(F)cc(S(=O)(=O)[O-])cc6F)c6nc(c(-c7c(F)cc(S(=O)(=O)[O-])cc7F)c7ccc4[nH]7)C=C6)C=C5)cc3)C2)c1C
REMARK SMILES IDX 25 1 24 2 23 3 22 4 21 5 20 6 19 7 18 8 16 9 17 10 15 11
REMARK SMILES IDX 12 12 13 13 99 14 14 15 11 16 9 17 10 18 8 20 1 21 2 22 3 23
REMARK SMILES IDX 100 24 4 25 101 26 5 27 6 28 7 29 26 30 27 31 28 32 29 33
REMARK SMILES IDX 30 34 31 35 32 36 33 37 34 38 98 39 35 40 97 41 36 42 37 43
REMARK SMILES IDX 38 44 91 45 39 46 96 47 90 48 92 49 40 50 95 51 89 52 88 53
REMARK SMILES IDX 41 55 75 56 54 57 74 58 55 59 58 60 73 61 93 62 56 63 57 64
REMARK SMILES IDX 72 66 94 67 59 68 42 69 43 70 52 71 44 72 45 73 51 74 53 75
REMARK SMILES IDX 46 76 47 77 48 78 49 79 50 80 76 81 77 82 86 83 78 84 79 85
REMARK SMILES IDX 85 86 87 87 80 88 81 89 82 90 83 91 84 92 60 93 61 94 70 95
REMARK SMILES IDX 62 96 63 97 69 98 71 99 64 100 65 101 66 102 67 103 68 104
REMARK H PARENT 11 19 92 54 58 65
REMARK Flexibility Score: inf
ROOT
ATOM      1  C   UNL A   1      45.035  20.391  24.459  1.00  0.00     0.188 C 
ENDROOT
BRANCH   1   2
ATOM      2  O   UNL A   1      44.246  19.636  25.361  1.00  0.00    -0.377 OA
BRANCH   2   3
ATOM      3  C   UNL A   1      43.021  20.212  25.743  1.00  0.00     0.188 C 
BRANCH   3   4
ATOM      4  C   UNL A   1      41.946  19.233  26.231  1.00  0.00     0.188 C 
BRANCH   4   5
ATOM      5  O   UNL A   1      40.690  19.687  26.717  1.00  0.00    -0.376 OA
BRANCH   5   6
ATOM      6  C   UNL A   1      39.624  20.007  25.837  1.00  0.00     0.202 C 
BRANCH   6   7
ATOM      7  C   UNL A   1      39.030  21.430  25.769  1.00  0.00     0.261 C 
BRANCH   7   8
ATOM      8  O   UNL A   1      37.702  21.552  25.229  1.00  0.00    -0.463 OA
BRANCH   8   9
ATOM      9  C   UNL A   1      37.020  22.661  25.585  1.00  0.00     0.312 C 
ATOM     10  O   UNL A   1      37.538  23.749  25.826  1.00  0.00    -0.252 OA
BRANCH   9  11
ATOM     11  C   UNL A   1      35.501  22.476  25.630  1.00  0.00     0.124 C 
ATOM     12  C   UNL A   1      33.670  21.152  26.647  1.00  0.00     0.106 C 
ATOM     13  C   UNL A   1      34.084  20.620  25.306  1.00  0.00    -0.006 C 
ATOM     14  C   UNL A   1      34.718  22.241  26.948  1.00  0.00     0.048 C 
ATOM     15  C   UNL A   1      35.070  21.332  24.755  1.00  0.00    -0.014 C 
BRANCH  12  16
ATOM     16  N   UNL A   1      32.243  21.453  26.559  1.00  0.00    -0.346 N 
ATOM     17  C   UNL A   1      31.417  22.409  26.042  1.00  0.00     0.257 C 
ATOM     18  O   UNL A   1      30.207  22.215  26.155  1.00  0.00    -0.269 OA
ATOM     19  H   UNL A   1      31.717  20.753  27.010  1.00  0.00     0.164 HD
BRANCH  17  20
ATOM     20  C   UNL A   1      31.951  23.629  25.392  1.00  0.00     0.111 A 
ATOM     21  C   UNL A   1      34.415  24.505  22.915  1.00  0.00     0.069 C 
ATOM     22  C   UNL A   1      33.147  24.754  23.704  1.00  0.00     0.062 A 
ATOM     23  N   UNL A   1      32.978  25.949  24.158  1.00  0.00    -0.175 NA
ATOM     24  C   UNL A   1      32.245  23.632  24.078  1.00  0.00    -0.010 A 
ATOM     25  N   UNL A   1      32.006  26.071  25.107  1.00  0.00    -0.232 N 
ATOM     26  C   UNL A   1      31.681  22.694  23.068  1.00  0.00     0.047 C 
ATOM     27  C   UNL A   1      31.488  27.410  25.279  1.00  0.00     0.178 C 
ATOM     28  C   UNL A   1      31.609  25.003  25.917  1.00  0.00     0.279 A 
ATOM     29  O   UNL A   1      30.939  25.152  26.936  1.00  0.00    -0.267 OA
ENDBRANCH  17  20
ENDBRANCH  12  16
ENDBRANCH   9  11
ENDBRANCH   8   9
ENDBRANCH   7   8
ENDBRANCH   6   7
ENDBRANCH   5   6
ENDBRANCH   4   5
ENDBRANCH   3   4
ENDBRANCH   2   3
ENDBRANCH   1   2
BRANCH   1  30
ATOM     30  C   UNL A   1      45.781  21.613  25.030  1.00  0.00     0.188 C 
BRANCH  30  31
ATOM     31  O   UNL A   1      45.387  22.861  24.475  1.00  0.00    -0.376 OA
BRANCH  31  32
ATOM     32  C   UNL A   1      44.020  23.195  24.307  1.00  0.00     0.202 C 
BRANCH  32  33
ATOM     33  C   UNL A   1      43.406  24.438  24.981  1.00  0.00     0.261 C 
BRANCH  33  34
ATOM     34  O   UNL A   1      43.391  24.485  26.410  1.00  0.00    -0.460 OA
BRANCH  34  35
ATOM     35  C   UNL A   1      42.249  24.138  27.039  1.00  0.00     0.338 C 
ATOM     36  O   UNL A   1      41.762  23.020  27.097  1.00  0.00    -0.246 OA
BRANCH  35  37
ATOM     37  C   UNL A   1      41.816  25.302  27.841  1.00  0.00     0.060 A 
ATOM     38  C   UNL A   1      42.721  26.353  28.043  1.00  0.00     0.016 A 
ATOM     39  C   UNL A   1      40.516  25.382  28.349  1.00  0.00     0.016 A 
ATOM     40  C   UNL A   1      42.340  27.477  28.770  1.00  0.00     0.010 A 
ATOM     41  C   UNL A   1      40.150  26.486  29.124  1.00  0.00     0.010 A 
ATOM     42  C   UNL A   1      41.075  27.518  29.365  1.00  0.00    -0.014 A 
BRANCH  42  43
ATOM     43  C   UNL A   1      40.840  28.492  30.454  1.00  0.00     0.031 A 
ATOM     44  C   UNL A   1      41.740  28.414  31.656  1.00  0.00     0.074 A 
ATOM     45  C   UNL A   1      39.908  29.455  30.356  1.00  0.00     0.049 A 
ATOM     46  N   UNL A   1      41.735  29.131  32.747  1.00  0.00    -0.248 NA
ATOM     47  C   UNL A   1      42.798  27.388  31.615  1.00  0.00     0.031 C 
ATOM     48  C   UNL A   1      39.033  29.673  29.206  1.00  0.00     0.029 A 
ATOM     49  N   UNL A   1      39.546  30.434  31.248  1.00  0.00    -0.354 N 
ATOM     50  C   UNL A   1      42.783  28.646  33.519  1.00  0.00     0.074 A 
ATOM     51  C   UNL A   1      43.383  27.553  32.789  1.00  0.00     0.031 C 
ATOM     52  C   UNL A   1      38.227  30.717  29.467  1.00  0.00     0.029 A 
ATOM     53  C   UNL A   1      38.504  31.217  30.813  1.00  0.00     0.049 A 
ATOM     54  H   UNL A   1      39.992  30.562  32.116  1.00  0.00     0.167 HD
ATOM     55  C   UNL A   1      43.212  29.079  34.727  1.00  0.00     0.037 A 
ATOM     56  C   UNL A   1      37.842  32.207  31.445  1.00  0.00     0.037 A 
ATOM     57  C   UNL A   1      42.597  30.158  35.451  1.00  0.00     0.049 A 
ATOM     58  C   UNL A   1      38.266  32.604  32.837  1.00  0.00     0.074 A 
ATOM     59  C   UNL A   1      42.944  30.670  36.687  1.00  0.00     0.029 A 
ATOM     60  N   UNL A   1      41.500  30.884  35.009  1.00  0.00    -0.354 N 
ATOM     61  N   UNL A   1      39.256  32.137  33.562  1.00  0.00    -0.248 NA
ATOM     62  C   UNL A   1      37.487  33.661  33.497  1.00  0.00     0.031 C 
ATOM     63  C   UNL A   1      42.020  31.665  37.020  1.00  0.00     0.029 A 
ATOM     64  C   UNL A   1      41.138  31.820  35.961  1.00  0.00     0.049 A 
ATOM     65  H   UNL A   1      41.046  30.753  34.145  1.00  0.00     0.167 HD
ATOM     66  C   UNL A   1      39.233  32.859  34.753  1.00  0.00     0.074 A 
ATOM     67  C   UNL A   1      38.139  33.803  34.642  1.00  0.00     0.031 C 
ATOM     68  C   UNL A   1      40.044  32.753  35.836  1.00  0.00     0.037 A 
BRANCH  55  69
ATOM     69  C   UNL A   1      44.376  28.362  35.350  1.00  0.00     0.058 A 
ATOM     70  C   UNL A   1      44.200  27.239  36.175  1.00  0.00     0.135 A 
ATOM     71  C   UNL A   1      45.690  28.789  35.098  1.00  0.00     0.135 A 
ATOM     72  F   UNL A   1      42.965  26.805  36.472  1.00  0.00    -0.206 F 
ATOM     73  C   UNL A   1      45.284  26.578  36.744  1.00  0.00     0.059 A 
ATOM     74  C   UNL A   1      46.790  28.125  35.630  1.00  0.00     0.059 A 
ATOM     75  F   UNL A   1      45.915  29.864  34.326  1.00  0.00    -0.206 F 
ATOM     76  C   UNL A   1      46.575  27.026  36.461  1.00  0.00     0.060 A 
BRANCH  76  77
ATOM     77  S   UNL A   1      47.969  26.150  37.201  1.00  0.00     0.124 S 
ATOM     78  O   UNL A   1      47.499  25.956  38.570  1.00  0.00    -0.237 OA
ATOM     79  O   UNL A   1      48.045  24.945  36.380  1.00  0.00    -0.237 OA
ATOM     80  O   UNL A   1      49.080  27.083  37.046  1.00  0.00    -0.744 OA
ENDBRANCH  76  77
ENDBRANCH  55  69
BRANCH  56  81
ATOM     81  C   UNL A   1      36.706  32.886  30.765  1.00  0.00     0.058 A 
ATOM     82  C   UNL A   1      35.382  32.668  31.175  1.00  0.00     0.135 A 
ATOM     83  C   UNL A   1      36.922  33.789  29.712  1.00  0.00     0.135 A 
ATOM     84  F   UNL A   1      35.120  31.800  32.165  1.00  0.00    -0.206 F 
ATOM     85  C   UNL A   1      34.314  33.323  30.569  1.00  0.00     0.059 A 
ATOM     86  C   UNL A   1      35.872  34.477  29.109  1.00  0.00     0.059 A 
ATOM     87  F   UNL A   1      38.169  34.038  29.284  1.00  0.00    -0.206 F 
ATOM     88  C   UNL A   1      34.571  34.236  29.545  1.00  0.00     0.060 A 
BRANCH  88  89
ATOM     89  S   UNL A   1      33.181  35.139  28.827  1.00  0.00     0.124 S 
ATOM     90  O   UNL A   1      33.857  36.257  28.179  1.00  0.00    -0.237 OA
ATOM     91  O   UNL A   1      32.602  34.139  27.936  1.00  0.00    -0.237 OA
ATOM     92  O   UNL A   1      32.366  35.481  29.988  1.00  0.00    -0.744 OA
ENDBRANCH  88  89
ENDBRANCH  56  81
BRANCH  68  93
ATOM     93  C   UNL A   1      39.802  33.691  36.989  1.00  0.00     0.058 A 
ATOM     94  C   UNL A   1      38.882  33.390  38.005  1.00  0.00     0.135 A 
ATOM     95  C   UNL A   1      40.563  34.865  37.121  1.00  0.00     0.135 A 
ATOM     96  F   UNL A   1      38.128  32.282  37.927  1.00  0.00    -0.206 F 
ATOM     97  C   UNL A   1      38.708  34.232  39.099  1.00  0.00     0.059 A 
ATOM     98  C   UNL A   1      40.429  35.704  38.223  1.00  0.00     0.059 A 
ATOM     99  F   UNL A   1      41.469  35.193  36.187  1.00  0.00    -0.206 F 
ATOM    100  C   UNL A   1      39.490  35.384  39.203  1.00  0.00     0.060 A 
BRANCH 100 101
ATOM    101  S   UNL A   1      39.276  36.444  40.647  1.00  0.00     0.124 S 
ATOM    102  O   UNL A   1      38.704  37.646  40.047  1.00  0.00    -0.237 OA
ATOM    103  O   UNL A   1      38.371  35.657  41.477  1.00  0.00    -0.237 OA
ATOM    104  O   UNL A   1      40.632  36.590  41.169  1.00  0.00    -0.744 OA
ENDBRANCH 100 101
ENDBRANCH  68  93
ENDBRANCH  42  43
ENDBRANCH  35  37
ENDBRANCH  34  35
ENDBRANCH  33  34
ENDBRANCH  32  33
ENDBRANCH  31  32
ENDBRANCH  30  31
ENDBRANCH   1  30
TORSDOF 25
ENDMDL
MODEL 2
REMARK VINA RESULT:     -10.0      4.792      8.362
REMARK SMILES Cc1nn(C)c(=O)c(C(=O)N[C@H]2C=C[C@H](C(=O)OCCOCCOCCOCCOC(=O)c3ccc(-c4c5nc(c(-c6c(F)cc(S(=O)(=O)[O-])cc6F)c6ccc([nH]6)c(-c6c(F)cc(S(=O)(=O)[O-])cc6F)c6nc(c(-c7c(F)cc(S(=O)(=O)[O-])cc7F)c7ccc4[nH]7)C=C6)C=C5)cc3)C2)c1C
REMARK SMILES IDX 25 1 24 2 23 3 22 4 21 5 20 6 19 7 18 8 16 9 17 10 15 11
REMARK SMILES IDX 12 12 13 13 99 14 14 15 11 16 9 17 10 18 8 20 1 21 2 22 3 23
REMARK SMILES IDX 100 24 4 25 101 26 5 27 6 28 7 29 26 30 27 31 28 32 29 33
REMARK SMILES IDX 30 34 31 35 32 36 33 37 34 38 98 39 35 40 97 41 36 42 37 43
REMARK SMILES IDX 38 44 91 45 39 46 96 47 90 48 92 49 40 50 95 51 89 52 88 53
REMARK SMILES IDX 41 55 75 56 54 57 74 58 55 59 58 60 73 61 93 62 56 63 57 64
REMARK SMILES IDX 72 66 94 67 59 68 42 69 43 70 52 71 44 72 45 73 51 74 53 75
REMARK SMILES IDX 46 76 47 77 48 78 49 79 50 80 76 81 77 82 86 83 78 84 79 85
REMARK SMILES IDX 85 86 87 87 80 88 81 89 82 90 83 91 84 92 60 93 61 94 70 95
REMARK SMILES IDX 62 96 63 97 69 98 71 99 64 100 65 101 66 102 67 103 68 104
REMARK H PARENT 11 19 92 54 58 65
REMARK Flexibility Score: inf
ROOT
ATOM      1  C   UNL A   1      44.153  18.475  25.726  1.00  0.00     0.188 C 
ENDROOT
BRANCH   1   2
ATOM      2  O   UNL A   1      45.235  18.492  24.814  1.00  0.00    -0.377 OA
BRANCH   2   3
ATOM      3  C   UNL A   1      46.336  19.291  25.175  1.00  0.00     0.188 C 
BRANCH   3   4
ATOM      4  C   UNL A   1      46.143  20.804  25.020  1.00  0.00     0.188 C 
BRANCH   4   5
ATOM      5  O   UNL A   1      45.329  21.348  23.990  1.00  0.00    -0.376 OA
BRANCH   5   6
ATOM      6  C   UNL A   1      44.635  22.575  24.161  1.00  0.00     0.202 C 
BRANCH   6   7
ATOM      7  C   UNL A   1      43.769  22.849  25.409  1.00  0.00     0.261 C 
BRANCH   7   8
ATOM      8  O   UNL A   1      43.963  24.113  26.066  1.00  0.00    -0.463 OA
BRANCH   8   9
ATOM      9  C   UNL A   1      45.148  24.276  26.693  1.00  0.00     0.312 C 
ATOM     10  O   UNL A   1      46.152  24.753  26.170  1.00  0.00    -0.252 OA
BRANCH   9  11
ATOM     11  C   UNL A   1      45.143  23.848  28.163  1.00  0.00     0.124 C 
ATOM     12  C   UNL A   1      44.161  24.320  30.388  1.00  0.00     0.106 C 
ATOM     13  C   UNL A   1      45.483  25.003  30.190  1.00  0.00    -0.006 C 
ATOM     14  C   UNL A   1      43.844  23.725  29.002  1.00  0.00     0.048 C 
ATOM     15  C   UNL A   1      46.015  24.748  28.992  1.00  0.00    -0.014 C 
BRANCH  12  16
ATOM     16  N   UNL A   1      44.292  23.485  31.579  1.00  0.00    -0.346 N 
ATOM     17  C   UNL A   1      44.293  23.613  32.939  1.00  0.00     0.257 C 
ATOM     18  O   UNL A   1      44.376  22.574  33.593  1.00  0.00    -0.269 OA
ATOM     19  H   UNL A   1      44.420  22.542  31.324  1.00  0.00     0.164 HD
BRANCH  17  20
ATOM     20  C   UNL A   1      44.214  24.940  33.594  1.00  0.00     0.111 A 
ATOM     21  C   UNL A   1      41.703  27.370  34.471  1.00  0.00     0.069 C 
ATOM     22  C   UNL A   1      43.048  26.694  34.646  1.00  0.00     0.062 A 
ATOM     23  N   UNL A   1      44.061  27.470  34.831  1.00  0.00    -0.175 NA
ATOM     24  C   UNL A   1      43.203  25.231  34.434  1.00  0.00    -0.010 A 
ATOM     25  N   UNL A   1      45.277  26.874  34.679  1.00  0.00    -0.232 N 
ATOM     26  C   UNL A   1      42.372  24.229  35.158  1.00  0.00     0.047 C 
ATOM     27  C   UNL A   1      46.376  27.561  35.319  1.00  0.00     0.178 C 
ATOM     28  C   UNL A   1      45.463  25.739  33.884  1.00  0.00     0.279 A 
ATOM     29  O   UNL A   1      46.572  25.350  33.527  1.00  0.00    -0.267 OA
ENDBRANCH  17  20
ENDBRANCH  12  16
ENDBRANCH   9  11
ENDBRANCH   8   9
ENDBRANCH   7   8
ENDBRANCH   6   7
ENDBRANCH   5   6
ENDBRANCH   4   5
ENDBRANCH   3   4
ENDBRANCH   2   3
ENDBRANCH   1   2
BRANCH   1  30
ATOM     30  C   UNL A   1      42.921  19.332  25.374  1.00  0.00     0.188 C 
BRANCH  30  31
ATOM     31  O   UNL A   1      41.682  18.804  25.826  1.00  0.00    -0.376 OA
BRANCH  31  32
ATOM     32  C   UNL A   1      40.591  19.651  26.146  1.00  0.00     0.202 C 
BRANCH  32  33
ATOM     33  C   UNL A   1      40.760  20.860  27.087  1.00  0.00     0.261 C 
BRANCH  33  34
ATOM     34  O   UNL A   1      40.719  22.167  26.509  1.00  0.00    -0.460 OA
BRANCH  34  35
ATOM     35  C   UNL A   1      39.524  22.790  26.445  1.00  0.00     0.338 C 
ATOM     36  O   UNL A   1      38.445  22.271  26.201  1.00  0.00    -0.246 OA
BRANCH  35  37
ATOM     37  C   UNL A   1      39.716  24.166  26.950  1.00  0.00     0.060 A 
ATOM     38  C   UNL A   1      40.248  25.132  26.084  1.00  0.00     0.016 A 
ATOM     39  C   UNL A   1      39.331  24.517  28.247  1.00  0.00     0.016 A 
ATOM     40  C   UNL A   1      40.418  26.444  26.515  1.00  0.00     0.010 A 
ATOM     41  C   UNL A   1      39.552  25.821  28.698  1.00  0.00     0.010 A 
ATOM     42  C   UNL A   1      40.129  26.777  27.843  1.00  0.00    -0.014 A 
BRANCH  42  43
ATOM     43  C   UNL A   1      40.696  28.028  28.394  1.00  0.00     0.031 A 
ATOM     44  C   UNL A   1      42.186  28.208  28.308  1.00  0.00     0.074 A 
ATOM     45  C   UNL A   1      39.915  29.001  28.894  1.00  0.00     0.049 A 
ATOM     46  N   UNL A   1      42.931  29.193  28.730  1.00  0.00    -0.248 NA
ATOM     47  C   UNL A   1      42.938  27.125  27.647  1.00  0.00     0.031 C 
ATOM     48  C   UNL A   1      38.455  28.968  28.955  1.00  0.00     0.029 A 
ATOM     49  N   UNL A   1      40.250  30.213  29.444  1.00  0.00    -0.354 N 
ATOM     50  C   UNL A   1      44.233  28.853  28.387  1.00  0.00     0.074 A 
ATOM     51  C   UNL A   1      44.184  27.556  27.751  1.00  0.00     0.031 C 
ATOM     52  C   UNL A   1      38.019  30.106  29.522  1.00  0.00     0.029 A 
ATOM     53  C   UNL A   1      39.168  30.930  29.895  1.00  0.00     0.049 A 
ATOM     54  H   UNL A   1      41.177  30.536  29.508  1.00  0.00     0.167 HD
ATOM     55  C   UNL A   1      45.368  29.563  28.576  1.00  0.00     0.037 A 
ATOM     56  C   UNL A   1      39.122  32.107  30.552  1.00  0.00     0.037 A 
ATOM     57  C   UNL A   1      45.407  30.847  29.223  1.00  0.00     0.049 A 
ATOM     58  C   UNL A   1      40.410  32.833  30.851  1.00  0.00     0.074 A 
ATOM     59  C   UNL A   1      46.505  31.646  29.478  1.00  0.00     0.029 A 
ATOM     60  N   UNL A   1      44.299  31.512  29.728  1.00  0.00    -0.354 N 
ATOM     61  N   UNL A   1      41.638  32.502  30.526  1.00  0.00    -0.248 NA
ATOM     62  C   UNL A   1      40.307  34.091  31.605  1.00  0.00     0.031 C 
ATOM     63  C   UNL A   1      46.069  32.768  30.191  1.00  0.00     0.029 A 
ATOM     64  C   UNL A   1      44.690  32.699  30.321  1.00  0.00     0.049 A 
ATOM     65  H   UNL A   1      43.371  31.188  29.673  1.00  0.00     0.167 HD
ATOM     66  C   UNL A   1      42.452  33.522  31.014  1.00  0.00     0.074 A 
ATOM     67  C   UNL A   1      41.572  34.487  31.643  1.00  0.00     0.031 C 
ATOM     68  C   UNL A   1      43.801  33.650  30.945  1.00  0.00     0.037 A 
BRANCH  55  69
ATOM     69  C   UNL A   1      46.659  28.950  28.110  1.00  0.00     0.058 A 
ATOM     70  C   UNL A   1      47.145  29.147  26.806  1.00  0.00     0.135 A 
ATOM     71  C   UNL A   1      47.435  28.175  28.987  1.00  0.00     0.135 A 
ATOM     72  F   UNL A   1      46.430  29.855  25.918  1.00  0.00    -0.206 F 
ATOM     73  C   UNL A   1      48.342  28.580  26.384  1.00  0.00     0.059 A 
ATOM     74  C   UNL A   1      48.650  27.625  28.597  1.00  0.00     0.059 A 
ATOM     75  F   UNL A   1      47.011  27.946  30.241  1.00  0.00    -0.206 F 
ATOM     76  C   UNL A   1      49.090  27.824  27.289  1.00  0.00     0.060 A 
BRANCH  76  77
ATOM     77  S   UNL A   1      50.647  27.105  26.725  1.00  0.00     0.124 S 
ATOM     78  O   UNL A   1      51.168  28.168  25.870  1.00  0.00    -0.237 OA
ATOM     79  O   UNL A   1      51.361  26.894  27.980  1.00  0.00    -0.237 OA
ATOM     80  O   UNL A   1      50.230  25.891  26.031  1.00  0.00    -0.744 OA
ENDBRANCH  76  77
ENDBRANCH  55  69
BRANCH  56  81
ATOM     81  C   UNL A   1      37.809  32.666  30.974  1.00  0.00     0.058 A 
ATOM     82  C   UNL A   1      37.238  32.320  32.208  1.00  0.00     0.135 A 
ATOM     83  C   UNL A   1      37.113  33.579  30.166  1.00  0.00     0.135 A 
ATOM     84  F   UNL A   1      37.855  31.438  33.009  1.00  0.00    -0.206 F 
ATOM     85  C   UNL A   1      36.027  32.862  32.628  1.00  0.00     0.059 A 
ATOM     86  C   UNL A   1      35.913  34.155  30.577  1.00  0.00     0.059 A 
ATOM     87  F   UNL A   1      37.616  33.947  28.978  1.00  0.00    -0.206 F 
ATOM     88  C   UNL A   1      35.379  33.790  31.811  1.00  0.00     0.060 A 
BRANCH  88  89
ATOM     89  S   UNL A   1      33.852  34.546  32.408  1.00  0.00     0.124 S 
ATOM     90  O   UNL A   1      33.269  33.461  33.188  1.00  0.00    -0.237 OA
ATOM     91  O   UNL A   1      34.358  35.682  33.172  1.00  0.00    -0.237 OA
ATOM     92  O   UNL A   1      33.144  34.892  31.179  1.00  0.00    -0.744 OA
ENDBRANCH  88  89
ENDBRANCH  56  81
BRANCH  68  93
ATOM     93  C   UNL A   1      44.421  34.884  31.544  1.00  0.00     0.058 A 
ATOM     94  C   UNL A   1      44.540  36.077  30.815  1.00  0.00     0.135 A 
ATOM     95  C   UNL A   1      44.824  34.896  32.890  1.00  0.00     0.135 A 
ATOM     96  F   UNL A   1      44.173  36.121  29.525  1.00  0.00    -0.206 F 
ATOM     97  C   UNL A   1      45.058  37.233  31.393  1.00  0.00     0.059 A 
ATOM     98  C   UNL A   1      45.314  36.048  33.497  1.00  0.00     0.059 A 
ATOM     99  F   UNL A   1      44.717  33.786  33.638  1.00  0.00    -0.206 F 
ATOM    100  C   UNL A   1      45.436  37.210  32.737  1.00  0.00     0.060 A 
BRANCH 100 101
ATOM    101  S   UNL A   1      46.072  38.727  33.479  1.00  0.00     0.124 S 
ATOM    102  O   UNL A   1      46.300  38.307  34.859  1.00  0.00    -0.237 OA
ATOM    103  O   UNL A   1      47.271  38.980  32.687  1.00  0.00    -0.237 OA
ATOM    104  O   UNL A   1      44.985  39.683  33.288  1.00  0.00    -0.744 OA
ENDBRANCH 100 101
ENDBRANCH  68  93
ENDBRANCH  42  43
ENDBRANCH  35  37
ENDBRANCH  34  35
ENDBRANCH  33  34
ENDBRANCH  32  33
ENDBRANCH  31  32
ENDBRANCH  30  31
ENDBRANCH   1  30
TORSDOF 25
ENDMDL
MODEL 3
REMARK VINA RESULT:      -9.5      5.751     12.107
REMARK SMILES Cc1nn(C)c(=O)c(C(=O)N[C@H]2C=C[C@H](C(=O)OCCOCCOCCOCCOC(=O)c3ccc(-c4c5nc(c(-c6c(F)cc(S(=O)(=O)[O-])cc6F)c6ccc([nH]6)c(-c6c(F)cc(S(=O)(=O)[O-])cc6F)c6nc(c(-c7c(F)cc(S(=O)(=O)[O-])cc7F)c7ccc4[nH]7)C=C6)C=C5)cc3)C2)c1C
REMARK SMILES IDX 25 1 24 2 23 3 22 4 21 5 20 6 19 7 18 8 16 9 17 10 15 11
REMARK SMILES IDX 12 12 13 13 99 14 14 15 11 16 9 17 10 18 8 20 1 21 2 22 3 23
REMARK SMILES IDX 100 24 4 25 101 26 5 27 6 28 7 29 26 30 27 31 28 32 29 33
REMARK SMILES IDX 30 34 31 35 32 36 33 37 34 38 98 39 35 40 97 41 36 42 37 43
REMARK SMILES IDX 38 44 91 45 39 46 96 47 90 48 92 49 40 50 95 51 89 52 88 53
REMARK SMILES IDX 41 55 75 56 54 57 74 58 55 59 58 60 73 61 93 62 56 63 57 64
REMARK SMILES IDX 72 66 94 67 59 68 42 69 43 70 52 71 44 72 45 73 51 74 53 75
REMARK SMILES IDX 46 76 47 77 48 78 49 79 50 80 76 81 77 82 86 83 78 84 79 85
REMARK SMILES IDX 85 86 87 87 80 88 81 89 82 90 83 91 84 92 60 93 61 94 70 95
REMARK SMILES IDX 62 96 63 97 69 98 71 99 64 100 65 101 66 102 67 103 68 104
REMARK H PARENT 11 19 92 54 58 65
REMARK Flexibility Score: inf
ROOT
ATOM      1  C   UNL A   1      34.630  33.421  32.239  1.00  0.00     0.188 C 
ENDROOT
BRANCH   1   2
ATOM      2  O   UNL A   1      34.701  33.470  30.826  1.00  0.00    -0.377 OA
BRANCH   2   3
ATOM      3  C   UNL A   1      35.813  32.839  30.240  1.00  0.00     0.188 C 
BRANCH   3   4
ATOM      4  C   UNL A   1      35.499  31.658  29.314  1.00  0.00     0.188 C 
BRANCH   4   5
ATOM      5  O   UNL A   1      35.067  31.856  27.975  1.00  0.00    -0.376 OA
BRANCH   5   6
ATOM      6  C   UNL A   1      33.695  32.027  27.654  1.00  0.00     0.202 C 
BRANCH   6   7
ATOM      7  C   UNL A   1      32.801  30.832  27.257  1.00  0.00     0.261 C 
BRANCH   7   8
ATOM      8  O   UNL A   1      33.425  29.781  26.499  1.00  0.00    -0.463 OA
BRANCH   8   9
ATOM      9  C   UNL A   1      32.872  28.556  26.624  1.00  0.00     0.312 C 
ATOM     10  O   UNL A   1      32.431  28.095  27.674  1.00  0.00    -0.252 OA
BRANCH   9  11
ATOM     11  C   UNL A   1      32.790  27.769  25.313  1.00  0.00     0.124 C 
ATOM     12  C   UNL A   1      32.965  27.950  22.848  1.00  0.00     0.106 C 
ATOM     13  C   UNL A   1      31.547  28.046  23.330  1.00  0.00    -0.006 C 
ATOM     14  C   UNL A   1      33.794  27.964  24.147  1.00  0.00     0.048 C 
ATOM     15  C   UNL A   1      31.449  27.947  24.658  1.00  0.00    -0.014 C 
BRANCH  12  16
ATOM     16  N   UNL A   1      33.016  26.834  21.907  1.00  0.00    -0.346 N 
ATOM     17  C   UNL A   1      33.063  25.470  21.921  1.00  0.00     0.257 C 
ATOM     18  O   UNL A   1      33.029  24.903  20.830  1.00  0.00    -0.269 OA
ATOM     19  H   UNL A   1      33.017  27.167  20.981  1.00  0.00     0.164 HD
BRANCH  17  20
ATOM     20  C   UNL A   1      33.168  24.709  23.189  1.00  0.00     0.111 A 
ATOM     21  C   UNL A   1      31.624  24.667  26.444  1.00  0.00     0.069 C 
ATOM     22  C   UNL A   1      32.368  24.020  25.294  1.00  0.00     0.062 A 
ATOM     23  N   UNL A   1      33.370  23.270  25.607  1.00  0.00    -0.175 NA
ATOM     24  C   UNL A   1      32.063  24.380  23.884  1.00  0.00    -0.010 A 
ATOM     25  N   UNL A   1      34.198  22.955  24.571  1.00  0.00    -0.232 N 
ATOM     26  C   UNL A   1      30.687  24.287  23.320  1.00  0.00     0.047 C 
ATOM     27  C   UNL A   1      35.018  21.783  24.782  1.00  0.00     0.178 C 
ATOM     28  C   UNL A   1      34.315  23.758  23.432  1.00  0.00     0.279 A 
ATOM     29  O   UNL A   1      35.231  23.636  22.623  1.00  0.00    -0.267 OA
ENDBRANCH  17  20
ENDBRANCH  12  16
ENDBRANCH   9  11
ENDBRANCH   8   9
ENDBRANCH   7   8
ENDBRANCH   6   7
ENDBRANCH   5   6
ENDBRANCH   4   5
ENDBRANCH   3   4
ENDBRANCH   2   3
ENDBRANCH   1   2
BRANCH   1  30
ATOM     30  C   UNL A   1      35.523  32.388  32.954  1.00  0.00     0.188 C 
BRANCH  30  31
ATOM     31  O   UNL A   1      35.878  32.731  34.286  1.00  0.00    -0.376 OA
BRANCH  31  32
ATOM     32  C   UNL A   1      36.575  33.930  34.580  1.00  0.00     0.202 C 
BRANCH  32  33
ATOM     33  C   UNL A   1      38.115  33.987  34.574  1.00  0.00     0.261 C 
BRANCH  33  34
ATOM     34  O   UNL A   1      38.814  33.111  33.686  1.00  0.00    -0.460 OA
BRANCH  34  35
ATOM     35  C   UNL A   1      38.835  33.431  32.375  1.00  0.00     0.338 C 
ATOM     36  O   UNL A   1      38.341  34.422  31.860  1.00  0.00    -0.246 OA
BRANCH  35  37
ATOM     37  C   UNL A   1      39.761  32.490  31.707  1.00  0.00     0.060 A 
ATOM     38  C   UNL A   1      40.548  31.645  32.501  1.00  0.00     0.016 A 
ATOM     39  C   UNL A   1      39.819  32.407  30.313  1.00  0.00     0.016 A 
ATOM     40  C   UNL A   1      41.411  30.728  31.908  1.00  0.00     0.010 A 
ATOM     41  C   UNL A   1      40.725  31.524  29.717  1.00  0.00     0.010 A 
ATOM     42  C   UNL A   1      41.547  30.709  30.515  1.00  0.00    -0.014 A 
BRANCH  42  43
ATOM     43  C   UNL A   1      42.738  30.052  29.934  1.00  0.00     0.031 A 
ATOM     44  C   UNL A   1      44.022  30.835  29.921  1.00  0.00     0.074 A 
ATOM     45  C   UNL A   1      42.704  28.783  29.492  1.00  0.00     0.049 A 
ATOM     46  N   UNL A   1      45.195  30.501  29.455  1.00  0.00    -0.248 NA
ATOM     47  C   UNL A   1      43.974  32.179  30.525  1.00  0.00     0.031 C 
ATOM     48  C   UNL A   1      41.536  27.905  29.528  1.00  0.00     0.029 A 
ATOM     49  N   UNL A   1      43.689  28.014  28.926  1.00  0.00    -0.354 N 
ATOM     50  C   UNL A   1      46.022  31.588  29.709  1.00  0.00     0.074 A 
ATOM     51  C   UNL A   1      45.212  32.605  30.340  1.00  0.00     0.031 C 
ATOM     52  C   UNL A   1      41.871  26.716  28.997  1.00  0.00     0.029 A 
ATOM     53  C   UNL A   1      43.264  26.762  28.552  1.00  0.00     0.049 A 
ATOM     54  H   UNL A   1      44.613  28.329  28.802  1.00  0.00     0.167 HD
ATOM     55  C   UNL A   1      47.342  31.723  29.447  1.00  0.00     0.037 A 
ATOM     56  C   UNL A   1      43.923  25.779  27.905  1.00  0.00     0.037 A 
ATOM     57  C   UNL A   1      48.135  30.710  28.805  1.00  0.00     0.049 A 
ATOM     58  C   UNL A   1      45.368  25.991  27.524  1.00  0.00     0.074 A 
ATOM     59  C   UNL A   1      49.478  30.748  28.481  1.00  0.00     0.029 A 
ATOM     60  N   UNL A   1      47.653  29.480  28.378  1.00  0.00    -0.354 N 
ATOM     61  N   UNL A   1      46.141  27.024  27.765  1.00  0.00    -0.248 NA
ATOM     62  C   UNL A   1      46.028  24.906  26.786  1.00  0.00     0.031 C 
ATOM     63  C   UNL A   1      49.795  29.567  27.805  1.00  0.00     0.029 A 
ATOM     64  C   UNL A   1      48.666  28.763  27.767  1.00  0.00     0.049 A 
ATOM     65  H   UNL A   1      46.728  29.165  28.494  1.00  0.00     0.167 HD
ATOM     66  C   UNL A   1      47.386  26.704  27.229  1.00  0.00     0.074 A 
ATOM     67  C   UNL A   1      47.263  25.374  26.664  1.00  0.00     0.031 C 
ATOM     68  C   UNL A   1      48.526  27.439  27.208  1.00  0.00     0.037 A 
BRANCH  55  69
ATOM     69  C   UNL A   1      47.997  33.022  29.823  1.00  0.00     0.058 A 
ATOM     70  C   UNL A   1      48.648  33.195  31.056  1.00  0.00     0.135 A 
ATOM     71  C   UNL A   1      47.996  34.104  28.927  1.00  0.00     0.135 A 
ATOM     72  F   UNL A   1      48.655  32.205  31.962  1.00  0.00    -0.206 F 
ATOM     73  C   UNL A   1      49.256  34.399  31.394  1.00  0.00     0.059 A 
ATOM     74  C   UNL A   1      48.625  35.306  29.231  1.00  0.00     0.059 A 
ATOM     75  F   UNL A   1      47.379  33.996  27.739  1.00  0.00    -0.206 F 
ATOM     76  C   UNL A   1      49.243  35.447  30.472  1.00  0.00     0.060 A 
BRANCH  76  77
ATOM     77  S   UNL A   1      50.046  36.999  30.926  1.00  0.00     0.124 S 
ATOM     78  O   UNL A   1      51.068  37.114  29.890  1.00  0.00    -0.237 OA
ATOM     79  O   UNL A   1      48.944  37.953  30.839  1.00  0.00    -0.237 OA
ATOM     80  O   UNL A   1      50.546  36.743  32.273  1.00  0.00    -0.744 OA
ENDBRANCH  76  77
ENDBRANCH  55  69
BRANCH  56  81
ATOM     81  C   UNL A   1      43.219  24.511  27.575  1.00  0.00     0.058 A 
ATOM     82  C   UNL A   1      43.003  23.527  28.550  1.00  0.00     0.135 A 
ATOM     83  C   UNL A   1      42.722  24.269  26.283  1.00  0.00     0.135 A 
ATOM     84  F   UNL A   1      43.473  23.702  29.795  1.00  0.00    -0.206 F 
ATOM     85  C   UNL A   1      42.317  22.352  28.262  1.00  0.00     0.059 A 
ATOM     86  C   UNL A   1      42.009  23.113  25.977  1.00  0.00     0.059 A 
ATOM     87  F   UNL A   1      42.898  25.179  25.314  1.00  0.00    -0.206 F 
ATOM     88  C   UNL A   1      41.811  22.160  26.974  1.00  0.00     0.060 A 
BRANCH  88  89
ATOM     89  S   UNL A   1      40.852  20.668  26.639  1.00  0.00     0.124 S 
ATOM     90  O   UNL A   1      41.686  19.994  25.652  1.00  0.00    -0.237 OA
ATOM     91  O   UNL A   1      40.793  20.046  27.958  1.00  0.00    -0.237 OA
ATOM     92  O   UNL A   1      39.582  21.189  26.142  1.00  0.00    -0.744 OA
ENDBRANCH  88  89
ENDBRANCH  56  81
BRANCH  68  93
ATOM     93  C   UNL A   1      49.747  26.826  26.575  1.00  0.00     0.058 A 
ATOM     94  C   UNL A   1      50.070  27.048  25.228  1.00  0.00     0.135 A 
ATOM     95  C   UNL A   1      50.648  26.075  27.350  1.00  0.00     0.135 A 
ATOM     96  F   UNL A   1      49.244  27.756  24.442  1.00  0.00    -0.206 F 
ATOM     97  C   UNL A   1      51.232  26.529  24.665  1.00  0.00     0.059 A 
ATOM     98  C   UNL A   1      51.831  25.575  26.816  1.00  0.00     0.059 A 
ATOM     99  F   UNL A   1      50.396  25.846  28.648  1.00  0.00    -0.206 F 
ATOM    100  C   UNL A   1      52.110  25.799  25.469  1.00  0.00     0.060 A 
BRANCH 100 101
ATOM    101  S   UNL A   1      53.629  25.164  24.730  1.00  0.00     0.124 S 
ATOM    102  O   UNL A   1      54.649  25.854  25.514  1.00  0.00    -0.237 OA
ATOM    103  O   UNL A   1      53.511  23.729  24.966  1.00  0.00    -0.237 OA
ATOM    104  O   UNL A   1      53.528  25.576  23.333  1.00  0.00    -0.744 OA
ENDBRANCH 100 101
ENDBRANCH  68  93
ENDBRANCH  42  43
ENDBRANCH  35  37
ENDBRANCH  34  35
ENDBRANCH  33  34
ENDBRANCH  32  33
ENDBRANCH  31  32
ENDBRANCH  30  31
ENDBRANCH   1  30
TORSDOF 25
ENDMDL
