MODEL 1
REMARK VINA RESULT:      -8.3      0.000      0.000
REMARK SMILES Cn1ccnc1[C@@H]1[C@@H](C(=O)OCCOCCOCCOCCOC(=O)c2ccc(-c3c4nc(c(-c5c(F)cc(S(=O)(=O)[O-])cc5F)c5ccc([nH]5)c(-c5c(F)cc(S(=O)(=O)[O-])cc5F)c5nc(c(-c6c(F)cc(S(=O)(=O)[O-])cc6F)c6ccc3[nH]6)C=C5)C=C4)cc2)CC(=O)N1CCCOC1CCCCC1
REMARK SMILES IDX 16 1 15 2 14 3 13 4 12 5 11 6 9 7 10 8 8 9 7 10 95 11 92 12
REMARK SMILES IDX 93 13 94 14 6 15 1 16 2 17 3 18 4 19 5 20 96 21 97 22 98 23
REMARK SMILES IDX 99 24 100 25 101 26 105 27 102 28 104 29 103 30 17 31 18 32
REMARK SMILES IDX 19 33 20 34 21 35 22 36 23 37 24 38 25 39 26 40 27 41 91 42
REMARK SMILES IDX 28 43 90 44 29 45 30 46 31 47 84 48 32 49 89 50 83 51 85 52
REMARK SMILES IDX 33 53 88 54 82 55 81 56 34 58 68 59 47 60 67 61 48 62 51 63
REMARK SMILES IDX 66 64 86 65 49 66 50 67 65 69 87 70 52 71 35 72 36 73 45 74
REMARK SMILES IDX 37 75 38 76 44 77 46 78 39 79 40 80 41 81 42 82 43 83 69 84
REMARK SMILES IDX 70 85 79 86 71 87 72 88 78 89 80 90 73 91 74 92 75 93 76 94
REMARK SMILES IDX 77 95 53 96 54 97 63 98 55 99 56 100 62 101 64 102 57 103
REMARK SMILES IDX 58 104 59 105 60 106 61 107
REMARK H PARENT 85 57 51 68
REMARK Flexibility Score: inf
ROOT
ATOM      1  C   UNL A   1      36.529  22.637  23.594  1.00  0.00     0.188 C 
ENDROOT
BRANCH   1   2
ATOM      2  C   UNL A   1      35.191  23.363  23.408  1.00  0.00     0.188 C 
BRANCH   2   3
ATOM      3  O   UNL A   1      34.155  22.926  22.539  1.00  0.00    -0.376 OA
BRANCH   3   4
ATOM      4  C   UNL A   1      32.963  22.281  22.962  1.00  0.00     0.202 C 
BRANCH   4   5
ATOM      5  C   UNL A   1      31.642  23.050  23.099  1.00  0.00     0.261 C 
BRANCH   5   6
ATOM      6  O   UNL A   1      31.636  24.364  22.537  1.00  0.00    -0.463 OA
BRANCH   6   7
ATOM      7  C   UNL A   1      31.050  25.284  23.322  1.00  0.00     0.312 C 
ATOM      8  O   UNL A   1      29.856  25.322  23.607  1.00  0.00    -0.252 OA
BRANCH   7   9
ATOM      9  C   UNL A   1      31.979  26.362  23.784  1.00  0.00     0.139 C 
ATOM     10  C   UNL A   1      31.896  26.370  25.293  1.00  0.00     0.166 C 
ATOM     11  N   UNL A   1      32.534  27.637  25.652  1.00  0.00    -0.331 N 
ATOM     12  C   UNL A   1      31.882  27.813  23.387  1.00  0.00     0.118 C 
ATOM     13  C   UNL A   1      32.606  28.472  24.519  1.00  0.00     0.224 C 
ATOM     14  O   UNL A   1      33.102  29.586  24.460  1.00  0.00    -0.275 OA
BRANCH  10  15
ATOM     15  C   UNL A   1      32.378  25.034  25.858  1.00  0.00     0.132 A 
ATOM     16  C   UNL A   1      30.311  23.683  26.758  1.00  0.00     0.151 C 
ATOM     17  N   UNL A   1      31.697  23.988  26.492  1.00  0.00    -0.336 N 
ATOM     18  C   UNL A   1      32.647  23.118  26.994  1.00  0.00     0.107 A 
ATOM     19  C   UNL A   1      33.855  23.698  26.746  1.00  0.00     0.131 A 
ATOM     20  N   UNL A   1      33.680  24.869  26.073  1.00  0.00    -0.239 NA
ENDBRANCH  10  15
BRANCH  11  21
ATOM     21  C   UNL A   1      32.538  28.386  26.914  1.00  0.00     0.122 C 
BRANCH  21  22
ATOM     22  C   UNL A   1      32.902  29.855  27.087  1.00  0.00     0.050 C 
BRANCH  22  23
ATOM     23  C   UNL A   1      34.201  30.349  27.717  1.00  0.00     0.162 C 
BRANCH  23  24
ATOM     24  O   UNL A   1      35.082  29.376  28.288  1.00  0.00    -0.378 OA
BRANCH  24  25
ATOM     25  C   UNL A   1      36.378  29.873  28.649  1.00  0.00     0.118 C 
ATOM     26  C   UNL A   1      36.725  29.317  30.016  1.00  0.00     0.032 C 
ATOM     27  C   UNL A   1      37.426  29.465  27.616  1.00  0.00     0.032 C 
ATOM     28  C   UNL A   1      38.148  29.409  30.503  1.00  0.00     0.003 C 
ATOM     29  C   UNL A   1      38.844  29.745  28.120  1.00  0.00     0.003 C 
ATOM     30  C   UNL A   1      39.135  29.020  29.431  1.00  0.00     0.000 C 
ENDBRANCH  24  25
ENDBRANCH  23  24
ENDBRANCH  22  23
ENDBRANCH  21  22
ENDBRANCH  11  21
ENDBRANCH   7   9
ENDBRANCH   6   7
ENDBRANCH   5   6
ENDBRANCH   4   5
ENDBRANCH   3   4
ENDBRANCH   2   3
ENDBRANCH   1   2
BRANCH   1  31
ATOM     31  O   UNL A   1      36.774  22.099  24.871  1.00  0.00    -0.377 OA
BRANCH  31  32
ATOM     32  C   UNL A   1      37.880  21.215  25.005  1.00  0.00     0.188 C 
BRANCH  32  33
ATOM     33  C   UNL A   1      39.080  21.701  25.841  1.00  0.00     0.188 C 
BRANCH  33  34
ATOM     34  O   UNL A   1      39.788  20.662  26.503  1.00  0.00    -0.376 OA
BRANCH  34  35
ATOM     35  C   UNL A   1      41.130  20.878  26.914  1.00  0.00     0.202 C 
BRANCH  35  36
ATOM     36  C   UNL A   1      42.222  21.066  25.845  1.00  0.00     0.261 C 
BRANCH  36  37
ATOM     37  O   UNL A   1      42.205  22.292  25.097  1.00  0.00    -0.460 OA
BRANCH  37  38
ATOM     38  C   UNL A   1      43.372  22.934  24.895  1.00  0.00     0.338 C 
ATOM     39  O   UNL A   1      44.127  22.796  23.942  1.00  0.00    -0.246 OA
BRANCH  38  40
ATOM     40  C   UNL A   1      43.482  24.006  25.904  1.00  0.00     0.060 A 
ATOM     41  C   UNL A   1      44.742  24.564  26.164  1.00  0.00     0.016 A 
ATOM     42  C   UNL A   1      42.354  24.463  26.590  1.00  0.00     0.016 A 
ATOM     43  C   UNL A   1      44.884  25.549  27.140  1.00  0.00     0.010 A 
ATOM     44  C   UNL A   1      42.503  25.428  27.590  1.00  0.00     0.010 A 
ATOM     45  C   UNL A   1      43.774  25.946  27.895  1.00  0.00    -0.014 A 
BRANCH  45  46
ATOM     46  C   UNL A   1      43.987  26.726  29.138  1.00  0.00     0.031 A 
ATOM     47  C   UNL A   1      44.317  25.975  30.399  1.00  0.00     0.074 A 
ATOM     48  C   UNL A   1      43.929  28.070  29.141  1.00  0.00     0.049 A 
ATOM     49  N   UNL A   1      44.510  26.427  31.610  1.00  0.00    -0.248 NA
ATOM     50  C   UNL A   1      44.447  24.512  30.275  1.00  0.00     0.031 C 
ATOM     51  C   UNL A   1      43.669  28.908  27.973  1.00  0.00     0.029 A 
ATOM     52  N   UNL A   1      44.081  28.963  30.171  1.00  0.00    -0.354 N 
ATOM     53  C   UNL A   1      44.771  25.307  32.393  1.00  0.00     0.074 A 
ATOM     54  C   UNL A   1      44.685  24.152  31.527  1.00  0.00     0.031 C 
ATOM     55  C   UNL A   1      43.661  30.198  28.356  1.00  0.00     0.029 A 
ATOM     56  C   UNL A   1      43.882  30.272  29.800  1.00  0.00     0.049 A 
ATOM     57  H   UNL A   1      44.311  28.694  31.089  1.00  0.00     0.167 HD
ATOM     58  C   UNL A   1      45.062  25.250  33.714  1.00  0.00     0.037 A 
ATOM     59  C   UNL A   1      43.855  31.395  30.546  1.00  0.00     0.037 A 
ATOM     60  C   UNL A   1      45.145  26.405  34.567  1.00  0.00     0.049 A 
ATOM     61  C   UNL A   1      44.109  31.299  32.031  1.00  0.00     0.074 A 
ATOM     62  C   UNL A   1      45.453  26.456  35.916  1.00  0.00     0.029 A 
ATOM     63  N   UNL A   1      44.906  27.710  34.161  1.00  0.00    -0.354 N 
ATOM     64  N   UNL A   1      44.380  30.238  32.755  1.00  0.00    -0.248 NA
ATOM     65  C   UNL A   1      44.059  32.551  32.798  1.00  0.00     0.031 C 
ATOM     66  C   UNL A   1      45.337  27.784  36.339  1.00  0.00     0.029 A 
ATOM     67  C   UNL A   1      45.027  28.571  35.241  1.00  0.00     0.049 A 
ATOM     68  H   UNL A   1      44.683  27.985  33.243  1.00  0.00     0.167 HD
ATOM     69  C   UNL A   1      44.561  30.701  34.057  1.00  0.00     0.074 A 
ATOM     70  C   UNL A   1      44.383  32.137  34.014  1.00  0.00     0.031 C 
ATOM     71  C   UNL A   1      44.852  30.002  35.182  1.00  0.00     0.037 A 
BRANCH  58  72
ATOM     72  C   UNL A   1      45.276  23.891  34.323  1.00  0.00     0.058 A 
ATOM     73  C   UNL A   1      44.205  23.065  34.698  1.00  0.00     0.135 A 
ATOM     74  C   UNL A   1      46.578  23.393  34.501  1.00  0.00     0.135 A 
ATOM     75  F   UNL A   1      42.940  23.497  34.572  1.00  0.00    -0.206 F 
ATOM     76  C   UNL A   1      44.417  21.805  35.250  1.00  0.00     0.059 A 
ATOM     77  C   UNL A   1      46.813  22.125  35.021  1.00  0.00     0.059 A 
ATOM     78  F   UNL A   1      47.640  24.144  34.165  1.00  0.00    -0.206 F 
ATOM     79  C   UNL A   1      45.725  21.342  35.404  1.00  0.00     0.060 A 
BRANCH  79  80
ATOM     80  S   UNL A   1      45.982  19.700  36.107  1.00  0.00     0.124 S 
ATOM     81  O   UNL A   1      47.412  19.510  35.887  1.00  0.00    -0.237 OA
ATOM     82  O   UNL A   1      45.575  19.889  37.495  1.00  0.00    -0.237 OA
ATOM     83  O   UNL A   1      45.106  18.847  35.309  1.00  0.00    -0.744 OA
ENDBRANCH  79  80
ENDBRANCH  58  72
BRANCH  59  84
ATOM     84  C   UNL A   1      43.555  32.706  29.909  1.00  0.00     0.058 A 
ATOM     85  C   UNL A   1      42.263  33.252  29.939  1.00  0.00     0.135 A 
ATOM     86  C   UNL A   1      44.555  33.437  29.248  1.00  0.00     0.135 A 
ATOM     87  F   UNL A   1      41.268  32.588  30.547  1.00  0.00    -0.206 F 
ATOM     88  C   UNL A   1      41.969  34.465  29.324  1.00  0.00     0.059 A 
ATOM     89  C   UNL A   1      44.293  34.666  28.651  1.00  0.00     0.059 A 
ATOM     90  F   UNL A   1      45.810  32.963  29.195  1.00  0.00    -0.206 F 
ATOM     91  C   UNL A   1      42.994  35.168  28.687  1.00  0.00     0.060 A 
BRANCH  91  92
ATOM     92  S   UNL A   1      42.610  36.764  27.935  1.00  0.00     0.124 S 
ATOM     93  O   UNL A   1      41.168  36.843  28.130  1.00  0.00    -0.237 OA
ATOM     94  O   UNL A   1      43.415  37.679  28.737  1.00  0.00    -0.237 OA
ATOM     95  O   UNL A   1      43.052  36.599  26.553  1.00  0.00    -0.744 OA
ENDBRANCH  91  92
ENDBRANCH  59  84
BRANCH  71  96
ATOM     96  C   UNL A   1      45.038  30.778  36.459  1.00  0.00     0.058 A 
ATOM     97  C   UNL A   1      46.285  31.301  36.837  1.00  0.00     0.135 A 
ATOM     98  C   UNL A   1      43.938  31.052  37.290  1.00  0.00     0.135 A 
ATOM     99  F   UNL A   1      47.372  31.068  36.084  1.00  0.00    -0.206 F 
ATOM    100  C   UNL A   1      46.441  32.040  38.007  1.00  0.00     0.059 A 
ATOM    101  C   UNL A   1      44.064  31.817  38.444  1.00  0.00     0.059 A 
ATOM    102  F   UNL A   1      42.718  30.589  36.970  1.00  0.00    -0.206 F 
ATOM    103  C   UNL A   1      45.322  32.296  38.802  1.00  0.00     0.060 A 
BRANCH 103 104
ATOM    104  S   UNL A   1      45.533  33.281  40.301  1.00  0.00     0.124 S 
ATOM    105  O   UNL A   1      45.850  34.593  39.748  1.00  0.00    -0.237 OA
ATOM    106  O   UNL A   1      44.226  33.160  40.938  1.00  0.00    -0.237 OA
ATOM    107  O   UNL A   1      46.628  32.612  40.997  1.00  0.00    -0.744 OA
ENDBRANCH 103 104
ENDBRANCH  71  96
ENDBRANCH  45  46
ENDBRANCH  38  40
ENDBRANCH  37  38
ENDBRANCH  36  37
ENDBRANCH  35  36
ENDBRANCH  34  35
ENDBRANCH  33  34
ENDBRANCH  32  33
ENDBRANCH  31  32
ENDBRANCH   1  31
TORSDOF 29
ENDMDL
MODEL 2
REMARK VINA RESULT:      -8.3      1.264      7.735
REMARK SMILES Cn1ccnc1[C@@H]1[C@@H](C(=O)OCCOCCOCCOCCOC(=O)c2ccc(-c3c4nc(c(-c5c(F)cc(S(=O)(=O)[O-])cc5F)c5ccc([nH]5)c(-c5c(F)cc(S(=O)(=O)[O-])cc5F)c5nc(c(-c6c(F)cc(S(=O)(=O)[O-])cc6F)c6ccc3[nH]6)C=C5)C=C4)cc2)CC(=O)N1CCCOC1CCCCC1
REMARK SMILES IDX 16 1 15 2 14 3 13 4 12 5 11 6 9 7 10 8 8 9 7 10 95 11 92 12
REMARK SMILES IDX 93 13 94 14 6 15 1 16 2 17 3 18 4 19 5 20 96 21 97 22 98 23
REMARK SMILES IDX 99 24 100 25 101 26 105 27 102 28 104 29 103 30 17 31 18 32
REMARK SMILES IDX 19 33 20 34 21 35 22 36 23 37 24 38 25 39 26 40 27 41 91 42
REMARK SMILES IDX 28 43 90 44 29 45 30 46 31 47 84 48 32 49 89 50 83 51 85 52
REMARK SMILES IDX 33 53 88 54 82 55 81 56 34 58 68 59 47 60 67 61 48 62 51 63
REMARK SMILES IDX 66 64 86 65 49 66 50 67 65 69 87 70 52 71 35 72 36 73 45 74
REMARK SMILES IDX 37 75 38 76 44 77 46 78 39 79 40 80 41 81 42 82 43 83 69 84
REMARK SMILES IDX 70 85 79 86 71 87 72 88 78 89 80 90 73 91 74 92 75 93 76 94
REMARK SMILES IDX 77 95 53 96 54 97 63 98 55 99 56 100 62 101 64 102 57 103
REMARK SMILES IDX 58 104 59 105 60 106 61 107
REMARK H PARENT 85 57 51 68
REMARK Flexibility Score: inf
ROOT
ATOM      1  C   UNL A   1      35.379  20.196  24.666  1.00  0.00     0.188 C 
ENDROOT
BRANCH   1   2
ATOM      2  C   UNL A   1      34.020  20.275  25.372  1.00  0.00     0.188 C 
BRANCH   2   3
ATOM      3  O   UNL A   1      32.834  20.777  24.773  1.00  0.00    -0.376 OA
BRANCH   3   4
ATOM      4  C   UNL A   1      32.762  21.346  23.474  1.00  0.00     0.202 C 
BRANCH   4   5
ATOM      5  C   UNL A   1      31.761  22.461  23.143  1.00  0.00     0.261 C 
BRANCH   5   6
ATOM      6  O   UNL A   1      32.294  23.567  22.412  1.00  0.00    -0.463 OA
BRANCH   6   7
ATOM      7  C   UNL A   1      31.778  24.754  22.773  1.00  0.00     0.312 C 
ATOM      8  O   UNL A   1      30.580  25.015  22.854  1.00  0.00    -0.252 OA
BRANCH   7   9
ATOM      9  C   UNL A   1      32.808  25.813  23.006  1.00  0.00     0.139 C 
ATOM     10  C   UNL A   1      32.693  26.198  24.463  1.00  0.00     0.166 C 
ATOM     11  N   UNL A   1      33.457  27.445  24.536  1.00  0.00    -0.331 N 
ATOM     12  C   UNL A   1      32.878  27.125  22.267  1.00  0.00     0.118 C 
ATOM     13  C   UNL A   1      33.644  27.965  23.240  1.00  0.00     0.224 C 
ATOM     14  O   UNL A   1      34.259  28.976  22.938  1.00  0.00    -0.275 OA
BRANCH  10  15
ATOM     15  C   UNL A   1      33.015  25.001  25.356  1.00  0.00     0.132 A 
ATOM     16  C   UNL A   1      30.817  24.212  26.564  1.00  0.00     0.151 C 
ATOM     17  N   UNL A   1      32.223  24.251  26.236  1.00  0.00    -0.336 N 
ATOM     18  C   UNL A   1      33.067  23.421  26.950  1.00  0.00     0.107 A 
ATOM     19  C   UNL A   1      34.332  23.753  26.566  1.00  0.00     0.131 A 
ATOM     20  N   UNL A   1      34.290  24.724  25.612  1.00  0.00    -0.239 NA
ENDBRANCH  10  15
BRANCH  11  21
ATOM     21  C   UNL A   1      33.514  28.475  25.579  1.00  0.00     0.122 C 
BRANCH  21  22
ATOM     22  C   UNL A   1      34.410  28.459  26.811  1.00  0.00     0.050 C 
BRANCH  22  23
ATOM     23  C   UNL A   1      35.182  29.670  27.326  1.00  0.00     0.162 C 
BRANCH  23  24
ATOM     24  O   UNL A   1      35.992  29.503  28.494  1.00  0.00    -0.378 OA
BRANCH  24  25
ATOM     25  C   UNL A   1      37.335  29.994  28.375  1.00  0.00     0.118 C 
ATOM     26  C   UNL A   1      37.693  30.688  29.674  1.00  0.00     0.032 C 
ATOM     27  C   UNL A   1      38.307  28.853  28.084  1.00  0.00     0.032 C 
ATOM     28  C   UNL A   1      39.137  31.015  29.954  1.00  0.00     0.003 C 
ATOM     29  C   UNL A   1      39.761  29.311  28.226  1.00  0.00     0.003 C 
ATOM     30  C   UNL A   1      40.049  29.862  29.621  1.00  0.00     0.000 C 
ENDBRANCH  24  25
ENDBRANCH  23  24
ENDBRANCH  22  23
ENDBRANCH  21  22
ENDBRANCH  11  21
ENDBRANCH   7   9
ENDBRANCH   6   7
ENDBRANCH   5   6
ENDBRANCH   4   5
ENDBRANCH   3   4
ENDBRANCH   2   3
ENDBRANCH   1   2
BRANCH   1  31
ATOM     31  O   UNL A   1      36.484  20.688  25.386  1.00  0.00    -0.377 OA
BRANCH  31  32
ATOM     32  C   UNL A   1      37.776  20.266  24.967  1.00  0.00     0.188 C 
BRANCH  32  33
ATOM     33  C   UNL A   1      38.988  20.811  25.748  1.00  0.00     0.188 C 
BRANCH  33  34
ATOM     34  O   UNL A   1      40.002  19.847  25.996  1.00  0.00    -0.376 OA
BRANCH  34  35
ATOM     35  C   UNL A   1      41.169  20.224  26.712  1.00  0.00     0.202 C 
BRANCH  35  36
ATOM     36  C   UNL A   1      42.489  20.426  25.946  1.00  0.00     0.261 C 
BRANCH  36  37
ATOM     37  O   UNL A   1      43.350  21.486  26.390  1.00  0.00    -0.460 OA
BRANCH  37  38
ATOM     38  C   UNL A   1      43.280  22.674  25.759  1.00  0.00     0.338 C 
ATOM     39  O   UNL A   1      42.961  22.866  24.593  1.00  0.00    -0.246 OA
BRANCH  38  40
ATOM     40  C   UNL A   1      43.431  23.737  26.773  1.00  0.00     0.060 A 
ATOM     41  C   UNL A   1      44.666  24.391  26.889  1.00  0.00     0.016 A 
ATOM     42  C   UNL A   1      42.365  24.092  27.603  1.00  0.00     0.016 A 
ATOM     43  C   UNL A   1      44.851  25.369  27.863  1.00  0.00     0.010 A 
ATOM     44  C   UNL A   1      42.562  25.051  28.601  1.00  0.00     0.010 A 
ATOM     45  C   UNL A   1      43.818  25.666  28.759  1.00  0.00    -0.014 A 
BRANCH  45  46
ATOM     46  C   UNL A   1      44.122  26.442  29.984  1.00  0.00     0.031 A 
ATOM     47  C   UNL A   1      44.020  27.942  29.917  1.00  0.00     0.074 A 
ATOM     48  C   UNL A   1      44.440  25.833  31.140  1.00  0.00     0.049 A 
ATOM     49  N   UNL A   1      44.270  28.835  30.838  1.00  0.00    -0.248 NA
ATOM     50  C   UNL A   1      43.577  28.511  28.632  1.00  0.00     0.031 C 
ATOM     51  C   UNL A   1      44.520  24.387  31.340  1.00  0.00     0.029 A 
ATOM     52  N   UNL A   1      44.764  26.362  32.364  1.00  0.00    -0.354 N 
ATOM     53  C   UNL A   1      44.026  30.068  30.243  1.00  0.00     0.074 A 
ATOM     54  C   UNL A   1      43.636  29.812  28.875  1.00  0.00     0.031 C 
ATOM     55  C   UNL A   1      44.888  24.144  32.611  1.00  0.00     0.029 A 
ATOM     56  C   UNL A   1      45.103  25.415  33.302  1.00  0.00     0.049 A 
ATOM     57  H   UNL A   1      44.755  27.327  32.554  1.00  0.00     0.167 HD
ATOM     58  C   UNL A   1      44.115  31.302  30.793  1.00  0.00     0.037 A 
ATOM     59  C   UNL A   1      45.559  25.562  34.562  1.00  0.00     0.037 A 
ATOM     60  C   UNL A   1      44.505  31.547  32.156  1.00  0.00     0.049 A 
ATOM     61  C   UNL A   1      45.720  26.951  35.130  1.00  0.00     0.074 A 
ATOM     62  C   UNL A   1      44.606  32.760  32.815  1.00  0.00     0.029 A 
ATOM     63  N   UNL A   1      44.870  30.565  33.065  1.00  0.00    -0.354 N 
ATOM     64  N   UNL A   1      45.463  28.108  34.567  1.00  0.00    -0.248 NA
ATOM     65  C   UNL A   1      46.230  27.053  36.505  1.00  0.00     0.031 C 
ATOM     66  C   UNL A   1      45.094  32.516  34.102  1.00  0.00     0.029 A 
ATOM     67  C   UNL A   1      45.230  31.147  34.270  1.00  0.00     0.049 A 
ATOM     68  H   UNL A   1      44.874  29.598  32.882  1.00  0.00     0.167 HD
ATOM     69  C   UNL A   1      45.751  29.073  35.530  1.00  0.00     0.074 A 
ATOM     70  C   UNL A   1      46.188  28.362  36.712  1.00  0.00     0.031 C 
ATOM     71  C   UNL A   1      45.658  30.424  35.443  1.00  0.00     0.037 A 
BRANCH  58  72
ATOM     72  C   UNL A   1      43.819  32.483  29.908  1.00  0.00     0.058 A 
ATOM     73  C   UNL A   1      42.614  33.197  29.995  1.00  0.00     0.135 A 
ATOM     74  C   UNL A   1      44.777  32.929  28.982  1.00  0.00     0.135 A 
ATOM     75  F   UNL A   1      41.654  32.803  30.847  1.00  0.00    -0.206 F 
ATOM     76  C   UNL A   1      42.359  34.295  29.179  1.00  0.00     0.059 A 
ATOM     77  C   UNL A   1      44.556  34.043  28.179  1.00  0.00     0.059 A 
ATOM     78  F   UNL A   1      45.946  32.280  28.852  1.00  0.00    -0.206 F 
ATOM     79  C   UNL A   1      43.338  34.712  28.276  1.00  0.00     0.060 A 
BRANCH  79  80
ATOM     80  S   UNL A   1      42.996  36.148  27.236  1.00  0.00     0.124 S 
ATOM     81  O   UNL A   1      41.883  36.766  27.951  1.00  0.00    -0.237 OA
ATOM     82  O   UNL A   1      44.261  36.874  27.284  1.00  0.00    -0.237 OA
ATOM     83  O   UNL A   1      42.661  35.560  25.943  1.00  0.00    -0.744 OA
ENDBRANCH  79  80
ENDBRANCH  58  72
BRANCH  59  84
ATOM     84  C   UNL A   1      45.918  24.364  35.369  1.00  0.00     0.058 A 
ATOM     85  C   UNL A   1      45.025  23.821  36.306  1.00  0.00     0.135 A 
ATOM     86  C   UNL A   1      47.169  23.742  35.226  1.00  0.00     0.135 A 
ATOM     87  F   UNL A   1      43.822  24.386  36.491  1.00  0.00    -0.206 F 
ATOM     88  C   UNL A   1      45.363  22.717  37.082  1.00  0.00     0.059 A 
ATOM     89  C   UNL A   1      47.519  22.618  35.969  1.00  0.00     0.059 A 
ATOM     90  F   UNL A   1      48.058  24.216  34.340  1.00  0.00    -0.206 F 
ATOM     91  C   UNL A   1      46.612  22.119  36.902  1.00  0.00     0.060 A 
BRANCH  91  92
ATOM     92  S   UNL A   1      47.020  20.657  37.880  1.00  0.00     0.124 S 
ATOM     93  O   UNL A   1      48.386  20.952  38.296  1.00  0.00    -0.237 OA
ATOM     94  O   UNL A   1      46.008  20.703  38.930  1.00  0.00    -0.237 OA
ATOM     95  O   UNL A   1      46.873  19.562  36.925  1.00  0.00    -0.744 OA
ENDBRANCH  91  92
ENDBRANCH  59  84
BRANCH  71  96
ATOM     96  C   UNL A   1      45.997  31.228  36.671  1.00  0.00     0.058 A 
ATOM     97  C   UNL A   1      47.293  31.711  36.910  1.00  0.00     0.135 A 
ATOM     98  C   UNL A   1      44.994  31.566  37.596  1.00  0.00     0.135 A 
ATOM     99  F   UNL A   1      48.291  31.416  36.062  1.00  0.00    -0.206 F 
ATOM    100  C   UNL A   1      47.589  32.476  38.035  1.00  0.00     0.059 A 
ATOM    101  C   UNL A   1      45.260  32.357  38.708  1.00  0.00     0.059 A 
ATOM    102  F   UNL A   1      43.733  31.143  37.411  1.00  0.00    -0.206 F 
ATOM    103  C   UNL A   1      46.565  32.797  38.927  1.00  0.00     0.060 A 
BRANCH 103 104
ATOM    104  S   UNL A   1      46.957  33.814  40.366  1.00  0.00     0.124 S 
ATOM    105  O   UNL A   1      47.856  32.937  41.110  1.00  0.00    -0.237 OA
ATOM    106  O   UNL A   1      47.575  34.988  39.758  1.00  0.00    -0.237 OA
ATOM    107  O   UNL A   1      45.655  34.047  40.984  1.00  0.00    -0.744 OA
ENDBRANCH 103 104
ENDBRANCH  71  96
ENDBRANCH  45  46
ENDBRANCH  38  40
ENDBRANCH  37  38
ENDBRANCH  36  37
ENDBRANCH  35  36
ENDBRANCH  34  35
ENDBRANCH  33  34
ENDBRANCH  32  33
ENDBRANCH  31  32
ENDBRANCH   1  31
TORSDOF 29
ENDMDL
MODEL 3
REMARK VINA RESULT:      -8.0      3.957      6.414
REMARK SMILES Cn1ccnc1[C@@H]1[C@@H](C(=O)OCCOCCOCCOCCOC(=O)c2ccc(-c3c4nc(c(-c5c(F)cc(S(=O)(=O)[O-])cc5F)c5ccc([nH]5)c(-c5c(F)cc(S(=O)(=O)[O-])cc5F)c5nc(c(-c6c(F)cc(S(=O)(=O)[O-])cc6F)c6ccc3[nH]6)C=C5)C=C4)cc2)CC(=O)N1CCCOC1CCCCC1
REMARK SMILES IDX 16 1 15 2 14 3 13 4 12 5 11 6 9 7 10 8 8 9 7 10 95 11 92 12
REMARK SMILES IDX 93 13 94 14 6 15 1 16 2 17 3 18 4 19 5 20 96 21 97 22 98 23
REMARK SMILES IDX 99 24 100 25 101 26 105 27 102 28 104 29 103 30 17 31 18 32
REMARK SMILES IDX 19 33 20 34 21 35 22 36 23 37 24 38 25 39 26 40 27 41 91 42
REMARK SMILES IDX 28 43 90 44 29 45 30 46 31 47 84 48 32 49 89 50 83 51 85 52
REMARK SMILES IDX 33 53 88 54 82 55 81 56 34 58 68 59 47 60 67 61 48 62 51 63
REMARK SMILES IDX 66 64 86 65 49 66 50 67 65 69 87 70 52 71 35 72 36 73 45 74
REMARK SMILES IDX 37 75 38 76 44 77 46 78 39 79 40 80 41 81 42 82 43 83 69 84
REMARK SMILES IDX 70 85 79 86 71 87 72 88 78 89 80 90 73 91 74 92 75 93 76 94
REMARK SMILES IDX 77 95 53 96 54 97 63 98 55 99 56 100 62 101 64 102 57 103
REMARK SMILES IDX 58 104 59 105 60 106 61 107
REMARK H PARENT 85 57 51 68
REMARK Flexibility Score: inf
ROOT
ATOM      1  C   UNL A   1      42.243  26.379  26.821  1.00  0.00     0.188 C 
ENDROOT
BRANCH   1   2
ATOM      2  C   UNL A   1      41.412  26.282  28.107  1.00  0.00     0.188 C 
BRANCH   2   3
ATOM      3  O   UNL A   1      41.106  27.385  28.948  1.00  0.00    -0.376 OA
BRANCH   3   4
ATOM      4  C   UNL A   1      41.843  28.598  28.992  1.00  0.00     0.202 C 
BRANCH   4   5
ATOM      5  C   UNL A   1      41.997  29.395  30.294  1.00  0.00     0.261 C 
BRANCH   5   6
ATOM      6  O   UNL A   1      40.801  30.003  30.785  1.00  0.00    -0.463 OA
BRANCH   6   7
ATOM      7  C   UNL A   1      40.713  31.317  30.518  1.00  0.00     0.312 C 
ATOM      8  O   UNL A   1      41.534  31.972  29.881  1.00  0.00    -0.252 OA
BRANCH   7   9
ATOM      9  C   UNL A   1      39.528  31.982  31.144  1.00  0.00     0.139 C 
ATOM     10  C   UNL A   1      38.474  32.069  30.064  1.00  0.00     0.166 C 
ATOM     11  N   UNL A   1      37.508  33.016  30.623  1.00  0.00    -0.331 N 
ATOM     12  C   UNL A   1      39.542  33.350  31.778  1.00  0.00     0.118 C 
ATOM     13  C   UNL A   1      38.097  33.726  31.688  1.00  0.00     0.224 C 
ATOM     14  O   UNL A   1      37.563  34.570  32.390  1.00  0.00    -0.275 OA
BRANCH  10  15
ATOM     15  C   UNL A   1      38.064  30.670  29.609  1.00  0.00     0.132 A 
ATOM     16  C   UNL A   1      37.488  29.212  31.719  1.00  0.00     0.151 C 
ATOM     17  N   UNL A   1      37.716  29.519  30.326  1.00  0.00    -0.336 N 
ATOM     18  C   UNL A   1      37.644  28.473  29.425  1.00  0.00     0.107 A 
ATOM     19  C   UNL A   1      38.041  28.984  28.226  1.00  0.00     0.131 A 
ATOM     20  N   UNL A   1      38.311  30.313  28.352  1.00  0.00    -0.239 NA
ENDBRANCH  10  15
BRANCH  11  21
ATOM     21  C   UNL A   1      36.406  33.750  29.988  1.00  0.00     0.122 C 
BRANCH  21  22
ATOM     22  C   UNL A   1      35.038  33.184  29.630  1.00  0.00     0.050 C 
BRANCH  22  23
ATOM     23  C   UNL A   1      34.584  32.870  28.208  1.00  0.00     0.162 C 
BRANCH  23  24
ATOM     24  O   UNL A   1      35.062  31.665  27.602  1.00  0.00    -0.378 OA
BRANCH  24  25
ATOM     25  C   UNL A   1      34.194  30.531  27.745  1.00  0.00     0.118 C 
ATOM     26  C   UNL A   1      32.821  30.930  27.243  1.00  0.00     0.032 C 
ATOM     27  C   UNL A   1      34.730  29.333  26.964  1.00  0.00     0.032 C 
ATOM     28  C   UNL A   1      31.799  29.855  26.975  1.00  0.00     0.003 C 
ATOM     29  C   UNL A   1      33.689  28.213  26.879  1.00  0.00     0.003 C 
ATOM     30  C   UNL A   1      32.394  28.689  26.226  1.00  0.00     0.000 C 
ENDBRANCH  24  25
ENDBRANCH  23  24
ENDBRANCH  22  23
ENDBRANCH  21  22
ENDBRANCH  11  21
ENDBRANCH   7   9
ENDBRANCH   6   7
ENDBRANCH   5   6
ENDBRANCH   4   5
ENDBRANCH   3   4
ENDBRANCH   2   3
ENDBRANCH   1   2
BRANCH   1  31
ATOM     31  O   UNL A   1      43.456  25.666  26.809  1.00  0.00    -0.377 OA
BRANCH  31  32
ATOM     32  C   UNL A   1      43.731  24.866  25.666  1.00  0.00     0.188 C 
BRANCH  32  33
ATOM     33  C   UNL A   1      45.177  24.363  25.483  1.00  0.00     0.188 C 
BRANCH  33  34
ATOM     34  O   UNL A   1      45.972  25.176  24.631  1.00  0.00    -0.376 OA
BRANCH  34  35
ATOM     35  C   UNL A   1      47.376  24.967  24.572  1.00  0.00     0.202 C 
BRANCH  35  36
ATOM     36  C   UNL A   1      48.305  25.862  25.413  1.00  0.00     0.261 C 
BRANCH  36  37
ATOM     37  O   UNL A   1      48.676  27.131  24.854  1.00  0.00    -0.460 OA
BRANCH  37  38
ATOM     38  C   UNL A   1      47.709  28.047  24.648  1.00  0.00     0.338 C 
ATOM     39  O   UNL A   1      47.186  28.330  23.580  1.00  0.00    -0.246 OA
BRANCH  38  40
ATOM     40  C   UNL A   1      47.218  28.494  25.968  1.00  0.00     0.060 A 
ATOM     41  C   UNL A   1      45.872  28.280  26.297  1.00  0.00     0.016 A 
ATOM     42  C   UNL A   1      48.076  29.118  26.877  1.00  0.00     0.016 A 
ATOM     43  C   UNL A   1      45.370  28.727  27.517  1.00  0.00     0.010 A 
ATOM     44  C   UNL A   1      47.563  29.594  28.088  1.00  0.00     0.010 A 
ATOM     45  C   UNL A   1      46.200  29.434  28.395  1.00  0.00    -0.014 A 
BRANCH  45  46
ATOM     46  C   UNL A   1      45.591  30.192  29.514  1.00  0.00     0.031 A 
ATOM     47  C   UNL A   1      45.458  29.504  30.846  1.00  0.00     0.074 A 
ATOM     48  C   UNL A   1      45.203  31.471  29.367  1.00  0.00     0.049 A 
ATOM     49  N   UNL A   1      44.930  29.942  31.959  1.00  0.00    -0.248 NA
ATOM     50  C   UNL A   1      45.993  28.134  30.933  1.00  0.00     0.031 C 
ATOM     51  C   UNL A   1      45.330  32.257  28.141  1.00  0.00     0.029 A 
ATOM     52  N   UNL A   1      44.616  32.331  30.261  1.00  0.00    -0.354 N 
ATOM     53  C   UNL A   1      45.058  28.900  32.872  1.00  0.00     0.074 A 
ATOM     54  C   UNL A   1      45.688  27.800  32.177  1.00  0.00     0.031 C 
ATOM     55  C   UNL A   1      44.817  33.482  28.355  1.00  0.00     0.029 A 
ATOM     56  C   UNL A   1      44.296  33.554  29.721  1.00  0.00     0.049 A 
ATOM     57  H   UNL A   1      44.440  32.095  31.200  1.00  0.00     0.167 HD
ATOM     58  C   UNL A   1      44.688  28.869  34.174  1.00  0.00     0.037 A 
ATOM     59  C   UNL A   1      43.636  34.599  30.260  1.00  0.00     0.037 A 
ATOM     60  C   UNL A   1      44.061  29.969  34.856  1.00  0.00     0.049 A 
ATOM     61  C   UNL A   1      43.167  34.513  31.692  1.00  0.00     0.074 A 
ATOM     62  C   UNL A   1      43.666  30.046  36.181  1.00  0.00     0.029 A 
ATOM     63  N   UNL A   1      43.725  31.180  34.268  1.00  0.00    -0.354 N 
ATOM     64  N   UNL A   1      43.317  33.534  32.553  1.00  0.00    -0.248 NA
ATOM     65  C   UNL A   1      42.445  35.676  32.227  1.00  0.00     0.031 C 
ATOM     66  C   UNL A   1      43.033  31.277  36.376  1.00  0.00     0.029 A 
ATOM     67  C   UNL A   1      43.097  31.998  35.194  1.00  0.00     0.049 A 
ATOM     68  H   UNL A   1      43.906  31.423  33.331  1.00  0.00     0.167 HD
ATOM     69  C   UNL A   1      42.733  33.975  33.739  1.00  0.00     0.074 A 
ATOM     70  C   UNL A   1      42.242  35.314  33.486  1.00  0.00     0.031 C 
ATOM     71  C   UNL A   1      42.618  33.333  34.928  1.00  0.00     0.037 A 
BRANCH  58  72
ATOM     72  C   UNL A   1      44.920  27.592  34.935  1.00  0.00     0.058 A 
ATOM     73  C   UNL A   1      43.932  26.600  35.046  1.00  0.00     0.135 A 
ATOM     74  C   UNL A   1      46.166  27.341  35.532  1.00  0.00     0.135 A 
ATOM     75  F   UNL A   1      42.715  26.795  34.513  1.00  0.00    -0.206 F 
ATOM     76  C   UNL A   1      44.163  25.418  35.743  1.00  0.00     0.059 A 
ATOM     77  C   UNL A   1      46.430  26.154  36.206  1.00  0.00     0.059 A 
ATOM     78  F   UNL A   1      47.146  28.258  35.463  1.00  0.00    -0.206 F 
ATOM     79  C   UNL A   1      45.417  25.203  36.317  1.00  0.00     0.060 A 
BRANCH  79  80
ATOM     80  S   UNL A   1      45.705  23.657  37.203  1.00  0.00     0.124 S 
ATOM     81  O   UNL A   1      45.154  22.680  36.270  1.00  0.00    -0.237 OA
ATOM     82  O   UNL A   1      47.157  23.647  37.347  1.00  0.00    -0.237 OA
ATOM     83  O   UNL A   1      44.956  23.830  38.444  1.00  0.00    -0.744 OA
ENDBRANCH  79  80
ENDBRANCH  58  72
BRANCH  59  84
ATOM     84  C   UNL A   1      43.357  35.808  29.440  1.00  0.00     0.058 A 
ATOM     85  C   UNL A   1      42.163  35.938  28.715  1.00  0.00     0.135 A 
ATOM     86  C   UNL A   1      44.287  36.857  29.355  1.00  0.00     0.135 A 
ATOM     87  F   UNL A   1      41.247  34.958  28.750  1.00  0.00    -0.206 F 
ATOM     88  C   UNL A   1      41.906  37.054  27.925  1.00  0.00     0.059 A 
ATOM     89  C   UNL A   1      44.040  37.997  28.596  1.00  0.00     0.059 A 
ATOM     90  F   UNL A   1      45.443  36.788  30.034  1.00  0.00    -0.206 F 
ATOM     91  C   UNL A   1      42.850  38.082  27.877  1.00  0.00     0.060 A 
BRANCH  91  92
ATOM     92  S   UNL A   1      42.483  39.548  26.887  1.00  0.00     0.124 S 
ATOM     93  O   UNL A   1      42.233  40.546  27.919  1.00  0.00    -0.237 OA
ATOM     94  O   UNL A   1      43.715  39.713  26.122  1.00  0.00    -0.237 OA
ATOM     95  O   UNL A   1      41.318  39.141  26.106  1.00  0.00    -0.744 OA
ENDBRANCH  91  92
ENDBRANCH  59  84
BRANCH  71  96
ATOM     96  C   UNL A   1      41.971  34.079  36.065  1.00  0.00     0.058 A 
ATOM     97  C   UNL A   1      40.590  34.015  36.306  1.00  0.00     0.135 A 
ATOM     98  C   UNL A   1      42.756  34.825  36.962  1.00  0.00     0.135 A 
ATOM     99  F   UNL A   1      39.791  33.320  35.481  1.00  0.00    -0.206 F 
ATOM    100  C   UNL A   1      40.005  34.687  37.377  1.00  0.00     0.059 A 
ATOM    101  C   UNL A   1      42.198  35.476  38.057  1.00  0.00     0.059 A 
ATOM    102  F   UNL A   1      44.085  34.910  36.788  1.00  0.00    -0.206 F 
ATOM    103  C   UNL A   1      40.819  35.413  38.249  1.00  0.00     0.060 A 
BRANCH 103 104
ATOM    104  S   UNL A   1      40.052  36.256  39.649  1.00  0.00     0.124 S 
ATOM    105  O   UNL A   1      41.221  36.736  40.379  1.00  0.00    -0.237 OA
ATOM    106  O   UNL A   1      39.248  37.281  38.992  1.00  0.00    -0.237 OA
ATOM    107  O   UNL A   1      39.291  35.198  40.308  1.00  0.00    -0.744 OA
ENDBRANCH 103 104
ENDBRANCH  71  96
ENDBRANCH  45  46
ENDBRANCH  38  40
ENDBRANCH  37  38
ENDBRANCH  36  37
ENDBRANCH  35  36
ENDBRANCH  34  35
ENDBRANCH  33  34
ENDBRANCH  32  33
ENDBRANCH  31  32
ENDBRANCH   1  31
TORSDOF 29
ENDMDL
