MODEL 1
REMARK VINA RESULT:      -6.6      0.000      0.000
REMARK SMILES O=C(OCCOCCOCCOCCOC(=O)c1ccc(-c2c3nc(c(-c4c(F)cc(S(=O)(=O)[O-])cc4F)c4ccc([nH]4)c(-c4c(F)cc(S(=O)(=O)[O-])cc4F)c4nc(c(-c5c(F)cc(S(=O)(=O)[O-])cc5F)c5ccc2[nH]5)C=C4)C=C3)cc1)C1=Cc2cc(Cl)cc(-c3ccccc3)c2O[C@@H]1C(F)(F)F
REMARK SMILES IDX 10 1 9 2 8 3 7 4 6 5 5 6 4 7 3 8 2 9 1 10 84 11 85 12 100 13
REMARK SMILES IDX 86 14 99 15 87 16 98 17 88 18 91 19 89 20 90 21 101 22
REMARK SMILES IDX 102 23 103 24 104 25 92 26 93 27 97 28 94 29 96 30 95 31
REMARK SMILES IDX 11 32 12 33 13 34 14 35 15 36 16 37 17 38 18 39 19 40 83 41
REMARK SMILES IDX 20 42 82 43 21 44 22 45 23 46 76 47 24 48 81 49 75 50 77 51
REMARK SMILES IDX 25 52 80 53 74 54 73 55 26 57 60 58 39 59 59 60 40 61 43 62
REMARK SMILES IDX 58 63 78 64 41 65 42 66 57 68 79 69 44 70 27 71 28 72 37 73
REMARK SMILES IDX 29 74 30 75 36 76 38 77 31 78 32 79 33 80 34 81 35 82 61 83
REMARK SMILES IDX 62 84 71 85 63 86 64 87 70 88 72 89 65 90 66 91 67 92 68 93
REMARK SMILES IDX 69 94 45 95 46 96 55 97 47 98 48 99 54 100 56 101 49 102
REMARK SMILES IDX 50 103 51 104 52 105 53 106
REMARK H PARENT 77 56 43 67
REMARK Flexibility Score: inf
ROOT
ATOM      1  C   UNL A   1      46.761  24.064  27.239  1.00  0.00     0.188 C 
ENDROOT
BRANCH   1   2
ATOM      2  O   UNL A   1      45.381  23.894  26.914  1.00  0.00    -0.377 OA
BRANCH   2   3
ATOM      3  C   UNL A   1      44.636  25.099  26.751  1.00  0.00     0.188 C 
BRANCH   3   4
ATOM      4  C   UNL A   1      44.513  25.514  25.292  1.00  0.00     0.188 C 
BRANCH   4   5
ATOM      5  O   UNL A   1      43.252  26.069  24.997  1.00  0.00    -0.376 OA
BRANCH   5   6
ATOM      6  C   UNL A   1      42.480  26.607  26.055  1.00  0.00     0.202 C 
BRANCH   6   7
ATOM      7  C   UNL A   1      42.748  28.066  26.454  1.00  0.00     0.261 C 
BRANCH   7   8
ATOM      8  O   UNL A   1      43.148  28.268  27.834  1.00  0.00    -0.460 OA
BRANCH   8   9
ATOM      9  C   UNL A   1      42.445  29.160  28.600  1.00  0.00     0.338 C 
ATOM     10  O   UNL A   1      42.653  30.362  28.571  1.00  0.00    -0.246 OA
BRANCH   9  11
ATOM     11  C   UNL A   1      41.474  28.503  29.513  1.00  0.00     0.087 C 
ATOM     12  C   UNL A   1      41.677  28.324  30.829  1.00  0.00     0.027 C 
ATOM     13  C   UNL A   1      40.067  28.400  29.050  1.00  0.00     0.316 C 
ATOM     14  C   UNL A   1      40.664  29.021  31.657  1.00  0.00     0.019 A 
ATOM     15  O   UNL A   1      39.238  29.363  29.749  1.00  0.00    -0.475 OA
ATOM     16  C   UNL A   1      40.784  29.151  33.038  1.00  0.00     0.032 A 
ATOM     17  C   UNL A   1      39.673  29.773  30.995  1.00  0.00     0.135 A 
ATOM     18  C   UNL A   1      39.950  30.040  33.722  1.00  0.00     0.042 A 
ATOM     19  C   UNL A   1      39.102  30.907  31.626  1.00  0.00     0.026 A 
ATOM     20  Cl  UNL A   1      39.951  30.069  35.441  1.00  0.00    -0.084 Cl
ATOM     21  C   UNL A   1      39.172  30.960  33.022  1.00  0.00     0.033 A 
BRANCH  13  22
ATOM     22  C   UNL A   1      39.606  26.936  28.930  1.00  0.00     0.430 C 
ATOM     23  F   UNL A   1      38.875  26.548  30.001  1.00  0.00    -0.167 F 
ATOM     24  F   UNL A   1      38.775  26.800  27.852  1.00  0.00    -0.167 F 
ATOM     25  F   UNL A   1      40.607  26.051  28.761  1.00  0.00    -0.167 F 
ENDBRANCH  13  22
BRANCH  19  26
ATOM     26  C   UNL A   1      38.729  32.157  30.914  1.00  0.00    -0.015 A 
ATOM     27  C   UNL A   1      39.484  33.339  31.127  1.00  0.00     0.009 A 
ATOM     28  C   UNL A   1      37.654  32.247  30.035  1.00  0.00     0.009 A 
ATOM     29  C   UNL A   1      39.211  34.534  30.446  1.00  0.00     0.001 A 
ATOM     30  C   UNL A   1      37.413  33.431  29.317  1.00  0.00     0.001 A 
ATOM     31  C   UNL A   1      38.190  34.570  29.512  1.00  0.00     0.000 A 
ENDBRANCH  19  26
ENDBRANCH   9  11
ENDBRANCH   8   9
ENDBRANCH   7   8
ENDBRANCH   6   7
ENDBRANCH   5   6
ENDBRANCH   4   5
ENDBRANCH   3   4
ENDBRANCH   2   3
ENDBRANCH   1   2
BRANCH   1  32
ATOM     32  C   UNL A   1      47.106  25.348  28.029  1.00  0.00     0.188 C 
BRANCH  32  33
ATOM     33  O   UNL A   1      48.438  25.800  28.233  1.00  0.00    -0.376 OA
BRANCH  33  34
ATOM     34  C   UNL A   1      49.496  25.032  27.706  1.00  0.00     0.202 C 
BRANCH  34  35
ATOM     35  C   UNL A   1      50.111  25.581  26.405  1.00  0.00     0.261 C 
BRANCH  35  36
ATOM     36  O   UNL A   1      49.164  26.000  25.401  1.00  0.00    -0.460 OA
BRANCH  36  37
ATOM     37  C   UNL A   1      49.290  27.276  24.938  1.00  0.00     0.338 C 
ATOM     38  O   UNL A   1      49.899  27.621  23.957  1.00  0.00    -0.246 OA
BRANCH  37  39
ATOM     39  C   UNL A   1      48.432  28.194  25.767  1.00  0.00     0.060 A 
ATOM     40  C   UNL A   1      49.068  29.024  26.702  1.00  0.00     0.016 A 
ATOM     41  C   UNL A   1      47.039  28.264  25.641  1.00  0.00     0.016 A 
ATOM     42  C   UNL A   1      48.320  29.866  27.546  1.00  0.00     0.010 A 
ATOM     43  C   UNL A   1      46.292  29.116  26.478  1.00  0.00     0.010 A 
ATOM     44  C   UNL A   1      46.921  29.893  27.474  1.00  0.00    -0.014 A 
BRANCH  44  45
ATOM     45  C   UNL A   1      46.117  30.533  28.565  1.00  0.00     0.031 A 
ATOM     46  C   UNL A   1      45.795  29.699  29.782  1.00  0.00     0.074 A 
ATOM     47  C   UNL A   1      45.692  31.815  28.540  1.00  0.00     0.049 A 
ATOM     48  N   UNL A   1      45.174  30.041  30.882  1.00  0.00    -0.248 NA
ATOM     49  C   UNL A   1      46.256  28.301  29.762  1.00  0.00     0.031 C 
ATOM     50  C   UNL A   1      45.968  32.779  27.485  1.00  0.00     0.029 A 
ATOM     51  N   UNL A   1      44.915  32.529  29.428  1.00  0.00    -0.354 N 
ATOM     52  C   UNL A   1      45.227  28.923  31.704  1.00  0.00     0.074 A 
ATOM     53  C   UNL A   1      45.839  27.861  30.937  1.00  0.00     0.031 C 
ATOM     54  C   UNL A   1      45.297  33.920  27.725  1.00  0.00     0.029 A 
ATOM     55  C   UNL A   1      44.585  33.795  28.992  1.00  0.00     0.049 A 
ATOM     56  H   UNL A   1      44.624  32.168  30.296  1.00  0.00     0.167 HD
ATOM     57  C   UNL A   1      44.859  28.800  33.001  1.00  0.00     0.037 A 
ATOM     58  C   UNL A   1      43.816  34.755  29.551  1.00  0.00     0.037 A 
ATOM     59  C   UNL A   1      44.221  29.835  33.768  1.00  0.00     0.049 A 
ATOM     60  C   UNL A   1      43.293  34.555  30.952  1.00  0.00     0.074 A 
ATOM     61  C   UNL A   1      43.816  29.799  35.091  1.00  0.00     0.029 A 
ATOM     62  N   UNL A   1      43.877  31.087  33.280  1.00  0.00    -0.354 N 
ATOM     63  N   UNL A   1      43.435  33.519  31.745  1.00  0.00    -0.248 NA
ATOM     64  C   UNL A   1      42.557  35.675  31.558  1.00  0.00     0.031 C 
ATOM     65  C   UNL A   1      43.177  31.008  35.387  1.00  0.00     0.029 A 
ATOM     66  C   UNL A   1      43.238  31.820  34.268  1.00  0.00     0.049 A 
ATOM     67  H   UNL A   1      44.060  31.407  32.368  1.00  0.00     0.167 HD
ATOM     68  C   UNL A   1      42.857  33.886  32.958  1.00  0.00     0.074 A 
ATOM     69  C   UNL A   1      42.370  35.239  32.795  1.00  0.00     0.031 C 
ATOM     70  C   UNL A   1      42.752  33.169  34.105  1.00  0.00     0.037 A 
BRANCH  57  71
ATOM     71  C   UNL A   1      45.167  27.492  33.673  1.00  0.00     0.058 A 
ATOM     72  C   UNL A   1      44.230  26.443  33.684  1.00  0.00     0.135 A 
ATOM     73  C   UNL A   1      46.404  27.272  34.296  1.00  0.00     0.135 A 
ATOM     74  F   UNL A   1      43.022  26.610  33.123  1.00  0.00    -0.206 F 
ATOM     75  C   UNL A   1      44.498  25.235  34.316  1.00  0.00     0.059 A 
ATOM     76  C   UNL A   1      46.706  26.060  34.908  1.00  0.00     0.059 A 
ATOM     77  F   UNL A   1      47.331  28.243  34.319  1.00  0.00    -0.206 F 
ATOM     78  C   UNL A   1      45.740  25.052  34.923  1.00  0.00     0.060 A 
BRANCH  78  79
ATOM     79  S   UNL A   1      46.075  23.474  35.730  1.00  0.00     0.124 S 
ATOM     80  O   UNL A   1      47.421  23.692  36.251  1.00  0.00    -0.237 OA
ATOM     81  O   UNL A   1      45.012  23.406  36.728  1.00  0.00    -0.237 OA
ATOM     82  O   UNL A   1      45.972  22.506  34.643  1.00  0.00    -0.744 OA
ENDBRANCH  78  79
ENDBRANCH  57  71
BRANCH  58  83
ATOM     83  C   UNL A   1      43.514  36.016  28.812  1.00  0.00     0.058 A 
ATOM     84  C   UNL A   1      44.381  37.119  28.845  1.00  0.00     0.135 A 
ATOM     85  C   UNL A   1      42.310  36.161  28.103  1.00  0.00     0.135 A 
ATOM     86  F   UNL A   1      45.538  37.041  29.519  1.00  0.00    -0.206 F 
ATOM     87  C   UNL A   1      44.055  38.328  28.233  1.00  0.00     0.059 A 
ATOM     88  C   UNL A   1      41.972  37.352  27.462  1.00  0.00     0.059 A 
ATOM     89  F   UNL A   1      41.444  35.139  28.030  1.00  0.00    -0.206 F 
ATOM     90  C   UNL A   1      42.846  38.435  27.544  1.00  0.00     0.060 A 
BRANCH  90  91
ATOM     91  S   UNL A   1      42.444  40.000  26.734  1.00  0.00     0.124 S 
ATOM     92  O   UNL A   1      41.153  39.697  26.127  1.00  0.00    -0.237 OA
ATOM     93  O   UNL A   1      42.419  40.927  27.862  1.00  0.00    -0.237 OA
ATOM     94  O   UNL A   1      43.551  40.190  25.802  1.00  0.00    -0.744 OA
ENDBRANCH  90  91
ENDBRANCH  58  83
BRANCH  70  95
ATOM     95  C   UNL A   1      42.120  33.846  35.295  1.00  0.00     0.058 A 
ATOM     96  C   UNL A   1      42.888  34.489  36.278  1.00  0.00     0.135 A 
ATOM     97  C   UNL A   1      40.723  33.869  35.441  1.00  0.00     0.135 A 
ATOM     98  F   UNL A   1      44.228  34.501  36.190  1.00  0.00    -0.206 F 
ATOM     99  C   UNL A   1      42.298  35.087  37.387  1.00  0.00     0.059 A 
ATOM    100  C   UNL A   1      40.109  34.493  36.523  1.00  0.00     0.059 A 
ATOM    101  F   UNL A   1      39.936  33.284  34.524  1.00  0.00    -0.206 F 
ATOM    102  C   UNL A   1      40.907  35.081  37.503  1.00  0.00     0.060 A 
BRANCH 102 103
ATOM    103  S   UNL A   1      40.154  35.858  38.948  1.00  0.00     0.124 S 
ATOM    104  O   UNL A   1      39.789  37.168  38.419  1.00  0.00    -0.237 OA
ATOM    105  O   UNL A   1      39.041  34.961  39.241  1.00  0.00    -0.237 OA
ATOM    106  O   UNL A   1      41.230  35.857  39.935  1.00  0.00    -0.744 OA
ENDBRANCH 102 103
ENDBRANCH  70  95
ENDBRANCH  44  45
ENDBRANCH  37  39
ENDBRANCH  36  37
ENDBRANCH  35  36
ENDBRANCH  34  35
ENDBRANCH  33  34
ENDBRANCH  32  33
ENDBRANCH   1  32
TORSDOF 25
ENDMDL
MODEL 2
REMARK VINA RESULT:      -6.6      5.719     10.000
REMARK SMILES O=C(OCCOCCOCCOCCOC(=O)c1ccc(-c2c3nc(c(-c4c(F)cc(S(=O)(=O)[O-])cc4F)c4ccc([nH]4)c(-c4c(F)cc(S(=O)(=O)[O-])cc4F)c4nc(c(-c5c(F)cc(S(=O)(=O)[O-])cc5F)c5ccc2[nH]5)C=C4)C=C3)cc1)C1=Cc2cc(Cl)cc(-c3ccccc3)c2O[C@@H]1C(F)(F)F
REMARK SMILES IDX 10 1 9 2 8 3 7 4 6 5 5 6 4 7 3 8 2 9 1 10 84 11 85 12 100 13
REMARK SMILES IDX 86 14 99 15 87 16 98 17 88 18 91 19 89 20 90 21 101 22
REMARK SMILES IDX 102 23 103 24 104 25 92 26 93 27 97 28 94 29 96 30 95 31
REMARK SMILES IDX 11 32 12 33 13 34 14 35 15 36 16 37 17 38 18 39 19 40 83 41
REMARK SMILES IDX 20 42 82 43 21 44 22 45 23 46 76 47 24 48 81 49 75 50 77 51
REMARK SMILES IDX 25 52 80 53 74 54 73 55 26 57 60 58 39 59 59 60 40 61 43 62
REMARK SMILES IDX 58 63 78 64 41 65 42 66 57 68 79 69 44 70 27 71 28 72 37 73
REMARK SMILES IDX 29 74 30 75 36 76 38 77 31 78 32 79 33 80 34 81 35 82 61 83
REMARK SMILES IDX 62 84 71 85 63 86 64 87 70 88 72 89 65 90 66 91 67 92 68 93
REMARK SMILES IDX 69 94 45 95 46 96 55 97 47 98 48 99 54 100 56 101 49 102
REMARK SMILES IDX 50 103 51 104 52 105 53 106
REMARK H PARENT 77 56 43 67
REMARK Flexibility Score: inf
ROOT
ATOM      1  C   UNL A   1      38.789  22.880  26.550  1.00  0.00     0.188 C 
ENDROOT
BRANCH   1   2
ATOM      2  O   UNL A   1      37.475  22.785  26.001  1.00  0.00    -0.377 OA
BRANCH   2   3
ATOM      3  C   UNL A   1      37.217  21.618  25.223  1.00  0.00     0.188 C 
BRANCH   3   4
ATOM      4  C   UNL A   1      35.738  21.443  24.909  1.00  0.00     0.188 C 
BRANCH   4   5
ATOM      5  O   UNL A   1      34.922  22.297  25.677  1.00  0.00    -0.376 OA
BRANCH   5   6
ATOM      6  C   UNL A   1      33.907  21.726  26.482  1.00  0.00     0.202 C 
BRANCH   6   7
ATOM      7  C   UNL A   1      32.589  21.344  25.793  1.00  0.00     0.261 C 
BRANCH   7   8
ATOM      8  O   UNL A   1      31.454  22.190  26.112  1.00  0.00    -0.460 OA
BRANCH   8   9
ATOM      9  C   UNL A   1      31.619  23.550  26.092  1.00  0.00     0.338 C 
ATOM     10  O   UNL A   1      31.751  24.213  27.109  1.00  0.00    -0.246 OA
BRANCH   9  11
ATOM     11  C   UNL A   1      31.540  24.124  24.725  1.00  0.00     0.087 C 
ATOM     12  C   UNL A   1      30.412  24.594  24.168  1.00  0.00     0.027 C 
ATOM     13  C   UNL A   1      32.811  24.569  24.099  1.00  0.00     0.316 C 
ATOM     14  C   UNL A   1      30.506  26.035  23.831  1.00  0.00     0.019 A 
ATOM     15  O   UNL A   1      32.895  26.017  24.111  1.00  0.00    -0.475 OA
ATOM     16  C   UNL A   1      29.401  26.787  23.437  1.00  0.00     0.032 A 
ATOM     17  C   UNL A   1      31.701  26.711  24.145  1.00  0.00     0.135 A 
ATOM     18  C   UNL A   1      29.496  28.181  23.395  1.00  0.00     0.042 A 
ATOM     19  C   UNL A   1      31.676  28.096  24.447  1.00  0.00     0.026 A 
ATOM     20  Cl  UNL A   1      28.213  29.110  22.728  1.00  0.00    -0.084 Cl
ATOM     21  C   UNL A   1      30.589  28.832  23.963  1.00  0.00     0.033 A 
BRANCH  13  22
ATOM     22  C   UNL A   1      33.118  23.794  22.805  1.00  0.00     0.430 C 
ATOM     23  F   UNL A   1      34.413  23.404  22.746  1.00  0.00    -0.167 F 
ATOM     24  F   UNL A   1      32.387  22.639  22.773  1.00  0.00    -0.167 F 
ATOM     25  F   UNL A   1      32.829  24.466  21.674  1.00  0.00    -0.167 F 
ENDBRANCH  13  22
BRANCH  19  26
ATOM     26  C   UNL A   1      32.530  28.740  25.480  1.00  0.00    -0.015 A 
ATOM     27  C   UNL A   1      32.419  30.135  25.714  1.00  0.00     0.009 A 
ATOM     28  C   UNL A   1      33.460  28.045  26.246  1.00  0.00     0.009 A 
ATOM     29  C   UNL A   1      33.161  30.788  26.709  1.00  0.00     0.001 A 
ATOM     30  C   UNL A   1      34.166  28.691  27.276  1.00  0.00     0.001 A 
ATOM     31  C   UNL A   1      34.016  30.055  27.515  1.00  0.00     0.000 A 
ENDBRANCH  19  26
ENDBRANCH   9  11
ENDBRANCH   8   9
ENDBRANCH   7   8
ENDBRANCH   6   7
ENDBRANCH   5   6
ENDBRANCH   4   5
ENDBRANCH   3   4
ENDBRANCH   2   3
ENDBRANCH   1   2
BRANCH   1  32
ATOM     32  C   UNL A   1      39.519  24.220  26.302  1.00  0.00     0.188 C 
BRANCH  32  33
ATOM     33  O   UNL A   1      40.916  24.392  26.503  1.00  0.00    -0.376 OA
BRANCH  33  34
ATOM     34  C   UNL A   1      41.772  23.305  26.236  1.00  0.00     0.202 C 
BRANCH  34  35
ATOM     35  C   UNL A   1      43.232  23.687  25.934  1.00  0.00     0.261 C 
BRANCH  35  36
ATOM     36  O   UNL A   1      43.857  24.558  26.899  1.00  0.00    -0.460 OA
BRANCH  36  37
ATOM     37  C   UNL A   1      43.965  25.873  26.556  1.00  0.00     0.338 C 
ATOM     38  O   UNL A   1      44.370  26.305  25.508  1.00  0.00    -0.246 OA
BRANCH  37  39
ATOM     39  C   UNL A   1      43.370  26.722  27.647  1.00  0.00     0.060 A 
ATOM     40  C   UNL A   1      43.716  28.080  27.689  1.00  0.00     0.016 A 
ATOM     41  C   UNL A   1      42.483  26.223  28.610  1.00  0.00     0.016 A 
ATOM     42  C   UNL A   1      43.238  28.917  28.714  1.00  0.00     0.010 A 
ATOM     43  C   UNL A   1      41.994  27.064  29.629  1.00  0.00     0.010 A 
ATOM     44  C   UNL A   1      42.404  28.411  29.721  1.00  0.00    -0.014 A 
BRANCH  44  45
ATOM     45  C   UNL A   1      42.155  29.202  30.970  1.00  0.00     0.031 A 
ATOM     46  C   UNL A   1      41.048  30.228  30.942  1.00  0.00     0.074 A 
ATOM     47  C   UNL A   1      42.838  29.031  32.122  1.00  0.00     0.049 A 
ATOM     48  N   UNL A   1      40.597  30.988  31.907  1.00  0.00    -0.248 NA
ATOM     49  C   UNL A   1      40.342  30.401  29.662  1.00  0.00     0.031 C 
ATOM     50  C   UNL A   1      43.886  28.046  32.348  1.00  0.00     0.029 A 
ATOM     51  N   UNL A   1      42.764  29.699  33.327  1.00  0.00    -0.354 N 
ATOM     52  C   UNL A   1      39.520  31.678  31.368  1.00  0.00     0.074 A 
ATOM     53  C   UNL A   1      39.454  31.333  29.965  1.00  0.00     0.031 C 
ATOM     54  C   UNL A   1      44.428  28.231  33.566  1.00  0.00     0.029 A 
ATOM     55  C   UNL A   1      43.723  29.315  34.240  1.00  0.00     0.049 A 
ATOM     56  H   UNL A   1      42.087  30.388  33.516  1.00  0.00     0.167 HD
ATOM     57  C   UNL A   1      38.623  32.479  31.988  1.00  0.00     0.037 A 
ATOM     58  C   UNL A   1      43.994  29.765  35.485  1.00  0.00     0.037 A 
ATOM     59  C   UNL A   1      38.692  32.859  33.374  1.00  0.00     0.049 A 
ATOM     60  C   UNL A   1      43.064  30.765  36.125  1.00  0.00     0.074 A 
ATOM     61  C   UNL A   1      37.823  33.665  34.089  1.00  0.00     0.029 A 
ATOM     62  N   UNL A   1      39.693  32.474  34.253  1.00  0.00    -0.354 N 
ATOM     63  N   UNL A   1      41.995  31.336  35.621  1.00  0.00    -0.248 NA
ATOM     64  C   UNL A   1      43.339  31.137  37.521  1.00  0.00     0.031 C 
ATOM     65  C   UNL A   1      38.329  33.815  35.384  1.00  0.00     0.029 A 
ATOM     66  C   UNL A   1      39.479  33.052  35.495  1.00  0.00     0.049 A 
ATOM     67  H   UNL A   1      40.443  31.879  34.029  1.00  0.00     0.167 HD
ATOM     68  C   UNL A   1      41.442  32.088  36.655  1.00  0.00     0.074 A 
ATOM     69  C   UNL A   1      42.290  31.894  37.811  1.00  0.00     0.031 C 
ATOM     70  C   UNL A   1      40.325  32.858  36.648  1.00  0.00     0.037 A 
BRANCH  57  71
ATOM     71  C   UNL A   1      37.473  32.980  31.161  1.00  0.00     0.058 A 
ATOM     72  C   UNL A   1      36.216  32.351  31.209  1.00  0.00     0.135 A 
ATOM     73  C   UNL A   1      37.615  34.098  30.327  1.00  0.00     0.135 A 
ATOM     74  F   UNL A   1      36.033  31.263  31.973  1.00  0.00    -0.206 F 
ATOM     75  C   UNL A   1      35.150  32.796  30.437  1.00  0.00     0.059 A 
ATOM     76  C   UNL A   1      36.553  34.580  29.568  1.00  0.00     0.059 A 
ATOM     77  F   UNL A   1      38.796  34.731  30.239  1.00  0.00    -0.206 F 
ATOM     78  C   UNL A   1      35.328  33.914  29.621  1.00  0.00     0.060 A 
BRANCH  78  79
ATOM     79  S   UNL A   1      33.931  34.483  28.632  1.00  0.00     0.124 S 
ATOM     80  O   UNL A   1      33.587  35.732  29.305  1.00  0.00    -0.237 OA
ATOM     81  O   UNL A   1      34.526  34.620  27.306  1.00  0.00    -0.237 OA
ATOM     82  O   UNL A   1      32.955  33.407  28.769  1.00  0.00    -0.744 OA
ENDBRANCH  78  79
ENDBRANCH  57  71
BRANCH  58  83
ATOM     83  C   UNL A   1      45.179  29.256  36.238  1.00  0.00     0.058 A 
ATOM     84  C   UNL A   1      45.089  28.153  37.102  1.00  0.00     0.135 A 
ATOM     85  C   UNL A   1      46.419  29.909  36.151  1.00  0.00     0.135 A 
ATOM     86  F   UNL A   1      43.924  27.501  37.235  1.00  0.00    -0.206 F 
ATOM     87  C   UNL A   1      46.170  27.736  37.876  1.00  0.00     0.059 A 
ATOM     88  C   UNL A   1      47.522  29.496  36.896  1.00  0.00     0.059 A 
ATOM     89  F   UNL A   1      46.569  30.965  35.336  1.00  0.00    -0.206 F 
ATOM     90  C   UNL A   1      47.384  28.416  37.767  1.00  0.00     0.060 A 
BRANCH  90  91
ATOM     91  S   UNL A   1      48.786  27.853  38.757  1.00  0.00     0.124 S 
ATOM     92  O   UNL A   1      48.117  27.207  39.881  1.00  0.00    -0.237 OA
ATOM     93  O   UNL A   1      49.476  26.964  37.826  1.00  0.00    -0.237 OA
ATOM     94  O   UNL A   1      49.496  29.090  39.070  1.00  0.00    -0.744 OA
ENDBRANCH  90  91
ENDBRANCH  58  83
BRANCH  70  95
ATOM     95  C   UNL A   1      39.927  33.521  37.941  1.00  0.00     0.058 A 
ATOM     96  C   UNL A   1      38.900  33.013  38.752  1.00  0.00     0.135 A 
ATOM     97  C   UNL A   1      40.599  34.672  38.387  1.00  0.00     0.135 A 
ATOM     98  F   UNL A   1      38.224  31.915  38.378  1.00  0.00    -0.206 F 
ATOM     99  C   UNL A   1      38.520  33.647  39.931  1.00  0.00     0.059 A 
ATOM    100  C   UNL A   1      40.261  35.302  39.582  1.00  0.00     0.059 A 
ATOM    101  F   UNL A   1      41.600  35.196  37.663  1.00  0.00    -0.206 F 
ATOM    102  C   UNL A   1      39.205  34.794  40.336  1.00  0.00     0.060 A 
BRANCH 102 103
ATOM    103  S   UNL A   1      38.701  35.608  41.866  1.00  0.00     0.124 S 
ATOM    104  O   UNL A   1      37.299  35.216  41.959  1.00  0.00    -0.237 OA
ATOM    105  O   UNL A   1      39.594  35.004  42.850  1.00  0.00    -0.237 OA
ATOM    106  O   UNL A   1      38.941  37.022  41.595  1.00  0.00    -0.744 OA
ENDBRANCH 102 103
ENDBRANCH  70  95
ENDBRANCH  44  45
ENDBRANCH  37  39
ENDBRANCH  36  37
ENDBRANCH  35  36
ENDBRANCH  34  35
ENDBRANCH  33  34
ENDBRANCH  32  33
ENDBRANCH   1  32
TORSDOF 25
ENDMDL
MODEL 3
REMARK VINA RESULT:      -5.9      6.739     10.288
REMARK SMILES O=C(OCCOCCOCCOCCOC(=O)c1ccc(-c2c3nc(c(-c4c(F)cc(S(=O)(=O)[O-])cc4F)c4ccc([nH]4)c(-c4c(F)cc(S(=O)(=O)[O-])cc4F)c4nc(c(-c5c(F)cc(S(=O)(=O)[O-])cc5F)c5ccc2[nH]5)C=C4)C=C3)cc1)C1=Cc2cc(Cl)cc(-c3ccccc3)c2O[C@@H]1C(F)(F)F
REMARK SMILES IDX 10 1 9 2 8 3 7 4 6 5 5 6 4 7 3 8 2 9 1 10 84 11 85 12 100 13
REMARK SMILES IDX 86 14 99 15 87 16 98 17 88 18 91 19 89 20 90 21 101 22
REMARK SMILES IDX 102 23 103 24 104 25 92 26 93 27 97 28 94 29 96 30 95 31
REMARK SMILES IDX 11 32 12 33 13 34 14 35 15 36 16 37 17 38 18 39 19 40 83 41
REMARK SMILES IDX 20 42 82 43 21 44 22 45 23 46 76 47 24 48 81 49 75 50 77 51
REMARK SMILES IDX 25 52 80 53 74 54 73 55 26 57 60 58 39 59 59 60 40 61 43 62
REMARK SMILES IDX 58 63 78 64 41 65 42 66 57 68 79 69 44 70 27 71 28 72 37 73
REMARK SMILES IDX 29 74 30 75 36 76 38 77 31 78 32 79 33 80 34 81 35 82 61 83
REMARK SMILES IDX 62 84 71 85 63 86 64 87 70 88 72 89 65 90 66 91 67 92 68 93
REMARK SMILES IDX 69 94 45 95 46 96 55 97 47 98 48 99 54 100 56 101 49 102
REMARK SMILES IDX 50 103 51 104 52 105 53 106
REMARK H PARENT 77 56 43 67
REMARK Flexibility Score: inf
ROOT
ATOM      1  C   UNL A   1      40.099  24.916  27.346  1.00  0.00     0.188 C 
ENDROOT
BRANCH   1   2
ATOM      2  O   UNL A   1      38.756  24.802  26.878  1.00  0.00    -0.377 OA
BRANCH   2   3
ATOM      3  C   UNL A   1      38.335  23.484  26.531  1.00  0.00     0.188 C 
BRANCH   3   4
ATOM      4  C   UNL A   1      37.203  23.483  25.514  1.00  0.00     0.188 C 
BRANCH   4   5
ATOM      5  O   UNL A   1      35.942  23.663  26.116  1.00  0.00    -0.376 OA
BRANCH   5   6
ATOM      6  C   UNL A   1      35.269  22.532  26.639  1.00  0.00     0.202 C 
BRANCH   6   7
ATOM      7  C   UNL A   1      34.161  21.908  25.777  1.00  0.00     0.261 C 
BRANCH   7   8
ATOM      8  O   UNL A   1      32.815  22.049  26.300  1.00  0.00    -0.460 OA
BRANCH   8   9
ATOM      9  C   UNL A   1      32.228  23.286  26.284  1.00  0.00     0.338 C 
ATOM     10  O   UNL A   1      31.884  23.866  27.302  1.00  0.00    -0.246 OA
BRANCH   9  11
ATOM     11  C   UNL A   1      31.989  23.798  24.910  1.00  0.00     0.087 C 
ATOM     12  C   UNL A   1      30.777  24.113  24.423  1.00  0.00     0.027 C 
ATOM     13  C   UNL A   1      33.152  24.363  24.182  1.00  0.00     0.316 C 
ATOM     14  C   UNL A   1      30.677  25.542  24.039  1.00  0.00     0.019 A 
ATOM     15  O   UNL A   1      33.066  25.810  24.145  1.00  0.00    -0.475 OA
ATOM     16  C   UNL A   1      29.468  26.147  23.705  1.00  0.00     0.032 A 
ATOM     17  C   UNL A   1      31.804  26.363  24.247  1.00  0.00     0.135 A 
ATOM     18  C   UNL A   1      29.395  27.540  23.617  1.00  0.00     0.042 A 
ATOM     19  C   UNL A   1      31.637  27.746  24.510  1.00  0.00     0.026 A 
ATOM     20  Cl  UNL A   1      27.969  28.289  23.018  1.00  0.00    -0.084 Cl
ATOM     21  C   UNL A   1      30.440  28.333  24.085  1.00  0.00     0.033 A 
BRANCH  13  22
ATOM     22  C   UNL A   1      33.459  23.581  22.891  1.00  0.00     0.430 C 
ATOM     23  F   UNL A   1      32.801  22.399  22.849  1.00  0.00    -0.167 F 
ATOM     24  F   UNL A   1      33.014  24.285  21.807  1.00  0.00    -0.167 F 
ATOM     25  F   UNL A   1      34.769  23.341  22.686  1.00  0.00    -0.167 F 
ENDBRANCH  13  22
BRANCH  19  26
ATOM     26  C   UNL A   1      32.477  28.521  25.459  1.00  0.00    -0.015 A 
ATOM     27  C   UNL A   1      32.075  29.824  25.853  1.00  0.00     0.009 A 
ATOM     28  C   UNL A   1      33.669  28.041  25.995  1.00  0.00     0.009 A 
ATOM     29  C   UNL A   1      32.801  30.581  26.784  1.00  0.00     0.001 A 
ATOM     30  C   UNL A   1      34.368  28.782  26.964  1.00  0.00     0.001 A 
ATOM     31  C   UNL A   1      33.936  30.043  27.366  1.00  0.00     0.000 A 
ENDBRANCH  19  26
ENDBRANCH   9  11
ENDBRANCH   8   9
ENDBRANCH   7   8
ENDBRANCH   6   7
ENDBRANCH   5   6
ENDBRANCH   4   5
ENDBRANCH   3   4
ENDBRANCH   2   3
ENDBRANCH   1   2
BRANCH   1  32
ATOM     32  C   UNL A   1      41.120  25.451  26.314  1.00  0.00     0.188 C 
BRANCH  32  33
ATOM     33  O   UNL A   1      42.025  24.610  25.610  1.00  0.00    -0.376 OA
BRANCH  33  34
ATOM     34  C   UNL A   1      42.223  23.295  26.077  1.00  0.00     0.202 C 
BRANCH  34  35
ATOM     35  C   UNL A   1      43.349  22.518  25.371  1.00  0.00     0.261 C 
BRANCH  35  36
ATOM     36  O   UNL A   1      44.377  21.995  26.237  1.00  0.00    -0.460 OA
BRANCH  36  37
ATOM     37  C   UNL A   1      45.667  22.184  25.836  1.00  0.00     0.338 C 
ATOM     38  O   UNL A   1      46.362  21.381  25.268  1.00  0.00    -0.246 OA
BRANCH  37  39
ATOM     39  C   UNL A   1      46.063  23.614  26.091  1.00  0.00     0.060 A 
ATOM     40  C   UNL A   1      46.342  24.428  24.984  1.00  0.00     0.016 A 
ATOM     41  C   UNL A   1      46.153  24.167  27.374  1.00  0.00     0.016 A 
ATOM     42  C   UNL A   1      46.770  25.758  25.155  1.00  0.00     0.010 A 
ATOM     43  C   UNL A   1      46.569  25.503  27.545  1.00  0.00     0.010 A 
ATOM     44  C   UNL A   1      46.928  26.300  26.437  1.00  0.00    -0.014 A 
BRANCH  44  45
ATOM     45  C   UNL A   1      47.675  27.585  26.632  1.00  0.00     0.031 A 
ATOM     46  C   UNL A   1      49.180  27.514  26.726  1.00  0.00     0.074 A 
ATOM     47  C   UNL A   1      47.088  28.800  26.695  1.00  0.00     0.049 A 
ATOM     48  N   UNL A   1      50.052  28.485  26.828  1.00  0.00    -0.248 NA
ATOM     49  C   UNL A   1      49.781  26.171  26.675  1.00  0.00     0.031 C 
ATOM     50  C   UNL A   1      45.663  29.061  26.555  1.00  0.00     0.029 A 
ATOM     51  N   UNL A   1      47.621  30.053  26.914  1.00  0.00    -0.354 N 
ATOM     52  C   UNL A   1      51.298  27.874  26.789  1.00  0.00     0.074 A 
ATOM     53  C   UNL A   1      51.071  26.447  26.768  1.00  0.00     0.031 C 
ATOM     54  C   UNL A   1      45.415  30.363  26.787  1.00  0.00     0.029 A 
ATOM     55  C   UNL A   1      46.677  31.050  27.035  1.00  0.00     0.049 A 
ATOM     56  H   UNL A   1      48.590  30.219  26.977  1.00  0.00     0.167 HD
ATOM     57  C   UNL A   1      52.524  28.443  26.715  1.00  0.00     0.037 A 
ATOM     58  C   UNL A   1      46.807  32.370  27.294  1.00  0.00     0.037 A 
ATOM     59  C   UNL A   1      52.771  29.859  26.767  1.00  0.00     0.049 A 
ATOM     60  C   UNL A   1      48.187  32.977  27.346  1.00  0.00     0.074 A 
ATOM     61  C   UNL A   1      53.982  30.524  26.695  1.00  0.00     0.029 A 
ATOM     62  N   UNL A   1      51.792  30.829  26.921  1.00  0.00    -0.354 N 
ATOM     63  N   UNL A   1      49.352  32.388  27.215  1.00  0.00    -0.248 NA
ATOM     64  C   UNL A   1      48.271  34.435  27.519  1.00  0.00     0.031 C 
ATOM     65  C   UNL A   1      53.742  31.892  26.863  1.00  0.00     0.029 A 
ATOM     66  C   UNL A   1      52.376  32.085  26.977  1.00  0.00     0.049 A 
ATOM     67  H   UNL A   1      50.826  30.652  26.982  1.00  0.00     0.167 HD
ATOM     68  C   UNL A   1      50.300  33.409  27.234  1.00  0.00     0.074 A 
ATOM     69  C   UNL A   1      49.571  34.650  27.382  1.00  0.00     0.031 C 
ATOM     70  C   UNL A   1      51.650  33.323  27.125  1.00  0.00     0.037 A 
BRANCH  57  71
ATOM     71  C   UNL A   1      53.694  27.514  26.546  1.00  0.00     0.058 A 
ATOM     72  C   UNL A   1      54.180  27.184  25.268  1.00  0.00     0.135 A 
ATOM     73  C   UNL A   1      54.344  26.961  27.658  1.00  0.00     0.135 A 
ATOM     74  F   UNL A   1      53.578  27.668  24.169  1.00  0.00    -0.206 F 
ATOM     75  C   UNL A   1      55.250  26.315  25.099  1.00  0.00     0.059 A 
ATOM     76  C   UNL A   1      55.438  26.112  27.513  1.00  0.00     0.059 A 
ATOM     77  F   UNL A   1      53.916  27.238  28.899  1.00  0.00    -0.206 F 
ATOM     78  C   UNL A   1      55.874  25.786  26.229  1.00  0.00     0.060 A 
BRANCH  78  79
ATOM     79  S   UNL A   1      57.269  24.666  25.991  1.00  0.00     0.124 S 
ATOM     80  O   UNL A   1      57.070  24.242  24.608  1.00  0.00    -0.237 OA
ATOM     81  O   UNL A   1      58.413  25.542  26.228  1.00  0.00    -0.237 OA
ATOM     82  O   UNL A   1      57.054  23.634  27.001  1.00  0.00    -0.744 OA
ENDBRANCH  78  79
ENDBRANCH  57  71
BRANCH  58  83
ATOM     83  C   UNL A   1      45.603  33.230  27.494  1.00  0.00     0.058 A 
ATOM     84  C   UNL A   1      44.966  33.872  26.421  1.00  0.00     0.135 A 
ATOM     85  C   UNL A   1      45.102  33.475  28.783  1.00  0.00     0.135 A 
ATOM     86  F   UNL A   1      45.412  33.685  25.169  1.00  0.00    -0.206 F 
ATOM     87  C   UNL A   1      43.901  34.748  26.617  1.00  0.00     0.059 A 
ATOM     88  C   UNL A   1      44.022  34.328  29.003  1.00  0.00     0.059 A 
ATOM     89  F   UNL A   1      45.665  32.883  29.849  1.00  0.00    -0.206 F 
ATOM     90  C   UNL A   1      43.436  34.972  27.914  1.00  0.00     0.060 A 
BRANCH  90  91
ATOM     91  S   UNL A   1      42.039  36.092  28.155  1.00  0.00     0.124 S 
ATOM     92  O   UNL A   1      41.063  35.217  28.795  1.00  0.00    -0.237 OA
ATOM     93  O   UNL A   1      42.624  37.127  29.002  1.00  0.00    -0.237 OA
ATOM     94  O   UNL A   1      41.711  36.517  26.797  1.00  0.00    -0.744 OA
ENDBRANCH  90  91
ENDBRANCH  58  83
BRANCH  70  95
ATOM     95  C   UNL A   1      52.432  34.611  27.121  1.00  0.00     0.058 A 
ATOM     96  C   UNL A   1      52.992  35.145  28.291  1.00  0.00     0.135 A 
ATOM     97  C   UNL A   1      52.642  35.312  25.920  1.00  0.00     0.135 A 
ATOM     98  F   UNL A   1      52.826  34.518  29.468  1.00  0.00    -0.206 F 
ATOM     99  C   UNL A   1      53.689  36.349  28.283  1.00  0.00     0.059 A 
ATOM    100  C   UNL A   1      53.367  36.499  25.881  1.00  0.00     0.059 A 
ATOM    101  F   UNL A   1      52.144  34.842  24.766  1.00  0.00    -0.206 F 
ATOM    102  C   UNL A   1      53.868  37.021  27.073  1.00  0.00     0.060 A 
BRANCH 102 103
ATOM    103  S   UNL A   1      54.772  38.584  27.075  1.00  0.00     0.124 S 
ATOM    104  O   UNL A   1      53.980  39.382  26.146  1.00  0.00    -0.237 OA
ATOM    105  O   UNL A   1      54.698  38.985  28.477  1.00  0.00    -0.237 OA
ATOM    106  O   UNL A   1      56.102  38.210  26.606  1.00  0.00    -0.744 OA
ENDBRANCH 102 103
ENDBRANCH  70  95
ENDBRANCH  44  45
ENDBRANCH  37  39
ENDBRANCH  36  37
ENDBRANCH  35  36
ENDBRANCH  34  35
ENDBRANCH  33  34
ENDBRANCH  32  33
ENDBRANCH   1  32
TORSDOF 25
ENDMDL
