MODEL 1
REMARK VINA RESULT:     -10.8      0.000      0.000
REMARK SMILES CC(=O)Nc1cnc(N2CC=C(c3ccccc3C)CC2)c(C(=O)OCCOCCOCCOCCOC(=O)c2ccc(-c3c4nc(c(-c5c(F)cc(S(=O)(=O)[O-])cc5F)c5ccc([nH]5)c(-c5c(F)cc(S(=O)(=O)[O-])cc5F)c5nc(c(-c6c(F)cc(S(=O)(=O)[O-])cc6F)c6ccc3[nH]6)C=C5)C=C4)cc2)c1
REMARK SMILES IDX 32 1 31 2 30 3 29 4 28 5 27 6 26 7 25 8 23 9 24 10 22 11
REMARK SMILES IDX 5 12 6 13 106 14 7 15 8 16 4 17 1 18 2 19 3 20 9 22 10 23
REMARK SMILES IDX 21 24 11 25 20 26 12 27 13 28 14 29 18 30 15 31 17 32 19 33
REMARK SMILES IDX 16 34 33 35 34 36 35 37 36 38 37 39 38 40 39 41 40 42 41 43
REMARK SMILES IDX 105 44 42 45 104 46 43 47 44 48 45 49 98 50 46 51 103 52
REMARK SMILES IDX 97 53 99 54 47 55 102 56 96 57 95 58 48 60 82 61 61 62 81 63
REMARK SMILES IDX 62 64 65 65 80 66 100 67 63 68 64 69 79 71 101 72 66 73
REMARK SMILES IDX 49 74 50 75 59 76 51 77 52 78 58 79 60 80 53 81 54 82 55 83
REMARK SMILES IDX 56 84 57 85 83 86 84 87 93 88 85 89 86 90 92 91 94 92 87 93
REMARK SMILES IDX 88 94 89 95 90 96 91 97 67 98 68 99 77 100 69 101 70 102
REMARK SMILES IDX 76 103 78 104 71 105 72 106 73 107 74 108 75 109
REMARK H PARENT 4 21 99 59 65 70
REMARK Flexibility Score: inf
ROOT
ATOM      1  C   UNL A   1      41.158  22.637  27.467  1.00  0.00     0.188 C 
ENDROOT
BRANCH   1   2
ATOM      2  O   UNL A   1      40.369  21.731  26.703  1.00  0.00    -0.377 OA
BRANCH   2   3
ATOM      3  C   UNL A   1      39.424  22.305  25.847  1.00  0.00     0.188 C 
BRANCH   3   4
ATOM      4  C   UNL A   1      37.975  21.834  25.891  1.00  0.00     0.188 C 
BRANCH   4   5
ATOM      5  O   UNL A   1      36.790  22.388  25.348  1.00  0.00    -0.376 OA
BRANCH   5   6
ATOM      6  C   UNL A   1      36.906  23.368  24.326  1.00  0.00     0.202 C 
BRANCH   6   7
ATOM      7  C   UNL A   1      35.706  23.845  23.481  1.00  0.00     0.261 C 
BRANCH   7   8
ATOM      8  O   UNL A   1      35.007  22.753  22.900  1.00  0.00    -0.460 OA
BRANCH   8   9
ATOM      9  C   UNL A   1      33.675  22.806  22.983  1.00  0.00     0.342 C 
ATOM     10  O   UNL A   1      32.864  23.229  22.167  1.00  0.00    -0.246 OA
BRANCH   9  11
ATOM     11  C   UNL A   1      33.347  21.995  24.136  1.00  0.00     0.104 A 
ATOM     12  C   UNL A   1      32.797  19.791  24.934  1.00  0.00     0.060 A 
ATOM     13  C   UNL A   1      32.349  20.448  26.078  1.00  0.00     0.139 A 
ATOM     14  C   UNL A   1      33.289  20.601  23.935  1.00  0.00     0.047 A 
ATOM     15  N   UNL A   1      32.360  21.800  26.279  1.00  0.00    -0.236 NA
ATOM     16  C   UNL A   1      32.848  22.603  25.302  1.00  0.00     0.143 A 
BRANCH  12  17
ATOM     17  N   UNL A   1      32.656  18.395  24.835  1.00  0.00    -0.325 N 
ATOM     18  C   UNL A   1      35.007  17.697  24.339  1.00  0.00     0.114 C 
ATOM     19  C   UNL A   1      33.539  17.407  24.492  1.00  0.00     0.221 C 
ATOM     20  O   UNL A   1      33.117  16.250  24.411  1.00  0.00    -0.275 OA
ATOM     21  H   UNL A   1      31.754  18.067  25.053  1.00  0.00     0.169 HD
ENDBRANCH  12  17
BRANCH  16  22
ATOM     22  N   UNL A   1      32.511  23.964  25.402  1.00  0.00    -0.352 N 
ATOM     23  C   UNL A   1      31.189  24.364  25.879  1.00  0.00     0.146 C 
ATOM     24  C   UNL A   1      33.642  24.740  25.890  1.00  0.00     0.123 C 
ATOM     25  C   UNL A   1      31.115  25.855  26.110  1.00  0.00    -0.002 C 
ATOM     26  C   UNL A   1      33.545  26.236  25.801  1.00  0.00     0.057 C 
ATOM     27  C   UNL A   1      32.155  26.705  26.042  1.00  0.00    -0.041 C 
BRANCH  27  28
ATOM     28  C   UNL A   1      31.974  28.159  26.081  1.00  0.00    -0.020 A 
ATOM     29  C   UNL A   1      32.334  28.879  27.229  1.00  0.00     0.008 A 
ATOM     30  C   UNL A   1      31.433  28.834  24.964  1.00  0.00    -0.044 A 
ATOM     31  C   UNL A   1      32.148  30.260  27.275  1.00  0.00     0.001 A 
ATOM     32  C   UNL A   1      31.272  30.223  25.024  1.00  0.00     0.004 A 
ATOM     33  C   UNL A   1      31.063  28.121  23.689  1.00  0.00     0.045 C 
ATOM     34  C   UNL A   1      31.615  30.928  26.176  1.00  0.00     0.000 A 
ENDBRANCH  27  28
ENDBRANCH  16  22
ENDBRANCH   9  11
ENDBRANCH   8   9
ENDBRANCH   7   8
ENDBRANCH   6   7
ENDBRANCH   5   6
ENDBRANCH   4   5
ENDBRANCH   3   4
ENDBRANCH   2   3
ENDBRANCH   1   2
BRANCH   1  35
ATOM     35  C   UNL A   1      42.385  22.125  28.206  1.00  0.00     0.188 C 
BRANCH  35  36
ATOM     36  O   UNL A   1      42.533  22.947  29.367  1.00  0.00    -0.376 OA
BRANCH  36  37
ATOM     37  C   UNL A   1      43.820  22.982  29.954  1.00  0.00     0.202 C 
BRANCH  37  38
ATOM     38  C   UNL A   1      43.788  23.230  31.464  1.00  0.00     0.261 C 
BRANCH  38  39
ATOM     39  O   UNL A   1      44.715  24.283  31.809  1.00  0.00    -0.460 OA
BRANCH  39  40
ATOM     40  C   UNL A   1      44.794  24.595  33.137  1.00  0.00     0.338 C 
ATOM     41  O   UNL A   1      45.369  23.906  33.960  1.00  0.00    -0.246 OA
BRANCH  40  42
ATOM     42  C   UNL A   1      44.076  25.877  33.418  1.00  0.00     0.060 A 
ATOM     43  C   UNL A   1      42.967  25.947  34.279  1.00  0.00     0.016 A 
ATOM     44  C   UNL A   1      44.390  26.987  32.662  1.00  0.00     0.016 A 
ATOM     45  C   UNL A   1      42.069  27.048  34.240  1.00  0.00     0.010 A 
ATOM     46  C   UNL A   1      43.492  28.035  32.605  1.00  0.00     0.010 A 
ATOM     47  C   UNL A   1      42.287  28.085  33.339  1.00  0.00    -0.014 A 
BRANCH  47  48
ATOM     48  C   UNL A   1      41.338  29.176  32.924  1.00  0.00     0.031 A 
ATOM     49  C   UNL A   1      40.890  30.135  34.025  1.00  0.00     0.074 A 
ATOM     50  C   UNL A   1      41.332  29.552  31.607  1.00  0.00     0.049 A 
ATOM     51  N   UNL A   1      40.354  31.301  33.874  1.00  0.00    -0.248 NA
ATOM     52  C   UNL A   1      41.055  29.825  35.453  1.00  0.00     0.031 C 
ATOM     53  C   UNL A   1      41.529  30.888  31.040  1.00  0.00     0.029 A 
ATOM     54  N   UNL A   1      41.360  28.797  30.444  1.00  0.00    -0.354 N 
ATOM     55  C   UNL A   1      40.377  31.992  35.095  1.00  0.00     0.074 A 
ATOM     56  C   UNL A   1      40.778  30.992  36.049  1.00  0.00     0.031 C 
ATOM     57  C   UNL A   1      41.505  30.915  29.710  1.00  0.00     0.029 A 
ATOM     58  C   UNL A   1      41.105  29.619  29.317  1.00  0.00     0.049 A 
ATOM     59  H   UNL A   1      41.531  27.828  30.406  1.00  0.00     0.167 HD
ATOM     60  C   UNL A   1      40.157  33.354  35.127  1.00  0.00     0.037 A 
ATOM     61  C   UNL A   1      40.005  29.420  28.551  1.00  0.00     0.037 A 
ATOM     62  C   UNL A   1      39.699  33.842  33.797  1.00  0.00     0.049 A 
ATOM     63  C   UNL A   1      38.861  30.377  28.951  1.00  0.00     0.074 A 
ATOM     64  C   UNL A   1      39.987  34.916  32.976  1.00  0.00     0.029 A 
ATOM     65  N   UNL A   1      38.840  33.053  33.032  1.00  0.00    -0.354 N 
ATOM     66  N   UNL A   1      38.963  31.316  29.878  1.00  0.00    -0.248 NA
ATOM     67  C   UNL A   1      37.531  30.401  28.345  1.00  0.00     0.031 C 
ATOM     68  C   UNL A   1      39.386  34.704  31.698  1.00  0.00     0.029 A 
ATOM     69  C   UNL A   1      38.634  33.546  31.764  1.00  0.00     0.049 A 
ATOM     70  H   UNL A   1      38.422  32.226  33.366  1.00  0.00     0.167 HD
ATOM     71  C   UNL A   1      37.777  31.983  30.050  1.00  0.00     0.074 A 
ATOM     72  C   UNL A   1      36.905  31.351  29.069  1.00  0.00     0.031 C 
ATOM     73  C   UNL A   1      37.556  32.991  30.960  1.00  0.00     0.037 A 
BRANCH  60  74
ATOM     74  C   UNL A   1      40.486  34.353  36.295  1.00  0.00     0.058 A 
ATOM     75  C   UNL A   1      41.722  35.056  36.324  1.00  0.00     0.135 A 
ATOM     76  C   UNL A   1      39.700  34.611  37.448  1.00  0.00     0.135 A 
ATOM     77  F   UNL A   1      42.563  35.033  35.282  1.00  0.00    -0.206 F 
ATOM     78  C   UNL A   1      42.167  35.852  37.397  1.00  0.00     0.059 A 
ATOM     79  C   UNL A   1      40.097  35.461  38.510  1.00  0.00     0.059 A 
ATOM     80  F   UNL A   1      38.505  34.045  37.629  1.00  0.00    -0.206 F 
ATOM     81  C   UNL A   1      41.347  36.060  38.490  1.00  0.00     0.060 A 
BRANCH  81  82
ATOM     82  S   UNL A   1      41.905  37.161  39.816  1.00  0.00     0.124 S 
ATOM     83  O   UNL A   1      40.644  37.660  40.355  1.00  0.00    -0.237 OA
ATOM     84  O   UNL A   1      42.650  36.256  40.684  1.00  0.00    -0.237 OA
ATOM     85  O   UNL A   1      42.716  38.155  39.116  1.00  0.00    -0.744 OA
ENDBRANCH  81  82
ENDBRANCH  60  74
BRANCH  61  86
ATOM     86  C   UNL A   1      40.185  28.028  27.982  1.00  0.00     0.058 A 
ATOM     87  C   UNL A   1      40.864  28.045  26.722  1.00  0.00     0.135 A 
ATOM     88  C   UNL A   1      40.570  26.998  28.862  1.00  0.00     0.135 A 
ATOM     89  F   UNL A   1      40.551  28.992  25.819  1.00  0.00    -0.206 F 
ATOM     90  C   UNL A   1      42.042  27.318  26.492  1.00  0.00     0.059 A 
ATOM     91  C   UNL A   1      41.752  26.258  28.645  1.00  0.00     0.059 A 
ATOM     92  F   UNL A   1      39.995  26.914  30.072  1.00  0.00    -0.206 F 
ATOM     93  C   UNL A   1      42.515  26.471  27.489  1.00  0.00     0.060 A 
BRANCH  93  94
ATOM     94  S   UNL A   1      44.232  25.861  27.392  1.00  0.00     0.124 S 
ATOM     95  O   UNL A   1      44.876  26.886  26.583  1.00  0.00    -0.237 OA
ATOM     96  O   UNL A   1      44.649  25.799  28.791  1.00  0.00    -0.237 OA
ATOM     97  O   UNL A   1      44.064  24.560  26.758  1.00  0.00    -0.744 OA
ENDBRANCH  93  94
ENDBRANCH  61  86
BRANCH  73  98
ATOM     98  C   UNL A   1      36.191  33.571  31.239  1.00  0.00     0.058 A 
ATOM     99  C   UNL A   1      35.503  33.349  32.433  1.00  0.00     0.135 A 
ATOM    100  C   UNL A   1      35.508  34.338  30.259  1.00  0.00     0.135 A 
ATOM    101  F   UNL A   1      35.985  32.500  33.353  1.00  0.00    -0.206 F 
ATOM    102  C   UNL A   1      34.306  34.004  32.718  1.00  0.00     0.059 A 
ATOM    103  C   UNL A   1      34.278  34.935  30.490  1.00  0.00     0.059 A 
ATOM    104  F   UNL A   1      36.032  34.584  29.050  1.00  0.00    -0.206 F 
ATOM    105  C   UNL A   1      33.723  34.823  31.752  1.00  0.00     0.060 A 
BRANCH 105 106
ATOM    106  S   UNL A   1      32.268  35.792  32.170  1.00  0.00     0.124 S 
ATOM    107  O   UNL A   1      32.818  36.833  33.032  1.00  0.00    -0.237 OA
ATOM    108  O   UNL A   1      31.831  36.231  30.848  1.00  0.00    -0.237 OA
ATOM    109  O   UNL A   1      31.393  34.830  32.833  1.00  0.00    -0.744 OA
ENDBRANCH 105 106
ENDBRANCH  73  98
ENDBRANCH  47  48
ENDBRANCH  40  42
ENDBRANCH  39  40
ENDBRANCH  38  39
ENDBRANCH  37  38
ENDBRANCH  36  37
ENDBRANCH  35  36
ENDBRANCH   1  35
TORSDOF 26
ENDMDL
MODEL 2
REMARK VINA RESULT:     -10.0      5.925      9.566
REMARK SMILES CC(=O)Nc1cnc(N2CC=C(c3ccccc3C)CC2)c(C(=O)OCCOCCOCCOCCOC(=O)c2ccc(-c3c4nc(c(-c5c(F)cc(S(=O)(=O)[O-])cc5F)c5ccc([nH]5)c(-c5c(F)cc(S(=O)(=O)[O-])cc5F)c5nc(c(-c6c(F)cc(S(=O)(=O)[O-])cc6F)c6ccc3[nH]6)C=C5)C=C4)cc2)c1
REMARK SMILES IDX 32 1 31 2 30 3 29 4 28 5 27 6 26 7 25 8 23 9 24 10 22 11
REMARK SMILES IDX 5 12 6 13 106 14 7 15 8 16 4 17 1 18 2 19 3 20 9 22 10 23
REMARK SMILES IDX 21 24 11 25 20 26 12 27 13 28 14 29 18 30 15 31 17 32 19 33
REMARK SMILES IDX 16 34 33 35 34 36 35 37 36 38 37 39 38 40 39 41 40 42 41 43
REMARK SMILES IDX 105 44 42 45 104 46 43 47 44 48 45 49 98 50 46 51 103 52
REMARK SMILES IDX 97 53 99 54 47 55 102 56 96 57 95 58 48 60 82 61 61 62 81 63
REMARK SMILES IDX 62 64 65 65 80 66 100 67 63 68 64 69 79 71 101 72 66 73
REMARK SMILES IDX 49 74 50 75 59 76 51 77 52 78 58 79 60 80 53 81 54 82 55 83
REMARK SMILES IDX 56 84 57 85 83 86 84 87 93 88 85 89 86 90 92 91 94 92 87 93
REMARK SMILES IDX 88 94 89 95 90 96 91 97 67 98 68 99 77 100 69 101 70 102
REMARK SMILES IDX 76 103 78 104 71 105 72 106 73 107 74 108 75 109
REMARK H PARENT 4 21 99 59 65 70
REMARK Flexibility Score: inf
ROOT
ATOM      1  C   UNL A   1      38.245  28.121  27.945  1.00  0.00     0.188 C 
ENDROOT
BRANCH   1   2
ATOM      2  O   UNL A   1      39.234  27.650  28.855  1.00  0.00    -0.377 OA
BRANCH   2   3
ATOM      3  C   UNL A   1      39.791  26.400  28.570  1.00  0.00     0.188 C 
BRANCH   3   4
ATOM      4  C   UNL A   1      38.979  25.364  27.800  1.00  0.00     0.188 C 
BRANCH   4   5
ATOM      5  O   UNL A   1      39.374  24.300  26.953  1.00  0.00    -0.376 OA
BRANCH   5   6
ATOM      6  C   UNL A   1      38.365  23.487  26.370  1.00  0.00     0.202 C 
BRANCH   6   7
ATOM      7  C   UNL A   1      37.255  24.052  25.459  1.00  0.00     0.261 C 
BRANCH   7   8
ATOM      8  O   UNL A   1      36.091  23.239  25.485  1.00  0.00    -0.460 OA
BRANCH   8   9
ATOM      9  C   UNL A   1      35.803  22.598  24.349  1.00  0.00     0.342 C 
ATOM     10  O   UNL A   1      36.384  22.637  23.270  1.00  0.00    -0.246 OA
BRANCH   9  11
ATOM     11  C   UNL A   1      34.811  21.614  24.724  1.00  0.00     0.104 A 
ATOM     12  C   UNL A   1      34.322  19.270  24.980  1.00  0.00     0.060 A 
ATOM     13  C   UNL A   1      32.989  19.673  24.996  1.00  0.00     0.139 A 
ATOM     14  C   UNL A   1      35.247  20.277  24.819  1.00  0.00     0.047 A 
ATOM     15  N   UNL A   1      32.541  20.957  24.867  1.00  0.00    -0.236 NA
ATOM     16  C   UNL A   1      33.446  21.954  24.713  1.00  0.00     0.143 A 
BRANCH  12  17
ATOM     17  N   UNL A   1      34.636  17.900  25.050  1.00  0.00    -0.325 N 
ATOM     18  C   UNL A   1      33.746  17.081  22.859  1.00  0.00     0.114 C 
ATOM     19  C   UNL A   1      34.348  16.851  24.219  1.00  0.00     0.221 C 
ATOM     20  O   UNL A   1      34.688  15.719  24.571  1.00  0.00    -0.275 OA
ATOM     21  H   UNL A   1      35.161  17.649  25.844  1.00  0.00     0.169 HD
ENDBRANCH  12  17
BRANCH  16  22
ATOM     22  N   UNL A   1      32.939  23.174  24.233  1.00  0.00    -0.352 N 
ATOM     23  C   UNL A   1      32.348  23.253  22.898  1.00  0.00     0.146 C 
ATOM     24  C   UNL A   1      32.256  23.901  25.292  1.00  0.00     0.123 C 
ATOM     25  C   UNL A   1      31.681  24.589  22.670  1.00  0.00    -0.002 C 
ATOM     26  C   UNL A   1      31.892  25.334  25.026  1.00  0.00     0.057 C 
ATOM     27  C   UNL A   1      31.504  25.540  23.605  1.00  0.00    -0.041 C 
BRANCH  27  28
ATOM     28  C   UNL A   1      31.031  26.885  23.266  1.00  0.00    -0.020 A 
ATOM     29  C   UNL A   1      31.913  27.815  22.698  1.00  0.00     0.008 A 
ATOM     30  C   UNL A   1      29.688  27.245  23.515  1.00  0.00    -0.044 A 
ATOM     31  C   UNL A   1      31.470  29.101  22.389  1.00  0.00     0.001 A 
ATOM     32  C   UNL A   1      29.258  28.534  23.181  1.00  0.00     0.004 A 
ATOM     33  C   UNL A   1      28.684  26.277  24.088  1.00  0.00     0.045 C 
ATOM     34  C   UNL A   1      30.147  29.459  22.634  1.00  0.00     0.000 A 
ENDBRANCH  27  28
ENDBRANCH  16  22
ENDBRANCH   9  11
ENDBRANCH   8   9
ENDBRANCH   7   8
ENDBRANCH   6   7
ENDBRANCH   5   6
ENDBRANCH   4   5
ENDBRANCH   3   4
ENDBRANCH   2   3
ENDBRANCH   1   2
BRANCH   1  35
ATOM     35  C   UNL A   1      37.746  29.553  28.055  1.00  0.00     0.188 C 
BRANCH  35  36
ATOM     36  O   UNL A   1      36.506  29.497  28.767  1.00  0.00    -0.376 OA
BRANCH  36  37
ATOM     37  C   UNL A   1      35.395  30.116  28.147  1.00  0.00     0.202 C 
BRANCH  37  38
ATOM     38  C   UNL A   1      35.335  31.626  28.387  1.00  0.00     0.261 C 
BRANCH  38  39
ATOM     39  O   UNL A   1      35.527  31.909  29.791  1.00  0.00    -0.460 OA
BRANCH  39  40
ATOM     40  C   UNL A   1      35.835  33.203  30.101  1.00  0.00     0.338 C 
ATOM     41  O   UNL A   1      35.058  34.132  29.973  1.00  0.00    -0.246 OA
BRANCH  40  42
ATOM     42  C   UNL A   1      37.241  33.302  30.603  1.00  0.00     0.060 A 
ATOM     43  C   UNL A   1      37.776  34.495  31.119  1.00  0.00     0.016 A 
ATOM     44  C   UNL A   1      38.097  32.244  30.375  1.00  0.00     0.016 A 
ATOM     45  C   UNL A   1      39.179  34.692  31.223  1.00  0.00     0.010 A 
ATOM     46  C   UNL A   1      39.459  32.458  30.445  1.00  0.00     0.010 A 
ATOM     47  C   UNL A   1      40.050  33.686  30.814  1.00  0.00    -0.014 A 
BRANCH  47  48
ATOM     48  C   UNL A   1      41.530  33.778  30.561  1.00  0.00     0.031 A 
ATOM     49  C   UNL A   1      41.963  34.706  29.427  1.00  0.00     0.074 A 
ATOM     50  C   UNL A   1      42.376  33.474  31.595  1.00  0.00     0.049 A 
ATOM     51  N   UNL A   1      43.143  35.190  29.223  1.00  0.00    -0.248 NA
ATOM     52  C   UNL A   1      41.023  35.190  28.405  1.00  0.00     0.031 C 
ATOM     53  C   UNL A   1      43.440  34.298  32.172  1.00  0.00     0.029 A 
ATOM     54  N   UNL A   1      42.350  32.441  32.518  1.00  0.00    -0.354 N 
ATOM     55  C   UNL A   1      43.069  36.230  28.285  1.00  0.00     0.074 A 
ATOM     56  C   UNL A   1      41.726  36.141  27.775  1.00  0.00     0.031 C 
ATOM     57  C   UNL A   1      44.060  33.727  33.202  1.00  0.00     0.029 A 
ATOM     58  C   UNL A   1      43.563  32.406  33.253  1.00  0.00     0.049 A 
ATOM     59  H   UNL A   1      41.598  31.819  32.647  1.00  0.00     0.167 HD
ATOM     60  C   UNL A   1      44.125  37.106  28.134  1.00  0.00     0.037 A 
ATOM     61  C   UNL A   1      44.390  31.336  33.171  1.00  0.00     0.037 A 
ATOM     62  C   UNL A   1      45.312  36.633  28.899  1.00  0.00     0.049 A 
ATOM     63  C   UNL A   1      45.528  31.580  32.156  1.00  0.00     0.074 A 
ATOM     64  C   UNL A   1      46.255  37.207  29.730  1.00  0.00     0.029 A 
ATOM     65  N   UNL A   1      45.592  35.268  28.961  1.00  0.00    -0.354 N 
ATOM     66  N   UNL A   1      45.711  32.715  31.499  1.00  0.00    -0.248 NA
ATOM     67  C   UNL A   1      46.569  30.616  31.809  1.00  0.00     0.031 C 
ATOM     68  C   UNL A   1      47.015  36.175  30.360  1.00  0.00     0.029 A 
ATOM     69  C   UNL A   1      46.611  34.962  29.833  1.00  0.00     0.049 A 
ATOM     70  H   UNL A   1      45.109  34.591  28.433  1.00  0.00     0.167 HD
ATOM     71  C   UNL A   1      46.773  32.629  30.636  1.00  0.00     0.074 A 
ATOM     72  C   UNL A   1      47.265  31.276  30.860  1.00  0.00     0.031 C 
ATOM     73  C   UNL A   1      47.196  33.631  29.792  1.00  0.00     0.037 A 
BRANCH  60  74
ATOM     74  C   UNL A   1      44.114  38.511  27.429  1.00  0.00     0.058 A 
ATOM     75  C   UNL A   1      45.152  38.881  26.528  1.00  0.00     0.135 A 
ATOM     76  C   UNL A   1      43.191  39.567  27.637  1.00  0.00     0.135 A 
ATOM     77  F   UNL A   1      46.066  37.994  26.114  1.00  0.00    -0.206 F 
ATOM     78  C   UNL A   1      45.307  40.163  25.967  1.00  0.00     0.059 A 
ATOM     79  C   UNL A   1      43.288  40.844  27.032  1.00  0.00     0.059 A 
ATOM     80  F   UNL A   1      42.142  39.437  28.455  1.00  0.00    -0.206 F 
ATOM     81  C   UNL A   1      44.366  41.145  26.215  1.00  0.00     0.060 A 
BRANCH  81  82
ATOM     82  S   UNL A   1      44.540  42.757  25.408  1.00  0.00     0.124 S 
ATOM     83  O   UNL A   1      45.672  42.537  24.515  1.00  0.00    -0.237 OA
ATOM     84  O   UNL A   1      43.244  42.925  24.757  1.00  0.00    -0.237 OA
ATOM     85  O   UNL A   1      44.795  43.670  26.520  1.00  0.00    -0.744 OA
ENDBRANCH  81  82
ENDBRANCH  60  74
BRANCH  61  86
ATOM     86  C   UNL A   1      43.574  30.183  33.717  1.00  0.00     0.058 A 
ATOM     87  C   UNL A   1      43.086  30.447  35.037  1.00  0.00     0.135 A 
ATOM     88  C   UNL A   1      42.661  29.549  32.852  1.00  0.00     0.135 A 
ATOM     89  F   UNL A   1      43.897  31.043  35.931  1.00  0.00    -0.206 F 
ATOM     90  C   UNL A   1      41.722  30.391  35.362  1.00  0.00     0.059 A 
ATOM     91  C   UNL A   1      41.286  29.485  33.163  1.00  0.00     0.059 A 
ATOM     92  F   UNL A   1      43.029  29.276  31.591  1.00  0.00    -0.206 F 
ATOM     93  C   UNL A   1      40.818  29.968  34.393  1.00  0.00     0.060 A 
BRANCH  93  94
ATOM     94  S   UNL A   1      39.040  30.292  34.640  1.00  0.00     0.124 S 
ATOM     95  O   UNL A   1      38.424  29.224  33.867  1.00  0.00    -0.237 OA
ATOM     96  O   UNL A   1      38.877  30.203  36.089  1.00  0.00    -0.237 OA
ATOM     97  O   UNL A   1      38.891  31.638  34.101  1.00  0.00    -0.744 OA
ENDBRANCH  93  94
ENDBRANCH  61  86
BRANCH  73  98
ATOM     98  C   UNL A   1      48.251  33.431  28.733  1.00  0.00     0.058 A 
ATOM     99  C   UNL A   1      47.957  32.977  27.445  1.00  0.00     0.135 A 
ATOM    100  C   UNL A   1      49.625  33.649  29.019  1.00  0.00     0.135 A 
ATOM    101  F   UNL A   1      46.716  32.581  27.126  1.00  0.00    -0.206 F 
ATOM    102  C   UNL A   1      48.930  32.930  26.449  1.00  0.00     0.059 A 
ATOM    103  C   UNL A   1      50.622  33.531  28.062  1.00  0.00     0.059 A 
ATOM    104  F   UNL A   1      50.051  34.036  30.229  1.00  0.00    -0.206 F 
ATOM    105  C   UNL A   1      50.251  33.245  26.761  1.00  0.00     0.060 A 
BRANCH 105 106
ATOM    106  S   UNL A   1      51.476  33.340  25.449  1.00  0.00     0.124 S 
ATOM    107  O   UNL A   1      51.552  31.957  24.988  1.00  0.00    -0.237 OA
ATOM    108  O   UNL A   1      50.838  34.279  24.532  1.00  0.00    -0.237 OA
ATOM    109  O   UNL A   1      52.669  33.837  26.128  1.00  0.00    -0.744 OA
ENDBRANCH 105 106
ENDBRANCH  73  98
ENDBRANCH  47  48
ENDBRANCH  40  42
ENDBRANCH  39  40
ENDBRANCH  38  39
ENDBRANCH  37  38
ENDBRANCH  36  37
ENDBRANCH  35  36
ENDBRANCH   1  35
TORSDOF 26
ENDMDL
MODEL 3
REMARK VINA RESULT:      -9.8      3.222      6.273
REMARK SMILES CC(=O)Nc1cnc(N2CC=C(c3ccccc3C)CC2)c(C(=O)OCCOCCOCCOCCOC(=O)c2ccc(-c3c4nc(c(-c5c(F)cc(S(=O)(=O)[O-])cc5F)c5ccc([nH]5)c(-c5c(F)cc(S(=O)(=O)[O-])cc5F)c5nc(c(-c6c(F)cc(S(=O)(=O)[O-])cc6F)c6ccc3[nH]6)C=C5)C=C4)cc2)c1
REMARK SMILES IDX 32 1 31 2 30 3 29 4 28 5 27 6 26 7 25 8 23 9 24 10 22 11
REMARK SMILES IDX 5 12 6 13 106 14 7 15 8 16 4 17 1 18 2 19 3 20 9 22 10 23
REMARK SMILES IDX 21 24 11 25 20 26 12 27 13 28 14 29 18 30 15 31 17 32 19 33
REMARK SMILES IDX 16 34 33 35 34 36 35 37 36 38 37 39 38 40 39 41 40 42 41 43
REMARK SMILES IDX 105 44 42 45 104 46 43 47 44 48 45 49 98 50 46 51 103 52
REMARK SMILES IDX 97 53 99 54 47 55 102 56 96 57 95 58 48 60 82 61 61 62 81 63
REMARK SMILES IDX 62 64 65 65 80 66 100 67 63 68 64 69 79 71 101 72 66 73
REMARK SMILES IDX 49 74 50 75 59 76 51 77 52 78 58 79 60 80 53 81 54 82 55 83
REMARK SMILES IDX 56 84 57 85 83 86 84 87 93 88 85 89 86 90 92 91 94 92 87 93
REMARK SMILES IDX 88 94 89 95 90 96 91 97 67 98 68 99 77 100 69 101 70 102
REMARK SMILES IDX 76 103 78 104 71 105 72 106 73 107 74 108 75 109
REMARK H PARENT 4 21 99 59 65 70
REMARK Flexibility Score: inf
ROOT
ATOM      1  C   UNL A   1      38.946  24.816  27.430  1.00  0.00     0.188 C 
ENDROOT
BRANCH   1   2
ATOM      2  O   UNL A   1      38.696  23.461  27.071  1.00  0.00    -0.377 OA
BRANCH   2   3
ATOM      3  C   UNL A   1      38.325  23.232  25.743  1.00  0.00     0.188 C 
BRANCH   3   4
ATOM      4  C   UNL A   1      36.849  23.134  25.373  1.00  0.00     0.188 C 
BRANCH   4   5
ATOM      5  O   UNL A   1      36.205  22.877  24.138  1.00  0.00    -0.376 OA
BRANCH   5   6
ATOM      6  C   UNL A   1      35.593  23.962  23.454  1.00  0.00     0.202 C 
BRANCH   6   7
ATOM      7  C   UNL A   1      34.280  23.816  22.657  1.00  0.00     0.261 C 
BRANCH   7   8
ATOM      8  O   UNL A   1      33.724  22.517  22.794  1.00  0.00    -0.460 OA
BRANCH   8   9
ATOM      9  C   UNL A   1      32.571  22.445  23.465  1.00  0.00     0.342 C 
ATOM     10  O   UNL A   1      31.425  22.580  23.053  1.00  0.00    -0.246 OA
BRANCH   9  11
ATOM     11  C   UNL A   1      32.931  21.893  24.754  1.00  0.00     0.104 A 
ATOM     12  C   UNL A   1      33.058  19.906  26.108  1.00  0.00     0.060 A 
ATOM     13  C   UNL A   1      33.168  20.789  27.180  1.00  0.00     0.139 A 
ATOM     14  C   UNL A   1      32.916  20.488  24.868  1.00  0.00     0.047 A 
ATOM     15  N   UNL A   1      33.147  22.152  27.096  1.00  0.00    -0.236 NA
ATOM     16  C   UNL A   1      33.013  22.732  25.879  1.00  0.00     0.143 A 
BRANCH  12  17
ATOM     17  N   UNL A   1      33.021  18.520  26.350  1.00  0.00    -0.325 N 
ATOM     18  C   UNL A   1      33.023  17.614  24.017  1.00  0.00     0.114 C 
ATOM     19  C   UNL A   1      32.913  17.446  25.508  1.00  0.00     0.221 C 
ATOM     20  O   UNL A   1      32.826  16.321  26.008  1.00  0.00    -0.275 OA
ATOM     21  H   UNL A   1      33.085  18.278  27.302  1.00  0.00     0.169 HD
ENDBRANCH  12  17
BRANCH  16  22
ATOM     22  N   UNL A   1      32.640  24.087  25.883  1.00  0.00    -0.352 N 
ATOM     23  C   UNL A   1      31.370  24.502  26.477  1.00  0.00     0.146 C 
ATOM     24  C   UNL A   1      33.791  24.938  26.148  1.00  0.00     0.123 C 
ATOM     25  C   UNL A   1      31.269  26.007  26.564  1.00  0.00    -0.002 C 
ATOM     26  C   UNL A   1      33.629  26.414  25.921  1.00  0.00     0.057 C 
ATOM     27  C   UNL A   1      32.260  26.871  26.284  1.00  0.00    -0.041 C 
BRANCH  27  28
ATOM     28  C   UNL A   1      32.032  28.316  26.198  1.00  0.00    -0.020 A 
ATOM     29  C   UNL A   1      32.464  29.155  27.235  1.00  0.00     0.008 A 
ATOM     30  C   UNL A   1      31.371  28.862  25.076  1.00  0.00    -0.044 A 
ATOM     31  C   UNL A   1      32.234  30.529  27.165  1.00  0.00     0.001 A 
ATOM     32  C   UNL A   1      31.166  30.245  25.016  1.00  0.00     0.004 A 
ATOM     33  C   UNL A   1      30.917  28.016  23.914  1.00  0.00     0.045 C 
ATOM     34  C   UNL A   1      31.583  31.070  26.059  1.00  0.00     0.000 A 
ENDBRANCH  27  28
ENDBRANCH  16  22
ENDBRANCH   9  11
ENDBRANCH   8   9
ENDBRANCH   7   8
ENDBRANCH   6   7
ENDBRANCH   5   6
ENDBRANCH   4   5
ENDBRANCH   3   4
ENDBRANCH   2   3
ENDBRANCH   1   2
BRANCH   1  35
ATOM     35  C   UNL A   1      40.314  25.210  27.966  1.00  0.00     0.188 C 
BRANCH  35  36
ATOM     36  O   UNL A   1      41.107  25.567  26.830  1.00  0.00    -0.376 OA
BRANCH  36  37
ATOM     37  C   UNL A   1      42.301  26.280  27.096  1.00  0.00     0.202 C 
BRANCH  37  38
ATOM     38  C   UNL A   1      42.600  27.364  26.058  1.00  0.00     0.261 C 
BRANCH  38  39
ATOM     39  O   UNL A   1      42.479  28.670  26.662  1.00  0.00    -0.460 OA
BRANCH  39  40
ATOM     40  C   UNL A   1      41.288  28.934  27.277  1.00  0.00     0.338 C 
ATOM     41  O   UNL A   1      40.208  28.866  26.717  1.00  0.00    -0.246 OA
BRANCH  40  42
ATOM     42  C   UNL A   1      41.508  29.317  28.706  1.00  0.00     0.060 A 
ATOM     43  C   UNL A   1      40.892  28.639  29.773  1.00  0.00     0.016 A 
ATOM     44  C   UNL A   1      42.184  30.489  28.977  1.00  0.00     0.016 A 
ATOM     45  C   UNL A   1      40.788  29.228  31.062  1.00  0.00     0.010 A 
ATOM     46  C   UNL A   1      42.046  31.069  30.223  1.00  0.00     0.010 A 
ATOM     47  C   UNL A   1      41.310  30.499  31.284  1.00  0.00    -0.014 A 
BRANCH  47  48
ATOM     48  C   UNL A   1      41.064  31.418  32.449  1.00  0.00     0.031 A 
ATOM     49  C   UNL A   1      42.277  31.740  33.322  1.00  0.00     0.074 A 
ATOM     50  C   UNL A   1      39.992  32.268  32.379  1.00  0.00     0.049 A 
ATOM     51  N   UNL A   1      42.399  32.716  34.159  1.00  0.00    -0.248 NA
ATOM     52  C   UNL A   1      43.511  30.941  33.279  1.00  0.00     0.031 C 
ATOM     53  C   UNL A   1      39.976  33.725  32.518  1.00  0.00     0.029 A 
ATOM     54  N   UNL A   1      38.690  32.056  31.956  1.00  0.00    -0.354 N 
ATOM     55  C   UNL A   1      43.746  32.859  34.523  1.00  0.00     0.074 A 
ATOM     56  C   UNL A   1      44.376  31.685  33.980  1.00  0.00     0.031 C 
ATOM     57  C   UNL A   1      38.770  34.265  32.356  1.00  0.00     0.029 A 
ATOM     58  C   UNL A   1      37.878  33.173  32.283  1.00  0.00     0.049 A 
ATOM     59  H   UNL A   1      38.371  31.247  31.495  1.00  0.00     0.167 HD
ATOM     60  C   UNL A   1      44.178  34.011  35.150  1.00  0.00     0.037 A 
ATOM     61  C   UNL A   1      36.843  33.045  33.147  1.00  0.00     0.037 A 
ATOM     62  C   UNL A   1      43.020  34.863  35.536  1.00  0.00     0.049 A 
ATOM     63  C   UNL A   1      37.245  33.481  34.574  1.00  0.00     0.074 A 
ATOM     64  C   UNL A   1      42.706  36.207  35.474  1.00  0.00     0.029 A 
ATOM     65  N   UNL A   1      41.847  34.264  35.995  1.00  0.00    -0.354 N 
ATOM     66  N   UNL A   1      38.428  33.979  34.897  1.00  0.00    -0.248 NA
ATOM     67  C   UNL A   1      36.373  33.437  35.745  1.00  0.00     0.031 C 
ATOM     68  C   UNL A   1      41.325  36.383  35.790  1.00  0.00     0.029 A 
ATOM     69  C   UNL A   1      40.809  35.152  36.156  1.00  0.00     0.049 A 
ATOM     70  H   UNL A   1      41.769  33.300  36.186  1.00  0.00     0.167 HD
ATOM     71  C   UNL A   1      38.514  34.236  36.240  1.00  0.00     0.074 A 
ATOM     72  C   UNL A   1      37.194  33.858  36.729  1.00  0.00     0.031 C 
ATOM     73  C   UNL A   1      39.625  34.728  36.887  1.00  0.00     0.037 A 
BRANCH  60  74
ATOM     74  C   UNL A   1      45.656  34.518  35.312  1.00  0.00     0.058 A 
ATOM     75  C   UNL A   1      46.131  34.987  36.569  1.00  0.00     0.135 A 
ATOM     76  C   UNL A   1      46.631  34.658  34.291  1.00  0.00     0.135 A 
ATOM     77  F   UNL A   1      45.405  34.846  37.685  1.00  0.00    -0.206 F 
ATOM     78  C   UNL A   1      47.383  35.595  36.778  1.00  0.00     0.059 A 
ATOM     79  C   UNL A   1      47.923  35.206  34.490  1.00  0.00     0.059 A 
ATOM     80  F   UNL A   1      46.391  34.289  33.030  1.00  0.00    -0.206 F 
ATOM     81  C   UNL A   1      48.285  35.697  35.734  1.00  0.00     0.060 A 
BRANCH  81  82
ATOM     82  S   UNL A   1      49.923  36.402  36.048  1.00  0.00     0.124 S 
ATOM     83  O   UNL A   1      50.558  35.363  36.853  1.00  0.00    -0.237 OA
ATOM     84  O   UNL A   1      50.457  36.572  34.701  1.00  0.00    -0.237 OA
ATOM     85  O   UNL A   1      49.631  37.644  36.759  1.00  0.00    -0.744 OA
ENDBRANCH  81  82
ENDBRANCH  60  74
BRANCH  61  86
ATOM     86  C   UNL A   1      35.903  32.068  32.473  1.00  0.00     0.058 A 
ATOM     87  C   UNL A   1      35.193  32.668  31.385  1.00  0.00     0.135 A 
ATOM     88  C   UNL A   1      36.364  30.756  32.245  1.00  0.00     0.135 A 
ATOM     89  F   UNL A   1      34.712  33.917  31.522  1.00  0.00    -0.206 F 
ATOM     90  C   UNL A   1      35.229  32.145  30.083  1.00  0.00     0.059 A 
ATOM     91  C   UNL A   1      36.407  30.216  30.942  1.00  0.00     0.059 A 
ATOM     92  F   UNL A   1      37.051  30.122  33.206  1.00  0.00    -0.206 F 
ATOM     93  C   UNL A   1      35.897  30.945  29.859  1.00  0.00     0.060 A 
BRANCH  93  94
ATOM     94  S   UNL A   1      36.322  30.475  28.148  1.00  0.00     0.124 S 
ATOM     95  O   UNL A   1      35.659  31.512  27.371  1.00  0.00    -0.237 OA
ATOM     96  O   UNL A   1      37.783  30.510  28.140  1.00  0.00    -0.237 OA
ATOM     97  O   UNL A   1      35.754  29.137  28.042  1.00  0.00    -0.744 OA
ENDBRANCH  93  94
ENDBRANCH  61  86
BRANCH  73  98
ATOM     98  C   UNL A   1      39.735  34.825  38.388  1.00  0.00     0.058 A 
ATOM     99  C   UNL A   1      39.420  35.984  39.099  1.00  0.00     0.135 A 
ATOM    100  C   UNL A   1      40.226  33.736  39.157  1.00  0.00     0.135 A 
ATOM    101  F   UNL A   1      39.111  37.120  38.453  1.00  0.00    -0.206 F 
ATOM    102  C   UNL A   1      39.402  36.004  40.492  1.00  0.00     0.059 A 
ATOM    103  C   UNL A   1      40.293  33.761  40.542  1.00  0.00     0.059 A 
ATOM    104  F   UNL A   1      40.613  32.581  38.597  1.00  0.00    -0.206 F 
ATOM    105  C   UNL A   1      39.805  34.874  41.202  1.00  0.00     0.060 A 
BRANCH 105 106
ATOM    106  S   UNL A   1      39.633  34.840  42.991  1.00  0.00     0.124 S 
ATOM    107  O   UNL A   1      40.994  35.110  43.444  1.00  0.00    -0.237 OA
ATOM    108  O   UNL A   1      38.670  35.916  43.204  1.00  0.00    -0.237 OA
ATOM    109  O   UNL A   1      39.141  33.493  43.263  1.00  0.00    -0.744 OA
ENDBRANCH 105 106
ENDBRANCH  73  98
ENDBRANCH  47  48
ENDBRANCH  40  42
ENDBRANCH  39  40
ENDBRANCH  38  39
ENDBRANCH  37  38
ENDBRANCH  36  37
ENDBRANCH  35  36
ENDBRANCH   1  35
TORSDOF 26
ENDMDL
