MODEL 1
REMARK VINA RESULT:     -10.0      0.000      0.000
REMARK SMILES Cc1cc(OC(F)(F)F)cc2c1O[C@H](C(F)(F)F)C(C(=O)OCCOCCOCCOCCOC(=O)c1ccc(-c3c4nc(c(-c5c(F)cc(S(=O)(=O)[O-])cc5F)c5ccc([nH]5)c(-c5c(F)cc(S(=O)(=O)[O-])cc5F)c5nc(c(-c6c(F)cc(S(=O)(=O)[O-])cc6F)c6ccc3[nH]6)C=C5)C=C4)cc1)=C2
REMARK SMILES IDX 29 1 28 2 27 3 26 4 25 5 24 6 23 7 22 8 20 9 21 10 19 11
REMARK SMILES IDX 1 12 2 13 3 14 12 15 4 16 11 17 13 18 10 19 103 20 14 21
REMARK SMILES IDX 5 22 6 23 7 24 8 25 9 26 15 27 16 28 17 29 18 30 30 31 31 32
REMARK SMILES IDX 32 33 33 34 34 35 35 36 36 37 37 38 38 39 102 40 39 41
REMARK SMILES IDX 101 42 40 43 41 44 42 45 95 46 43 47 100 48 94 49 96 50
REMARK SMILES IDX 44 51 99 52 93 53 92 54 45 56 79 57 58 58 78 59 59 60 62 61
REMARK SMILES IDX 77 62 97 63 60 64 61 65 76 67 98 68 63 69 46 70 47 71 56 72
REMARK SMILES IDX 48 73 49 74 55 75 57 76 50 77 51 78 52 79 53 80 54 81 80 82
REMARK SMILES IDX 81 83 90 84 82 85 83 86 89 87 91 88 84 89 85 90 86 91 87 92
REMARK SMILES IDX 88 93 64 94 65 95 74 96 66 97 67 98 73 99 75 100 68 101
REMARK SMILES IDX 69 102 70 103 71 104 72 105
REMARK H PARENT 96 55 62 66
REMARK Flexibility Score: inf
ROOT
ATOM      1  C   UNL A   1      43.574  21.271  25.114  1.00  0.00     0.188 C 
ENDROOT
BRANCH   1   2
ATOM      2  O   UNL A   1      43.155  20.368  26.136  1.00  0.00    -0.377 OA
BRANCH   2   3
ATOM      3  C   UNL A   1      41.761  20.196  26.319  1.00  0.00     0.188 C 
BRANCH   3   4
ATOM      4  C   UNL A   1      41.239  20.872  27.601  1.00  0.00     0.188 C 
BRANCH   4   5
ATOM      5  O   UNL A   1      40.058  21.635  27.456  1.00  0.00    -0.376 OA
BRANCH   5   6
ATOM      6  C   UNL A   1      39.759  22.390  26.292  1.00  0.00     0.202 C 
BRANCH   6   7
ATOM      7  C   UNL A   1      38.728  23.528  26.157  1.00  0.00     0.261 C 
BRANCH   7   8
ATOM      8  O   UNL A   1      37.346  23.185  26.143  1.00  0.00    -0.460 OA
BRANCH   8   9
ATOM      9  C   UNL A   1      36.740  23.106  24.948  1.00  0.00     0.338 C 
ATOM     10  O   UNL A   1      37.208  22.664  23.914  1.00  0.00    -0.246 OA
BRANCH   9  11
ATOM     11  C   UNL A   1      35.323  23.479  25.146  1.00  0.00     0.087 C 
ATOM     12  C   UNL A   1      30.320  23.542  26.150  1.00  0.00     0.048 C 
ATOM     13  C   UNL A   1      31.379  24.587  25.924  1.00  0.00    -0.005 A 
ATOM     14  C   UNL A   1      31.076  25.949  26.100  1.00  0.00     0.054 A 
ATOM     15  C   UNL A   1      32.683  24.212  25.567  1.00  0.00     0.131 A 
ATOM     16  C   UNL A   1      32.055  26.925  25.910  1.00  0.00     0.130 A 
ATOM     17  C   UNL A   1      33.674  25.182  25.420  1.00  0.00     0.021 A 
ATOM     18  O   UNL A   1      32.913  22.877  25.387  1.00  0.00    -0.475 OA
ATOM     19  C   UNL A   1      33.348  26.536  25.554  1.00  0.00     0.058 A 
ATOM     20  C   UNL A   1      35.053  24.788  25.206  1.00  0.00     0.027 C 
ATOM     21  C   UNL A   1      34.271  22.400  25.190  1.00  0.00     0.316 C 
BRANCH  16  22
ATOM     22  O   UNL A   1      31.895  28.274  26.047  1.00  0.00    -0.406 OA
BRANCH  22  23
ATOM     23  C   UNL A   1      31.984  28.816  27.353  1.00  0.00     0.573 C 
ATOM     24  F   UNL A   1      33.035  28.298  28.023  1.00  0.00    -0.132 F 
ATOM     25  F   UNL A   1      32.085  30.161  27.321  1.00  0.00    -0.132 F 
ATOM     26  F   UNL A   1      30.858  28.496  28.029  1.00  0.00    -0.132 F 
ENDBRANCH  22  23
ENDBRANCH  16  22
BRANCH  21  27
ATOM     27  C   UNL A   1      34.568  21.350  26.269  1.00  0.00     0.430 C 
ATOM     28  F   UNL A   1      33.502  20.544  26.478  1.00  0.00    -0.167 F 
ATOM     29  F   UNL A   1      35.607  20.555  25.930  1.00  0.00    -0.167 F 
ATOM     30  F   UNL A   1      34.874  21.933  27.453  1.00  0.00    -0.167 F 
ENDBRANCH  21  27
ENDBRANCH   9  11
ENDBRANCH   8   9
ENDBRANCH   7   8
ENDBRANCH   6   7
ENDBRANCH   5   6
ENDBRANCH   4   5
ENDBRANCH   3   4
ENDBRANCH   2   3
ENDBRANCH   1   2
BRANCH   1  31
ATOM     31  C   UNL A   1      43.279  22.786  25.227  1.00  0.00     0.188 C 
BRANCH  31  32
ATOM     32  O   UNL A   1      44.093  23.600  24.391  1.00  0.00    -0.376 OA
BRANCH  32  33
ATOM     33  C   UNL A   1      44.948  24.547  25.005  1.00  0.00     0.202 C 
BRANCH  33  34
ATOM     34  C   UNL A   1      44.282  25.555  25.953  1.00  0.00     0.261 C 
BRANCH  34  35
ATOM     35  O   UNL A   1      43.424  26.524  25.339  1.00  0.00    -0.460 OA
BRANCH  35  36
ATOM     36  C   UNL A   1      42.136  26.567  25.745  1.00  0.00     0.338 C 
ATOM     37  O   UNL A   1      41.167  26.107  25.168  1.00  0.00    -0.246 OA
BRANCH  36  38
ATOM     38  C   UNL A   1      42.132  27.115  27.116  1.00  0.00     0.060 A 
ATOM     39  C   UNL A   1      41.353  26.497  28.103  1.00  0.00     0.016 A 
ATOM     40  C   UNL A   1      42.912  28.232  27.421  1.00  0.00     0.016 A 
ATOM     41  C   UNL A   1      41.336  27.011  29.400  1.00  0.00     0.010 A 
ATOM     42  C   UNL A   1      42.866  28.768  28.709  1.00  0.00     0.010 A 
ATOM     43  C   UNL A   1      42.052  28.179  29.693  1.00  0.00    -0.014 A 
BRANCH  43  44
ATOM     44  C   UNL A   1      41.756  28.928  30.936  1.00  0.00     0.031 A 
ATOM     45  C   UNL A   1      40.593  29.882  30.912  1.00  0.00     0.074 A 
ATOM     46  C   UNL A   1      42.486  28.767  32.054  1.00  0.00     0.049 A 
ATOM     47  N   UNL A   1      40.168  30.695  31.841  1.00  0.00    -0.248 NA
ATOM     48  C   UNL A   1      39.804  29.922  29.668  1.00  0.00     0.031 C 
ATOM     49  C   UNL A   1      43.601  27.836  32.211  1.00  0.00     0.029 A 
ATOM     50  N   UNL A   1      42.400  29.399  33.269  1.00  0.00    -0.354 N 
ATOM     51  C   UNL A   1      39.060  31.337  31.299  1.00  0.00     0.074 A 
ATOM     52  C   UNL A   1      38.897  30.846  29.949  1.00  0.00     0.031 C 
ATOM     53  C   UNL A   1      44.107  27.970  33.450  1.00  0.00     0.029 A 
ATOM     54  C   UNL A   1      43.373  29.017  34.161  1.00  0.00     0.049 A 
ATOM     55  H   UNL A   1      41.705  30.064  33.483  1.00  0.00     0.167 HD
ATOM     56  C   UNL A   1      38.248  32.250  31.877  1.00  0.00     0.037 A 
ATOM     57  C   UNL A   1      43.650  29.480  35.398  1.00  0.00     0.037 A 
ATOM     58  C   UNL A   1      38.427  32.750  33.213  1.00  0.00     0.049 A 
ATOM     59  C   UNL A   1      42.789  30.572  35.986  1.00  0.00     0.074 A 
ATOM     60  C   UNL A   1      37.658  33.678  33.893  1.00  0.00     0.029 A 
ATOM     61  N   UNL A   1      39.451  32.373  34.070  1.00  0.00    -0.354 N 
ATOM     62  N   UNL A   1      41.734  31.160  35.471  1.00  0.00    -0.248 NA
ATOM     63  C   UNL A   1      43.156  31.064  37.322  1.00  0.00     0.031 C 
ATOM     64  C   UNL A   1      38.250  33.904  35.138  1.00  0.00     0.029 A 
ATOM     65  C   UNL A   1      39.351  33.071  35.260  1.00  0.00     0.049 A 
ATOM     66  H   UNL A   1      40.146  31.707  33.861  1.00  0.00     0.167 HD
ATOM     67  C   UNL A   1      41.297  32.071  36.430  1.00  0.00     0.074 A 
ATOM     68  C   UNL A   1      42.193  31.946  37.560  1.00  0.00     0.031 C 
ATOM     69  C   UNL A   1      40.250  32.931  36.379  1.00  0.00     0.037 A 
BRANCH  56  70
ATOM     70  C   UNL A   1      37.102  32.783  31.065  1.00  0.00     0.058 A 
ATOM     71  C   UNL A   1      37.294  33.765  30.081  1.00  0.00     0.135 A 
ATOM     72  C   UNL A   1      35.808  32.265  31.232  1.00  0.00     0.135 A 
ATOM     73  F   UNL A   1      38.505  34.314  29.898  1.00  0.00    -0.206 F 
ATOM     74  C   UNL A   1      36.241  34.219  29.294  1.00  0.00     0.059 A 
ATOM     75  C   UNL A   1      34.746  32.683  30.438  1.00  0.00     0.059 A 
ATOM     76  F   UNL A   1      35.570  31.332  32.168  1.00  0.00    -0.206 F 
ATOM     77  C   UNL A   1      34.972  33.665  29.474  1.00  0.00     0.060 A 
BRANCH  77  78
ATOM     78  S   UNL A   1      33.627  34.240  28.416  1.00  0.00     0.124 S 
ATOM     79  O   UNL A   1      34.291  35.283  27.641  1.00  0.00    -0.237 OA
ATOM     80  O   UNL A   1      33.275  33.030  27.681  1.00  0.00    -0.237 OA
ATOM     81  O   UNL A   1      32.624  34.710  29.366  1.00  0.00    -0.744 OA
ENDBRANCH  77  78
ENDBRANCH  56  70
BRANCH  57  82
ATOM     82  C   UNL A   1      44.796  28.921  36.166  1.00  0.00     0.058 A 
ATOM     83  C   UNL A   1      44.621  27.844  37.047  1.00  0.00     0.135 A 
ATOM     84  C   UNL A   1      46.090  29.453  36.038  1.00  0.00     0.135 A 
ATOM     85  F   UNL A   1      43.402  27.310  37.219  1.00  0.00    -0.206 F 
ATOM     86  C   UNL A   1      45.681  27.320  37.780  1.00  0.00     0.059 A 
ATOM     87  C   UNL A   1      47.171  28.928  36.739  1.00  0.00     0.059 A 
ATOM     88  F   UNL A   1      46.314  30.481  35.205  1.00  0.00    -0.206 F 
ATOM     89  C   UNL A   1      46.955  27.866  37.615  1.00  0.00     0.060 A 
BRANCH  89  90
ATOM     90  S   UNL A   1      48.331  27.142  38.535  1.00  0.00     0.124 S 
ATOM     91  O   UNL A   1      49.422  27.259  37.575  1.00  0.00    -0.237 OA
ATOM     92  O   UNL A   1      48.407  28.016  39.701  1.00  0.00    -0.237 OA
ATOM     93  O   UNL A   1      47.874  25.782  38.807  1.00  0.00    -0.744 OA
ENDBRANCH  89  90
ENDBRANCH  57  82
BRANCH  69  94
ATOM     94  C   UNL A   1      39.987  33.794  37.585  1.00  0.00     0.058 A 
ATOM     95  C   UNL A   1      40.632  35.028  37.763  1.00  0.00     0.135 A 
ATOM     96  C   UNL A   1      39.013  33.423  38.527  1.00  0.00     0.135 A 
ATOM     97  F   UNL A   1      41.573  35.430  36.894  1.00  0.00    -0.206 F 
ATOM     98  C   UNL A   1      40.335  35.854  38.842  1.00  0.00     0.059 A 
ATOM     99  C   UNL A   1      38.676  34.248  39.595  1.00  0.00     0.059 A 
ATOM    100  F   UNL A   1      38.353  32.260  38.397  1.00  0.00    -0.206 F 
ATOM    101  C   UNL A   1      39.349  35.459  39.749  1.00  0.00     0.060 A 
BRANCH 101 102
ATOM    102  S   UNL A   1      38.946  36.564  41.119  1.00  0.00     0.124 S 
ATOM    103  O   UNL A   1      40.270  36.872  41.649  1.00  0.00    -0.237 OA
ATOM    104  O   UNL A   1      38.264  37.661  40.441  1.00  0.00    -0.237 OA
ATOM    105  O   UNL A   1      38.101  35.744  41.982  1.00  0.00    -0.744 OA
ENDBRANCH 101 102
ENDBRANCH  69  94
ENDBRANCH  43  44
ENDBRANCH  36  38
ENDBRANCH  35  36
ENDBRANCH  34  35
ENDBRANCH  33  34
ENDBRANCH  32  33
ENDBRANCH  31  32
ENDBRANCH   1  31
TORSDOF 26
ENDMDL
MODEL 2
REMARK VINA RESULT:      -9.0      6.576     12.288
REMARK SMILES Cc1cc(OC(F)(F)F)cc2c1O[C@H](C(F)(F)F)C(C(=O)OCCOCCOCCOCCOC(=O)c1ccc(-c3c4nc(c(-c5c(F)cc(S(=O)(=O)[O-])cc5F)c5ccc([nH]5)c(-c5c(F)cc(S(=O)(=O)[O-])cc5F)c5nc(c(-c6c(F)cc(S(=O)(=O)[O-])cc6F)c6ccc3[nH]6)C=C5)C=C4)cc1)=C2
REMARK SMILES IDX 29 1 28 2 27 3 26 4 25 5 24 6 23 7 22 8 20 9 21 10 19 11
REMARK SMILES IDX 1 12 2 13 3 14 12 15 4 16 11 17 13 18 10 19 103 20 14 21
REMARK SMILES IDX 5 22 6 23 7 24 8 25 9 26 15 27 16 28 17 29 18 30 30 31 31 32
REMARK SMILES IDX 32 33 33 34 34 35 35 36 36 37 37 38 38 39 102 40 39 41
REMARK SMILES IDX 101 42 40 43 41 44 42 45 95 46 43 47 100 48 94 49 96 50
REMARK SMILES IDX 44 51 99 52 93 53 92 54 45 56 79 57 58 58 78 59 59 60 62 61
REMARK SMILES IDX 77 62 97 63 60 64 61 65 76 67 98 68 63 69 46 70 47 71 56 72
REMARK SMILES IDX 48 73 49 74 55 75 57 76 50 77 51 78 52 79 53 80 54 81 80 82
REMARK SMILES IDX 81 83 90 84 82 85 83 86 89 87 91 88 84 89 85 90 86 91 87 92
REMARK SMILES IDX 88 93 64 94 65 95 74 96 66 97 67 98 73 99 75 100 68 101
REMARK SMILES IDX 69 102 70 103 71 104 72 105
REMARK H PARENT 96 55 62 66
REMARK Flexibility Score: inf
ROOT
ATOM      1  C   UNL A   1      31.735  28.941  25.798  1.00  0.00     0.188 C 
ENDROOT
BRANCH   1   2
ATOM      2  O   UNL A   1      30.770  28.869  24.750  1.00  0.00    -0.377 OA
BRANCH   2   3
ATOM      3  C   UNL A   1      30.395  30.086  24.128  1.00  0.00     0.188 C 
BRANCH   3   4
ATOM      4  C   UNL A   1      30.054  29.913  22.635  1.00  0.00     0.188 C 
BRANCH   4   5
ATOM      5  O   UNL A   1      29.931  28.579  22.185  1.00  0.00    -0.376 OA
BRANCH   5   6
ATOM      6  C   UNL A   1      31.011  27.843  21.632  1.00  0.00     0.202 C 
BRANCH   6   7
ATOM      7  C   UNL A   1      31.527  26.461  22.082  1.00  0.00     0.261 C 
BRANCH   7   8
ATOM      8  O   UNL A   1      31.132  25.981  23.363  1.00  0.00    -0.460 OA
BRANCH   8   9
ATOM      9  C   UNL A   1      30.557  24.769  23.420  1.00  0.00     0.338 C 
ATOM     10  O   UNL A   1      29.523  24.419  22.880  1.00  0.00    -0.246 OA
BRANCH   9  11
ATOM     11  C   UNL A   1      31.504  23.864  24.105  1.00  0.00     0.087 C 
ATOM     12  C   UNL A   1      34.560  21.517  27.451  1.00  0.00     0.048 C 
ATOM     13  C   UNL A   1      33.997  21.179  26.097  1.00  0.00    -0.005 A 
ATOM     14  C   UNL A   1      34.200  19.902  25.547  1.00  0.00     0.054 A 
ATOM     15  C   UNL A   1      33.239  22.123  25.388  1.00  0.00     0.131 A 
ATOM     16  C   UNL A   1      33.668  19.572  24.299  1.00  0.00     0.130 A 
ATOM     17  C   UNL A   1      32.668  21.781  24.161  1.00  0.00     0.021 A 
ATOM     18  O   UNL A   1      33.093  23.354  25.961  1.00  0.00    -0.475 OA
ATOM     19  C   UNL A   1      32.916  20.522  23.605  1.00  0.00     0.058 A 
ATOM     20  C   UNL A   1      31.758  22.697  23.502  1.00  0.00     0.027 C 
ATOM     21  C   UNL A   1      32.181  24.320  25.373  1.00  0.00     0.316 C 
BRANCH  16  22
ATOM     22  O   UNL A   1      33.791  18.375  23.653  1.00  0.00    -0.406 OA
BRANCH  22  23
ATOM     23  C   UNL A   1      32.666  17.515  23.647  1.00  0.00     0.573 C 
ATOM     24  F   UNL A   1      31.877  17.738  24.719  1.00  0.00    -0.132 F 
ATOM     25  F   UNL A   1      31.944  17.659  22.515  1.00  0.00    -0.132 F 
ATOM     26  F   UNL A   1      33.101  16.236  23.706  1.00  0.00    -0.132 F 
ENDBRANCH  22  23
ENDBRANCH  16  22
BRANCH  21  27
ATOM     27  C   UNL A   1      31.169  24.735  26.448  1.00  0.00     0.430 C 
ATOM     28  F   UNL A   1      31.716  24.686  27.685  1.00  0.00    -0.167 F 
ATOM     29  F   UNL A   1      30.721  25.997  26.262  1.00  0.00    -0.167 F 
ATOM     30  F   UNL A   1      30.088  23.919  26.449  1.00  0.00    -0.167 F 
ENDBRANCH  21  27
ENDBRANCH   9  11
ENDBRANCH   8   9
ENDBRANCH   7   8
ENDBRANCH   6   7
ENDBRANCH   5   6
ENDBRANCH   4   5
ENDBRANCH   3   4
ENDBRANCH   2   3
ENDBRANCH   1   2
BRANCH   1  31
ATOM     31  C   UNL A   1      32.724  30.128  25.884  1.00  0.00     0.188 C 
BRANCH  31  32
ATOM     32  O   UNL A   1      32.489  31.000  26.984  1.00  0.00    -0.376 OA
BRANCH  32  33
ATOM     33  C   UNL A   1      33.609  31.494  27.697  1.00  0.00     0.202 C 
BRANCH  33  34
ATOM     34  C   UNL A   1      34.791  30.529  27.867  1.00  0.00     0.261 C 
BRANCH  34  35
ATOM     35  O   UNL A   1      36.075  31.135  28.067  1.00  0.00    -0.460 OA
BRANCH  35  36
ATOM     36  C   UNL A   1      36.676  30.948  29.262  1.00  0.00     0.338 C 
ATOM     37  O   UNL A   1      36.187  31.112  30.366  1.00  0.00    -0.246 OA
BRANCH  36  38
ATOM     38  C   UNL A   1      37.989  30.327  28.994  1.00  0.00     0.060 A 
ATOM     39  C   UNL A   1      38.936  30.244  30.022  1.00  0.00     0.016 A 
ATOM     40  C   UNL A   1      38.270  29.816  27.725  1.00  0.00     0.016 A 
ATOM     41  C   UNL A   1      40.181  29.666  29.778  1.00  0.00     0.010 A 
ATOM     42  C   UNL A   1      39.530  29.272  27.471  1.00  0.00     0.010 A 
ATOM     43  C   UNL A   1      40.500  29.226  28.487  1.00  0.00    -0.014 A 
BRANCH  43  44
ATOM     44  C   UNL A   1      41.914  28.957  28.133  1.00  0.00     0.031 A 
ATOM     45  C   UNL A   1      42.291  27.538  27.806  1.00  0.00     0.074 A 
ATOM     46  C   UNL A   1      42.835  29.935  28.096  1.00  0.00     0.049 A 
ATOM     47  N   UNL A   1      43.463  27.034  27.528  1.00  0.00    -0.248 NA
ATOM     48  C   UNL A   1      41.192  26.555  27.790  1.00  0.00     0.031 C 
ATOM     49  C   UNL A   1      42.577  31.352  28.344  1.00  0.00     0.029 A 
ATOM     50  N   UNL A   1      44.183  29.877  27.845  1.00  0.00    -0.354 N 
ATOM     51  C   UNL A   1      43.243  25.680  27.298  1.00  0.00     0.074 A 
ATOM     52  C   UNL A   1      41.834  25.433  27.501  1.00  0.00     0.031 C 
ATOM     53  C   UNL A   1      43.736  32.028  28.248  1.00  0.00     0.029 A 
ATOM     54  C   UNL A   1      44.821  31.088  27.964  1.00  0.00     0.049 A 
ATOM     55  H   UNL A   1      44.650  29.044  27.601  1.00  0.00     0.167 HD
ATOM     56  C   UNL A   1      44.137  24.730  26.943  1.00  0.00     0.037 A 
ATOM     57  C   UNL A   1      46.133  31.393  27.878  1.00  0.00     0.037 A 
ATOM     58  C   UNL A   1      45.542  24.978  26.763  1.00  0.00     0.049 A 
ATOM     59  C   UNL A   1      47.126  30.296  27.579  1.00  0.00     0.074 A 
ATOM     60  C   UNL A   1      46.532  24.081  26.404  1.00  0.00     0.029 A 
ATOM     61  N   UNL A   1      46.158  26.208  26.937  1.00  0.00    -0.354 N 
ATOM     62  N   UNL A   1      46.907  29.022  27.347  1.00  0.00    -0.248 NA
ATOM     63  C   UNL A   1      48.546  30.676  27.531  1.00  0.00     0.031 C 
ATOM     64  C   UNL A   1      47.756  24.757  26.418  1.00  0.00     0.029 A 
ATOM     65  C   UNL A   1      47.519  26.088  26.723  1.00  0.00     0.049 A 
ATOM     66  H   UNL A   1      45.695  27.043  27.179  1.00  0.00     0.167 HD
ATOM     67  C   UNL A   1      48.155  28.457  27.100  1.00  0.00     0.074 A 
ATOM     68  C   UNL A   1      49.123  29.529  27.198  1.00  0.00     0.031 C 
ATOM     69  C   UNL A   1      48.470  27.168  26.818  1.00  0.00     0.037 A 
BRANCH  56  70
ATOM     70  C   UNL A   1      43.629  23.330  26.745  1.00  0.00     0.058 A 
ATOM     71  C   UNL A   1      43.538  22.756  25.467  1.00  0.00     0.135 A 
ATOM     72  C   UNL A   1      43.283  22.535  27.848  1.00  0.00     0.135 A 
ATOM     73  F   UNL A   1      43.829  23.482  24.376  1.00  0.00    -0.206 F 
ATOM     74  C   UNL A   1      43.116  21.443  25.290  1.00  0.00     0.059 A 
ATOM     75  C   UNL A   1      42.886  21.210  27.698  1.00  0.00     0.059 A 
ATOM     76  F   UNL A   1      43.342  23.040  29.091  1.00  0.00    -0.206 F 
ATOM     77  C   UNL A   1      42.802  20.675  26.413  1.00  0.00     0.060 A 
BRANCH  77  78
ATOM     78  S   UNL A   1      42.294  18.961  26.164  1.00  0.00     0.124 S 
ATOM     79  O   UNL A   1      42.415  18.420  27.515  1.00  0.00    -0.237 OA
ATOM     80  O   UNL A   1      40.933  19.113  25.662  1.00  0.00    -0.237 OA
ATOM     81  O   UNL A   1      43.265  18.454  25.200  1.00  0.00    -0.744 OA
ENDBRANCH  77  78
ENDBRANCH  56  70
BRANCH  57  82
ATOM     82  C   UNL A   1      46.589  32.795  28.083  1.00  0.00     0.058 A 
ATOM     83  C   UNL A   1      46.597  33.716  27.025  1.00  0.00     0.135 A 
ATOM     84  C   UNL A   1      47.030  33.243  29.339  1.00  0.00     0.135 A 
ATOM     85  F   UNL A   1      46.202  33.333  25.800  1.00  0.00    -0.206 F 
ATOM     86  C   UNL A   1      47.033  35.026  27.199  1.00  0.00     0.059 A 
ATOM     87  C   UNL A   1      47.444  34.556  29.544  1.00  0.00     0.059 A 
ATOM     88  F   UNL A   1      47.039  32.405  30.387  1.00  0.00    -0.206 F 
ATOM     89  C   UNL A   1      47.450  35.438  28.466  1.00  0.00     0.060 A 
BRANCH  89  90
ATOM     90  S   UNL A   1      47.964  37.156  28.688  1.00  0.00     0.124 S 
ATOM     91  O   UNL A   1      48.460  37.489  27.358  1.00  0.00    -0.237 OA
ATOM     92  O   UNL A   1      46.714  37.797  29.083  1.00  0.00    -0.237 OA
ATOM     93  O   UNL A   1      48.977  37.071  29.735  1.00  0.00    -0.744 OA
ENDBRANCH  89  90
ENDBRANCH  57  82
BRANCH  69  94
ATOM     94  C   UNL A   1      49.917  26.836  26.566  1.00  0.00     0.058 A 
ATOM     95  C   UNL A   1      50.749  26.345  27.584  1.00  0.00     0.135 A 
ATOM     96  C   UNL A   1      50.452  26.925  25.270  1.00  0.00     0.135 A 
ATOM     97  F   UNL A   1      50.289  26.241  28.841  1.00  0.00    -0.206 F 
ATOM     98  C   UNL A   1      52.066  25.972  27.331  1.00  0.00     0.059 A 
ATOM     99  C   UNL A   1      51.755  26.528  24.987  1.00  0.00     0.059 A 
ATOM    100  F   UNL A   1      49.696  27.373  24.254  1.00  0.00    -0.206 F 
ATOM    101  C   UNL A   1      52.557  26.061  26.027  1.00  0.00     0.060 A 
BRANCH 101 102
ATOM    102  S   UNL A   1      54.254  25.532  25.708  1.00  0.00     0.124 S 
ATOM    103  O   UNL A   1      55.009  26.421  26.585  1.00  0.00    -0.237 OA
ATOM    104  O   UNL A   1      54.221  24.128  26.107  1.00  0.00    -0.237 OA
ATOM    105  O   UNL A   1      54.424  25.769  24.278  1.00  0.00    -0.744 OA
ENDBRANCH 101 102
ENDBRANCH  69  94
ENDBRANCH  43  44
ENDBRANCH  36  38
ENDBRANCH  35  36
ENDBRANCH  34  35
ENDBRANCH  33  34
ENDBRANCH  32  33
ENDBRANCH  31  32
ENDBRANCH   1  31
TORSDOF 26
ENDMDL
MODEL 3
REMARK VINA RESULT:      -9.0      6.027     10.187
REMARK SMILES Cc1cc(OC(F)(F)F)cc2c1O[C@H](C(F)(F)F)C(C(=O)OCCOCCOCCOCCOC(=O)c1ccc(-c3c4nc(c(-c5c(F)cc(S(=O)(=O)[O-])cc5F)c5ccc([nH]5)c(-c5c(F)cc(S(=O)(=O)[O-])cc5F)c5nc(c(-c6c(F)cc(S(=O)(=O)[O-])cc6F)c6ccc3[nH]6)C=C5)C=C4)cc1)=C2
REMARK SMILES IDX 29 1 28 2 27 3 26 4 25 5 24 6 23 7 22 8 20 9 21 10 19 11
REMARK SMILES IDX 1 12 2 13 3 14 12 15 4 16 11 17 13 18 10 19 103 20 14 21
REMARK SMILES IDX 5 22 6 23 7 24 8 25 9 26 15 27 16 28 17 29 18 30 30 31 31 32
REMARK SMILES IDX 32 33 33 34 34 35 35 36 36 37 37 38 38 39 102 40 39 41
REMARK SMILES IDX 101 42 40 43 41 44 42 45 95 46 43 47 100 48 94 49 96 50
REMARK SMILES IDX 44 51 99 52 93 53 92 54 45 56 79 57 58 58 78 59 59 60 62 61
REMARK SMILES IDX 77 62 97 63 60 64 61 65 76 67 98 68 63 69 46 70 47 71 56 72
REMARK SMILES IDX 48 73 49 74 55 75 57 76 50 77 51 78 52 79 53 80 54 81 80 82
REMARK SMILES IDX 81 83 90 84 82 85 83 86 89 87 91 88 84 89 85 90 86 91 87 92
REMARK SMILES IDX 88 93 64 94 65 95 74 96 66 97 67 98 73 99 75 100 68 101
REMARK SMILES IDX 69 102 70 103 71 104 72 105
REMARK H PARENT 96 55 62 66
REMARK Flexibility Score: inf
ROOT
ATOM      1  C   UNL A   1      32.284  29.096  27.015  1.00  0.00     0.188 C 
ENDROOT
BRANCH   1   2
ATOM      2  O   UNL A   1      31.414  28.523  26.040  1.00  0.00    -0.377 OA
BRANCH   2   3
ATOM      3  C   UNL A   1      31.749  28.718  24.676  1.00  0.00     0.188 C 
BRANCH   3   4
ATOM      4  C   UNL A   1      30.519  28.673  23.749  1.00  0.00     0.188 C 
BRANCH   4   5
ATOM      5  O   UNL A   1      30.216  27.411  23.191  1.00  0.00    -0.376 OA
BRANCH   5   6
ATOM      6  C   UNL A   1      30.662  26.186  23.754  1.00  0.00     0.202 C 
BRANCH   6   7
ATOM      7  C   UNL A   1      30.998  24.882  23.003  1.00  0.00     0.261 C 
BRANCH   7   8
ATOM      8  O   UNL A   1      30.609  23.647  23.594  1.00  0.00    -0.460 OA
BRANCH   8   9
ATOM      9  C   UNL A   1      31.009  23.410  24.854  1.00  0.00     0.338 C 
ATOM     10  O   UNL A   1      30.392  23.649  25.878  1.00  0.00    -0.246 OA
BRANCH   9  11
ATOM     11  C   UNL A   1      32.261  22.628  24.781  1.00  0.00     0.087 C 
ATOM     12  C   UNL A   1      37.084  20.979  25.031  1.00  0.00     0.048 C 
ATOM     13  C   UNL A   1      35.746  20.338  24.782  1.00  0.00    -0.005 A 
ATOM     14  C   UNL A   1      35.642  18.940  24.676  1.00  0.00     0.054 A 
ATOM     15  C   UNL A   1      34.588  21.124  24.686  1.00  0.00     0.131 A 
ATOM     16  C   UNL A   1      34.403  18.333  24.462  1.00  0.00     0.130 A 
ATOM     17  C   UNL A   1      33.343  20.517  24.517  1.00  0.00     0.021 A 
ATOM     18  O   UNL A   1      34.752  22.477  24.774  1.00  0.00    -0.475 OA
ATOM     19  C   UNL A   1      33.260  19.130  24.368  1.00  0.00     0.058 A 
ATOM     20  C   UNL A   1      32.132  21.312  24.574  1.00  0.00     0.027 C 
ATOM     21  C   UNL A   1      33.587  23.341  24.859  1.00  0.00     0.316 C 
BRANCH  16  22
ATOM     22  O   UNL A   1      34.165  16.994  24.339  1.00  0.00    -0.406 OA
BRANCH  22  23
ATOM     23  C   UNL A   1      33.420  16.365  25.367  1.00  0.00     0.573 C 
ATOM     24  F   UNL A   1      34.205  15.557  26.111  1.00  0.00    -0.132 F 
ATOM     25  F   UNL A   1      32.818  17.271  26.164  1.00  0.00    -0.132 F 
ATOM     26  F   UNL A   1      32.458  15.604  24.797  1.00  0.00    -0.132 F 
ENDBRANCH  22  23
ENDBRANCH  16  22
BRANCH  21  27
ATOM     27  C   UNL A   1      33.711  24.185  26.134  1.00  0.00     0.430 C 
ATOM     28  F   UNL A   1      35.006  24.463  26.416  1.00  0.00    -0.167 F 
ATOM     29  F   UNL A   1      33.066  25.368  26.024  1.00  0.00    -0.167 F 
ATOM     30  F   UNL A   1      33.193  23.540  27.206  1.00  0.00    -0.167 F 
ENDBRANCH  21  27
ENDBRANCH   9  11
ENDBRANCH   8   9
ENDBRANCH   7   8
ENDBRANCH   6   7
ENDBRANCH   5   6
ENDBRANCH   4   5
ENDBRANCH   3   4
ENDBRANCH   2   3
ENDBRANCH   1   2
BRANCH   1  31
ATOM     31  C   UNL A   1      32.731  30.574  26.905  1.00  0.00     0.188 C 
BRANCH  31  32
ATOM     32  O   UNL A   1      33.859  30.899  27.709  1.00  0.00    -0.376 OA
BRANCH  32  33
ATOM     33  C   UNL A   1      34.967  30.017  27.698  1.00  0.00     0.202 C 
BRANCH  33  34
ATOM     34  C   UNL A   1      35.973  30.168  28.847  1.00  0.00     0.261 C 
BRANCH  34  35
ATOM     35  O   UNL A   1      37.354  30.239  28.470  1.00  0.00    -0.460 OA
BRANCH  35  36
ATOM     36  C   UNL A   1      38.268  29.784  29.354  1.00  0.00     0.338 C 
ATOM     37  O   UNL A   1      38.451  28.628  29.696  1.00  0.00    -0.246 OA
BRANCH  36  38
ATOM     38  C   UNL A   1      39.140  30.924  29.702  1.00  0.00     0.060 A 
ATOM     39  C   UNL A   1      40.477  30.689  30.049  1.00  0.00     0.016 A 
ATOM     40  C   UNL A   1      38.631  32.224  29.669  1.00  0.00     0.016 A 
ATOM     41  C   UNL A   1      41.307  31.758  30.386  1.00  0.00     0.010 A 
ATOM     42  C   UNL A   1      39.452  33.289  30.043  1.00  0.00     0.010 A 
ATOM     43  C   UNL A   1      40.782  33.056  30.434  1.00  0.00    -0.014 A 
BRANCH  43  44
ATOM     44  C   UNL A   1      41.534  34.125  31.132  1.00  0.00     0.031 A 
ATOM     45  C   UNL A   1      41.463  34.157  32.635  1.00  0.00     0.074 A 
ATOM     46  C   UNL A   1      42.261  35.036  30.463  1.00  0.00     0.049 A 
ATOM     47  N   UNL A   1      41.974  35.019  33.472  1.00  0.00    -0.248 NA
ATOM     48  C   UNL A   1      40.711  33.064  33.279  1.00  0.00     0.031 C 
ATOM     49  C   UNL A   1      42.445  35.074  29.013  1.00  0.00     0.029 A 
ATOM     50  N   UNL A   1      42.973  36.115  30.922  1.00  0.00    -0.354 N 
ATOM     51  C   UNL A   1      41.614  34.572  34.738  1.00  0.00     0.074 A 
ATOM     52  C   UNL A   1      40.813  33.381  34.561  1.00  0.00     0.031 C 
ATOM     53  C   UNL A   1      43.208  36.137  28.700  1.00  0.00     0.029 A 
ATOM     54  C   UNL A   1      43.538  36.871  29.922  1.00  0.00     0.049 A 
ATOM     55  H   UNL A   1      43.070  36.330  31.878  1.00  0.00     0.167 HD
ATOM     56  C   UNL A   1      41.928  35.103  35.941  1.00  0.00     0.037 A 
ATOM     57  C   UNL A   1      44.222  38.032  29.990  1.00  0.00     0.037 A 
ATOM     58  C   UNL A   1      42.708  36.299  36.109  1.00  0.00     0.049 A 
ATOM     59  C   UNL A   1      44.476  38.660  31.339  1.00  0.00     0.074 A 
ATOM     60  C   UNL A   1      43.083  36.920  37.288  1.00  0.00     0.029 A 
ATOM     61  N   UNL A   1      43.226  37.060  35.072  1.00  0.00    -0.354 N 
ATOM     62  N   UNL A   1      44.145  38.221  32.531  1.00  0.00    -0.248 NA
ATOM     63  C   UNL A   1      45.195  39.943  31.353  1.00  0.00     0.031 C 
ATOM     64  C   UNL A   1      43.777  38.088  36.961  1.00  0.00     0.029 A 
ATOM     65  C   UNL A   1      43.890  38.162  35.582  1.00  0.00     0.049 A 
ATOM     66  H   UNL A   1      43.133  36.849  34.115  1.00  0.00     0.167 HD
ATOM     67  C   UNL A   1      44.638  39.157  33.436  1.00  0.00     0.074 A 
ATOM     68  C   UNL A   1      45.301  40.180  32.654  1.00  0.00     0.031 C 
ATOM     69  C   UNL A   1      44.551  39.169  34.789  1.00  0.00     0.037 A 
BRANCH  56  70
ATOM     70  C   UNL A   1      41.415  34.408  37.169  1.00  0.00     0.058 A 
ATOM     71  C   UNL A   1      42.178  33.438  37.838  1.00  0.00     0.135 A 
ATOM     72  C   UNL A   1      40.169  34.754  37.715  1.00  0.00     0.135 A 
ATOM     73  F   UNL A   1      43.364  33.049  37.343  1.00  0.00    -0.206 F 
ATOM     74  C   UNL A   1      41.722  32.833  39.005  1.00  0.00     0.059 A 
ATOM     75  C   UNL A   1      39.705  34.183  38.896  1.00  0.00     0.059 A 
ATOM     76  F   UNL A   1      39.395  35.667  37.107  1.00  0.00    -0.206 F 
ATOM     77  C   UNL A   1      40.488  33.220  39.530  1.00  0.00     0.060 A 
BRANCH  77  78
ATOM     78  S   UNL A   1      39.932  32.451  41.066  1.00  0.00     0.124 S 
ATOM     79  O   UNL A   1      39.856  33.603  41.959  1.00  0.00    -0.237 OA
ATOM     80  O   UNL A   1      38.653  31.868  40.673  1.00  0.00    -0.237 OA
ATOM     81  O   UNL A   1      40.990  31.493  41.370  1.00  0.00    -0.744 OA
ENDBRANCH  77  78
ENDBRANCH  56  70
BRANCH  57  82
ATOM     82  C   UNL A   1      44.712  38.684  28.744  1.00  0.00     0.058 A 
ATOM     83  C   UNL A   1      43.905  39.584  28.033  1.00  0.00     0.135 A 
ATOM     84  C   UNL A   1      45.994  38.418  28.237  1.00  0.00     0.135 A 
ATOM     85  F   UNL A   1      42.665  39.859  28.466  1.00  0.00    -0.206 F 
ATOM     86  C   UNL A   1      44.346  40.191  26.861  1.00  0.00     0.059 A 
ATOM     87  C   UNL A   1      46.468  39.034  27.082  1.00  0.00     0.059 A 
ATOM     88  F   UNL A   1      46.809  37.568  28.880  1.00  0.00    -0.206 F 
ATOM     89  C   UNL A   1      45.632  39.914  26.396  1.00  0.00     0.060 A 
BRANCH  89  90
ATOM     90  S   UNL A   1      46.208  40.749  24.901  1.00  0.00     0.124 S 
ATOM     91  O   UNL A   1      47.167  41.703  25.447  1.00  0.00    -0.237 OA
ATOM     92  O   UNL A   1      46.772  39.642  24.135  1.00  0.00    -0.237 OA
ATOM     93  O   UNL A   1      44.988  41.329  24.349  1.00  0.00    -0.744 OA
ENDBRANCH  89  90
ENDBRANCH  57  82
BRANCH  69  94
ATOM     94  C   UNL A   1      45.206  40.306  35.528  1.00  0.00     0.058 A 
ATOM     95  C   UNL A   1      44.544  41.525  35.742  1.00  0.00     0.135 A 
ATOM     96  C   UNL A   1      46.476  40.141  36.105  1.00  0.00     0.135 A 
ATOM     97  F   UNL A   1      43.329  41.736  35.212  1.00  0.00    -0.206 F 
ATOM     98  C   UNL A   1      45.125  42.547  36.486  1.00  0.00     0.059 A 
ATOM     99  C   UNL A   1      47.063  41.138  36.879  1.00  0.00     0.059 A 
ATOM    100  F   UNL A   1      47.149  38.990  35.945  1.00  0.00    -0.206 F 
ATOM    101  C   UNL A   1      46.383  42.341  37.057  1.00  0.00     0.060 A 
BRANCH 101 102
ATOM    102  S   UNL A   1      47.103  43.662  38.055  1.00  0.00     0.124 S 
ATOM    103  O   UNL A   1      48.529  43.477  37.804  1.00  0.00    -0.237 OA
ATOM    104  O   UNL A   1      46.506  44.856  37.465  1.00  0.00    -0.237 OA
ATOM    105  O   UNL A   1      46.659  43.348  39.409  1.00  0.00    -0.744 OA
ENDBRANCH 101 102
ENDBRANCH  69  94
ENDBRANCH  43  44
ENDBRANCH  36  38
ENDBRANCH  35  36
ENDBRANCH  34  35
ENDBRANCH  33  34
ENDBRANCH  32  33
ENDBRANCH  31  32
ENDBRANCH   1  31
TORSDOF 26
ENDMDL
