MODEL 1
REMARK VINA RESULT:     -10.1      0.000      0.000
REMARK SMILES CC(C)n1c([C@H](O)CC(=O)OCCOCCOCCOCCOC(=O)c2ccc(-c3c4nc(c(-c5c(F)cc(S(=O)(=O)[O-])cc5F)c5ccc([nH]5)c(-c5c(F)cc(S(=O)(=O)[O-])cc5F)c5nc(c(-c6c(F)cc(S(=O)(=O)[O-])cc6F)c6ccc3[nH]6)C=C5)C=C4)cc2)nc2cc(Cl)ccc21
REMARK SMILES IDX 17 1 16 2 15 3 14 4 13 5 12 6 11 7 9 8 10 9 8 10 6 11 5 12
REMARK SMILES IDX 4 13 99 14 92 15 93 16 98 17 94 18 97 19 95 20 96 21 2 22
REMARK SMILES IDX 1 23 3 24 7 25 18 27 19 28 20 29 21 30 22 31 23 32 24 33
REMARK SMILES IDX 25 34 26 35 27 36 91 37 28 38 90 39 29 40 30 41 31 42 84 43
REMARK SMILES IDX 32 44 89 45 83 46 85 47 33 48 88 49 82 50 81 51 34 53 68 54
REMARK SMILES IDX 47 55 67 56 48 57 51 58 66 59 86 60 49 61 50 62 65 64 87 65
REMARK SMILES IDX 52 66 35 67 36 68 45 69 37 70 38 71 44 72 46 73 39 74 40 75
REMARK SMILES IDX 41 76 42 77 43 78 69 79 70 80 79 81 71 82 72 83 78 84 80 85
REMARK SMILES IDX 73 86 74 87 75 88 76 89 77 90 53 91 54 92 63 93 55 94 56 95
REMARK SMILES IDX 62 96 64 97 57 98 58 99 59 100 60 101 61 102
REMARK H PARENT 7 26 85 52 51 63
REMARK Flexibility Score: inf
ROOT
ATOM      1  O   UNL A   1      30.395  29.755  23.296  1.00  0.00    -0.377 OA
ENDROOT
BRANCH   1   2
ATOM      2  C   UNL A   1      29.408  29.921  22.301  1.00  0.00     0.188 C 
BRANCH   2   3
ATOM      3  C   UNL A   1      27.964  29.599  22.694  1.00  0.00     0.188 C 
BRANCH   3   4
ATOM      4  O   UNL A   1      27.577  28.247  22.719  1.00  0.00    -0.376 OA
BRANCH   4   5
ATOM      5  C   UNL A   1      27.994  27.343  23.735  1.00  0.00     0.202 C 
BRANCH   5   6
ATOM      6  C   UNL A   1      29.212  26.398  23.734  1.00  0.00     0.261 C 
BRANCH   6   7
ATOM      7  O   UNL A   1      29.759  25.989  24.988  1.00  0.00    -0.463 OA
BRANCH   7   8
ATOM      8  C   UNL A   1      30.961  25.362  24.903  1.00  0.00     0.308 C 
ATOM      9  O   UNL A   1      32.043  25.931  25.009  1.00  0.00    -0.252 OA
BRANCH   8  10
ATOM     10  C   UNL A   1      30.851  23.864  24.806  1.00  0.00     0.162 C 
BRANCH  10  11
ATOM     11  C   UNL A   1      31.171  23.241  23.444  1.00  0.00     0.191 C 
BRANCH  11  12
ATOM     12  C   UNL A   1      32.083  22.042  23.610  1.00  0.00     0.139 A 
ATOM     13  N   UNL A   1      33.322  21.996  24.236  1.00  0.00    -0.323 N 
ATOM     14  C   UNL A   1      33.703  20.659  24.294  1.00  0.00     0.069 A 
ATOM     15  N   UNL A   1      31.792  20.853  23.102  1.00  0.00    -0.230 NA
ATOM     16  C   UNL A   1      32.738  19.990  23.555  1.00  0.00     0.090 A 
ATOM     17  C   UNL A   1      34.773  19.983  24.900  1.00  0.00     0.030 A 
ATOM     18  C   UNL A   1      32.817  18.603  23.371  1.00  0.00     0.051 A 
ATOM     19  C   UNL A   1      34.831  18.594  24.731  1.00  0.00     0.023 A 
ATOM     20  C   UNL A   1      33.871  17.920  23.975  1.00  0.00     0.043 A 
ATOM     21  Cl  UNL A   1      33.983  16.209  23.794  1.00  0.00    -0.084 Cl
BRANCH  13  22
ATOM     22  C   UNL A   1      34.177  23.085  24.706  1.00  0.00     0.083 C 
ATOM     23  C   UNL A   1      34.376  23.132  26.223  1.00  0.00     0.031 C 
ATOM     24  C   UNL A   1      35.473  23.252  23.913  1.00  0.00     0.031 C 
ENDBRANCH  13  22
ENDBRANCH  11  12
BRANCH  11  25
ATOM     25  O   UNL A   1      31.830  24.184  22.610  1.00  0.00    -0.385 OA
ATOM     26  H   UNL A   1      31.178  24.803  22.245  1.00  0.00     0.211 HD
ENDBRANCH  11  25
ENDBRANCH  10  11
ENDBRANCH   8  10
ENDBRANCH   7   8
ENDBRANCH   6   7
ENDBRANCH   5   6
ENDBRANCH   4   5
ENDBRANCH   3   4
ENDBRANCH   2   3
ENDBRANCH   1   2
BRANCH   1  27
ATOM     27  C   UNL A   1      31.582  29.036  22.999  1.00  0.00     0.188 C 
BRANCH  27  28
ATOM     28  C   UNL A   1      32.766  29.048  23.980  1.00  0.00     0.188 C 
BRANCH  28  29
ATOM     29  O   UNL A   1      32.358  29.100  25.343  1.00  0.00    -0.376 OA
BRANCH  29  30
ATOM     30  C   UNL A   1      32.165  30.389  25.911  1.00  0.00     0.202 C 
BRANCH  30  31
ATOM     31  C   UNL A   1      32.735  30.572  27.324  1.00  0.00     0.261 C 
BRANCH  31  32
ATOM     32  O   UNL A   1      34.167  30.691  27.349  1.00  0.00    -0.460 OA
BRANCH  32  33
ATOM     33  C   UNL A   1      34.716  31.604  28.192  1.00  0.00     0.338 C 
ATOM     34  O   UNL A   1      34.163  32.555  28.689  1.00  0.00    -0.246 OA
BRANCH  33  35
ATOM     35  C   UNL A   1      35.988  30.986  28.663  1.00  0.00     0.060 A 
ATOM     36  C   UNL A   1      37.053  31.771  29.116  1.00  0.00     0.016 A 
ATOM     37  C   UNL A   1      36.186  29.634  28.349  1.00  0.00     0.016 A 
ATOM     38  C   UNL A   1      38.335  31.228  29.138  1.00  0.00     0.010 A 
ATOM     39  C   UNL A   1      37.474  29.097  28.363  1.00  0.00     0.010 A 
ATOM     40  C   UNL A   1      38.557  29.904  28.720  1.00  0.00    -0.014 A 
BRANCH  40  41
ATOM     41  C   UNL A   1      39.914  29.361  28.890  1.00  0.00     0.031 A 
ATOM     42  C   UNL A   1      40.351  29.328  30.315  1.00  0.00     0.074 A 
ATOM     43  C   UNL A   1      40.690  28.774  27.955  1.00  0.00     0.049 A 
ATOM     44  N   UNL A   1      41.365  29.905  30.870  1.00  0.00    -0.248 NA
ATOM     45  C   UNL A   1      39.452  28.641  31.256  1.00  0.00     0.031 C 
ATOM     46  C   UNL A   1      40.321  28.400  26.591  1.00  0.00     0.029 A 
ATOM     47  N   UNL A   1      41.971  28.296  28.071  1.00  0.00    -0.354 N 
ATOM     48  C   UNL A   1      41.342  29.495  32.202  1.00  0.00     0.074 A 
ATOM     49  C   UNL A   1      40.069  28.859  32.414  1.00  0.00     0.031 C 
ATOM     50  C   UNL A   1      41.288  27.614  26.066  1.00  0.00     0.029 A 
ATOM     51  C   UNL A   1      42.371  27.468  27.026  1.00  0.00     0.049 A 
ATOM     52  H   UNL A   1      42.559  28.520  28.829  1.00  0.00     0.167 HD
ATOM     53  C   UNL A   1      42.451  29.509  32.989  1.00  0.00     0.037 A 
ATOM     54  C   UNL A   1      43.457  26.650  26.984  1.00  0.00     0.037 A 
ATOM     55  C   UNL A   1      43.453  30.410  32.489  1.00  0.00     0.049 A 
ATOM     56  C   UNL A   1      44.428  27.134  28.000  1.00  0.00     0.074 A 
ATOM     57  C   UNL A   1      43.484  31.761  32.198  1.00  0.00     0.029 A 
ATOM     58  N   UNL A   1      44.584  29.885  31.913  1.00  0.00    -0.354 N 
ATOM     59  N   UNL A   1      45.088  28.257  27.921  1.00  0.00    -0.248 NA
ATOM     60  C   UNL A   1      44.395  26.526  29.322  1.00  0.00     0.031 C 
ATOM     61  C   UNL A   1      44.353  31.882  31.075  1.00  0.00     0.029 A 
ATOM     62  C   UNL A   1      44.818  30.603  30.769  1.00  0.00     0.049 A 
ATOM     63  H   UNL A   1      45.123  29.136  32.255  1.00  0.00     0.167 HD
ATOM     64  C   UNL A   1      45.198  28.699  29.231  1.00  0.00     0.074 A 
ATOM     65  C   UNL A   1      44.849  27.545  30.052  1.00  0.00     0.031 C 
ATOM     66  C   UNL A   1      45.297  30.027  29.529  1.00  0.00     0.037 A 
BRANCH  53  67
ATOM     67  C   UNL A   1      42.741  28.451  34.029  1.00  0.00     0.058 A 
ATOM     68  C   UNL A   1      42.866  28.820  35.383  1.00  0.00     0.135 A 
ATOM     69  C   UNL A   1      43.175  27.141  33.714  1.00  0.00     0.135 A 
ATOM     70  F   UNL A   1      42.494  30.043  35.795  1.00  0.00    -0.206 F 
ATOM     71  C   UNL A   1      43.454  27.986  36.334  1.00  0.00     0.059 A 
ATOM     72  C   UNL A   1      43.706  26.271  34.658  1.00  0.00     0.059 A 
ATOM     73  F   UNL A   1      43.204  26.676  32.459  1.00  0.00    -0.206 F 
ATOM     74  C   UNL A   1      43.890  26.720  35.953  1.00  0.00     0.060 A 
BRANCH  74  75
ATOM     75  S   UNL A   1      44.785  25.697  37.134  1.00  0.00     0.124 S 
ATOM     76  O   UNL A   1      44.179  24.392  36.896  1.00  0.00    -0.237 OA
ATOM     77  O   UNL A   1      46.165  25.854  36.686  1.00  0.00    -0.237 OA
ATOM     78  O   UNL A   1      44.473  26.316  38.418  1.00  0.00    -0.744 OA
ENDBRANCH  74  75
ENDBRANCH  53  67
BRANCH  54  79
ATOM     79  C   UNL A   1      43.583  25.311  26.331  1.00  0.00     0.058 A 
ATOM     80  C   UNL A   1      44.485  25.085  25.271  1.00  0.00     0.135 A 
ATOM     81  C   UNL A   1      43.011  24.152  26.896  1.00  0.00     0.135 A 
ATOM     82  F   UNL A   1      45.108  26.116  24.680  1.00  0.00    -0.206 F 
ATOM     83  C   UNL A   1      44.830  23.796  24.838  1.00  0.00     0.059 A 
ATOM     84  C   UNL A   1      43.317  22.864  26.465  1.00  0.00     0.059 A 
ATOM     85  F   UNL A   1      42.202  24.221  27.963  1.00  0.00    -0.206 F 
ATOM     86  C   UNL A   1      44.252  22.688  25.456  1.00  0.00     0.060 A 
BRANCH  86  87
ATOM     87  S   UNL A   1      44.816  21.022  25.040  1.00  0.00     0.124 S 
ATOM     88  O   UNL A   1      46.173  21.018  25.573  1.00  0.00    -0.237 OA
ATOM     89  O   UNL A   1      43.850  20.187  25.745  1.00  0.00    -0.237 OA
ATOM     90  O   UNL A   1      44.719  20.985  23.582  1.00  0.00    -0.744 OA
ENDBRANCH  86  87
ENDBRANCH  54  79
BRANCH  66  91
ATOM     91  C   UNL A   1      45.634  31.000  28.430  1.00  0.00     0.058 A 
ATOM     92  C   UNL A   1      44.689  31.526  27.530  1.00  0.00     0.135 A 
ATOM     93  C   UNL A   1      46.916  31.578  28.425  1.00  0.00     0.135 A 
ATOM     94  F   UNL A   1      43.416  31.108  27.534  1.00  0.00    -0.206 F 
ATOM     95  C   UNL A   1      45.011  32.570  26.663  1.00  0.00     0.059 A 
ATOM     96  C   UNL A   1      47.243  32.649  27.597  1.00  0.00     0.059 A 
ATOM     97  F   UNL A   1      47.847  31.152  29.295  1.00  0.00    -0.206 F 
ATOM     98  C   UNL A   1      46.280  33.143  26.723  1.00  0.00     0.060 A 
BRANCH  98  99
ATOM     99  S   UNL A   1      46.598  34.632  25.751  1.00  0.00     0.124 S 
ATOM    100  O   UNL A   1      46.338  35.689  26.721  1.00  0.00    -0.237 OA
ATOM    101  O   UNL A   1      47.995  34.448  25.360  1.00  0.00    -0.237 OA
ATOM    102  O   UNL A   1      45.634  34.535  24.658  1.00  0.00    -0.744 OA
ENDBRANCH  98  99
ENDBRANCH  66  91
ENDBRANCH  40  41
ENDBRANCH  33  35
ENDBRANCH  32  33
ENDBRANCH  31  32
ENDBRANCH  30  31
ENDBRANCH  29  30
ENDBRANCH  28  29
ENDBRANCH  27  28
ENDBRANCH   1  27
TORSDOF 27
ENDMDL
MODEL 2
REMARK VINA RESULT:     -10.0      1.455      2.204
REMARK SMILES CC(C)n1c([C@H](O)CC(=O)OCCOCCOCCOCCOC(=O)c2ccc(-c3c4nc(c(-c5c(F)cc(S(=O)(=O)[O-])cc5F)c5ccc([nH]5)c(-c5c(F)cc(S(=O)(=O)[O-])cc5F)c5nc(c(-c6c(F)cc(S(=O)(=O)[O-])cc6F)c6ccc3[nH]6)C=C5)C=C4)cc2)nc2cc(Cl)ccc21
REMARK SMILES IDX 17 1 16 2 15 3 14 4 13 5 12 6 11 7 9 8 10 9 8 10 6 11 5 12
REMARK SMILES IDX 4 13 99 14 92 15 93 16 98 17 94 18 97 19 95 20 96 21 2 22
REMARK SMILES IDX 1 23 3 24 7 25 18 27 19 28 20 29 21 30 22 31 23 32 24 33
REMARK SMILES IDX 25 34 26 35 27 36 91 37 28 38 90 39 29 40 30 41 31 42 84 43
REMARK SMILES IDX 32 44 89 45 83 46 85 47 33 48 88 49 82 50 81 51 34 53 68 54
REMARK SMILES IDX 47 55 67 56 48 57 51 58 66 59 86 60 49 61 50 62 65 64 87 65
REMARK SMILES IDX 52 66 35 67 36 68 45 69 37 70 38 71 44 72 46 73 39 74 40 75
REMARK SMILES IDX 41 76 42 77 43 78 69 79 70 80 79 81 71 82 72 83 78 84 80 85
REMARK SMILES IDX 73 86 74 87 75 88 76 89 77 90 53 91 54 92 63 93 55 94 56 95
REMARK SMILES IDX 62 96 64 97 57 98 58 99 59 100 60 101 61 102
REMARK H PARENT 7 26 85 52 51 63
REMARK Flexibility Score: inf
ROOT
ATOM      1  O   UNL A   1      30.217  29.703  23.365  1.00  0.00    -0.377 OA
ENDROOT
BRANCH   1   2
ATOM      2  C   UNL A   1      29.065  29.778  22.553  1.00  0.00     0.188 C 
BRANCH   2   3
ATOM      3  C   UNL A   1      27.844  28.972  23.004  1.00  0.00     0.188 C 
BRANCH   3   4
ATOM      4  O   UNL A   1      27.910  27.570  22.903  1.00  0.00    -0.376 OA
BRANCH   4   5
ATOM      5  C   UNL A   1      28.370  26.741  23.963  1.00  0.00     0.202 C 
BRANCH   5   6
ATOM      6  C   UNL A   1      29.810  26.278  24.260  1.00  0.00     0.261 C 
BRANCH   6   7
ATOM      7  O   UNL A   1      30.031  25.409  25.371  1.00  0.00    -0.463 OA
BRANCH   7   8
ATOM      8  C   UNL A   1      31.072  25.764  26.169  1.00  0.00     0.308 C 
ATOM      9  O   UNL A   1      31.064  26.734  26.920  1.00  0.00    -0.252 OA
BRANCH   8  10
ATOM     10  C   UNL A   1      32.202  24.771  26.158  1.00  0.00     0.162 C 
BRANCH  10  11
ATOM     11  C   UNL A   1      33.124  24.797  24.934  1.00  0.00     0.191 C 
BRANCH  11  12
ATOM     12  C   UNL A   1      34.312  23.879  25.145  1.00  0.00     0.139 A 
ATOM     13  N   UNL A   1      34.423  22.538  24.801  1.00  0.00    -0.323 N 
ATOM     14  C   UNL A   1      35.743  22.164  25.028  1.00  0.00     0.069 A 
ATOM     15  N   UNL A   1      35.417  24.278  25.759  1.00  0.00    -0.230 NA
ATOM     16  C   UNL A   1      36.316  23.266  25.648  1.00  0.00     0.090 A 
ATOM     17  C   UNL A   1      36.476  20.996  24.766  1.00  0.00     0.030 A 
ATOM     18  C   UNL A   1      37.656  23.236  26.055  1.00  0.00     0.051 A 
ATOM     19  C   UNL A   1      37.822  20.985  25.155  1.00  0.00     0.023 A 
ATOM     20  C   UNL A   1      38.397  22.085  25.792  1.00  0.00     0.043 A 
ATOM     21  Cl  UNL A   1      40.057  22.026  26.253  1.00  0.00    -0.084 Cl
BRANCH  13  22
ATOM     22  C   UNL A   1      33.396  21.596  24.355  1.00  0.00     0.083 C 
ATOM     23  C   UNL A   1      32.404  21.172  25.439  1.00  0.00     0.031 C 
ATOM     24  C   UNL A   1      32.732  21.976  23.031  1.00  0.00     0.031 C 
ENDBRANCH  13  22
ENDBRANCH  11  12
BRANCH  11  25
ATOM     25  O   UNL A   1      33.616  26.110  24.712  1.00  0.00    -0.385 OA
ATOM     26  H   UNL A   1      34.579  26.120  24.830  1.00  0.00     0.211 HD
ENDBRANCH  11  25
ENDBRANCH  10  11
ENDBRANCH   8  10
ENDBRANCH   7   8
ENDBRANCH   6   7
ENDBRANCH   5   6
ENDBRANCH   4   5
ENDBRANCH   3   4
ENDBRANCH   2   3
ENDBRANCH   1   2
BRANCH   1  27
ATOM     27  C   UNL A   1      31.397  29.096  22.863  1.00  0.00     0.188 C 
BRANCH  27  28
ATOM     28  C   UNL A   1      32.717  29.196  23.642  1.00  0.00     0.188 C 
BRANCH  28  29
ATOM     29  O   UNL A   1      32.553  28.994  25.042  1.00  0.00    -0.376 OA
BRANCH  29  30
ATOM     30  C   UNL A   1      32.036  30.083  25.796  1.00  0.00     0.202 C 
BRANCH  30  31
ATOM     31  C   UNL A   1      32.615  30.233  27.209  1.00  0.00     0.261 C 
BRANCH  31  32
ATOM     32  O   UNL A   1      34.011  30.571  27.219  1.00  0.00    -0.460 OA
BRANCH  32  33
ATOM     33  C   UNL A   1      34.435  31.499  28.117  1.00  0.00     0.338 C 
ATOM     34  O   UNL A   1      33.776  32.377  28.617  1.00  0.00    -0.246 OA
BRANCH  33  35
ATOM     35  C   UNL A   1      35.736  30.982  28.628  1.00  0.00     0.060 A 
ATOM     36  C   UNL A   1      36.725  31.847  29.107  1.00  0.00     0.016 A 
ATOM     37  C   UNL A   1      36.046  29.647  28.329  1.00  0.00     0.016 A 
ATOM     38  C   UNL A   1      38.043  31.403  29.170  1.00  0.00     0.010 A 
ATOM     39  C   UNL A   1      37.370  29.210  28.384  1.00  0.00     0.010 A 
ATOM     40  C   UNL A   1      38.378  30.098  28.767  1.00  0.00    -0.014 A 
BRANCH  40  41
ATOM     41  C   UNL A   1      39.766  29.660  28.980  1.00  0.00     0.031 A 
ATOM     42  C   UNL A   1      40.107  29.494  30.422  1.00  0.00     0.074 A 
ATOM     43  C   UNL A   1      40.657  29.261  28.048  1.00  0.00     0.049 A 
ATOM     44  N   UNL A   1      41.020  30.088  31.117  1.00  0.00    -0.248 NA
ATOM     45  C   UNL A   1      39.218  28.622  31.206  1.00  0.00     0.031 C 
ATOM     46  C   UNL A   1      40.419  29.023  26.626  1.00  0.00     0.029 A 
ATOM     47  N   UNL A   1      41.967  28.888  28.209  1.00  0.00    -0.354 N 
ATOM     48  C   UNL A   1      40.948  29.519  32.388  1.00  0.00     0.074 A 
ATOM     49  C   UNL A   1      39.730  28.753  32.426  1.00  0.00     0.031 C 
ATOM     50  C   UNL A   1      41.490  28.396  26.093  1.00  0.00     0.029 A 
ATOM     51  C   UNL A   1      42.515  28.231  27.111  1.00  0.00     0.049 A 
ATOM     52  H   UNL A   1      42.478  29.070  29.031  1.00  0.00     0.167 HD
ATOM     53  C   UNL A   1      41.995  29.537  33.255  1.00  0.00     0.037 A 
ATOM     54  C   UNL A   1      43.676  27.523  27.062  1.00  0.00     0.037 A 
ATOM     55  C   UNL A   1      42.936  30.576  32.941  1.00  0.00     0.049 A 
ATOM     56  C   UNL A   1      44.524  27.964  28.199  1.00  0.00     0.074 A 
ATOM     57  C   UNL A   1      42.856  31.950  32.809  1.00  0.00     0.029 A 
ATOM     58  N   UNL A   1      44.148  30.226  32.400  1.00  0.00    -0.354 N 
ATOM     59  N   UNL A   1      45.076  29.142  28.301  1.00  0.00    -0.248 NA
ATOM     60  C   UNL A   1      44.461  27.201  29.437  1.00  0.00     0.031 C 
ATOM     61  C   UNL A   1      43.782  32.282  31.780  1.00  0.00     0.029 A 
ATOM     62  C   UNL A   1      44.389  31.095  31.367  1.00  0.00     0.049 A 
ATOM     63  H   UNL A   1      44.734  29.492  32.696  1.00  0.00     0.167 HD
ATOM     64  C   UNL A   1      45.054  29.431  29.656  1.00  0.00     0.074 A 
ATOM     65  C   UNL A   1      44.764  28.161  30.311  1.00  0.00     0.031 C 
ATOM     66  C   UNL A   1      45.004  30.717  30.111  1.00  0.00     0.037 A 
BRANCH  53  67
ATOM     67  C   UNL A   1      42.315  28.390  34.188  1.00  0.00     0.058 A 
ATOM     68  C   UNL A   1      42.399  28.623  35.575  1.00  0.00     0.135 A 
ATOM     69  C   UNL A   1      42.814  27.141  33.750  1.00  0.00     0.135 A 
ATOM     70  F   UNL A   1      41.964  29.779  36.102  1.00  0.00    -0.206 F 
ATOM     71  C   UNL A   1      43.009  27.721  36.448  1.00  0.00     0.059 A 
ATOM     72  C   UNL A   1      43.368  26.202  34.611  1.00  0.00     0.059 A 
ATOM     73  F   UNL A   1      42.886  26.810  32.455  1.00  0.00    -0.206 F 
ATOM     74  C   UNL A   1      43.509  26.522  35.949  1.00  0.00     0.060 A 
BRANCH  74  75
ATOM     75  S   UNL A   1      44.429  25.423  37.038  1.00  0.00     0.124 S 
ATOM     76  O   UNL A   1      45.598  26.239  37.345  1.00  0.00    -0.237 OA
ATOM     77  O   UNL A   1      43.485  25.218  38.131  1.00  0.00    -0.237 OA
ATOM     78  O   UNL A   1      44.676  24.252  36.202  1.00  0.00    -0.744 OA
ENDBRANCH  74  75
ENDBRANCH  53  67
BRANCH  54  79
ATOM     79  C   UNL A   1      43.974  26.289  26.272  1.00  0.00     0.058 A 
ATOM     80  C   UNL A   1      45.056  26.230  25.369  1.00  0.00     0.135 A 
ATOM     81  C   UNL A   1      43.368  25.051  26.571  1.00  0.00     0.135 A 
ATOM     82  F   UNL A   1      45.722  27.347  25.037  1.00  0.00    -0.206 F 
ATOM     83  C   UNL A   1      45.529  25.020  24.839  1.00  0.00     0.059 A 
ATOM     84  C   UNL A   1      43.804  23.841  26.037  1.00  0.00     0.059 A 
ATOM     85  F   UNL A   1      42.385  24.955  27.477  1.00  0.00    -0.206 F 
ATOM     86  C   UNL A   1      44.906  23.826  25.196  1.00  0.00     0.060 A 
BRANCH  86  87
ATOM     87  S   UNL A   1      45.610  22.245  24.673  1.00  0.00     0.124 S 
ATOM     88  O   UNL A   1      46.971  22.623  24.312  1.00  0.00    -0.237 OA
ATOM     89  O   UNL A   1      45.469  21.434  25.876  1.00  0.00    -0.237 OA
ATOM     90  O   UNL A   1      44.757  21.847  23.554  1.00  0.00    -0.744 OA
ENDBRANCH  86  87
ENDBRANCH  54  79
BRANCH  66  91
ATOM     91  C   UNL A   1      45.318  31.842  29.159  1.00  0.00     0.058 A 
ATOM     92  C   UNL A   1      46.618  32.304  28.891  1.00  0.00     0.135 A 
ATOM     93  C   UNL A   1      44.284  32.322  28.336  1.00  0.00     0.135 A 
ATOM     94  F   UNL A   1      47.679  31.825  29.557  1.00  0.00    -0.206 F 
ATOM     95  C   UNL A   1      46.873  33.208  27.860  1.00  0.00     0.059 A 
ATOM     96  C   UNL A   1      44.524  33.191  27.274  1.00  0.00     0.059 A 
ATOM     97  F   UNL A   1      43.026  31.880  28.510  1.00  0.00    -0.206 F 
ATOM     98  C   UNL A   1      45.826  33.623  27.040  1.00  0.00     0.060 A 
BRANCH  98  99
ATOM     99  S   UNL A   1      46.217  34.612  25.579  1.00  0.00     0.124 S 
ATOM    100  O   UNL A   1      47.626  34.302  25.371  1.00  0.00    -0.237 OA
ATOM    101  O   UNL A   1      45.286  34.072  24.589  1.00  0.00    -0.237 OA
ATOM    102  O   UNL A   1      45.933  35.978  26.010  1.00  0.00    -0.744 OA
ENDBRANCH  98  99
ENDBRANCH  66  91
ENDBRANCH  40  41
ENDBRANCH  33  35
ENDBRANCH  32  33
ENDBRANCH  31  32
ENDBRANCH  30  31
ENDBRANCH  29  30
ENDBRANCH  28  29
ENDBRANCH  27  28
ENDBRANCH   1  27
TORSDOF 27
ENDMDL
MODEL 3
REMARK VINA RESULT:      -9.0      3.941      9.013
REMARK SMILES CC(C)n1c([C@H](O)CC(=O)OCCOCCOCCOCCOC(=O)c2ccc(-c3c4nc(c(-c5c(F)cc(S(=O)(=O)[O-])cc5F)c5ccc([nH]5)c(-c5c(F)cc(S(=O)(=O)[O-])cc5F)c5nc(c(-c6c(F)cc(S(=O)(=O)[O-])cc6F)c6ccc3[nH]6)C=C5)C=C4)cc2)nc2cc(Cl)ccc21
REMARK SMILES IDX 17 1 16 2 15 3 14 4 13 5 12 6 11 7 9 8 10 9 8 10 6 11 5 12
REMARK SMILES IDX 4 13 99 14 92 15 93 16 98 17 94 18 97 19 95 20 96 21 2 22
REMARK SMILES IDX 1 23 3 24 7 25 18 27 19 28 20 29 21 30 22 31 23 32 24 33
REMARK SMILES IDX 25 34 26 35 27 36 91 37 28 38 90 39 29 40 30 41 31 42 84 43
REMARK SMILES IDX 32 44 89 45 83 46 85 47 33 48 88 49 82 50 81 51 34 53 68 54
REMARK SMILES IDX 47 55 67 56 48 57 51 58 66 59 86 60 49 61 50 62 65 64 87 65
REMARK SMILES IDX 52 66 35 67 36 68 45 69 37 70 38 71 44 72 46 73 39 74 40 75
REMARK SMILES IDX 41 76 42 77 43 78 69 79 70 80 79 81 71 82 72 83 78 84 80 85
REMARK SMILES IDX 73 86 74 87 75 88 76 89 77 90 53 91 54 92 63 93 55 94 56 95
REMARK SMILES IDX 62 96 64 97 57 98 58 99 59 100 60 101 61 102
REMARK H PARENT 7 26 85 52 51 63
REMARK Flexibility Score: inf
ROOT
ATOM      1  O   UNL A   1      30.834  24.496  25.462  1.00  0.00    -0.377 OA
ENDROOT
BRANCH   1   2
ATOM      2  C   UNL A   1      32.058  24.219  24.817  1.00  0.00     0.188 C 
BRANCH   2   3
ATOM      3  C   UNL A   1      32.767  22.918  25.203  1.00  0.00     0.188 C 
BRANCH   3   4
ATOM      4  O   UNL A   1      33.538  22.914  26.380  1.00  0.00    -0.376 OA
BRANCH   4   5
ATOM      5  C   UNL A   1      34.908  23.294  26.406  1.00  0.00     0.202 C 
BRANCH   5   6
ATOM      6  C   UNL A   1      35.709  24.060  25.335  1.00  0.00     0.261 C 
BRANCH   6   7
ATOM      7  O   UNL A   1      37.117  23.841  25.250  1.00  0.00    -0.463 OA
BRANCH   7   8
ATOM      8  C   UNL A   1      37.477  22.550  25.027  1.00  0.00     0.308 C 
ATOM      9  O   UNL A   1      37.002  21.847  24.142  1.00  0.00    -0.252 OA
BRANCH   8  10
ATOM     10  C   UNL A   1      38.627  22.092  25.882  1.00  0.00     0.162 C 
BRANCH  10  11
ATOM     11  C   UNL A   1      39.530  23.188  26.458  1.00  0.00     0.191 C 
BRANCH  11  12
ATOM     12  C   UNL A   1      40.987  22.869  26.191  1.00  0.00     0.139 A 
ATOM     13  N   UNL A   1      41.616  21.632  26.266  1.00  0.00    -0.323 N 
ATOM     14  C   UNL A   1      42.906  21.797  25.771  1.00  0.00     0.069 A 
ATOM     15  N   UNL A   1      41.874  23.805  25.885  1.00  0.00    -0.230 NA
ATOM     16  C   UNL A   1      43.031  23.165  25.573  1.00  0.00     0.090 A 
ATOM     17  C   UNL A   1      43.954  20.907  25.489  1.00  0.00     0.030 A 
ATOM     18  C   UNL A   1      44.233  23.708  25.101  1.00  0.00     0.051 A 
ATOM     19  C   UNL A   1      45.143  21.457  24.994  1.00  0.00     0.023 A 
ATOM     20  C   UNL A   1      45.278  22.834  24.808  1.00  0.00     0.043 A 
ATOM     21  Cl  UNL A   1      46.762  23.465  24.197  1.00  0.00    -0.084 Cl
BRANCH  13  22
ATOM     22  C   UNL A   1      41.130  20.365  26.812  1.00  0.00     0.083 C 
ATOM     23  C   UNL A   1      40.596  19.382  25.769  1.00  0.00     0.031 C 
ATOM     24  C   UNL A   1      42.070  19.723  27.833  1.00  0.00     0.031 C 
ENDBRANCH  13  22
ENDBRANCH  11  12
BRANCH  11  25
ATOM     25  O   UNL A   1      39.352  23.289  27.864  1.00  0.00    -0.385 OA
ATOM     26  H   UNL A   1      39.767  24.105  28.185  1.00  0.00     0.211 HD
ENDBRANCH  11  25
ENDBRANCH  10  11
ENDBRANCH   8  10
ENDBRANCH   7   8
ENDBRANCH   6   7
ENDBRANCH   5   6
ENDBRANCH   4   5
ENDBRANCH   3   4
ENDBRANCH   2   3
ENDBRANCH   1   2
BRANCH   1  27
ATOM     27  C   UNL A   1      30.066  25.621  25.064  1.00  0.00     0.188 C 
BRANCH  27  28
ATOM     28  C   UNL A   1      30.675  26.698  24.152  1.00  0.00     0.188 C 
BRANCH  28  29
ATOM     29  O   UNL A   1      30.512  28.016  24.663  1.00  0.00    -0.376 OA
BRANCH  29  30
ATOM     30  C   UNL A   1      31.237  29.055  24.016  1.00  0.00     0.202 C 
BRANCH  30  31
ATOM     31  C   UNL A   1      32.608  29.374  24.626  1.00  0.00     0.261 C 
BRANCH  31  32
ATOM     32  O   UNL A   1      32.565  29.567  26.050  1.00  0.00    -0.460 OA
BRANCH  32  33
ATOM     33  C   UNL A   1      32.478  30.840  26.518  1.00  0.00     0.338 C 
ATOM     34  O   UNL A   1      31.507  31.555  26.494  1.00  0.00    -0.246 OA
BRANCH  33  35
ATOM     35  C   UNL A   1      33.677  31.020  27.385  1.00  0.00     0.060 A 
ATOM     36  C   UNL A   1      34.222  32.287  27.617  1.00  0.00     0.016 A 
ATOM     37  C   UNL A   1      34.407  29.865  27.701  1.00  0.00     0.016 A 
ATOM     38  C   UNL A   1      35.540  32.389  28.052  1.00  0.00     0.010 A 
ATOM     39  C   UNL A   1      35.731  29.973  28.127  1.00  0.00     0.010 A 
ATOM     40  C   UNL A   1      36.314  31.234  28.267  1.00  0.00    -0.014 A 
BRANCH  40  41
ATOM     41  C   UNL A   1      37.654  31.416  28.845  1.00  0.00     0.031 A 
ATOM     42  C   UNL A   1      38.480  30.177  28.795  1.00  0.00     0.074 A 
ATOM     43  C   UNL A   1      38.231  32.569  29.244  1.00  0.00     0.049 A 
ATOM     44  N   UNL A   1      39.014  29.512  29.767  1.00  0.00    -0.248 NA
ATOM     45  C   UNL A   1      38.625  29.542  27.475  1.00  0.00     0.031 C 
ATOM     46  C   UNL A   1      37.730  33.930  29.063  1.00  0.00     0.029 A 
ATOM     47  N   UNL A   1      39.458  32.767  29.824  1.00  0.00    -0.354 N 
ATOM     48  C   UNL A   1      39.727  28.478  29.163  1.00  0.00     0.074 A 
ATOM     49  C   UNL A   1      39.322  28.452  27.782  1.00  0.00     0.031 C 
ATOM     50  C   UNL A   1      38.707  34.811  29.370  1.00  0.00     0.029 A 
ATOM     51  C   UNL A   1      39.887  34.091  29.821  1.00  0.00     0.049 A 
ATOM     52  H   UNL A   1      39.991  32.034  30.211  1.00  0.00     0.167 HD
ATOM     53  C   UNL A   1      40.763  27.849  29.780  1.00  0.00     0.037 A 
ATOM     54  C   UNL A   1      41.139  34.558  30.078  1.00  0.00     0.037 A 
ATOM     55  C   UNL A   1      40.711  28.003  31.208  1.00  0.00     0.049 A 
ATOM     56  C   UNL A   1      41.865  33.514  30.846  1.00  0.00     0.074 A 
ATOM     57  C   UNL A   1      39.779  27.701  32.182  1.00  0.00     0.029 A 
ATOM     58  N   UNL A   1      41.621  28.834  31.815  1.00  0.00    -0.354 N 
ATOM     59  N   UNL A   1      41.585  33.166  32.073  1.00  0.00    -0.248 NA
ATOM     60  C   UNL A   1      42.692  32.571  30.108  1.00  0.00     0.031 C 
ATOM     61  C   UNL A   1      39.906  28.734  33.155  1.00  0.00     0.029 A 
ATOM     62  C   UNL A   1      40.926  29.585  32.727  1.00  0.00     0.049 A 
ATOM     63  H   UNL A   1      42.587  28.881  31.631  1.00  0.00     0.167 HD
ATOM     64  C   UNL A   1      41.846  31.805  32.126  1.00  0.00     0.074 A 
ATOM     65  C   UNL A   1      42.621  31.519  30.924  1.00  0.00     0.031 C 
ATOM     66  C   UNL A   1      41.182  30.986  32.993  1.00  0.00     0.037 A 
BRANCH  53  67
ATOM     67  C   UNL A   1      41.998  27.376  29.047  1.00  0.00     0.058 A 
ATOM     68  C   UNL A   1      42.257  25.995  28.938  1.00  0.00     0.135 A 
ATOM     69  C   UNL A   1      43.073  28.226  28.693  1.00  0.00     0.135 A 
ATOM     70  F   UNL A   1      41.312  25.095  29.256  1.00  0.00    -0.206 F 
ATOM     71  C   UNL A   1      43.512  25.497  28.587  1.00  0.00     0.059 A 
ATOM     72  C   UNL A   1      44.311  27.750  28.281  1.00  0.00     0.059 A 
ATOM     73  F   UNL A   1      43.012  29.556  28.830  1.00  0.00    -0.206 F 
ATOM     74  C   UNL A   1      44.538  26.386  28.281  1.00  0.00     0.060 A 
BRANCH  74  75
ATOM     75  S   UNL A   1      46.197  25.757  27.976  1.00  0.00     0.124 S 
ATOM     76  O   UNL A   1      45.976  24.318  28.061  1.00  0.00    -0.237 OA
ATOM     77  O   UNL A   1      46.481  26.285  26.646  1.00  0.00    -0.237 OA
ATOM     78  O   UNL A   1      46.982  26.342  29.058  1.00  0.00    -0.744 OA
ENDBRANCH  74  75
ENDBRANCH  53  67
BRANCH  54  79
ATOM     79  C   UNL A   1      41.839  35.721  29.450  1.00  0.00     0.058 A 
ATOM     80  C   UNL A   1      42.865  36.419  30.121  1.00  0.00     0.135 A 
ATOM     81  C   UNL A   1      41.703  36.017  28.078  1.00  0.00     0.135 A 
ATOM     82  F   UNL A   1      43.099  36.192  31.423  1.00  0.00    -0.206 F 
ATOM     83  C   UNL A   1      43.723  37.312  29.462  1.00  0.00     0.059 A 
ATOM     84  C   UNL A   1      42.526  36.920  27.408  1.00  0.00     0.059 A 
ATOM     85  F   UNL A   1      40.823  35.365  27.305  1.00  0.00    -0.206 F 
ATOM     86  C   UNL A   1      43.556  37.541  28.098  1.00  0.00     0.060 A 
BRANCH  86  87
ATOM     87  S   UNL A   1      44.760  38.543  27.194  1.00  0.00     0.124 S 
ATOM     88  O   UNL A   1      45.385  39.308  28.266  1.00  0.00    -0.237 OA
ATOM     89  O   UNL A   1      45.594  37.526  26.564  1.00  0.00    -0.237 OA
ATOM     90  O   UNL A   1      43.932  39.321  26.274  1.00  0.00    -0.744 OA
ENDBRANCH  86  87
ENDBRANCH  54  79
BRANCH  66  91
ATOM     91  C   UNL A   1      40.413  31.598  34.134  1.00  0.00     0.058 A 
ATOM     92  C   UNL A   1      39.084  32.046  34.035  1.00  0.00     0.135 A 
ATOM     93  C   UNL A   1      40.974  31.533  35.422  1.00  0.00     0.135 A 
ATOM     94  F   UNL A   1      38.434  32.045  32.862  1.00  0.00    -0.206 F 
ATOM     95  C   UNL A   1      38.353  32.418  35.163  1.00  0.00     0.059 A 
ATOM     96  C   UNL A   1      40.247  31.859  36.564  1.00  0.00     0.059 A 
ATOM     97  F   UNL A   1      42.223  31.066  35.588  1.00  0.00    -0.206 F 
ATOM     98  C   UNL A   1      38.933  32.295  36.425  1.00  0.00     0.060 A 
BRANCH  98  99
ATOM     99  S   UNL A   1      37.896  32.569  37.878  1.00  0.00     0.124 S 
ATOM    100  O   UNL A   1      36.670  33.088  37.283  1.00  0.00    -0.237 OA
ATOM    101  O   UNL A   1      37.815  31.226  38.451  1.00  0.00    -0.237 OA
ATOM    102  O   UNL A   1      38.664  33.530  38.666  1.00  0.00    -0.744 OA
ENDBRANCH  98  99
ENDBRANCH  66  91
ENDBRANCH  40  41
ENDBRANCH  33  35
ENDBRANCH  32  33
ENDBRANCH  31  32
ENDBRANCH  30  31
ENDBRANCH  29  30
ENDBRANCH  28  29
ENDBRANCH  27  28
ENDBRANCH   1  27
TORSDOF 27
ENDMDL
