MODEL 1
REMARK VINA RESULT:      -6.3      0.000      0.000
REMARK SMILES CCCCN(c1ccccc1C(=O)OCCOCCOCCOCCOC(=O)c1ccc(-c2c3nc(c(-c4c(F)cc(S(=O)(=O)[O-])cc4F)c4ccc([nH]4)c(-c4c(F)cc(S(=O)(=O)[O-])cc4F)c4nc(c(-c5c(F)cc(S(=O)(=O)[O-])cc5F)c5ccc2[nH]5)C=C4)C=C3)cc1)S(=O)(=O)c1ccc2c(c1)oc(=O)n2C
REMARK SMILES IDX 19 1 18 2 17 3 16 4 15 5 14 6 12 7 13 8 11 9 6 10 7 11 8 12
REMARK SMILES IDX 10 13 9 14 5 15 4 16 3 17 2 18 1 19 95 20 96 21 97 22 98 23
REMARK SMILES IDX 99 24 103 25 100 26 102 27 101 28 104 29 107 30 105 31
REMARK SMILES IDX 108 32 106 33 20 34 21 35 22 36 23 37 24 38 25 39 26 40
REMARK SMILES IDX 27 41 28 42 29 43 30 44 94 45 31 46 93 47 32 48 33 49 34 50
REMARK SMILES IDX 87 51 35 52 92 53 86 54 88 55 36 56 91 57 85 58 84 59 37 61
REMARK SMILES IDX 71 62 50 63 70 64 51 65 54 66 69 67 89 68 52 69 53 70 68 72
REMARK SMILES IDX 90 73 55 74 38 75 39 76 48 77 40 78 41 79 47 80 49 81 42 82
REMARK SMILES IDX 43 83 44 84 45 85 46 86 72 87 73 88 82 89 74 90 75 91 81 92
REMARK SMILES IDX 83 93 76 94 77 95 78 96 79 97 80 98 56 99 57 100 66 101
REMARK SMILES IDX 58 102 59 103 65 104 67 105 60 106 61 107 62 108 63 109
REMARK SMILES IDX 64 110
REMARK H PARENT 88 60 54 71
REMARK Flexibility Score: inf
ROOT
ATOM      1  C   UNL A   1      47.041  29.053  39.240  1.00  0.00     0.188 C 
ENDROOT
BRANCH   1   2
ATOM      2  C   UNL A   1      45.712  28.406  38.785  1.00  0.00     0.188 C 
BRANCH   2   3
ATOM      3  O   UNL A   1      45.386  27.141  39.320  1.00  0.00    -0.376 OA
BRANCH   3   4
ATOM      4  C   UNL A   1      46.313  26.347  40.039  1.00  0.00     0.202 C 
BRANCH   4   5
ATOM      5  C   UNL A   1      46.717  24.913  39.679  1.00  0.00     0.261 C 
BRANCH   5   6
ATOM      6  O   UNL A   1      46.049  24.331  38.564  1.00  0.00    -0.460 OA
BRANCH   6   7
ATOM      7  C   UNL A   1      45.976  22.993  38.538  1.00  0.00     0.340 C 
ATOM      8  O   UNL A   1      45.919  22.261  39.516  1.00  0.00    -0.246 OA
BRANCH   7   9
ATOM      9  C   UNL A   1      45.829  22.469  37.156  1.00  0.00     0.084 A 
ATOM     10  C   UNL A   1      46.345  21.256  36.633  1.00  0.00     0.066 A 
ATOM     11  C   UNL A   1      45.694  20.755  35.498  1.00  0.00     0.028 A 
ATOM     12  C   UNL A   1      44.822  21.552  34.736  1.00  0.00     0.002 A 
ATOM     13  C   UNL A   1      44.982  23.279  36.368  1.00  0.00     0.018 A 
ATOM     14  C   UNL A   1      44.530  22.847  35.132  1.00  0.00     0.001 A 
BRANCH  10  15
ATOM     15  N   UNL A   1      47.538  20.583  37.143  1.00  0.00    -0.265 N 
BRANCH  15  16
ATOM     16  C   UNL A   1      47.365  19.221  37.789  1.00  0.00     0.136 C 
BRANCH  16  17
ATOM     17  C   UNL A   1      46.580  19.119  39.105  1.00  0.00     0.022 C 
BRANCH  17  18
ATOM     18  C   UNL A   1      46.485  17.772  39.837  1.00  0.00    -0.002 C 
ATOM     19  C   UNL A   1      45.234  17.557  40.682  1.00  0.00     0.004 C 
ENDBRANCH  17  18
ENDBRANCH  16  17
ENDBRANCH  15  16
BRANCH  15  20
ATOM     20  S   UNL A   1      49.117  20.865  36.553  1.00  0.00     0.264 S 
ATOM     21  O   UNL A   1      49.845  19.635  36.799  1.00  0.00    -0.201 OA
ATOM     22  O   UNL A   1      48.983  21.383  35.203  1.00  0.00    -0.201 OA
BRANCH  20  23
ATOM     23  C   UNL A   1      50.148  22.083  37.381  1.00  0.00     0.091 A 
ATOM     24  C   UNL A   1      51.542  22.203  37.258  1.00  0.00     0.025 A 
ATOM     25  C   UNL A   1      49.495  22.747  38.445  1.00  0.00     0.071 A 
ATOM     26  C   UNL A   1      52.303  22.865  38.243  1.00  0.00     0.032 A 
ATOM     27  C   UNL A   1      50.259  23.403  39.385  1.00  0.00     0.157 A 
ATOM     28  C   UNL A   1      51.632  23.428  39.306  1.00  0.00     0.090 A 
ATOM     29  O   UNL A   1      49.768  24.013  40.528  1.00  0.00    -0.408 OA
ATOM     30  N   UNL A   1      52.058  24.044  40.459  1.00  0.00    -0.277 N 
ATOM     31  C   UNL A   1      50.939  24.403  41.185  1.00  0.00     0.419 A 
ATOM     32  C   UNL A   1      53.409  24.268  40.879  1.00  0.00     0.157 C 
ATOM     33  O   UNL A   1      50.943  24.985  42.265  1.00  0.00    -0.223 OA
ENDBRANCH  20  23
ENDBRANCH  15  20
ENDBRANCH  10  15
ENDBRANCH   7   9
ENDBRANCH   6   7
ENDBRANCH   5   6
ENDBRANCH   4   5
ENDBRANCH   3   4
ENDBRANCH   2   3
ENDBRANCH   1   2
BRANCH   1  34
ATOM     34  O   UNL A   1      47.963  29.425  38.235  1.00  0.00    -0.377 OA
BRANCH  34  35
ATOM     35  C   UNL A   1      48.859  30.511  38.447  1.00  0.00     0.188 C 
BRANCH  35  36
ATOM     36  C   UNL A   1      50.367  30.414  38.124  1.00  0.00     0.188 C 
BRANCH  36  37
ATOM     37  O   UNL A   1      51.035  29.309  38.711  1.00  0.00    -0.376 OA
BRANCH  37  38
ATOM     38  C   UNL A   1      51.754  28.431  37.863  1.00  0.00     0.202 C 
BRANCH  38  39
ATOM     39  C   UNL A   1      51.519  26.929  38.075  1.00  0.00     0.261 C 
BRANCH  39  40
ATOM     40  O   UNL A   1      50.344  26.388  37.454  1.00  0.00    -0.460 OA
BRANCH  40  41
ATOM     41  C   UNL A   1      50.493  25.893  36.205  1.00  0.00     0.338 C 
ATOM     42  O   UNL A   1      51.385  25.165  35.809  1.00  0.00    -0.246 OA
BRANCH  41  43
ATOM     43  C   UNL A   1      49.277  26.224  35.435  1.00  0.00     0.060 A 
ATOM     44  C   UNL A   1      49.361  27.202  34.437  1.00  0.00     0.016 A 
ATOM     45  C   UNL A   1      48.066  25.585  35.704  1.00  0.00     0.016 A 
ATOM     46  C   UNL A   1      48.217  27.574  33.732  1.00  0.00     0.010 A 
ATOM     47  C   UNL A   1      46.916  25.972  35.007  1.00  0.00     0.010 A 
ATOM     48  C   UNL A   1      46.980  26.993  34.044  1.00  0.00    -0.014 A 
BRANCH  48  49
ATOM     49  C   UNL A   1      45.745  27.581  33.471  1.00  0.00     0.031 A 
ATOM     50  C   UNL A   1      45.234  27.052  32.156  1.00  0.00     0.074 A 
ATOM     51  C   UNL A   1      45.062  28.533  34.133  1.00  0.00     0.049 A 
ATOM     52  N   UNL A   1      44.167  27.395  31.482  1.00  0.00    -0.248 NA
ATOM     53  C   UNL A   1      46.032  25.993  31.514  1.00  0.00     0.031 C 
ATOM     54  C   UNL A   1      45.449  29.112  35.419  1.00  0.00     0.029 A 
ATOM     55  N   UNL A   1      43.896  29.184  33.809  1.00  0.00    -0.354 N 
ATOM     56  C   UNL A   1      44.172  26.610  30.336  1.00  0.00     0.074 A 
ATOM     57  C   UNL A   1      45.356  25.781  30.393  1.00  0.00     0.031 C 
ATOM     58  C   UNL A   1      44.544  30.044  35.768  1.00  0.00     0.029 A 
ATOM     59  C   UNL A   1      43.530  30.146  34.721  1.00  0.00     0.049 A 
ATOM     60  H   UNL A   1      43.373  28.981  33.001  1.00  0.00     0.167 HD
ATOM     61  C   UNL A   1      43.268  26.579  29.330  1.00  0.00     0.037 A 
ATOM     62  C   UNL A   1      42.506  31.025  34.698  1.00  0.00     0.037 A 
ATOM     63  C   UNL A   1      42.081  27.394  29.287  1.00  0.00     0.049 A 
ATOM     64  C   UNL A   1      41.530  30.987  33.546  1.00  0.00     0.074 A 
ATOM     65  C   UNL A   1      41.074  27.392  28.338  1.00  0.00     0.029 A 
ATOM     66  N   UNL A   1      41.749  28.364  30.221  1.00  0.00    -0.354 N 
ATOM     67  N   UNL A   1      41.511  30.190  32.504  1.00  0.00    -0.248 NA
ATOM     68  C   UNL A   1      40.430  31.962  33.574  1.00  0.00     0.031 C 
ATOM     69  C   UNL A   1      40.168  28.407  28.661  1.00  0.00     0.029 A 
ATOM     70  C   UNL A   1      40.573  28.994  29.849  1.00  0.00     0.049 A 
ATOM     71  H   UNL A   1      42.271  28.574  31.028  1.00  0.00     0.167 HD
ATOM     72  C   UNL A   1      40.388  30.555  31.765  1.00  0.00     0.074 A 
ATOM     73  C   UNL A   1      39.739  31.622  32.496  1.00  0.00     0.031 C 
ATOM     74  C   UNL A   1      39.936  30.056  30.587  1.00  0.00     0.037 A 
BRANCH  61  75
ATOM     75  C   UNL A   1      43.523  25.659  28.169  1.00  0.00     0.058 A 
ATOM     76  C   UNL A   1      44.135  26.102  26.987  1.00  0.00     0.135 A 
ATOM     77  C   UNL A   1      43.234  24.289  28.282  1.00  0.00     0.135 A 
ATOM     78  F   UNL A   1      44.413  27.405  26.816  1.00  0.00    -0.206 F 
ATOM     79  C   UNL A   1      44.457  25.219  25.960  1.00  0.00     0.059 A 
ATOM     80  C   UNL A   1      43.570  23.384  27.280  1.00  0.00     0.059 A 
ATOM     81  F   UNL A   1      42.640  23.813  29.388  1.00  0.00    -0.206 F 
ATOM     82  C   UNL A   1      44.181  23.859  26.122  1.00  0.00     0.060 A 
BRANCH  82  83
ATOM     83  S   UNL A   1      44.665  22.719  24.809  1.00  0.00     0.124 S 
ATOM     84  O   UNL A   1      45.551  23.556  24.006  1.00  0.00    -0.237 OA
ATOM     85  O   UNL A   1      45.313  21.644  25.554  1.00  0.00    -0.237 OA
ATOM     86  O   UNL A   1      43.397  22.365  24.178  1.00  0.00    -0.744 OA
ENDBRANCH  82  83
ENDBRANCH  61  75
BRANCH  62  87
ATOM     87  C   UNL A   1      42.366  32.044  35.775  1.00  0.00     0.058 A 
ATOM     88  C   UNL A   1      41.548  31.825  36.894  1.00  0.00     0.135 A 
ATOM     89  C   UNL A   1      43.017  33.286  35.679  1.00  0.00     0.135 A 
ATOM     90  F   UNL A   1      40.896  30.660  37.030  1.00  0.00    -0.206 F 
ATOM     91  C   UNL A   1      41.353  32.808  37.859  1.00  0.00     0.059 A 
ATOM     92  C   UNL A   1      42.864  34.272  36.648  1.00  0.00     0.059 A 
ATOM     93  F   UNL A   1      43.818  33.546  34.636  1.00  0.00    -0.206 F 
ATOM     94  C   UNL A   1      42.013  34.031  37.726  1.00  0.00     0.060 A 
BRANCH  94  95
ATOM     95  S   UNL A   1      41.765  35.295  38.990  1.00  0.00     0.124 S 
ATOM     96  O   UNL A   1      42.631  34.816  40.060  1.00  0.00    -0.237 OA
ATOM     97  O   UNL A   1      42.205  36.506  38.304  1.00  0.00    -0.237 OA
ATOM     98  O   UNL A   1      40.331  35.224  39.258  1.00  0.00    -0.744 OA
ENDBRANCH  94  95
ENDBRANCH  62  87
BRANCH  74  99
ATOM     99  C   UNL A   1      38.663  30.638  30.030  1.00  0.00     0.058 A 
ATOM    100  C   UNL A   1      38.623  31.917  29.451  1.00  0.00     0.135 A 
ATOM    101  C   UNL A   1      37.471  29.895  30.052  1.00  0.00     0.135 A 
ATOM    102  F   UNL A   1      39.733  32.672  29.404  1.00  0.00    -0.206 F 
ATOM    103  C   UNL A   1      37.440  32.455  28.956  1.00  0.00     0.059 A 
ATOM    104  C   UNL A   1      36.285  30.399  29.530  1.00  0.00     0.059 A 
ATOM    105  F   UNL A   1      37.452  28.660  30.578  1.00  0.00    -0.206 F 
ATOM    106  C   UNL A   1      36.274  31.689  29.001  1.00  0.00     0.060 A 
BRANCH 106 107
ATOM    107  S   UNL A   1      34.745  32.400  28.356  1.00  0.00     0.124 S 
ATOM    108  O   UNL A   1      35.251  33.517  27.566  1.00  0.00    -0.237 OA
ATOM    109  O   UNL A   1      34.180  31.290  27.596  1.00  0.00    -0.237 OA
ATOM    110  O   UNL A   1      34.007  32.768  29.561  1.00  0.00    -0.744 OA
ENDBRANCH 106 107
ENDBRANCH  74  99
ENDBRANCH  48  49
ENDBRANCH  41  43
ENDBRANCH  40  41
ENDBRANCH  39  40
ENDBRANCH  38  39
ENDBRANCH  37  38
ENDBRANCH  36  37
ENDBRANCH  35  36
ENDBRANCH  34  35
ENDBRANCH   1  34
TORSDOF 29
ENDMDL
MODEL 2
REMARK VINA RESULT:      -6.3      1.232      2.290
REMARK SMILES CCCCN(c1ccccc1C(=O)OCCOCCOCCOCCOC(=O)c1ccc(-c2c3nc(c(-c4c(F)cc(S(=O)(=O)[O-])cc4F)c4ccc([nH]4)c(-c4c(F)cc(S(=O)(=O)[O-])cc4F)c4nc(c(-c5c(F)cc(S(=O)(=O)[O-])cc5F)c5ccc2[nH]5)C=C4)C=C3)cc1)S(=O)(=O)c1ccc2c(c1)oc(=O)n2C
REMARK SMILES IDX 19 1 18 2 17 3 16 4 15 5 14 6 12 7 13 8 11 9 6 10 7 11 8 12
REMARK SMILES IDX 10 13 9 14 5 15 4 16 3 17 2 18 1 19 95 20 96 21 97 22 98 23
REMARK SMILES IDX 99 24 103 25 100 26 102 27 101 28 104 29 107 30 105 31
REMARK SMILES IDX 108 32 106 33 20 34 21 35 22 36 23 37 24 38 25 39 26 40
REMARK SMILES IDX 27 41 28 42 29 43 30 44 94 45 31 46 93 47 32 48 33 49 34 50
REMARK SMILES IDX 87 51 35 52 92 53 86 54 88 55 36 56 91 57 85 58 84 59 37 61
REMARK SMILES IDX 71 62 50 63 70 64 51 65 54 66 69 67 89 68 52 69 53 70 68 72
REMARK SMILES IDX 90 73 55 74 38 75 39 76 48 77 40 78 41 79 47 80 49 81 42 82
REMARK SMILES IDX 43 83 44 84 45 85 46 86 72 87 73 88 82 89 74 90 75 91 81 92
REMARK SMILES IDX 83 93 76 94 77 95 78 96 79 97 80 98 56 99 57 100 66 101
REMARK SMILES IDX 58 102 59 103 65 104 67 105 60 106 61 107 62 108 63 109
REMARK SMILES IDX 64 110
REMARK H PARENT 88 60 54 71
REMARK Flexibility Score: inf
ROOT
ATOM      1  C   UNL A   1      46.976  29.013  39.156  1.00  0.00     0.188 C 
ENDROOT
BRANCH   1   2
ATOM      2  C   UNL A   1      45.737  28.359  38.501  1.00  0.00     0.188 C 
BRANCH   2   3
ATOM      3  O   UNL A   1      45.333  27.095  38.987  1.00  0.00    -0.376 OA
BRANCH   3   4
ATOM      4  C   UNL A   1      46.094  26.352  39.922  1.00  0.00     0.202 C 
BRANCH   4   5
ATOM      5  C   UNL A   1      46.529  24.892  39.749  1.00  0.00     0.261 C 
BRANCH   5   6
ATOM      6  O   UNL A   1      46.089  24.240  38.562  1.00  0.00    -0.460 OA
BRANCH   6   7
ATOM      7  C   UNL A   1      45.891  22.917  38.640  1.00  0.00     0.340 C 
ATOM      8  O   UNL A   1      45.296  22.336  39.537  1.00  0.00    -0.246 OA
BRANCH   7   9
ATOM      9  C   UNL A   1      46.360  22.208  37.422  1.00  0.00     0.084 A 
ATOM     10  C   UNL A   1      47.010  20.951  37.352  1.00  0.00     0.066 A 
ATOM     11  C   UNL A   1      46.920  20.285  36.122  1.00  0.00     0.028 A 
ATOM     12  C   UNL A   1      46.513  20.949  34.953  1.00  0.00     0.002 A 
ATOM     13  C   UNL A   1      45.987  22.883  36.239  1.00  0.00     0.018 A 
ATOM     14  C   UNL A   1      46.122  22.277  35.000  1.00  0.00     0.001 A 
BRANCH  10  15
ATOM     15  N   UNL A   1      47.821  20.384  38.428  1.00  0.00    -0.265 N 
BRANCH  15  16
ATOM     16  C   UNL A   1      47.654  18.909  38.744  1.00  0.00     0.136 C 
BRANCH  16  17
ATOM     17  C   UNL A   1      46.336  18.432  39.372  1.00  0.00     0.022 C 
BRANCH  17  18
ATOM     18  C   UNL A   1      46.196  16.976  39.844  1.00  0.00    -0.002 C 
ATOM     19  C   UNL A   1      44.787  16.396  39.814  1.00  0.00     0.004 C 
ENDBRANCH  17  18
ENDBRANCH  16  17
ENDBRANCH  15  16
BRANCH  15  20
ATOM     20  S   UNL A   1      49.327  21.023  38.924  1.00  0.00     0.264 S 
ATOM     21  O   UNL A   1      49.050  22.387  39.333  1.00  0.00    -0.201 OA
ATOM     22  O   UNL A   1      49.906  20.077  39.861  1.00  0.00    -0.201 OA
BRANCH  20  23
ATOM     23  C   UNL A   1      50.618  21.255  37.694  1.00  0.00     0.091 A 
ATOM     24  C   UNL A   1      51.634  22.224  37.739  1.00  0.00     0.025 A 
ATOM     25  C   UNL A   1      50.365  20.583  36.476  1.00  0.00     0.071 A 
ATOM     26  C   UNL A   1      52.312  22.620  36.568  1.00  0.00     0.032 A 
ATOM     27  C   UNL A   1      51.054  20.976  35.348  1.00  0.00     0.157 A 
ATOM     28  C   UNL A   1      51.976  21.995  35.387  1.00  0.00     0.090 A 
ATOM     29  O   UNL A   1      50.844  20.478  34.072  1.00  0.00    -0.408 OA
ATOM     30  N   UNL A   1      52.357  22.199  34.081  1.00  0.00    -0.277 N 
ATOM     31  C   UNL A   1      51.685  21.282  33.297  1.00  0.00     0.419 A 
ATOM     32  C   UNL A   1      53.264  23.189  33.583  1.00  0.00     0.157 C 
ATOM     33  O   UNL A   1      51.793  21.167  32.080  1.00  0.00    -0.223 OA
ENDBRANCH  20  23
ENDBRANCH  15  20
ENDBRANCH  10  15
ENDBRANCH   7   9
ENDBRANCH   6   7
ENDBRANCH   5   6
ENDBRANCH   4   5
ENDBRANCH   3   4
ENDBRANCH   2   3
ENDBRANCH   1   2
BRANCH   1  34
ATOM     34  O   UNL A   1      47.991  29.492  38.297  1.00  0.00    -0.377 OA
BRANCH  34  35
ATOM     35  C   UNL A   1      48.782  30.614  38.674  1.00  0.00     0.188 C 
BRANCH  35  36
ATOM     36  C   UNL A   1      50.306  30.671  38.427  1.00  0.00     0.188 C 
BRANCH  36  37
ATOM     37  O   UNL A   1      51.030  29.542  38.888  1.00  0.00    -0.376 OA
BRANCH  37  38
ATOM     38  C   UNL A   1      51.861  28.855  37.968  1.00  0.00     0.202 C 
BRANCH  38  39
ATOM     39  C   UNL A   1      51.743  27.325  37.951  1.00  0.00     0.261 C 
BRANCH  39  40
ATOM     40  O   UNL A   1      50.633  26.793  37.214  1.00  0.00    -0.460 OA
BRANCH  40  41
ATOM     41  C   UNL A   1      50.855  26.500  35.913  1.00  0.00     0.338 C 
ATOM     42  O   UNL A   1      51.831  25.942  35.446  1.00  0.00    -0.246 OA
BRANCH  41  43
ATOM     43  C   UNL A   1      49.619  26.797  35.161  1.00  0.00     0.060 A 
ATOM     44  C   UNL A   1      49.628  27.857  34.247  1.00  0.00     0.016 A 
ATOM     45  C   UNL A   1      48.461  26.044  35.365  1.00  0.00     0.016 A 
ATOM     46  C   UNL A   1      48.461  28.195  33.564  1.00  0.00     0.010 A 
ATOM     47  C   UNL A   1      47.286  26.396  34.692  1.00  0.00     0.010 A 
ATOM     48  C   UNL A   1      47.273  27.495  33.816  1.00  0.00    -0.014 A 
BRANCH  48  49
ATOM     49  C   UNL A   1      45.996  28.029  33.281  1.00  0.00     0.031 A 
ATOM     50  C   UNL A   1      45.447  27.448  32.003  1.00  0.00     0.074 A 
ATOM     51  C   UNL A   1      45.312  28.978  33.946  1.00  0.00     0.049 A 
ATOM     52  N   UNL A   1      44.343  27.740  31.368  1.00  0.00    -0.248 NA
ATOM     53  C   UNL A   1      46.251  26.397  31.356  1.00  0.00     0.031 C 
ATOM     54  C   UNL A   1      45.735  29.603  35.199  1.00  0.00     0.029 A 
ATOM     55  N   UNL A   1      44.114  29.584  33.656  1.00  0.00    -0.354 N 
ATOM     56  C   UNL A   1      44.325  26.924  30.243  1.00  0.00     0.074 A 
ATOM     57  C   UNL A   1      45.536  26.134  30.271  1.00  0.00     0.031 C 
ATOM     58  C   UNL A   1      44.817  30.516  35.562  1.00  0.00     0.029 A 
ATOM     59  C   UNL A   1      43.756  30.559  34.557  1.00  0.00     0.049 A 
ATOM     60  H   UNL A   1      43.564  29.343  32.876  1.00  0.00     0.167 HD
ATOM     61  C   UNL A   1      43.380  26.838  29.278  1.00  0.00     0.037 A 
ATOM     62  C   UNL A   1      42.706  31.405  34.555  1.00  0.00     0.037 A 
ATOM     63  C   UNL A   1      42.168  27.615  29.265  1.00  0.00     0.049 A 
ATOM     64  C   UNL A   1      41.684  31.306  33.448  1.00  0.00     0.074 A 
ATOM     65  C   UNL A   1      41.122  27.557  28.360  1.00  0.00     0.029 A 
ATOM     66  N   UNL A   1      41.845  28.600  30.186  1.00  0.00    -0.354 N 
ATOM     67  N   UNL A   1      41.645  30.480  32.428  1.00  0.00    -0.248 NA
ATOM     68  C   UNL A   1      40.556  32.248  33.497  1.00  0.00     0.031 C 
ATOM     69  C   UNL A   1      40.199  28.552  28.695  1.00  0.00     0.029 A 
ATOM     70  C   UNL A   1      40.635  29.184  29.848  1.00  0.00     0.049 A 
ATOM     71  H   UNL A   1      42.394  28.848  30.965  1.00  0.00     0.167 HD
ATOM     72  C   UNL A   1      40.482  30.791  31.729  1.00  0.00     0.074 A 
ATOM     73  C   UNL A   1      39.830  31.857  32.459  1.00  0.00     0.031 C 
ATOM     74  C   UNL A   1      39.997  30.246  30.585  1.00  0.00     0.037 A 
BRANCH  61  75
ATOM     75  C   UNL A   1      43.616  25.894  28.131  1.00  0.00     0.058 A 
ATOM     76  C   UNL A   1      44.237  26.306  26.943  1.00  0.00     0.135 A 
ATOM     77  C   UNL A   1      43.297  24.533  28.267  1.00  0.00     0.135 A 
ATOM     78  F   UNL A   1      44.542  27.599  26.751  1.00  0.00    -0.206 F 
ATOM     79  C   UNL A   1      44.539  25.400  25.930  1.00  0.00     0.059 A 
ATOM     80  C   UNL A   1      43.613  23.605  27.279  1.00  0.00     0.059 A 
ATOM     81  F   UNL A   1      42.694  24.088  29.380  1.00  0.00    -0.206 F 
ATOM     82  C   UNL A   1      44.234  24.049  26.114  1.00  0.00     0.060 A 
BRANCH  82  83
ATOM     83  S   UNL A   1      44.693  22.878  24.819  1.00  0.00     0.124 S 
ATOM     84  O   UNL A   1      45.622  23.673  24.021  1.00  0.00    -0.237 OA
ATOM     85  O   UNL A   1      45.288  21.786  25.583  1.00  0.00    -0.237 OA
ATOM     86  O   UNL A   1      43.422  22.566  24.172  1.00  0.00    -0.744 OA
ENDBRANCH  82  83
ENDBRANCH  61  75
BRANCH  62  87
ATOM     87  C   UNL A   1      42.578  32.449  35.609  1.00  0.00     0.058 A 
ATOM     88  C   UNL A   1      42.904  33.792  35.360  1.00  0.00     0.135 A 
ATOM     89  C   UNL A   1      42.168  32.111  36.910  1.00  0.00     0.135 A 
ATOM     90  F   UNL A   1      43.310  34.166  34.137  1.00  0.00    -0.206 F 
ATOM     91  C   UNL A   1      42.863  34.752  36.366  1.00  0.00     0.059 A 
ATOM     92  C   UNL A   1      42.087  33.060  37.924  1.00  0.00     0.059 A 
ATOM     93  F   UNL A   1      41.835  30.845  37.203  1.00  0.00    -0.206 F 
ATOM     94  C   UNL A   1      42.455  34.375  37.647  1.00  0.00     0.060 A 
BRANCH  94  95
ATOM     95  S   UNL A   1      42.392  35.631  38.943  1.00  0.00     0.124 S 
ATOM     96  O   UNL A   1      41.145  36.317  38.627  1.00  0.00    -0.237 OA
ATOM     97  O   UNL A   1      42.386  34.820  40.156  1.00  0.00    -0.237 OA
ATOM     98  O   UNL A   1      43.611  36.403  38.721  1.00  0.00    -0.744 OA
ENDBRANCH  94  95
ENDBRANCH  62  87
BRANCH  74  99
ATOM     99  C   UNL A   1      38.684  30.773  30.068  1.00  0.00     0.058 A 
ATOM    100  C   UNL A   1      38.580  32.031  29.453  1.00  0.00     0.135 A 
ATOM    101  C   UNL A   1      37.516  29.997  30.166  1.00  0.00     0.135 A 
ATOM    102  F   UNL A   1      39.664  32.816  29.333  1.00  0.00    -0.206 F 
ATOM    103  C   UNL A   1      37.361  32.520  28.994  1.00  0.00     0.059 A 
ATOM    104  C   UNL A   1      36.293  30.451  29.682  1.00  0.00     0.059 A 
ATOM    105  F   UNL A   1      37.558  28.779  30.730  1.00  0.00    -0.206 F 
ATOM    106  C   UNL A   1      36.222  31.723  29.116  1.00  0.00     0.060 A 
BRANCH 106 107
ATOM    107  S   UNL A   1      34.645  32.368  28.518  1.00  0.00     0.124 S 
ATOM    108  O   UNL A   1      35.084  33.456  27.650  1.00  0.00    -0.237 OA
ATOM    109  O   UNL A   1      34.068  31.211  27.843  1.00  0.00    -0.237 OA
ATOM    110  O   UNL A   1      33.961  32.780  29.741  1.00  0.00    -0.744 OA
ENDBRANCH 106 107
ENDBRANCH  74  99
ENDBRANCH  48  49
ENDBRANCH  41  43
ENDBRANCH  40  41
ENDBRANCH  39  40
ENDBRANCH  38  39
ENDBRANCH  37  38
ENDBRANCH  36  37
ENDBRANCH  35  36
ENDBRANCH  34  35
ENDBRANCH   1  34
TORSDOF 29
ENDMDL
MODEL 3
REMARK VINA RESULT:      -6.3      5.254      9.951
REMARK SMILES CCCCN(c1ccccc1C(=O)OCCOCCOCCOCCOC(=O)c1ccc(-c2c3nc(c(-c4c(F)cc(S(=O)(=O)[O-])cc4F)c4ccc([nH]4)c(-c4c(F)cc(S(=O)(=O)[O-])cc4F)c4nc(c(-c5c(F)cc(S(=O)(=O)[O-])cc5F)c5ccc2[nH]5)C=C4)C=C3)cc1)S(=O)(=O)c1ccc2c(c1)oc(=O)n2C
REMARK SMILES IDX 19 1 18 2 17 3 16 4 15 5 14 6 12 7 13 8 11 9 6 10 7 11 8 12
REMARK SMILES IDX 10 13 9 14 5 15 4 16 3 17 2 18 1 19 95 20 96 21 97 22 98 23
REMARK SMILES IDX 99 24 103 25 100 26 102 27 101 28 104 29 107 30 105 31
REMARK SMILES IDX 108 32 106 33 20 34 21 35 22 36 23 37 24 38 25 39 26 40
REMARK SMILES IDX 27 41 28 42 29 43 30 44 94 45 31 46 93 47 32 48 33 49 34 50
REMARK SMILES IDX 87 51 35 52 92 53 86 54 88 55 36 56 91 57 85 58 84 59 37 61
REMARK SMILES IDX 71 62 50 63 70 64 51 65 54 66 69 67 89 68 52 69 53 70 68 72
REMARK SMILES IDX 90 73 55 74 38 75 39 76 48 77 40 78 41 79 47 80 49 81 42 82
REMARK SMILES IDX 43 83 44 84 45 85 46 86 72 87 73 88 82 89 74 90 75 91 81 92
REMARK SMILES IDX 83 93 76 94 77 95 78 96 79 97 80 98 56 99 57 100 66 101
REMARK SMILES IDX 58 102 59 103 65 104 67 105 60 106 61 107 62 108 63 109
REMARK SMILES IDX 64 110
REMARK H PARENT 88 60 54 71
REMARK Flexibility Score: inf
ROOT
ATOM      1  C   UNL A   1      51.366  32.589  29.895  1.00  0.00     0.188 C 
ENDROOT
BRANCH   1   2
ATOM      2  C   UNL A   1      50.534  31.338  30.261  1.00  0.00     0.188 C 
BRANCH   2   3
ATOM      3  O   UNL A   1      50.507  30.947  31.618  1.00  0.00    -0.376 OA
BRANCH   3   4
ATOM      4  C   UNL A   1      49.673  29.909  32.103  1.00  0.00     0.202 C 
BRANCH   4   5
ATOM      5  C   UNL A   1      48.228  29.654  31.660  1.00  0.00     0.261 C 
BRANCH   5   6
ATOM      6  O   UNL A   1      47.562  28.560  32.282  1.00  0.00    -0.460 OA
BRANCH   6   7
ATOM      7  C   UNL A   1      47.779  27.346  31.755  1.00  0.00     0.340 C 
ATOM      8  O   UNL A   1      48.868  26.886  31.445  1.00  0.00    -0.246 OA
BRANCH   7   9
ATOM      9  C   UNL A   1      46.540  26.528  31.708  1.00  0.00     0.084 A 
ATOM     10  C   UNL A   1      45.413  26.620  32.562  1.00  0.00     0.066 A 
ATOM     11  C   UNL A   1      44.214  26.109  32.048  1.00  0.00     0.028 A 
ATOM     12  C   UNL A   1      44.193  25.272  30.919  1.00  0.00     0.002 A 
ATOM     13  C   UNL A   1      46.521  25.657  30.596  1.00  0.00     0.018 A 
ATOM     14  C   UNL A   1      45.365  24.981  30.240  1.00  0.00     0.001 A 
BRANCH  10  15
ATOM     15  N   UNL A   1      45.463  27.111  33.938  1.00  0.00    -0.265 N 
BRANCH  15  16
ATOM     16  C   UNL A   1      44.754  28.415  34.254  1.00  0.00     0.136 C 
BRANCH  16  17
ATOM     17  C   UNL A   1      43.517  28.803  33.432  1.00  0.00     0.022 C 
BRANCH  17  18
ATOM     18  C   UNL A   1      42.118  28.695  34.058  1.00  0.00    -0.002 C 
ATOM     19  C   UNL A   1      41.611  27.282  34.320  1.00  0.00     0.004 C 
ENDBRANCH  17  18
ENDBRANCH  16  17
ENDBRANCH  15  16
BRANCH  15  20
ATOM     20  S   UNL A   1      45.683  26.104  35.302  1.00  0.00     0.264 S 
ATOM     21  O   UNL A   1      46.978  26.468  35.844  1.00  0.00    -0.201 OA
ATOM     22  O   UNL A   1      44.486  26.220  36.117  1.00  0.00    -0.201 OA
BRANCH  20  23
ATOM     23  C   UNL A   1      45.865  24.333  35.053  1.00  0.00     0.091 A 
ATOM     24  C   UNL A   1      44.915  23.482  34.464  1.00  0.00     0.025 A 
ATOM     25  C   UNL A   1      46.930  23.766  35.789  1.00  0.00     0.071 A 
ATOM     26  C   UNL A   1      44.940  22.093  34.700  1.00  0.00     0.032 A 
ATOM     27  C   UNL A   1      46.943  22.402  35.991  1.00  0.00     0.157 A 
ATOM     28  C   UNL A   1      45.951  21.591  35.491  1.00  0.00     0.090 A 
ATOM     29  O   UNL A   1      47.865  21.720  36.768  1.00  0.00    -0.408 OA
ATOM     30  N   UNL A   1      46.211  20.337  35.991  1.00  0.00    -0.277 N 
ATOM     31  C   UNL A   1      47.364  20.414  36.746  1.00  0.00     0.419 A 
ATOM     32  C   UNL A   1      45.437  19.147  35.804  1.00  0.00     0.157 C 
ATOM     33  O   UNL A   1      47.899  19.479  37.333  1.00  0.00    -0.223 OA
ENDBRANCH  20  23
ENDBRANCH  15  20
ENDBRANCH  10  15
ENDBRANCH   7   9
ENDBRANCH   6   7
ENDBRANCH   5   6
ENDBRANCH   4   5
ENDBRANCH   3   4
ENDBRANCH   2   3
ENDBRANCH   1   2
BRANCH   1  34
ATOM     34  O   UNL A   1      52.522  32.394  29.106  1.00  0.00    -0.377 OA
BRANCH  34  35
ATOM     35  C   UNL A   1      52.706  31.180  28.385  1.00  0.00     0.188 C 
BRANCH  35  36
ATOM     36  C   UNL A   1      52.796  31.140  26.843  1.00  0.00     0.188 C 
BRANCH  36  37
ATOM     37  O   UNL A   1      53.628  30.118  26.318  1.00  0.00    -0.376 OA
BRANCH  37  38
ATOM     38  C   UNL A   1      54.140  29.144  27.210  1.00  0.00     0.202 C 
BRANCH  38  39
ATOM     39  C   UNL A   1      53.800  27.681  26.894  1.00  0.00     0.261 C 
BRANCH  39  40
ATOM     40  O   UNL A   1      54.565  27.077  25.842  1.00  0.00    -0.460 OA
BRANCH  40  41
ATOM     41  C   UNL A   1      53.940  26.131  25.106  1.00  0.00     0.338 C 
ATOM     42  O   UNL A   1      54.465  25.274  24.419  1.00  0.00    -0.246 OA
BRANCH  41  43
ATOM     43  C   UNL A   1      52.498  26.183  25.425  1.00  0.00     0.060 A 
ATOM     44  C   UNL A   1      51.626  26.763  24.497  1.00  0.00     0.016 A 
ATOM     45  C   UNL A   1      52.017  25.675  26.634  1.00  0.00     0.016 A 
ATOM     46  C   UNL A   1      50.269  26.875  24.796  1.00  0.00     0.010 A 
ATOM     47  C   UNL A   1      50.657  25.805  26.939  1.00  0.00     0.010 A 
ATOM     48  C   UNL A   1      49.785  26.438  26.037  1.00  0.00    -0.014 A 
BRANCH  48  49
ATOM     49  C   UNL A   1      48.403  26.798  26.437  1.00  0.00     0.031 A 
ATOM     50  C   UNL A   1      48.118  28.216  26.861  1.00  0.00     0.074 A 
ATOM     51  C   UNL A   1      47.408  25.893  26.377  1.00  0.00     0.049 A 
ATOM     52  N   UNL A   1      46.988  28.761  27.226  1.00  0.00    -0.248 NA
ATOM     53  C   UNL A   1      49.262  29.144  26.874  1.00  0.00     0.031 C 
ATOM     54  C   UNL A   1      47.559  24.497  25.967  1.00  0.00     0.029 A 
ATOM     55  N   UNL A   1      46.071  26.016  26.665  1.00  0.00    -0.354 N 
ATOM     56  C   UNL A   1      47.283  30.085  27.525  1.00  0.00     0.074 A 
ATOM     57  C   UNL A   1      48.703  30.262  27.315  1.00  0.00     0.031 C 
ATOM     58  C   UNL A   1      46.363  23.888  26.045  1.00  0.00     0.029 A 
ATOM     59  C   UNL A   1      45.368  24.842  26.533  1.00  0.00     0.049 A 
ATOM     60  H   UNL A   1      45.655  26.865  26.939  1.00  0.00     0.167 HD
ATOM     61  C   UNL A   1      46.444  31.066  27.932  1.00  0.00     0.037 A 
ATOM     62  C   UNL A   1      44.075  24.564  26.800  1.00  0.00     0.037 A 
ATOM     63  C   UNL A   1      45.027  30.888  28.122  1.00  0.00     0.049 A 
ATOM     64  C   UNL A   1      43.170  25.673  27.283  1.00  0.00     0.074 A 
ATOM     65  C   UNL A   1      44.084  31.836  28.476  1.00  0.00     0.029 A 
ATOM     66  N   UNL A   1      44.353  29.683  27.990  1.00  0.00    -0.354 N 
ATOM     67  N   UNL A   1      43.450  26.937  27.494  1.00  0.00    -0.248 NA
ATOM     68  C   UNL A   1      41.769  25.318  27.553  1.00  0.00     0.031 C 
ATOM     69  C   UNL A   1      42.852  31.193  28.625  1.00  0.00     0.029 A 
ATOM     70  C   UNL A   1      43.013  29.857  28.296  1.00  0.00     0.049 A 
ATOM     71  H   UNL A   1      44.765  28.831  27.720  1.00  0.00     0.167 HD
ATOM     72  C   UNL A   1      42.257  27.530  27.901  1.00  0.00     0.074 A 
ATOM     73  C   UNL A   1      41.248  26.492  27.877  1.00  0.00     0.031 C 
ATOM     74  C   UNL A   1      42.018  28.814  28.267  1.00  0.00     0.037 A 
BRANCH  61  75
ATOM     75  C   UNL A   1      47.022  32.421  28.231  1.00  0.00     0.058 A 
ATOM     76  C   UNL A   1      47.383  32.807  29.531  1.00  0.00     0.135 A 
ATOM     77  C   UNL A   1      47.307  33.310  27.182  1.00  0.00     0.135 A 
ATOM     78  F   UNL A   1      47.115  32.005  30.574  1.00  0.00    -0.206 F 
ATOM     79  C   UNL A   1      48.010  34.024  29.780  1.00  0.00     0.059 A 
ATOM     80  C   UNL A   1      47.955  34.521  27.403  1.00  0.00     0.059 A 
ATOM     81  F   UNL A   1      46.974  32.994  25.920  1.00  0.00    -0.206 F 
ATOM     82  C   UNL A   1      48.303  34.869  28.706  1.00  0.00     0.060 A 
BRANCH  82  83
ATOM     83  S   UNL A   1      49.176  36.414  29.039  1.00  0.00     0.124 S 
ATOM     84  O   UNL A   1      50.204  36.398  28.003  1.00  0.00    -0.237 OA
ATOM     85  O   UNL A   1      48.121  37.409  28.870  1.00  0.00    -0.237 OA
ATOM     86  O   UNL A   1      49.661  36.246  30.405  1.00  0.00    -0.744 OA
ENDBRANCH  82  83
ENDBRANCH  61  75
BRANCH  62  87
ATOM     87  C   UNL A   1      43.558  23.175  26.659  1.00  0.00     0.058 A 
ATOM     88  C   UNL A   1      43.222  22.397  27.778  1.00  0.00     0.135 A 
ATOM     89  C   UNL A   1      43.435  22.578  25.392  1.00  0.00     0.135 A 
ATOM     90  F   UNL A   1      43.332  22.914  29.011  1.00  0.00    -0.206 F 
ATOM     91  C   UNL A   1      42.817  21.072  27.651  1.00  0.00     0.059 A 
ATOM     92  C   UNL A   1      43.000  21.267  25.238  1.00  0.00     0.059 A 
ATOM     93  F   UNL A   1      43.732  23.279  24.288  1.00  0.00    -0.206 F 
ATOM     94  C   UNL A   1      42.712  20.514  26.375  1.00  0.00     0.060 A 
BRANCH  94  95
ATOM     95  S   UNL A   1      42.172  18.798  26.219  1.00  0.00     0.124 S 
ATOM     96  O   UNL A   1      40.742  18.959  25.984  1.00  0.00    -0.237 OA
ATOM     97  O   UNL A   1      42.959  18.332  25.081  1.00  0.00    -0.237 OA
ATOM     98  O   UNL A   1      42.539  18.213  27.506  1.00  0.00    -0.744 OA
ENDBRANCH  94  95
ENDBRANCH  62  87
BRANCH  74  99
ATOM     99  C   UNL A   1      40.605  29.177  28.640  1.00  0.00     0.058 A 
ATOM    100  C   UNL A   1      39.624  29.436  27.669  1.00  0.00     0.135 A 
ATOM    101  C   UNL A   1      40.217  29.241  29.990  1.00  0.00     0.135 A 
ATOM    102  F   UNL A   1      39.937  29.390  26.363  1.00  0.00    -0.206 F 
ATOM    103  C   UNL A   1      38.325  29.789  28.020  1.00  0.00     0.059 A 
ATOM    104  C   UNL A   1      38.916  29.556  30.364  1.00  0.00     0.059 A 
ATOM    105  F   UNL A   1      41.108  28.987  30.962  1.00  0.00    -0.206 F 
ATOM    106  C   UNL A   1      37.981  29.849  29.372  1.00  0.00     0.060 A 
BRANCH 106 107
ATOM    107  S   UNL A   1      36.293  30.309  29.816  1.00  0.00     0.124 S 
ATOM    108  O   UNL A   1      36.303  31.746  29.562  1.00  0.00    -0.237 OA
ATOM    109  O   UNL A   1      35.496  29.508  28.892  1.00  0.00    -0.237 OA
ATOM    110  O   UNL A   1      36.192  29.921  31.220  1.00  0.00    -0.744 OA
ENDBRANCH 106 107
ENDBRANCH  74  99
ENDBRANCH  48  49
ENDBRANCH  41  43
ENDBRANCH  40  41
ENDBRANCH  39  40
ENDBRANCH  38  39
ENDBRANCH  37  38
ENDBRANCH  36  37
ENDBRANCH  35  36
ENDBRANCH  34  35
ENDBRANCH   1  34
TORSDOF 29
ENDMDL
