MODEL 1
REMARK VINA RESULT:     -10.0      0.000      0.000
REMARK SMILES COc1cc(C)cc2c1O[C@H](C(F)(F)F)C(C(=O)OCCOCCOCCOCCOC(=O)c1ccc(-c3c4nc(c(-c5c(F)cc(S(=O)(=O)[O-])cc5F)c5ccc([nH]5)c(-c5c(F)cc(S(=O)(=O)[O-])cc5F)c5nc(c(-c6c(F)cc(S(=O)(=O)[O-])cc6F)c6ccc3[nH]6)C=C5)C=C4)cc1)=C2
REMARK SMILES IDX 26 1 25 2 24 3 23 4 22 5 21 6 20 7 19 8 17 9 18 10 16 11
REMARK SMILES IDX 3 12 4 13 9 14 5 15 8 16 10 17 6 18 7 19 100 20 11 21 2 22
REMARK SMILES IDX 1 23 12 24 13 25 14 26 15 27 27 28 28 29 29 30 30 31 31 32
REMARK SMILES IDX 32 33 33 34 34 35 35 36 99 37 36 38 98 39 37 40 38 41 39 42
REMARK SMILES IDX 92 43 40 44 97 45 91 46 93 47 41 48 96 49 90 50 89 51 42 53
REMARK SMILES IDX 76 54 55 55 75 56 56 57 59 58 74 59 94 60 57 61 58 62 73 64
REMARK SMILES IDX 95 65 60 66 43 67 44 68 53 69 45 70 46 71 52 72 54 73 47 74
REMARK SMILES IDX 48 75 49 76 50 77 51 78 77 79 78 80 87 81 79 82 80 83 86 84
REMARK SMILES IDX 88 85 81 86 82 87 83 88 84 89 85 90 61 91 62 92 71 93 63 94
REMARK SMILES IDX 64 95 70 96 72 97 65 98 66 99 67 100 68 101 69 102
REMARK H PARENT 93 52 59 63
REMARK Flexibility Score: inf
ROOT
ATOM      1  C   UNL A   1      38.202  22.078  25.787  1.00  0.00     0.188 C 
ENDROOT
BRANCH   1   2
ATOM      2  O   UNL A   1      36.985  22.037  25.043  1.00  0.00    -0.377 OA
BRANCH   2   3
ATOM      3  C   UNL A   1      36.028  21.049  25.379  1.00  0.00     0.188 C 
BRANCH   3   4
ATOM      4  C   UNL A   1      34.691  21.224  24.638  1.00  0.00     0.188 C 
BRANCH   4   5
ATOM      5  O   UNL A   1      33.572  21.313  25.515  1.00  0.00    -0.376 OA
BRANCH   5   6
ATOM      6  C   UNL A   1      32.275  21.244  24.933  1.00  0.00     0.202 C 
BRANCH   6   7
ATOM      7  C   UNL A   1      31.557  22.565  24.614  1.00  0.00     0.261 C 
BRANCH   7   8
ATOM      8  O   UNL A   1      31.656  23.007  23.252  1.00  0.00    -0.460 OA
BRANCH   8   9
ATOM      9  C   UNL A   1      32.619  23.895  22.945  1.00  0.00     0.338 C 
ATOM     10  O   UNL A   1      33.600  23.700  22.247  1.00  0.00    -0.246 OA
BRANCH   9  11
ATOM     11  C   UNL A   1      32.189  25.220  23.444  1.00  0.00     0.087 C 
ATOM     12  C   UNL A   1      30.989  28.994  24.791  1.00  0.00     0.161 A 
ATOM     13  C   UNL A   1      30.285  29.838  23.924  1.00  0.00     0.054 A 
ATOM     14  C   UNL A   1      31.353  27.706  24.366  1.00  0.00     0.169 A 
ATOM     15  C   UNL A   1      29.914  29.398  22.648  1.00  0.00    -0.047 A 
ATOM     16  C   UNL A   1      31.004  27.268  23.087  1.00  0.00     0.021 A 
ATOM     17  O   UNL A   1      32.040  26.928  25.258  1.00  0.00    -0.471 OA
ATOM     18  C   UNL A   1      29.164  30.294  21.708  1.00  0.00     0.044 C 
ATOM     19  C   UNL A   1      30.260  28.102  22.245  1.00  0.00     0.015 A 
ATOM     20  C   UNL A   1      31.452  25.969  22.614  1.00  0.00     0.027 C 
ATOM     21  C   UNL A   1      32.528  25.623  24.857  1.00  0.00     0.316 C 
BRANCH  12  22
ATOM     22  O   UNL A   1      31.435  29.381  26.030  1.00  0.00    -0.493 OA
ATOM     23  C   UNL A   1      32.255  30.542  26.064  1.00  0.00     0.278 C 
ENDBRANCH  12  22
BRANCH  21  24
ATOM     24  C   UNL A   1      34.039  25.573  25.124  1.00  0.00     0.430 C 
ATOM     25  F   UNL A   1      34.454  24.313  25.392  1.00  0.00    -0.167 F 
ATOM     26  F   UNL A   1      34.753  26.006  24.061  1.00  0.00    -0.167 F 
ATOM     27  F   UNL A   1      34.381  26.349  26.181  1.00  0.00    -0.167 F 
ENDBRANCH  21  24
ENDBRANCH   9  11
ENDBRANCH   8   9
ENDBRANCH   7   8
ENDBRANCH   6   7
ENDBRANCH   5   6
ENDBRANCH   4   5
ENDBRANCH   3   4
ENDBRANCH   2   3
ENDBRANCH   1   2
BRANCH   1  28
ATOM     28  C   UNL A   1      39.220  20.914  25.768  1.00  0.00     0.188 C 
BRANCH  28  29
ATOM     29  O   UNL A   1      40.486  21.230  26.343  1.00  0.00    -0.376 OA
BRANCH  29  30
ATOM     30  C   UNL A   1      40.736  22.600  26.623  1.00  0.00     0.202 C 
BRANCH  30  31
ATOM     31  C   UNL A   1      41.967  23.165  25.906  1.00  0.00     0.261 C 
BRANCH  31  32
ATOM     32  O   UNL A   1      42.469  24.401  26.437  1.00  0.00    -0.460 OA
BRANCH  32  33
ATOM     33  C   UNL A   1      41.766  25.528  26.186  1.00  0.00     0.338 C 
ATOM     34  O   UNL A   1      41.188  25.819  25.154  1.00  0.00    -0.246 OA
BRANCH  33  35
ATOM     35  C   UNL A   1      41.653  26.268  27.461  1.00  0.00     0.060 A 
ATOM     36  C   UNL A   1      42.633  27.196  27.823  1.00  0.00     0.016 A 
ATOM     37  C   UNL A   1      40.578  25.999  28.318  1.00  0.00     0.016 A 
ATOM     38  C   UNL A   1      42.518  27.881  29.032  1.00  0.00     0.010 A 
ATOM     39  C   UNL A   1      40.469  26.682  29.532  1.00  0.00     0.010 A 
ATOM     40  C   UNL A   1      41.424  27.647  29.884  1.00  0.00    -0.014 A 
BRANCH  40  41
ATOM     41  C   UNL A   1      41.195  28.551  31.037  1.00  0.00     0.031 A 
ATOM     42  C   UNL A   1      42.047  28.506  32.269  1.00  0.00     0.074 A 
ATOM     43  C   UNL A   1      40.200  29.454  30.927  1.00  0.00     0.049 A 
ATOM     44  N   UNL A   1      42.012  29.293  33.314  1.00  0.00    -0.248 NA
ATOM     45  C   UNL A   1      43.065  27.448  32.345  1.00  0.00     0.031 C 
ATOM     46  C   UNL A   1      39.304  29.577  29.773  1.00  0.00     0.029 A 
ATOM     47  N   UNL A   1      39.782  30.442  31.779  1.00  0.00    -0.354 N 
ATOM     48  C   UNL A   1      43.023  28.854  34.159  1.00  0.00     0.074 A 
ATOM     49  C   UNL A   1      43.621  27.695  33.527  1.00  0.00     0.031 C 
ATOM     50  C   UNL A   1      38.466  30.605  29.975  1.00  0.00     0.029 A 
ATOM     51  C   UNL A   1      38.746  31.195  31.280  1.00  0.00     0.049 A 
ATOM     52  H   UNL A   1      40.186  30.599  32.663  1.00  0.00     0.167 HD
ATOM     53  C   UNL A   1      43.424  29.387  35.338  1.00  0.00     0.037 A 
ATOM     54  C   UNL A   1      38.096  32.249  31.810  1.00  0.00     0.037 A 
ATOM     55  C   UNL A   1      42.809  30.533  35.966  1.00  0.00     0.049 A 
ATOM     56  C   UNL A   1      38.522  32.770  33.155  1.00  0.00     0.074 A 
ATOM     57  C   UNL A   1      43.155  31.146  37.160  1.00  0.00     0.029 A 
ATOM     58  N   UNL A   1      41.726  31.236  35.459  1.00  0.00    -0.354 N 
ATOM     59  N   UNL A   1      39.510  32.370  33.918  1.00  0.00    -0.248 NA
ATOM     60  C   UNL A   1      37.746  33.888  33.709  1.00  0.00     0.031 C 
ATOM     61  C   UNL A   1      42.258  32.194  37.393  1.00  0.00     0.029 A 
ATOM     62  C   UNL A   1      41.381  32.263  36.323  1.00  0.00     0.049 A 
ATOM     63  H   UNL A   1      41.271  31.035  34.610  1.00  0.00     0.167 HD
ATOM     64  C   UNL A   1      39.493  33.207  35.028  1.00  0.00     0.074 A 
ATOM     65  C   UNL A   1      38.406  34.143  34.830  1.00  0.00     0.031 C 
ATOM     66  C   UNL A   1      40.304  33.198  36.113  1.00  0.00     0.037 A 
BRANCH  53  67
ATOM     67  C   UNL A   1      44.609  28.774  36.034  1.00  0.00     0.058 A 
ATOM     68  C   UNL A   1      45.896  29.305  35.867  1.00  0.00     0.135 A 
ATOM     69  C   UNL A   1      44.442  27.745  36.975  1.00  0.00     0.135 A 
ATOM     70  F   UNL A   1      46.113  30.283  34.972  1.00  0.00    -0.206 F 
ATOM     71  C   UNL A   1      46.976  28.845  36.613  1.00  0.00     0.059 A 
ATOM     72  C   UNL A   1      45.504  27.283  37.749  1.00  0.00     0.059 A 
ATOM     73  F   UNL A   1      43.229  27.203  37.176  1.00  0.00    -0.206 F 
ATOM     74  C   UNL A   1      46.767  27.842  37.562  1.00  0.00     0.060 A 
BRANCH  74  75
ATOM     75  S   UNL A   1      48.168  27.307  38.569  1.00  0.00     0.124 S 
ATOM     76  O   UNL A   1      47.616  27.410  39.916  1.00  0.00    -0.237 OA
ATOM     77  O   UNL A   1      48.400  25.952  38.080  1.00  0.00    -0.237 OA
ATOM     78  O   UNL A   1      49.211  28.275  38.245  1.00  0.00    -0.744 OA
ENDBRANCH  74  75
ENDBRANCH  53  67
BRANCH  54  79
ATOM     79  C   UNL A   1      36.993  32.902  31.060  1.00  0.00     0.058 A 
ATOM     80  C   UNL A   1      35.654  32.656  31.397  1.00  0.00     0.135 A 
ATOM     81  C   UNL A   1      37.252  33.763  29.983  1.00  0.00     0.135 A 
ATOM     82  F   UNL A   1      35.359  31.840  32.420  1.00  0.00    -0.206 F 
ATOM     83  C   UNL A   1      34.609  33.214  30.671  1.00  0.00     0.059 A 
ATOM     84  C   UNL A   1      36.223  34.354  29.258  1.00  0.00     0.059 A 
ATOM     85  F   UNL A   1      38.517  34.044  29.634  1.00  0.00    -0.206 F 
ATOM     86  C   UNL A   1      34.903  34.058  29.599  1.00  0.00     0.060 A 
BRANCH  86  87
ATOM     87  S   UNL A   1      33.538  34.775  28.663  1.00  0.00     0.124 S 
ATOM     88  O   UNL A   1      34.170  35.956  28.084  1.00  0.00    -0.237 OA
ATOM     89  O   UNL A   1      33.210  33.704  27.728  1.00  0.00    -0.237 OA
ATOM     90  O   UNL A   1      32.529  35.036  29.685  1.00  0.00    -0.744 OA
ENDBRANCH  86  87
ENDBRANCH  54  79
BRANCH  66  91
ATOM     91  C   UNL A   1      40.068  34.247  37.163  1.00  0.00     0.058 A 
ATOM     92  C   UNL A   1      40.665  35.515  37.081  1.00  0.00     0.135 A 
ATOM     93  C   UNL A   1      39.192  34.003  38.233  1.00  0.00     0.135 A 
ATOM     94  F   UNL A   1      41.517  35.797  36.083  1.00  0.00    -0.206 F 
ATOM     95  C   UNL A   1      40.415  36.499  38.033  1.00  0.00     0.059 A 
ATOM     96  C   UNL A   1      38.906  34.980  39.181  1.00  0.00     0.059 A 
ATOM     97  F   UNL A   1      38.590  32.809  38.354  1.00  0.00    -0.206 F 
ATOM     98  C   UNL A   1      39.530  36.223  39.077  1.00  0.00     0.060 A 
BRANCH  98  99
ATOM     99  S   UNL A   1      39.184  37.525  40.279  1.00  0.00     0.124 S 
ATOM    100  O   UNL A   1      38.739  36.752  41.432  1.00  0.00    -0.237 OA
ATOM    101  O   UNL A   1      40.484  38.175  40.416  1.00  0.00    -0.237 OA
ATOM    102  O   UNL A   1      38.154  38.327  39.626  1.00  0.00    -0.744 OA
ENDBRANCH  98  99
ENDBRANCH  66  91
ENDBRANCH  40  41
ENDBRANCH  33  35
ENDBRANCH  32  33
ENDBRANCH  31  32
ENDBRANCH  30  31
ENDBRANCH  29  30
ENDBRANCH  28  29
ENDBRANCH   1  28
TORSDOF 25
ENDMDL
MODEL 2
REMARK VINA RESULT:      -9.7      5.833     11.923
REMARK SMILES COc1cc(C)cc2c1O[C@H](C(F)(F)F)C(C(=O)OCCOCCOCCOCCOC(=O)c1ccc(-c3c4nc(c(-c5c(F)cc(S(=O)(=O)[O-])cc5F)c5ccc([nH]5)c(-c5c(F)cc(S(=O)(=O)[O-])cc5F)c5nc(c(-c6c(F)cc(S(=O)(=O)[O-])cc6F)c6ccc3[nH]6)C=C5)C=C4)cc1)=C2
REMARK SMILES IDX 26 1 25 2 24 3 23 4 22 5 21 6 20 7 19 8 17 9 18 10 16 11
REMARK SMILES IDX 3 12 4 13 9 14 5 15 8 16 10 17 6 18 7 19 100 20 11 21 2 22
REMARK SMILES IDX 1 23 12 24 13 25 14 26 15 27 27 28 28 29 29 30 30 31 31 32
REMARK SMILES IDX 32 33 33 34 34 35 35 36 99 37 36 38 98 39 37 40 38 41 39 42
REMARK SMILES IDX 92 43 40 44 97 45 91 46 93 47 41 48 96 49 90 50 89 51 42 53
REMARK SMILES IDX 76 54 55 55 75 56 56 57 59 58 74 59 94 60 57 61 58 62 73 64
REMARK SMILES IDX 95 65 60 66 43 67 44 68 53 69 45 70 46 71 52 72 54 73 47 74
REMARK SMILES IDX 48 75 49 76 50 77 51 78 77 79 78 80 87 81 79 82 80 83 86 84
REMARK SMILES IDX 88 85 81 86 82 87 83 88 84 89 85 90 61 91 62 92 71 93 63 94
REMARK SMILES IDX 64 95 70 96 72 97 65 98 66 99 67 100 68 101 69 102
REMARK H PARENT 93 52 59 63
REMARK Flexibility Score: inf
ROOT
ATOM      1  C   UNL A   1      33.230  35.153  29.786  1.00  0.00     0.188 C 
ENDROOT
BRANCH   1   2
ATOM      2  O   UNL A   1      33.983  34.687  28.667  1.00  0.00    -0.377 OA
BRANCH   2   3
ATOM      3  C   UNL A   1      34.945  33.671  28.885  1.00  0.00     0.188 C 
BRANCH   3   4
ATOM      4  C   UNL A   1      34.689  32.405  28.046  1.00  0.00     0.188 C 
BRANCH   4   5
ATOM      5  O   UNL A   1      33.308  32.066  27.951  1.00  0.00    -0.376 OA
BRANCH   5   6
ATOM      6  C   UNL A   1      32.943  31.059  27.014  1.00  0.00     0.202 C 
BRANCH   6   7
ATOM      7  C   UNL A   1      33.784  29.774  26.972  1.00  0.00     0.261 C 
BRANCH   7   8
ATOM      8  O   UNL A   1      33.447  28.851  25.925  1.00  0.00    -0.460 OA
BRANCH   8   9
ATOM      9  C   UNL A   1      32.580  27.863  26.209  1.00  0.00     0.338 C 
ATOM     10  O   UNL A   1      31.552  27.955  26.859  1.00  0.00    -0.246 OA
BRANCH   9  11
ATOM     11  C   UNL A   1      32.983  26.669  25.434  1.00  0.00     0.087 C 
ATOM     12  C   UNL A   1      34.191  23.315  23.243  1.00  0.00     0.161 A 
ATOM     13  C   UNL A   1      35.415  22.707  23.543  1.00  0.00     0.054 A 
ATOM     14  C   UNL A   1      33.752  24.411  24.005  1.00  0.00     0.169 A 
ATOM     15  C   UNL A   1      36.192  23.162  24.616  1.00  0.00    -0.047 A 
ATOM     16  C   UNL A   1      34.531  24.883  25.063  1.00  0.00     0.021 A 
ATOM     17  O   UNL A   1      32.547  24.963  23.664  1.00  0.00    -0.471 OA
ATOM     18  C   UNL A   1      37.508  22.521  24.944  1.00  0.00     0.044 C 
ATOM     19  C   UNL A   1      35.731  24.238  25.384  1.00  0.00     0.015 A 
ATOM     20  C   UNL A   1      34.123  26.067  25.799  1.00  0.00     0.027 C 
ATOM     21  C   UNL A   1      32.075  26.153  24.346  1.00  0.00     0.316 C 
BRANCH  12  22
ATOM     22  O   UNL A   1      33.409  22.960  22.172  1.00  0.00    -0.493 OA
ATOM     23  C   UNL A   1      32.356  22.045  22.444  1.00  0.00     0.278 C 
ENDBRANCH  12  22
BRANCH  21  24
ATOM     24  C   UNL A   1      31.775  27.225  23.289  1.00  0.00     0.430 C 
ATOM     25  F   UNL A   1      30.824  28.088  23.715  1.00  0.00    -0.167 F 
ATOM     26  F   UNL A   1      32.870  27.959  22.991  1.00  0.00    -0.167 F 
ATOM     27  F   UNL A   1      31.336  26.671  22.133  1.00  0.00    -0.167 F 
ENDBRANCH  21  24
ENDBRANCH   9  11
ENDBRANCH   8   9
ENDBRANCH   7   8
ENDBRANCH   6   7
ENDBRANCH   5   6
ENDBRANCH   4   5
ENDBRANCH   3   4
ENDBRANCH   2   3
ENDBRANCH   1   2
BRANCH   1  28
ATOM     28  C   UNL A   1      33.899  35.839  31.001  1.00  0.00     0.188 C 
BRANCH  28  29
ATOM     29  O   UNL A   1      34.364  34.937  32.003  1.00  0.00    -0.376 OA
BRANCH  29  30
ATOM     30  C   UNL A   1      35.767  34.895  32.223  1.00  0.00     0.202 C 
BRANCH  30  31
ATOM     31  C   UNL A   1      36.276  33.540  32.727  1.00  0.00     0.261 C 
BRANCH  31  32
ATOM     32  O   UNL A   1      37.200  32.872  31.854  1.00  0.00    -0.460 OA
BRANCH  32  33
ATOM     33  C   UNL A   1      36.871  31.638  31.412  1.00  0.00     0.338 C 
ATOM     34  O   UNL A   1      35.754  31.160  31.329  1.00  0.00    -0.246 OA
BRANCH  33  35
ATOM     35  C   UNL A   1      38.098  31.031  30.854  1.00  0.00     0.060 A 
ATOM     36  C   UNL A   1      38.220  30.835  29.476  1.00  0.00     0.016 A 
ATOM     37  C   UNL A   1      39.116  30.618  31.724  1.00  0.00     0.016 A 
ATOM     38  C   UNL A   1      39.381  30.254  28.964  1.00  0.00     0.010 A 
ATOM     39  C   UNL A   1      40.274  30.030  31.209  1.00  0.00     0.010 A 
ATOM     40  C   UNL A   1      40.424  29.869  29.824  1.00  0.00    -0.014 A 
BRANCH  40  41
ATOM     41  C   UNL A   1      41.735  29.481  29.246  1.00  0.00     0.031 A 
ATOM     42  C   UNL A   1      42.894  30.430  29.190  1.00  0.00     0.074 A 
ATOM     43  C   UNL A   1      41.863  28.218  28.795  1.00  0.00     0.049 A 
ATOM     44  N   UNL A   1      44.119  30.198  28.791  1.00  0.00    -0.248 NA
ATOM     45  C   UNL A   1      42.656  31.811  29.634  1.00  0.00     0.031 C 
ATOM     46  C   UNL A   1      40.793  27.215  28.795  1.00  0.00     0.029 A 
ATOM     47  N   UNL A   1      42.940  27.555  28.267  1.00  0.00    -0.354 N 
ATOM     48  C   UNL A   1      44.811  31.388  28.967  1.00  0.00     0.074 A 
ATOM     49  C   UNL A   1      43.856  32.359  29.460  1.00  0.00     0.031 C 
ATOM     50  C   UNL A   1      41.277  26.057  28.323  1.00  0.00     0.029 A 
ATOM     51  C   UNL A   1      42.679  26.240  27.964  1.00  0.00     0.049 A 
ATOM     52  H   UNL A   1      43.816  27.979  28.121  1.00  0.00     0.167 HD
ATOM     53  C   UNL A   1      46.127  31.635  28.756  1.00  0.00     0.037 A 
ATOM     54  C   UNL A   1      43.482  25.283  27.459  1.00  0.00     0.037 A 
ATOM     55  C   UNL A   1      47.067  30.663  28.248  1.00  0.00     0.049 A 
ATOM     56  C   UNL A   1      44.920  25.613  27.170  1.00  0.00     0.074 A 
ATOM     57  C   UNL A   1      48.423  30.825  28.009  1.00  0.00     0.029 A 
ATOM     58  N   UNL A   1      46.757  29.358  27.899  1.00  0.00    -0.354 N 
ATOM     59  N   UNL A   1      45.568  26.732  27.385  1.00  0.00    -0.248 NA
ATOM     60  C   UNL A   1      45.737  24.547  26.571  1.00  0.00     0.031 C 
ATOM     61  C   UNL A   1      48.923  29.630  27.481  1.00  0.00     0.029 A 
ATOM     62  C   UNL A   1      47.889  28.710  27.431  1.00  0.00     0.049 A 
ATOM     63  H   UNL A   1      45.864  28.951  27.974  1.00  0.00     0.167 HD
ATOM     64  C   UNL A   1      46.876  26.495  26.977  1.00  0.00     0.074 A 
ATOM     65  C   UNL A   1      46.929  25.124  26.515  1.00  0.00     0.031 C 
ATOM     66  C   UNL A   1      47.935  27.340  26.984  1.00  0.00     0.037 A 
BRANCH  53  67
ATOM     67  C   UNL A   1      46.664  32.997  29.102  1.00  0.00     0.058 A 
ATOM     68  C   UNL A   1      47.222  33.253  30.364  1.00  0.00     0.135 A 
ATOM     69  C   UNL A   1      46.749  34.008  28.131  1.00  0.00     0.135 A 
ATOM     70  F   UNL A   1      47.158  32.323  31.331  1.00  0.00    -0.206 F 
ATOM     71  C   UNL A   1      47.853  34.458  30.649  1.00  0.00     0.059 A 
ATOM     72  C   UNL A   1      47.395  35.215  28.388  1.00  0.00     0.059 A 
ATOM     73  F   UNL A   1      46.233  33.814  26.906  1.00  0.00    -0.206 F 
ATOM     74  C   UNL A   1      47.946  35.429  29.651  1.00  0.00     0.060 A 
BRANCH  74  75
ATOM     75  S   UNL A   1      48.830  36.960  30.021  1.00  0.00     0.124 S 
ATOM     76  O   UNL A   1      47.816  37.965  29.715  1.00  0.00    -0.237 OA
ATOM     77  O   UNL A   1      49.155  36.796  31.434  1.00  0.00    -0.237 OA
ATOM     78  O   UNL A   1      49.970  36.926  29.110  1.00  0.00    -0.744 OA
ENDBRANCH  74  75
ENDBRANCH  53  67
BRANCH  54  79
ATOM     79  C   UNL A   1      42.955  23.916  27.218  1.00  0.00     0.058 A 
ATOM     80  C   UNL A   1      42.442  23.556  25.964  1.00  0.00     0.135 A 
ATOM     81  C   UNL A   1      42.934  22.951  28.237  1.00  0.00     0.135 A 
ATOM     82  F   UNL A   1      42.442  24.445  24.958  1.00  0.00    -0.206 F 
ATOM     83  C   UNL A   1      41.894  22.299  25.736  1.00  0.00     0.059 A 
ATOM     84  C   UNL A   1      42.416  21.678  28.026  1.00  0.00     0.059 A 
ATOM     85  F   UNL A   1      43.432  23.241  29.449  1.00  0.00    -0.206 F 
ATOM     86  C   UNL A   1      41.880  21.368  26.776  1.00  0.00     0.060 A 
BRANCH  86  87
ATOM     87  S   UNL A   1      41.166  19.740  26.471  1.00  0.00     0.124 S 
ATOM     88  O   UNL A   1      42.086  19.200  25.477  1.00  0.00    -0.237 OA
ATOM     89  O   UNL A   1      41.222  19.127  27.793  1.00  0.00    -0.237 OA
ATOM     90  O   UNL A   1      39.823  20.048  25.987  1.00  0.00    -0.744 OA
ENDBRANCH  86  87
ENDBRANCH  54  79
BRANCH  66  91
ATOM     91  C   UNL A   1      49.253  26.802  26.501  1.00  0.00     0.058 A 
ATOM     92  C   UNL A   1      49.714  27.050  25.198  1.00  0.00     0.135 A 
ATOM     93  C   UNL A   1      50.090  26.078  27.366  1.00  0.00     0.135 A 
ATOM     94  F   UNL A   1      48.948  27.729  24.329  1.00  0.00    -0.206 F 
ATOM     95  C   UNL A   1      50.950  26.584  24.764  1.00  0.00     0.059 A 
ATOM     96  C   UNL A   1      51.343  25.626  26.961  1.00  0.00     0.059 A 
ATOM     97  F   UNL A   1      49.701  25.819  28.623  1.00  0.00    -0.206 F 
ATOM     98  C   UNL A   1      51.761  25.878  25.654  1.00  0.00     0.060 A 
BRANCH  98  99
ATOM     99  S   UNL A   1      53.381  25.319  25.088  1.00  0.00     0.124 S 
ATOM    100  O   UNL A   1      54.272  26.232  25.794  1.00  0.00    -0.237 OA
ATOM    101  O   UNL A   1      53.407  23.931  25.542  1.00  0.00    -0.237 OA
ATOM    102  O   UNL A   1      53.318  25.498  23.641  1.00  0.00    -0.744 OA
ENDBRANCH  98  99
ENDBRANCH  66  91
ENDBRANCH  40  41
ENDBRANCH  33  35
ENDBRANCH  32  33
ENDBRANCH  31  32
ENDBRANCH  30  31
ENDBRANCH  29  30
ENDBRANCH  28  29
ENDBRANCH   1  28
TORSDOF 25
ENDMDL
MODEL 3
REMARK VINA RESULT:      -9.2      6.296     14.015
REMARK SMILES COc1cc(C)cc2c1O[C@H](C(F)(F)F)C(C(=O)OCCOCCOCCOCCOC(=O)c1ccc(-c3c4nc(c(-c5c(F)cc(S(=O)(=O)[O-])cc5F)c5ccc([nH]5)c(-c5c(F)cc(S(=O)(=O)[O-])cc5F)c5nc(c(-c6c(F)cc(S(=O)(=O)[O-])cc6F)c6ccc3[nH]6)C=C5)C=C4)cc1)=C2
REMARK SMILES IDX 26 1 25 2 24 3 23 4 22 5 21 6 20 7 19 8 17 9 18 10 16 11
REMARK SMILES IDX 3 12 4 13 9 14 5 15 8 16 10 17 6 18 7 19 100 20 11 21 2 22
REMARK SMILES IDX 1 23 12 24 13 25 14 26 15 27 27 28 28 29 29 30 30 31 31 32
REMARK SMILES IDX 32 33 33 34 34 35 35 36 99 37 36 38 98 39 37 40 38 41 39 42
REMARK SMILES IDX 92 43 40 44 97 45 91 46 93 47 41 48 96 49 90 50 89 51 42 53
REMARK SMILES IDX 76 54 55 55 75 56 56 57 59 58 74 59 94 60 57 61 58 62 73 64
REMARK SMILES IDX 95 65 60 66 43 67 44 68 53 69 45 70 46 71 52 72 54 73 47 74
REMARK SMILES IDX 48 75 49 76 50 77 51 78 77 79 78 80 87 81 79 82 80 83 86 84
REMARK SMILES IDX 88 85 81 86 82 87 83 88 84 89 85 90 61 91 62 92 71 93 63 94
REMARK SMILES IDX 64 95 70 96 72 97 65 98 66 99 67 100 68 101 69 102
REMARK H PARENT 93 52 59 63
REMARK Flexibility Score: inf
ROOT
ATOM      1  C   UNL A   1      36.556  34.835  32.739  1.00  0.00     0.188 C 
ENDROOT
BRANCH   1   2
ATOM      2  O   UNL A   1      37.348  34.706  33.919  1.00  0.00    -0.377 OA
BRANCH   2   3
ATOM      3  C   UNL A   1      38.067  33.502  34.113  1.00  0.00     0.188 C 
BRANCH   3   4
ATOM      4  C   UNL A   1      39.349  33.419  33.265  1.00  0.00     0.188 C 
BRANCH   4   5
ATOM      5  O   UNL A   1      40.495  33.944  33.929  1.00  0.00    -0.376 OA
BRANCH   5   6
ATOM      6  C   UNL A   1      41.545  33.036  34.244  1.00  0.00     0.202 C 
BRANCH   6   7
ATOM      7  C   UNL A   1      41.769  31.840  33.306  1.00  0.00     0.261 C 
BRANCH   7   8
ATOM      8  O   UNL A   1      41.823  30.556  33.947  1.00  0.00    -0.460 OA
BRANCH   8   9
ATOM      9  C   UNL A   1      43.002  30.155  34.457  1.00  0.00     0.338 C 
ATOM     10  O   UNL A   1      43.521  30.540  35.492  1.00  0.00    -0.246 OA
BRANCH   9  11
ATOM     11  C   UNL A   1      43.484  29.016  33.645  1.00  0.00     0.087 C 
ATOM     12  C   UNL A   1      44.870  25.764  31.408  1.00  0.00     0.161 A 
ATOM     13  C   UNL A   1      44.769  24.473  31.941  1.00  0.00     0.054 A 
ATOM     14  C   UNL A   1      44.363  26.857  32.129  1.00  0.00     0.169 A 
ATOM     15  C   UNL A   1      44.137  24.260  33.173  1.00  0.00    -0.047 A 
ATOM     16  C   UNL A   1      43.750  26.654  33.367  1.00  0.00     0.021 A 
ATOM     17  O   UNL A   1      44.491  28.093  31.556  1.00  0.00    -0.471 OA
ATOM     18  C   UNL A   1      44.026  22.883  33.757  1.00  0.00     0.044 C 
ATOM     19  C   UNL A   1      43.612  25.356  33.870  1.00  0.00     0.015 A 
ATOM     20  C   UNL A   1      43.300  27.790  34.153  1.00  0.00     0.027 C 
ATOM     21  C   UNL A   1      44.074  29.277  32.283  1.00  0.00     0.316 C 
BRANCH  12  22
ATOM     22  O   UNL A   1      45.527  26.051  30.238  1.00  0.00    -0.493 OA
ATOM     23  C   UNL A   1      46.935  25.859  30.249  1.00  0.00     0.278 C 
ENDBRANCH  12  22
BRANCH  21  24
ATOM     24  C   UNL A   1      45.264  30.246  32.346  1.00  0.00     0.430 C 
ATOM     25  F   UNL A   1      44.854  31.535  32.337  1.00  0.00    -0.167 F 
ATOM     26  F   UNL A   1      45.995  30.072  33.469  1.00  0.00    -0.167 F 
ATOM     27  F   UNL A   1      46.098  30.075  31.292  1.00  0.00    -0.167 F 
ENDBRANCH  21  24
ENDBRANCH   9  11
ENDBRANCH   8   9
ENDBRANCH   7   8
ENDBRANCH   6   7
ENDBRANCH   5   6
ENDBRANCH   4   5
ENDBRANCH   3   4
ENDBRANCH   2   3
ENDBRANCH   1   2
BRANCH   1  28
ATOM     28  C   UNL A   1      35.012  34.908  32.787  1.00  0.00     0.188 C 
BRANCH  28  29
ATOM     29  O   UNL A   1      34.368  34.550  31.566  1.00  0.00    -0.376 OA
BRANCH  29  30
ATOM     30  C   UNL A   1      34.572  33.223  31.101  1.00  0.00     0.202 C 
BRANCH  30  31
ATOM     31  C   UNL A   1      35.545  33.122  29.921  1.00  0.00     0.261 C 
BRANCH  31  32
ATOM     32  O   UNL A   1      36.223  31.863  29.795  1.00  0.00    -0.460 OA
BRANCH  32  33
ATOM     33  C   UNL A   1      36.854  31.374  30.886  1.00  0.00     0.338 C 
ATOM     34  O   UNL A   1      36.420  31.316  32.022  1.00  0.00    -0.246 OA
BRANCH  33  35
ATOM     35  C   UNL A   1      38.103  30.734  30.420  1.00  0.00     0.060 A 
ATOM     36  C   UNL A   1      38.347  30.584  29.052  1.00  0.00     0.016 A 
ATOM     37  C   UNL A   1      39.016  30.243  31.362  1.00  0.00     0.016 A 
ATOM     38  C   UNL A   1      39.525  29.971  28.627  1.00  0.00     0.010 A 
ATOM     39  C   UNL A   1      40.193  29.624  30.933  1.00  0.00     0.010 A 
ATOM     40  C   UNL A   1      40.466  29.508  29.562  1.00  0.00    -0.014 A 
BRANCH  40  41
ATOM     41  C   UNL A   1      41.808  29.084  29.093  1.00  0.00     0.031 A 
ATOM     42  C   UNL A   1      42.094  27.678  28.658  1.00  0.00     0.074 A 
ATOM     43  C   UNL A   1      42.771  30.025  29.038  1.00  0.00     0.049 A 
ATOM     44  N   UNL A   1      43.196  27.191  28.147  1.00  0.00    -0.248 NA
ATOM     45  C   UNL A   1      41.016  26.692  28.816  1.00  0.00     0.031 C 
ATOM     46  C   UNL A   1      42.600  31.423  29.446  1.00  0.00     0.029 A 
ATOM     47  N   UNL A   1      44.070  29.961  28.606  1.00  0.00    -0.354 N 
ATOM     48  C   UNL A   1      42.939  25.852  27.886  1.00  0.00     0.074 A 
ATOM     49  C   UNL A   1      41.590  25.589  28.345  1.00  0.00     0.031 C 
ATOM     50  C   UNL A   1      43.740  32.091  29.214  1.00  0.00     0.029 A 
ATOM     51  C   UNL A   1      44.728  31.167  28.667  1.00  0.00     0.049 A 
ATOM     52  H   UNL A   1      44.491  29.133  28.284  1.00  0.00     0.167 HD
ATOM     53  C   UNL A   1      43.748  24.939  27.297  1.00  0.00     0.037 A 
ATOM     54  C   UNL A   1      45.985  31.496  28.315  1.00  0.00     0.037 A 
ATOM     55  C   UNL A   1      45.098  25.210  26.858  1.00  0.00     0.049 A 
ATOM     56  C   UNL A   1      46.880  30.439  27.729  1.00  0.00     0.074 A 
ATOM     57  C   UNL A   1      45.990  24.345  26.244  1.00  0.00     0.029 A 
ATOM     58  N   UNL A   1      45.751  26.426  26.985  1.00  0.00    -0.354 N 
ATOM     59  N   UNL A   1      46.604  29.189  27.448  1.00  0.00    -0.248 NA
ATOM     60  C   UNL A   1      48.258  30.839  27.410  1.00  0.00     0.031 C 
ATOM     61  C   UNL A   1      47.193  25.027  26.036  1.00  0.00     0.029 A 
ATOM     62  C   UNL A   1      47.037  26.330  26.479  1.00  0.00     0.049 A 
ATOM     63  H   UNL A   1      45.357  27.239  27.377  1.00  0.00     0.167 HD
ATOM     64  C   UNL A   1      47.764  28.662  26.891  1.00  0.00     0.074 A 
ATOM     65  C   UNL A   1      48.739  29.732  26.864  1.00  0.00     0.031 C 
ATOM     66  C   UNL A   1      47.998  27.404  26.445  1.00  0.00     0.037 A 
BRANCH  53  67
ATOM     67  C   UNL A   1      43.207  23.559  27.047  1.00  0.00     0.058 A 
ATOM     68  C   UNL A   1      42.856  23.146  25.752  1.00  0.00     0.135 A 
ATOM     69  C   UNL A   1      43.167  22.600  28.073  1.00  0.00     0.135 A 
ATOM     70  F   UNL A   1      42.867  24.025  24.737  1.00  0.00    -0.206 F 
ATOM     71  C   UNL A   1      42.494  21.831  25.481  1.00  0.00     0.059 A 
ATOM     72  C   UNL A   1      42.828  21.273  27.821  1.00  0.00     0.059 A 
ATOM     73  F   UNL A   1      43.496  22.943  29.329  1.00  0.00    -0.206 F 
ATOM     74  C   UNL A   1      42.495  20.898  26.520  1.00  0.00     0.060 A 
BRANCH  74  75
ATOM     75  S   UNL A   1      42.089  19.181  26.134  1.00  0.00     0.124 S 
ATOM     76  O   UNL A   1      42.929  18.936  24.966  1.00  0.00    -0.237 OA
ATOM     77  O   UNL A   1      42.483  18.488  27.356  1.00  0.00    -0.237 OA
ATOM     78  O   UNL A   1      40.653  19.220  25.874  1.00  0.00    -0.744 OA
ENDBRANCH  74  75
ENDBRANCH  53  67
BRANCH  54  79
ATOM     79  C   UNL A   1      46.468  32.891  28.479  1.00  0.00     0.058 A 
ATOM     80  C   UNL A   1      46.394  33.804  27.418  1.00  0.00     0.135 A 
ATOM     81  C   UNL A   1      47.031  33.331  29.686  1.00  0.00     0.135 A 
ATOM     82  F   UNL A   1      45.863  33.428  26.244  1.00  0.00    -0.206 F 
ATOM     83  C   UNL A   1      46.892  35.096  27.535  1.00  0.00     0.059 A 
ATOM     84  C   UNL A   1      47.511  34.628  29.837  1.00  0.00     0.059 A 
ATOM     85  F   UNL A   1      47.106  32.500  30.737  1.00  0.00    -0.206 F 
ATOM     86  C   UNL A   1      47.454  35.497  28.748  1.00  0.00     0.060 A 
BRANCH  86  87
ATOM     87  S   UNL A   1      48.099  37.176  28.889  1.00  0.00     0.124 S 
ATOM     88  O   UNL A   1      49.530  36.955  28.712  1.00  0.00    -0.237 OA
ATOM     89  O   UNL A   1      47.419  37.859  27.794  1.00  0.00    -0.237 OA
ATOM     90  O   UNL A   1      47.683  37.585  30.228  1.00  0.00    -0.744 OA
ENDBRANCH  86  87
ENDBRANCH  54  79
BRANCH  66  91
ATOM     91  C   UNL A   1      49.354  27.117  25.863  1.00  0.00     0.058 A 
ATOM     92  C   UNL A   1      49.605  27.245  24.489  1.00  0.00     0.135 A 
ATOM     93  C   UNL A   1      50.429  26.763  26.696  1.00  0.00     0.135 A 
ATOM     94  F   UNL A   1      48.611  27.572  23.648  1.00  0.00    -0.206 F 
ATOM     95  C   UNL A   1      50.870  27.016  23.956  1.00  0.00     0.059 A 
ATOM     96  C   UNL A   1      51.708  26.556  26.190  1.00  0.00     0.059 A 
ATOM     97  F   UNL A   1      50.244  26.633  28.019  1.00  0.00    -0.206 F 
ATOM     98  C   UNL A   1      51.917  26.677  24.816  1.00  0.00     0.060 A 
BRANCH  98  99
ATOM     99  S   UNL A   1      53.561  26.426  24.115  1.00  0.00     0.124 S 
ATOM    100  O   UNL A   1      54.124  25.438  25.027  1.00  0.00    -0.237 OA
ATOM    101  O   UNL A   1      53.255  25.946  22.770  1.00  0.00    -0.237 OA
ATOM    102  O   UNL A   1      54.165  27.753  24.177  1.00  0.00    -0.744 OA
ENDBRANCH  98  99
ENDBRANCH  66  91
ENDBRANCH  40  41
ENDBRANCH  33  35
ENDBRANCH  32  33
ENDBRANCH  31  32
ENDBRANCH  30  31
ENDBRANCH  29  30
ENDBRANCH  28  29
ENDBRANCH   1  28
TORSDOF 25
ENDMDL
