MODEL 1
REMARK VINA RESULT:     -10.8      0.000      0.000
REMARK SMILES O=C(OCCOCCOCCOCCOC(=O)c1cc(Cl)ccc1N1C(=O)CC2(CCCC2)C1=O)c1ccc(-c2c3nc(c(-c4c(F)cc(S(=O)(=O)[O-])cc4F)c4ccc([nH]4)c(-c4c(F)cc(S(=O)(=O)[O-])cc4F)c4nc(c(-c5c(F)cc(S(=O)(=O)[O-])cc5F)c5ccc2[nH]5)C=C4)C=C3)cc1
REMARK SMILES IDX 8 1 7 2 6 3 5 4 4 5 3 6 2 7 1 8 36 9 37 10 101 11 38 12
REMARK SMILES IDX 100 13 39 14 40 15 41 16 94 17 42 18 99 19 93 20 95 21 43 22
REMARK SMILES IDX 98 23 92 24 91 25 44 27 78 28 57 29 77 30 58 31 61 32 76 33
REMARK SMILES IDX 96 34 59 35 60 36 75 38 97 39 62 40 45 41 46 42 55 43 47 44
REMARK SMILES IDX 48 45 54 46 56 47 49 48 50 49 51 50 52 51 53 52 79 53 80 54
REMARK SMILES IDX 89 55 81 56 82 57 88 58 90 59 83 60 84 61 85 62 86 63 87 64
REMARK SMILES IDX 63 65 64 66 73 67 65 68 66 69 72 70 74 71 67 72 68 73 69 74
REMARK SMILES IDX 70 75 71 76 9 77 10 78 11 79 12 80 13 81 14 82 15 83 16 84
REMARK SMILES IDX 17 85 18 86 19 87 24 88 20 89 23 90 21 91 22 92 25 93 26 94
REMARK SMILES IDX 34 95 27 96 28 97 29 98 35 99 30 100 33 101 31 102 32 103
REMARK H PARENT 95 26 61 37
REMARK Flexibility Score: inf
ROOT
ATOM      1  C   UNL A   1      36.468  33.746  29.484  1.00  0.00     0.188 C 
ENDROOT
BRANCH   1   2
ATOM      2  C   UNL A   1      36.875  33.294  30.891  1.00  0.00     0.188 C 
BRANCH   2   3
ATOM      3  O   UNL A   1      35.753  32.810  31.613  1.00  0.00    -0.376 OA
BRANCH   3   4
ATOM      4  C   UNL A   1      35.960  31.905  32.696  1.00  0.00     0.202 C 
BRANCH   4   5
ATOM      5  C   UNL A   1      37.380  31.371  32.802  1.00  0.00     0.261 C 
BRANCH   5   6
ATOM      6  O   UNL A   1      37.331  29.960  32.578  1.00  0.00    -0.460 OA
BRANCH   6   7
ATOM      7  C   UNL A   1      37.263  29.585  31.278  1.00  0.00     0.338 C 
ATOM      8  O   UNL A   1      36.289  29.188  30.667  1.00  0.00    -0.246 OA
BRANCH   7   9
ATOM      9  C   UNL A   1      38.628  29.729  30.757  1.00  0.00     0.060 A 
ATOM     10  C   UNL A   1      38.821  30.269  29.477  1.00  0.00     0.016 A 
ATOM     11  C   UNL A   1      39.688  29.209  31.483  1.00  0.00     0.016 A 
ATOM     12  C   UNL A   1      40.043  30.179  28.856  1.00  0.00     0.010 A 
ATOM     13  C   UNL A   1      40.938  29.162  30.877  1.00  0.00     0.010 A 
ATOM     14  C   UNL A   1      41.100  29.610  29.551  1.00  0.00    -0.014 A 
BRANCH  14  15
ATOM     15  C   UNL A   1      42.348  29.342  28.830  1.00  0.00     0.031 A 
ATOM     16  C   UNL A   1      42.513  27.986  28.231  1.00  0.00     0.074 A 
ATOM     17  C   UNL A   1      43.274  30.305  28.711  1.00  0.00     0.049 A 
ATOM     18  N   UNL A   1      43.601  27.371  27.874  1.00  0.00    -0.248 NA
ATOM     19  C   UNL A   1      41.278  27.204  28.042  1.00  0.00     0.031 C 
ATOM     20  C   UNL A   1      43.109  31.699  29.131  1.00  0.00     0.029 A 
ATOM     21  N   UNL A   1      44.550  30.248  28.224  1.00  0.00    -0.354 N 
ATOM     22  C   UNL A   1      43.197  26.094  27.510  1.00  0.00     0.074 A 
ATOM     23  C   UNL A   1      41.762  26.033  27.661  1.00  0.00     0.031 C 
ATOM     24  C   UNL A   1      44.253  32.362  28.906  1.00  0.00     0.029 A 
ATOM     25  C   UNL A   1      45.252  31.409  28.440  1.00  0.00     0.049 A 
ATOM     26  H   UNL A   1      44.925  29.460  27.769  1.00  0.00     0.167 HD
ATOM     27  C   UNL A   1      43.988  25.068  27.122  1.00  0.00     0.037 A 
ATOM     28  C   UNL A   1      46.575  31.636  28.365  1.00  0.00     0.037 A 
ATOM     29  C   UNL A   1      45.412  25.219  26.983  1.00  0.00     0.049 A 
ATOM     30  C   UNL A   1      47.452  30.479  27.985  1.00  0.00     0.074 A 
ATOM     31  C   UNL A   1      46.356  24.276  26.628  1.00  0.00     0.029 A 
ATOM     32  N   UNL A   1      46.092  26.416  27.194  1.00  0.00    -0.354 N 
ATOM     33  N   UNL A   1      47.104  29.237  27.731  1.00  0.00    -0.248 NA
ATOM     34  C   UNL A   1      48.891  30.733  27.898  1.00  0.00     0.031 C 
ATOM     35  C   UNL A   1      47.611  24.894  26.671  1.00  0.00     0.029 A 
ATOM     36  C   UNL A   1      47.446  26.236  26.990  1.00  0.00     0.049 A 
ATOM     37  H   UNL A   1      45.670  27.267  27.452  1.00  0.00     0.167 HD
ATOM     38  C   UNL A   1      48.277  28.562  27.429  1.00  0.00     0.074 A 
ATOM     39  C   UNL A   1      49.348  29.539  27.537  1.00  0.00     0.031 C 
ATOM     40  C   UNL A   1      48.461  27.262  27.091  1.00  0.00     0.037 A 
BRANCH  27  41
ATOM     41  C   UNL A   1      43.336  23.725  26.946  1.00  0.00     0.058 A 
ATOM     42  C   UNL A   1      42.946  22.926  28.034  1.00  0.00     0.135 A 
ATOM     43  C   UNL A   1      43.176  23.191  25.656  1.00  0.00     0.135 A 
ATOM     44  F   UNL A   1      43.100  23.371  29.290  1.00  0.00    -0.206 F 
ATOM     45  C   UNL A   1      42.478  21.627  27.851  1.00  0.00     0.059 A 
ATOM     46  C   UNL A   1      42.679  21.907  25.450  1.00  0.00     0.059 A 
ATOM     47  F   UNL A   1      43.539  23.904  24.579  1.00  0.00    -0.206 F 
ATOM     48  C   UNL A   1      42.361  21.122  26.555  1.00  0.00     0.060 A 
BRANCH  48  49
ATOM     49  S   UNL A   1      41.816  19.414  26.337  1.00  0.00     0.124 S 
ATOM     50  O   UNL A   1      40.374  19.587  26.185  1.00  0.00    -0.237 OA
ATOM     51  O   UNL A   1      42.534  19.006  25.135  1.00  0.00    -0.237 OA
ATOM     52  O   UNL A   1      42.242  18.762  27.571  1.00  0.00    -0.744 OA
ENDBRANCH  48  49
ENDBRANCH  27  41
BRANCH  28  53
ATOM     53  C   UNL A   1      47.106  32.977  28.728  1.00  0.00     0.058 A 
ATOM     54  C   UNL A   1      47.575  33.242  30.021  1.00  0.00     0.135 A 
ATOM     55  C   UNL A   1      47.256  33.986  27.761  1.00  0.00     0.135 A 
ATOM     56  F   UNL A   1      47.453  32.314  30.982  1.00  0.00    -0.206 F 
ATOM     57  C   UNL A   1      48.186  34.452  30.341  1.00  0.00     0.059 A 
ATOM     58  C   UNL A   1      47.887  35.192  28.048  1.00  0.00     0.059 A 
ATOM     59  F   UNL A   1      46.842  33.777  26.500  1.00  0.00    -0.206 F 
ATOM     60  C   UNL A   1      48.350  35.415  29.343  1.00  0.00     0.060 A 
BRANCH  60  61
ATOM     61  S   UNL A   1      49.233  36.940  29.746  1.00  0.00     0.124 S 
ATOM     62  O   UNL A   1      50.003  37.164  28.529  1.00  0.00    -0.237 OA
ATOM     63  O   UNL A   1      48.137  37.872  29.988  1.00  0.00    -0.237 OA
ATOM     64  O   UNL A   1      50.008  36.578  30.928  1.00  0.00    -0.744 OA
ENDBRANCH  60  61
ENDBRANCH  28  53
BRANCH  40  65
ATOM     65  C   UNL A   1      49.857  26.836  26.748  1.00  0.00     0.058 A 
ATOM     66  C   UNL A   1      50.731  26.326  27.718  1.00  0.00     0.135 A 
ATOM     67  C   UNL A   1      50.264  26.816  25.405  1.00  0.00     0.135 A 
ATOM     68  F   UNL A   1      50.384  26.338  29.015  1.00  0.00    -0.206 F 
ATOM     69  C   UNL A   1      51.965  25.796  27.364  1.00  0.00     0.059 A 
ATOM     70  C   UNL A   1      51.481  26.267  25.027  1.00  0.00     0.059 A 
ATOM     71  F   UNL A   1      49.453  27.288  24.445  1.00  0.00    -0.206 F 
ATOM     72  C   UNL A   1      52.323  25.757  26.014  1.00  0.00     0.060 A 
BRANCH  72  73
ATOM     73  S   UNL A   1      53.880  24.968  25.558  1.00  0.00     0.124 S 
ATOM     74  O   UNL A   1      54.310  25.795  24.437  1.00  0.00    -0.237 OA
ATOM     75  O   UNL A   1      54.664  25.099  26.783  1.00  0.00    -0.237 OA
ATOM     76  O   UNL A   1      53.483  23.604  25.218  1.00  0.00    -0.744 OA
ENDBRANCH  72  73
ENDBRANCH  40  65
ENDBRANCH  14  15
ENDBRANCH   7   9
ENDBRANCH   6   7
ENDBRANCH   5   6
ENDBRANCH   4   5
ENDBRANCH   3   4
ENDBRANCH   2   3
ENDBRANCH   1   2
BRANCH   1  77
ATOM     77  O   UNL A   1      35.216  34.426  29.403  1.00  0.00    -0.377 OA
BRANCH  77  78
ATOM     78  C   UNL A   1      34.225  33.804  28.591  1.00  0.00     0.188 C 
BRANCH  78  79
ATOM     79  C   UNL A   1      34.459  32.330  28.188  1.00  0.00     0.188 C 
BRANCH  79  80
ATOM     80  O   UNL A   1      33.283  31.663  27.786  1.00  0.00    -0.376 OA
BRANCH  80  81
ATOM     81  C   UNL A   1      33.436  30.460  27.056  1.00  0.00     0.202 C 
BRANCH  81  82
ATOM     82  C   UNL A   1      32.170  29.718  26.608  1.00  0.00     0.261 C 
BRANCH  82  83
ATOM     83  O   UNL A   1      32.330  28.583  25.733  1.00  0.00    -0.460 OA
BRANCH  83  84
ATOM     84  C   UNL A   1      31.709  27.394  25.980  1.00  0.00     0.340 C 
ATOM     85  O   UNL A   1      31.119  27.072  26.966  1.00  0.00    -0.246 OA
BRANCH  84  86
ATOM     86  C   UNL A   1      31.784  26.626  24.693  1.00  0.00     0.085 A 
ATOM     87  C   UNL A   1      32.838  25.692  24.581  1.00  0.00     0.038 A 
ATOM     88  C   UNL A   1      30.959  26.884  23.575  1.00  0.00     0.066 A 
ATOM     89  C   UNL A   1      33.074  25.027  23.381  1.00  0.00     0.042 A 
ATOM     90  C   UNL A   1      31.201  26.165  22.384  1.00  0.00     0.029 A 
ATOM     91  Cl  UNL A   1      34.413  23.958  23.238  1.00  0.00    -0.084 Cl
ATOM     92  C   UNL A   1      32.250  25.249  22.286  1.00  0.00     0.023 A 
BRANCH  88  93
ATOM     93  N   UNL A   1      29.989  27.931  23.501  1.00  0.00    -0.249 N 
ATOM     94  C   UNL A   1      28.645  27.649  23.534  1.00  0.00     0.234 C 
ATOM     95  C   UNL A   1      30.196  29.030  22.696  1.00  0.00     0.240 C 
ATOM     96  O   UNL A   1      28.122  26.586  23.844  1.00  0.00    -0.274 OA
ATOM     97  C   UNL A   1      27.880  28.784  22.881  1.00  0.00     0.118 C 
ATOM     98  C   UNL A   1      28.931  29.866  22.639  1.00  0.00     0.059 C 
ATOM     99  O   UNL A   1      31.204  29.270  22.043  1.00  0.00    -0.273 OA
ATOM    100  C   UNL A   1      28.783  30.624  21.305  1.00  0.00     0.017 C 
ATOM    101  C   UNL A   1      28.896  30.966  23.708  1.00  0.00     0.017 C 
ATOM    102  C   UNL A   1      28.311  32.041  21.631  1.00  0.00     0.001 C 
ATOM    103  C   UNL A   1      28.021  32.064  23.120  1.00  0.00     0.001 C 
ENDBRANCH  88  93
ENDBRANCH  84  86
ENDBRANCH  83  84
ENDBRANCH  82  83
ENDBRANCH  81  82
ENDBRANCH  80  81
ENDBRANCH  79  80
ENDBRANCH  78  79
ENDBRANCH  77  78
ENDBRANCH   1  77
TORSDOF 24
ENDMDL
MODEL 2
REMARK VINA RESULT:     -10.5      5.973     10.999
REMARK SMILES O=C(OCCOCCOCCOCCOC(=O)c1cc(Cl)ccc1N1C(=O)CC2(CCCC2)C1=O)c1ccc(-c2c3nc(c(-c4c(F)cc(S(=O)(=O)[O-])cc4F)c4ccc([nH]4)c(-c4c(F)cc(S(=O)(=O)[O-])cc4F)c4nc(c(-c5c(F)cc(S(=O)(=O)[O-])cc5F)c5ccc2[nH]5)C=C4)C=C3)cc1
REMARK SMILES IDX 8 1 7 2 6 3 5 4 4 5 3 6 2 7 1 8 36 9 37 10 101 11 38 12
REMARK SMILES IDX 100 13 39 14 40 15 41 16 94 17 42 18 99 19 93 20 95 21 43 22
REMARK SMILES IDX 98 23 92 24 91 25 44 27 78 28 57 29 77 30 58 31 61 32 76 33
REMARK SMILES IDX 96 34 59 35 60 36 75 38 97 39 62 40 45 41 46 42 55 43 47 44
REMARK SMILES IDX 48 45 54 46 56 47 49 48 50 49 51 50 52 51 53 52 79 53 80 54
REMARK SMILES IDX 89 55 81 56 82 57 88 58 90 59 83 60 84 61 85 62 86 63 87 64
REMARK SMILES IDX 63 65 64 66 73 67 65 68 66 69 72 70 74 71 67 72 68 73 69 74
REMARK SMILES IDX 70 75 71 76 9 77 10 78 11 79 12 80 13 81 14 82 15 83 16 84
REMARK SMILES IDX 17 85 18 86 19 87 24 88 20 89 23 90 21 91 22 92 25 93 26 94
REMARK SMILES IDX 34 95 27 96 28 97 29 98 35 99 30 100 33 101 31 102 32 103
REMARK H PARENT 95 26 61 37
REMARK Flexibility Score: inf
ROOT
ATOM      1  C   UNL A   1      36.968  21.855  24.074  1.00  0.00     0.188 C 
ENDROOT
BRANCH   1   2
ATOM      2  C   UNL A   1      37.663  20.744  24.870  1.00  0.00     0.188 C 
BRANCH   2   3
ATOM      3  O   UNL A   1      38.600  21.287  25.788  1.00  0.00    -0.376 OA
BRANCH   3   4
ATOM      4  C   UNL A   1      39.781  20.548  26.096  1.00  0.00     0.202 C 
BRANCH   4   5
ATOM      5  C   UNL A   1      40.992  21.410  26.416  1.00  0.00     0.261 C 
BRANCH   5   6
ATOM      6  O   UNL A   1      40.557  22.771  26.460  1.00  0.00    -0.460 OA
BRANCH   6   7
ATOM      7  C   UNL A   1      41.502  23.687  26.139  1.00  0.00     0.338 C 
ATOM      8  O   UNL A   1      42.446  23.550  25.385  1.00  0.00    -0.246 OA
BRANCH   7   9
ATOM      9  C   UNL A   1      41.168  24.885  26.919  1.00  0.00     0.060 A 
ATOM     10  C   UNL A   1      41.782  26.105  26.601  1.00  0.00     0.016 A 
ATOM     11  C   UNL A   1      40.354  24.761  28.035  1.00  0.00     0.016 A 
ATOM     12  C   UNL A   1      41.698  27.176  27.458  1.00  0.00     0.010 A 
ATOM     13  C   UNL A   1      40.226  25.858  28.878  1.00  0.00     0.010 A 
ATOM     14  C   UNL A   1      40.932  27.048  28.607  1.00  0.00    -0.014 A 
BRANCH  14  15
ATOM     15  C   UNL A   1      40.992  28.114  29.611  1.00  0.00     0.031 A 
ATOM     16  C   UNL A   1      42.030  27.993  30.675  1.00  0.00     0.074 A 
ATOM     17  C   UNL A   1      40.149  29.155  29.535  1.00  0.00     0.049 A 
ATOM     18  N   UNL A   1      42.080  28.558  31.844  1.00  0.00    -0.248 NA
ATOM     19  C   UNL A   1      43.150  27.077  30.389  1.00  0.00     0.031 C 
ATOM     20  C   UNL A   1      39.220  29.418  28.433  1.00  0.00     0.029 A 
ATOM     21  N   UNL A   1      39.921  30.172  30.419  1.00  0.00    -0.354 N 
ATOM     22  C   UNL A   1      43.181  27.995  32.475  1.00  0.00     0.074 A 
ATOM     23  C   UNL A   1      43.787  27.067  31.549  1.00  0.00     0.031 C 
ATOM     24  C   UNL A   1      38.502  30.513  28.718  1.00  0.00     0.029 A 
ATOM     25  C   UNL A   1      38.844  30.948  30.066  1.00  0.00     0.049 A 
ATOM     26  H   UNL A   1      40.468  30.330  31.221  1.00  0.00     0.167 HD
ATOM     27  C   UNL A   1      43.602  28.228  33.739  1.00  0.00     0.037 A 
ATOM     28  C   UNL A   1      38.153  31.838  30.800  1.00  0.00     0.037 A 
ATOM     29  C   UNL A   1      42.949  29.183  34.594  1.00  0.00     0.049 A 
ATOM     30  C   UNL A   1      38.594  32.052  32.219  1.00  0.00     0.074 A 
ATOM     31  C   UNL A   1      43.232  29.515  35.903  1.00  0.00     0.029 A 
ATOM     32  N   UNL A   1      41.867  29.967  34.200  1.00  0.00    -0.354 N 
ATOM     33  N   UNL A   1      39.572  31.461  32.869  1.00  0.00    -0.248 NA
ATOM     34  C   UNL A   1      37.843  33.027  33.011  1.00  0.00     0.031 C 
ATOM     35  C   UNL A   1      42.291  30.466  36.314  1.00  0.00     0.029 A 
ATOM     36  C   UNL A   1      41.460  30.775  35.243  1.00  0.00     0.049 A 
ATOM     37  H   UNL A   1      41.452  29.948  33.307  1.00  0.00     0.167 HD
ATOM     38  C   UNL A   1      39.572  32.007  34.144  1.00  0.00     0.074 A 
ATOM     39  C   UNL A   1      38.491  32.978  34.170  1.00  0.00     0.031 C 
ATOM     40  C   UNL A   1      40.386  31.742  35.196  1.00  0.00     0.037 A 
BRANCH  27  41
ATOM     41  C   UNL A   1      44.719  27.367  34.261  1.00  0.00     0.058 A 
ATOM     42  C   UNL A   1      46.069  27.750  34.184  1.00  0.00     0.135 A 
ATOM     43  C   UNL A   1      44.434  26.090  34.776  1.00  0.00     0.135 A 
ATOM     44  F   UNL A   1      46.404  28.946  33.676  1.00  0.00    -0.206 F 
ATOM     45  C   UNL A   1      47.094  26.878  34.540  1.00  0.00     0.059 A 
ATOM     46  C   UNL A   1      45.443  25.215  35.169  1.00  0.00     0.059 A 
ATOM     47  F   UNL A   1      43.165  25.665  34.866  1.00  0.00    -0.206 F 
ATOM     48  C   UNL A   1      46.771  25.607  35.019  1.00  0.00     0.060 A 
BRANCH  48  49
ATOM     49  S   UNL A   1      48.112  24.465  35.415  1.00  0.00     0.124 S 
ATOM     50  O   UNL A   1      48.680  24.214  34.093  1.00  0.00    -0.237 OA
ATOM     51  O   UNL A   1      48.940  25.254  36.320  1.00  0.00    -0.237 OA
ATOM     52  O   UNL A   1      47.423  23.332  36.025  1.00  0.00    -0.744 OA
ENDBRANCH  48  49
ENDBRANCH  27  41
BRANCH  28  53
ATOM     53  C   UNL A   1      36.961  32.501  30.209  1.00  0.00     0.058 A 
ATOM     54  C   UNL A   1      35.671  32.002  30.432  1.00  0.00     0.135 A 
ATOM     55  C   UNL A   1      37.078  33.709  29.498  1.00  0.00     0.135 A 
ATOM     56  F   UNL A   1      35.505  30.852  31.103  1.00  0.00    -0.206 F 
ATOM     57  C   UNL A   1      34.540  32.681  29.987  1.00  0.00     0.059 A 
ATOM     58  C   UNL A   1      35.962  34.420  29.067  1.00  0.00     0.059 A 
ATOM     59  F   UNL A   1      38.290  34.242  29.273  1.00  0.00    -0.206 F 
ATOM     60  C   UNL A   1      34.696  33.897  29.318  1.00  0.00     0.060 A 
BRANCH  60  61
ATOM     61  S   UNL A   1      33.217  34.816  28.834  1.00  0.00     0.124 S 
ATOM     62  O   UNL A   1      33.797  35.996  28.205  1.00  0.00    -0.237 OA
ATOM     63  O   UNL A   1      32.554  33.876  27.936  1.00  0.00    -0.237 OA
ATOM     64  O   UNL A   1      32.532  35.046  30.102  1.00  0.00    -0.744 OA
ENDBRANCH  60  61
ENDBRANCH  28  53
BRANCH  40  65
ATOM     65  C   UNL A   1      40.183  32.556  36.438  1.00  0.00     0.058 A 
ATOM     66  C   UNL A   1      40.947  33.700  36.702  1.00  0.00     0.135 A 
ATOM     67  C   UNL A   1      39.116  32.252  37.297  1.00  0.00     0.135 A 
ATOM     68  F   UNL A   1      41.984  34.020  35.912  1.00  0.00    -0.206 F 
ATOM     69  C   UNL A   1      40.649  34.528  37.777  1.00  0.00     0.059 A 
ATOM     70  C   UNL A   1      38.785  33.080  38.361  1.00  0.00     0.059 A 
ATOM     71  F   UNL A   1      38.355  31.167  37.074  1.00  0.00    -0.206 F 
ATOM     72  C   UNL A   1      39.557  34.217  38.590  1.00  0.00     0.060 A 
BRANCH  72  73
ATOM     73  S   UNL A   1      39.117  35.359  39.916  1.00  0.00     0.124 S 
ATOM     74  O   UNL A   1      38.920  36.602  39.178  1.00  0.00    -0.237 OA
ATOM     75  O   UNL A   1      37.910  34.747  40.464  1.00  0.00    -0.237 OA
ATOM     76  O   UNL A   1      40.284  35.327  40.794  1.00  0.00    -0.744 OA
ENDBRANCH  72  73
ENDBRANCH  40  65
ENDBRANCH  14  15
ENDBRANCH   7   9
ENDBRANCH   6   7
ENDBRANCH   5   6
ENDBRANCH   4   5
ENDBRANCH   3   4
ENDBRANCH   2   3
ENDBRANCH   1   2
BRANCH   1  77
ATOM     77  O   UNL A   1      35.588  22.048  24.379  1.00  0.00    -0.377 OA
BRANCH  77  78
ATOM     78  C   UNL A   1      34.899  20.906  24.881  1.00  0.00     0.188 C 
BRANCH  78  79
ATOM     79  C   UNL A   1      34.009  21.106  26.129  1.00  0.00     0.188 C 
BRANCH  79  80
ATOM     80  O   UNL A   1      32.970  22.041  25.935  1.00  0.00    -0.376 OA
BRANCH  80  81
ATOM     81  C   UNL A   1      32.925  23.153  26.810  1.00  0.00     0.202 C 
BRANCH  81  82
ATOM     82  C   UNL A   1      31.550  23.677  27.245  1.00  0.00     0.261 C 
BRANCH  82  83
ATOM     83  O   UNL A   1      30.507  23.735  26.251  1.00  0.00    -0.460 OA
BRANCH  83  84
ATOM     84  C   UNL A   1      30.290  24.855  25.505  1.00  0.00     0.340 C 
ATOM     85  O   UNL A   1      29.641  25.813  25.799  1.00  0.00    -0.246 OA
BRANCH  84  86
ATOM     86  C   UNL A   1      31.167  24.709  24.295  1.00  0.00     0.085 A 
ATOM     87  C   UNL A   1      31.193  23.433  23.691  1.00  0.00     0.038 A 
ATOM     88  C   UNL A   1      32.043  25.718  23.834  1.00  0.00     0.066 A 
ATOM     89  C   UNL A   1      32.073  23.159  22.647  1.00  0.00     0.042 A 
ATOM     90  C   UNL A   1      32.897  25.419  22.750  1.00  0.00     0.029 A 
ATOM     91  Cl  UNL A   1      32.150  21.576  21.980  1.00  0.00    -0.084 Cl
ATOM     92  C   UNL A   1      32.915  24.151  22.165  1.00  0.00     0.023 A 
BRANCH  88  93
ATOM     93  N   UNL A   1      32.247  26.978  24.476  1.00  0.00    -0.249 N 
ATOM     94  C   UNL A   1      32.158  28.152  23.768  1.00  0.00     0.234 C 
ATOM     95  C   UNL A   1      33.197  27.122  25.464  1.00  0.00     0.240 C 
ATOM     96  O   UNL A   1      31.699  28.301  22.643  1.00  0.00    -0.274 OA
ATOM     97  C   UNL A   1      32.951  29.228  24.484  1.00  0.00     0.118 C 
ATOM     98  C   UNL A   1      33.351  28.590  25.813  1.00  0.00     0.059 C 
ATOM     99  O   UNL A   1      33.889  26.230  25.938  1.00  0.00    -0.273 OA
ATOM    100  C   UNL A   1      34.775  28.937  26.294  1.00  0.00     0.017 C 
ATOM    101  C   UNL A   1      32.443  29.026  26.969  1.00  0.00     0.017 C 
ATOM    102  C   UNL A   1      34.639  29.865  27.501  1.00  0.00     0.001 C 
ATOM    103  C   UNL A   1      33.164  30.196  27.623  1.00  0.00     0.001 C 
ENDBRANCH  88  93
ENDBRANCH  84  86
ENDBRANCH  83  84
ENDBRANCH  82  83
ENDBRANCH  81  82
ENDBRANCH  80  81
ENDBRANCH  79  80
ENDBRANCH  78  79
ENDBRANCH  77  78
ENDBRANCH   1  77
TORSDOF 24
ENDMDL
MODEL 3
REMARK VINA RESULT:     -10.4      1.684      3.461
REMARK SMILES O=C(OCCOCCOCCOCCOC(=O)c1cc(Cl)ccc1N1C(=O)CC2(CCCC2)C1=O)c1ccc(-c2c3nc(c(-c4c(F)cc(S(=O)(=O)[O-])cc4F)c4ccc([nH]4)c(-c4c(F)cc(S(=O)(=O)[O-])cc4F)c4nc(c(-c5c(F)cc(S(=O)(=O)[O-])cc5F)c5ccc2[nH]5)C=C4)C=C3)cc1
REMARK SMILES IDX 8 1 7 2 6 3 5 4 4 5 3 6 2 7 1 8 36 9 37 10 101 11 38 12
REMARK SMILES IDX 100 13 39 14 40 15 41 16 94 17 42 18 99 19 93 20 95 21 43 22
REMARK SMILES IDX 98 23 92 24 91 25 44 27 78 28 57 29 77 30 58 31 61 32 76 33
REMARK SMILES IDX 96 34 59 35 60 36 75 38 97 39 62 40 45 41 46 42 55 43 47 44
REMARK SMILES IDX 48 45 54 46 56 47 49 48 50 49 51 50 52 51 53 52 79 53 80 54
REMARK SMILES IDX 89 55 81 56 82 57 88 58 90 59 83 60 84 61 85 62 86 63 87 64
REMARK SMILES IDX 63 65 64 66 73 67 65 68 66 69 72 70 74 71 67 72 68 73 69 74
REMARK SMILES IDX 70 75 71 76 9 77 10 78 11 79 12 80 13 81 14 82 15 83 16 84
REMARK SMILES IDX 17 85 18 86 19 87 24 88 20 89 23 90 21 91 22 92 25 93 26 94
REMARK SMILES IDX 34 95 27 96 28 97 29 98 35 99 30 100 33 101 31 102 32 103
REMARK H PARENT 95 26 61 37
REMARK Flexibility Score: inf
ROOT
ATOM      1  C   UNL A   1      34.876  32.238  28.032  1.00  0.00     0.188 C 
ENDROOT
BRANCH   1   2
ATOM      2  C   UNL A   1      35.604  32.572  29.339  1.00  0.00     0.188 C 
BRANCH   2   3
ATOM      3  O   UNL A   1      34.761  32.354  30.460  1.00  0.00    -0.376 OA
BRANCH   3   4
ATOM      4  C   UNL A   1      35.344  32.223  31.755  1.00  0.00     0.202 C 
BRANCH   4   5
ATOM      5  C   UNL A   1      36.865  32.220  31.757  1.00  0.00     0.261 C 
BRANCH   5   6
ATOM      6  O   UNL A   1      37.296  30.964  32.285  1.00  0.00    -0.460 OA
BRANCH   6   7
ATOM      7  C   UNL A   1      37.377  29.958  31.381  1.00  0.00     0.338 C 
ATOM      8  O   UNL A   1      36.554  29.092  31.155  1.00  0.00    -0.246 OA
BRANCH   7   9
ATOM      9  C   UNL A   1      38.690  30.110  30.742  1.00  0.00     0.060 A 
ATOM     10  C   UNL A   1      38.762  30.299  29.354  1.00  0.00     0.016 A 
ATOM     11  C   UNL A   1      39.837  29.932  31.501  1.00  0.00     0.016 A 
ATOM     12  C   UNL A   1      39.960  30.184  28.692  1.00  0.00     0.010 A 
ATOM     13  C   UNL A   1      41.058  29.866  30.840  1.00  0.00     0.010 A 
ATOM     14  C   UNL A   1      41.108  29.952  29.434  1.00  0.00    -0.014 A 
BRANCH  14  15
ATOM     15  C   UNL A   1      42.351  29.642  28.722  1.00  0.00     0.031 A 
ATOM     16  C   UNL A   1      42.496  28.266  28.166  1.00  0.00     0.074 A 
ATOM     17  C   UNL A   1      43.292  30.587  28.572  1.00  0.00     0.049 A 
ATOM     18  N   UNL A   1      43.574  27.623  27.828  1.00  0.00    -0.248 NA
ATOM     19  C   UNL A   1      41.248  27.497  28.002  1.00  0.00     0.031 C 
ATOM     20  C   UNL A   1      43.148  31.996  28.948  1.00  0.00     0.029 A 
ATOM     21  N   UNL A   1      44.566  30.496  28.087  1.00  0.00    -0.354 N 
ATOM     22  C   UNL A   1      43.150  26.342  27.504  1.00  0.00     0.074 A 
ATOM     23  C   UNL A   1      41.714  26.307  27.658  1.00  0.00     0.031 C 
ATOM     24  C   UNL A   1      44.301  32.634  28.702  1.00  0.00     0.029 A 
ATOM     25  C   UNL A   1      45.285  31.652  28.266  1.00  0.00     0.049 A 
ATOM     26  H   UNL A   1      44.929  29.688  27.657  1.00  0.00     0.167 HD
ATOM     27  C   UNL A   1      43.926  25.293  27.149  1.00  0.00     0.037 A 
ATOM     28  C   UNL A   1      46.611  31.857  28.183  1.00  0.00     0.037 A 
ATOM     29  C   UNL A   1      45.352  25.417  27.004  1.00  0.00     0.049 A 
ATOM     30  C   UNL A   1      47.471  30.675  27.840  1.00  0.00     0.074 A 
ATOM     31  C   UNL A   1      46.281  24.450  26.679  1.00  0.00     0.029 A 
ATOM     32  N   UNL A   1      46.050  26.610  27.177  1.00  0.00    -0.354 N 
ATOM     33  N   UNL A   1      47.104  29.431  27.624  1.00  0.00    -0.248 NA
ATOM     34  C   UNL A   1      48.914  30.905  27.744  1.00  0.00     0.031 C 
ATOM     35  C   UNL A   1      47.545  25.050  26.702  1.00  0.00     0.029 A 
ATOM     36  C   UNL A   1      47.401  26.404  26.979  1.00  0.00     0.049 A 
ATOM     37  H   UNL A   1      45.641  27.475  27.409  1.00  0.00     0.167 HD
ATOM     38  C   UNL A   1      48.267  28.730  27.344  1.00  0.00     0.074 A 
ATOM     39  C   UNL A   1      49.352  29.694  27.420  1.00  0.00     0.031 C 
ATOM     40  C   UNL A   1      48.431  27.417  27.046  1.00  0.00     0.037 A 
BRANCH  27  41
ATOM     41  C   UNL A   1      43.254  23.955  27.016  1.00  0.00     0.058 A 
ATOM     42  C   UNL A   1      43.122  23.063  28.094  1.00  0.00     0.135 A 
ATOM     43  C   UNL A   1      42.805  23.521  25.756  1.00  0.00     0.135 A 
ATOM     44  F   UNL A   1      43.558  23.411  29.315  1.00  0.00    -0.206 F 
ATOM     45  C   UNL A   1      42.628  21.774  27.917  1.00  0.00     0.059 A 
ATOM     46  C   UNL A   1      42.277  22.248  25.563  1.00  0.00     0.059 A 
ATOM     47  F   UNL A   1      42.912  24.325  24.687  1.00  0.00    -0.206 F 
ATOM     48  C   UNL A   1      42.221  21.371  26.643  1.00  0.00     0.060 A 
BRANCH  48  49
ATOM     49  S   UNL A   1      41.644  19.675  26.415  1.00  0.00     0.124 S 
ATOM     50  O   UNL A   1      42.420  19.258  25.251  1.00  0.00    -0.237 OA
ATOM     51  O   UNL A   1      42.012  19.046  27.679  1.00  0.00    -0.237 OA
ATOM     52  O   UNL A   1      40.210  19.832  26.189  1.00  0.00    -0.744 OA
ENDBRANCH  48  49
ENDBRANCH  27  41
BRANCH  28  53
ATOM     53  C   UNL A   1      47.163  33.200  28.504  1.00  0.00     0.058 A 
ATOM     54  C   UNL A   1      47.309  34.178  27.511  1.00  0.00     0.135 A 
ATOM     55  C   UNL A   1      47.452  33.569  29.829  1.00  0.00     0.135 A 
ATOM     56  F   UNL A   1      47.047  33.876  26.230  1.00  0.00    -0.206 F 
ATOM     57  C   UNL A   1      47.708  35.475  27.819  1.00  0.00     0.059 A 
ATOM     58  C   UNL A   1      47.826  34.866  30.166  1.00  0.00     0.059 A 
ATOM     59  F   UNL A   1      47.310  32.677  30.823  1.00  0.00    -0.206 F 
ATOM     60  C   UNL A   1      47.951  35.814  29.153  1.00  0.00     0.060 A 
BRANCH  60  61
ATOM     61  S   UNL A   1      48.371  37.526  29.550  1.00  0.00     0.124 S 
ATOM     62  O   UNL A   1      49.301  37.350  30.659  1.00  0.00    -0.237 OA
ATOM     63  O   UNL A   1      48.953  37.995  28.297  1.00  0.00    -0.237 OA
ATOM     64  O   UNL A   1      47.083  38.119  29.893  1.00  0.00    -0.744 OA
ENDBRANCH  60  61
ENDBRANCH  28  53
BRANCH  40  65
ATOM     65  C   UNL A   1      49.820  26.960  26.717  1.00  0.00     0.058 A 
ATOM     66  C   UNL A   1      50.675  26.436  27.696  1.00  0.00     0.135 A 
ATOM     67  C   UNL A   1      50.237  26.925  25.377  1.00  0.00     0.135 A 
ATOM     68  F   UNL A   1      50.319  26.462  28.990  1.00  0.00    -0.206 F 
ATOM     69  C   UNL A   1      51.900  25.878  27.354  1.00  0.00     0.059 A 
ATOM     70  C   UNL A   1      51.445  26.348  25.011  1.00  0.00     0.059 A 
ATOM     71  F   UNL A   1      49.444  27.410  24.408  1.00  0.00    -0.206 F 
ATOM     72  C   UNL A   1      52.268  25.825  26.007  1.00  0.00     0.060 A 
BRANCH  72  73
ATOM     73  S   UNL A   1      53.811  25.001  25.568  1.00  0.00     0.124 S 
ATOM     74  O   UNL A   1      54.572  25.123  26.806  1.00  0.00    -0.237 OA
ATOM     75  O   UNL A   1      53.359  23.655  25.229  1.00  0.00    -0.237 OA
ATOM     76  O   UNL A   1      54.309  25.789  24.443  1.00  0.00    -0.744 OA
ENDBRANCH  72  73
ENDBRANCH  40  65
ENDBRANCH  14  15
ENDBRANCH   7   9
ENDBRANCH   6   7
ENDBRANCH   5   6
ENDBRANCH   4   5
ENDBRANCH   3   4
ENDBRANCH   2   3
ENDBRANCH   1   2
BRANCH   1  77
ATOM     77  O   UNL A   1      33.582  32.824  27.890  1.00  0.00    -0.377 OA
BRANCH  77  78
ATOM     78  C   UNL A   1      32.573  31.975  27.353  1.00  0.00     0.188 C 
BRANCH  78  79
ATOM     79  C   UNL A   1      32.965  30.512  27.047  1.00  0.00     0.188 C 
BRANCH  79  80
ATOM     80  O   UNL A   1      31.857  29.645  26.930  1.00  0.00    -0.376 OA
BRANCH  80  81
ATOM     81  C   UNL A   1      31.946  28.388  27.574  1.00  0.00     0.202 C 
BRANCH  81  82
ATOM     82  C   UNL A   1      32.490  27.199  26.771  1.00  0.00     0.261 C 
BRANCH  82  83
ATOM     83  O   UNL A   1      31.734  25.971  26.791  1.00  0.00    -0.460 OA
BRANCH  83  84
ATOM     84  C   UNL A   1      30.574  25.832  26.088  1.00  0.00     0.340 C 
ATOM     85  O   UNL A   1      29.496  25.541  26.510  1.00  0.00    -0.246 OA
BRANCH  84  86
ATOM     86  C   UNL A   1      30.895  26.274  24.690  1.00  0.00     0.085 A 
ATOM     87  C   UNL A   1      30.219  27.426  24.227  1.00  0.00     0.038 A 
ATOM     88  C   UNL A   1      31.709  25.537  23.801  1.00  0.00     0.066 A 
ATOM     89  C   UNL A   1      30.346  27.839  22.904  1.00  0.00     0.042 A 
ATOM     90  C   UNL A   1      31.845  26.005  22.475  1.00  0.00     0.029 A 
ATOM     91  Cl  UNL A   1      29.450  29.192  22.335  1.00  0.00    -0.084 Cl
ATOM     92  C   UNL A   1      31.168  27.141  22.030  1.00  0.00     0.023 A 
BRANCH  88  93
ATOM     93  N   UNL A   1      32.288  24.264  24.090  1.00  0.00    -0.249 N 
ATOM     94  C   UNL A   1      33.648  24.079  24.032  1.00  0.00     0.234 C 
ATOM     95  C   UNL A   1      31.662  23.098  23.704  1.00  0.00     0.240 C 
ATOM     96  O   UNL A   1      34.508  24.948  23.966  1.00  0.00    -0.274 OA
ATOM     97  C   UNL A   1      33.944  22.609  23.805  1.00  0.00     0.118 C 
ATOM     98  C   UNL A   1      32.587  21.920  23.939  1.00  0.00     0.059 C 
ATOM     99  O   UNL A   1      30.565  23.010  23.166  1.00  0.00    -0.273 OA
ATOM    100  C   UNL A   1      32.345  20.769  22.941  1.00  0.00     0.017 C 
ATOM    101  C   UNL A   1      32.392  21.275  25.317  1.00  0.00     0.017 C 
ATOM    102  C   UNL A   1      32.382  19.461  23.730  1.00  0.00     0.001 C 
ATOM    103  C   UNL A   1      32.810  19.822  25.140  1.00  0.00     0.001 C 
ENDBRANCH  88  93
ENDBRANCH  84  86
ENDBRANCH  83  84
ENDBRANCH  82  83
ENDBRANCH  81  82
ENDBRANCH  80  81
ENDBRANCH  79  80
ENDBRANCH  78  79
ENDBRANCH  77  78
ENDBRANCH   1  77
TORSDOF 24
ENDMDL
