MODEL 1
REMARK VINA RESULT:     -10.5      0.000      0.000
REMARK SMILES C[C@@H]1C(C(=O)OCCOCCOCCOCCOC(=O)c2ccc(-c3c4nc(c(-c5c(F)cc(S(=O)(=O)[O-])cc5F)c5ccc([nH]5)c(-c5c(F)cc(S(=O)(=O)[O-])cc5F)c5nc(c(-c6c(F)cc(S(=O)(=O)[O-])cc6F)c6ccc3[nH]6)C=C5)C=C4)cc2)=NC2=C1C(=O)C[C@H](c1ccccc1)C2
REMARK SMILES IDX 13 1 12 2 11 3 10 4 9 5 8 6 7 7 6 8 4 9 5 10 3 11 1 12 2 13
REMARK SMILES IDX 89 14 87 15 88 16 90 17 100 18 91 19 92 20 93 21 94 22 95 23
REMARK SMILES IDX 99 24 96 25 98 26 97 27 14 28 15 29 16 30 17 31 18 32 19 33
REMARK SMILES IDX 20 34 21 35 22 36 86 37 23 38 85 39 24 40 25 41 26 42 79 43
REMARK SMILES IDX 27 44 84 45 78 46 80 47 28 48 83 49 77 50 76 51 29 53 63 54
REMARK SMILES IDX 42 55 62 56 43 57 46 58 61 59 81 60 44 61 45 62 60 64 82 65
REMARK SMILES IDX 47 66 30 67 31 68 40 69 32 70 33 71 39 72 41 73 34 74 35 75
REMARK SMILES IDX 36 76 37 77 38 78 64 79 65 80 74 81 66 82 67 83 73 84 75 85
REMARK SMILES IDX 68 86 69 87 70 88 71 89 72 90 48 91 49 92 58 93 50 94 51 95
REMARK SMILES IDX 57 96 59 97 52 98 53 99 54 100 55 101 56 102
REMARK H PARENT 80 52 46 63
REMARK Flexibility Score: inf
ROOT
ATOM      1  C   UNL A   1      33.307  34.952  28.613  1.00  0.00     0.188 C 
ENDROOT
BRANCH   1   2
ATOM      2  O   UNL A   1      33.086  33.757  27.891  1.00  0.00    -0.377 OA
BRANCH   2   3
ATOM      3  C   UNL A   1      34.024  32.705  28.020  1.00  0.00     0.188 C 
BRANCH   3   4
ATOM      4  C   UNL A   1      33.582  31.297  27.638  1.00  0.00     0.188 C 
BRANCH   4   5
ATOM      5  O   UNL A   1      32.247  31.149  27.195  1.00  0.00    -0.376 OA
BRANCH   5   6
ATOM      6  C   UNL A   1      31.935  29.946  26.484  1.00  0.00     0.202 C 
BRANCH   6   7
ATOM      7  C   UNL A   1      31.606  28.659  27.286  1.00  0.00     0.261 C 
BRANCH   7   8
ATOM      8  O   UNL A   1      32.178  27.430  26.767  1.00  0.00    -0.459 OA
BRANCH   8   9
ATOM      9  C   UNL A   1      33.200  27.494  25.892  1.00  0.00     0.353 C 
ATOM     10  O   UNL A   1      34.359  27.742  26.164  1.00  0.00    -0.245 OA
BRANCH   9  11
ATOM     11  C   UNL A   1      32.734  26.936  24.531  1.00  0.00     0.133 C 
ATOM     12  C   UNL A   1      30.566  27.748  23.599  1.00  0.00     0.020 C 
ATOM     13  C   UNL A   1      31.276  26.582  24.273  1.00  0.00     0.078 C 
ATOM     14  C   UNL A   1      31.628  25.526  23.285  1.00  0.00     0.026 C 
ATOM     15  N   UNL A   1      33.568  26.614  23.570  1.00  0.00    -0.249 NA
ATOM     16  C   UNL A   1      32.856  25.712  22.807  1.00  0.00     0.049 C 
ATOM     17  C   UNL A   1      31.035  24.190  23.145  1.00  0.00     0.161 C 
ATOM     18  C   UNL A   1      33.492  24.690  21.912  1.00  0.00     0.065 C 
ATOM     19  O   UNL A   1      29.820  24.058  23.259  1.00  0.00    -0.294 OA
ATOM     20  C   UNL A   1      31.982  22.987  22.968  1.00  0.00     0.089 C 
ATOM     21  C   UNL A   1      33.474  23.327  22.637  1.00  0.00     0.033 C 
BRANCH  21  22
ATOM     22  C   UNL A   1      34.475  23.257  23.806  1.00  0.00    -0.044 A 
ATOM     23  C   UNL A   1      34.048  23.125  25.144  1.00  0.00     0.004 A 
ATOM     24  C   UNL A   1      35.855  23.387  23.609  1.00  0.00     0.004 A 
ATOM     25  C   UNL A   1      34.935  22.948  26.206  1.00  0.00     0.000 A 
ATOM     26  C   UNL A   1      36.747  23.274  24.688  1.00  0.00     0.000 A 
ATOM     27  C   UNL A   1      36.294  22.997  25.973  1.00  0.00     0.000 A 
ENDBRANCH  21  22
ENDBRANCH   9  11
ENDBRANCH   8   9
ENDBRANCH   7   8
ENDBRANCH   6   7
ENDBRANCH   5   6
ENDBRANCH   4   5
ENDBRANCH   3   4
ENDBRANCH   2   3
ENDBRANCH   1   2
BRANCH   1  28
ATOM     28  C   UNL A   1      33.763  34.921  30.090  1.00  0.00     0.188 C 
BRANCH  28  29
ATOM     29  O   UNL A   1      32.979  35.153  31.245  1.00  0.00    -0.376 OA
BRANCH  29  30
ATOM     30  C   UNL A   1      33.399  35.022  32.587  1.00  0.00     0.202 C 
BRANCH  30  31
ATOM     31  C   UNL A   1      34.566  35.769  33.235  1.00  0.00     0.261 C 
BRANCH  31  32
ATOM     32  O   UNL A   1      35.797  35.109  33.091  1.00  0.00    -0.460 OA
BRANCH  32  33
ATOM     33  C   UNL A   1      35.689  33.790  33.310  1.00  0.00     0.338 C 
ATOM     34  O   UNL A   1      35.184  33.245  34.290  1.00  0.00    -0.246 OA
BRANCH  33  35
ATOM     35  C   UNL A   1      36.347  33.063  32.232  1.00  0.00     0.060 A 
ATOM     36  C   UNL A   1      36.116  31.690  32.233  1.00  0.00     0.016 A 
ATOM     37  C   UNL A   1      37.421  33.659  31.553  1.00  0.00     0.016 A 
ATOM     38  C   UNL A   1      37.150  30.886  31.845  1.00  0.00     0.010 A 
ATOM     39  C   UNL A   1      38.456  32.852  31.166  1.00  0.00     0.010 A 
ATOM     40  C   UNL A   1      38.342  31.493  31.434  1.00  0.00    -0.014 A 
BRANCH  40  41
ATOM     41  C   UNL A   1      39.471  30.622  31.242  1.00  0.00     0.031 A 
ATOM     42  C   UNL A   1      40.230  30.437  32.489  1.00  0.00     0.074 A 
ATOM     43  C   UNL A   1      39.743  30.053  30.056  1.00  0.00     0.049 A 
ATOM     44  N   UNL A   1      41.372  30.952  32.795  1.00  0.00    -0.248 NA
ATOM     45  C   UNL A   1      39.521  29.810  33.615  1.00  0.00     0.031 C 
ATOM     46  C   UNL A   1      38.904  29.979  28.857  1.00  0.00     0.029 A 
ATOM     47  N   UNL A   1      40.830  29.323  29.711  1.00  0.00    -0.354 N 
ATOM     48  C   UNL A   1      41.635  30.496  34.079  1.00  0.00     0.074 A 
ATOM     49  C   UNL A   1      40.386  30.015  34.606  1.00  0.00     0.031 C 
ATOM     50  C   UNL A   1      39.415  29.048  28.018  1.00  0.00     0.029 A 
ATOM     51  C   UNL A   1      40.676  28.567  28.560  1.00  0.00     0.049 A 
ATOM     52  H   UNL A   1      41.664  29.330  30.236  1.00  0.00     0.167 HD
ATOM     53  C   UNL A   1      42.911  30.280  34.492  1.00  0.00     0.037 A 
ATOM     54  C   UNL A   1      41.493  27.553  28.176  1.00  0.00     0.037 A 
ATOM     55  C   UNL A   1      43.857  30.978  33.656  1.00  0.00     0.049 A 
ATOM     56  C   UNL A   1      42.787  27.746  28.894  1.00  0.00     0.074 A 
ATOM     57  C   UNL A   1      44.062  32.308  33.338  1.00  0.00     0.029 A 
ATOM     58  N   UNL A   1      44.516  30.254  32.692  1.00  0.00    -0.354 N 
ATOM     59  N   UNL A   1      43.594  28.751  28.678  1.00  0.00    -0.248 NA
ATOM     60  C   UNL A   1      42.950  27.092  30.186  1.00  0.00     0.031 C 
ATOM     61  C   UNL A   1      44.433  32.309  31.961  1.00  0.00     0.029 A 
ATOM     62  C   UNL A   1      44.493  30.984  31.528  1.00  0.00     0.049 A 
ATOM     63  H   UNL A   1      44.932  29.369  32.813  1.00  0.00     0.167 HD
ATOM     64  C   UNL A   1      44.063  29.117  29.935  1.00  0.00     0.074 A 
ATOM     65  C   UNL A   1      43.692  28.009  30.813  1.00  0.00     0.031 C 
ATOM     66  C   UNL A   1      44.450  30.400  30.204  1.00  0.00     0.037 A 
BRANCH  53  67
ATOM     67  C   UNL A   1      43.295  29.130  35.386  1.00  0.00     0.058 A 
ATOM     68  C   UNL A   1      44.055  29.386  36.542  1.00  0.00     0.135 A 
ATOM     69  C   UNL A   1      43.184  27.769  35.015  1.00  0.00     0.135 A 
ATOM     70  F   UNL A   1      44.235  30.644  36.975  1.00  0.00    -0.206 F 
ATOM     71  C   UNL A   1      44.711  28.372  37.238  1.00  0.00     0.059 A 
ATOM     72  C   UNL A   1      43.778  26.739  35.729  1.00  0.00     0.059 A 
ATOM     73  F   UNL A   1      42.582  27.370  33.890  1.00  0.00    -0.206 F 
ATOM     74  C   UNL A   1      44.577  27.053  36.812  1.00  0.00     0.060 A 
BRANCH  74  75
ATOM     75  S   UNL A   1      45.508  25.754  37.635  1.00  0.00     0.124 S 
ATOM     76  O   UNL A   1      44.439  24.988  38.266  1.00  0.00    -0.237 OA
ATOM     77  O   UNL A   1      46.183  25.111  36.513  1.00  0.00    -0.237 OA
ATOM     78  O   UNL A   1      46.381  26.491  38.545  1.00  0.00    -0.744 OA
ENDBRANCH  74  75
ENDBRANCH  53  67
BRANCH  54  79
ATOM     79  C   UNL A   1      41.082  26.249  27.587  1.00  0.00     0.058 A 
ATOM     80  C   UNL A   1      41.804  25.673  26.526  1.00  0.00     0.135 A 
ATOM     81  C   UNL A   1      40.148  25.408  28.227  1.00  0.00     0.135 A 
ATOM     82  F   UNL A   1      42.732  26.391  25.874  1.00  0.00    -0.206 F 
ATOM     83  C   UNL A   1      41.642  24.333  26.153  1.00  0.00     0.059 A 
ATOM     84  C   UNL A   1      39.962  24.075  27.866  1.00  0.00     0.059 A 
ATOM     85  F   UNL A   1      39.448  25.828  29.290  1.00  0.00    -0.206 F 
ATOM     86  C   UNL A   1      40.730  23.535  26.843  1.00  0.00     0.060 A 
BRANCH  86  87
ATOM     87  S   UNL A   1      40.637  21.765  26.483  1.00  0.00     0.124 S 
ATOM     88  O   UNL A   1      40.624  21.186  27.823  1.00  0.00    -0.237 OA
ATOM     89  O   UNL A   1      39.389  21.667  25.733  1.00  0.00    -0.237 OA
ATOM     90  O   UNL A   1      41.848  21.512  25.707  1.00  0.00    -0.744 OA
ENDBRANCH  86  87
ENDBRANCH  54  79
BRANCH  66  91
ATOM     91  C   UNL A   1      44.635  31.347  29.044  1.00  0.00     0.058 A 
ATOM     92  C   UNL A   1      45.754  31.355  28.191  1.00  0.00     0.135 A 
ATOM     93  C   UNL A   1      43.557  32.173  28.689  1.00  0.00     0.135 A 
ATOM     94  F   UNL A   1      46.783  30.521  28.398  1.00  0.00    -0.206 F 
ATOM     95  C   UNL A   1      45.814  32.176  27.062  1.00  0.00     0.059 A 
ATOM     96  C   UNL A   1      43.582  32.975  27.552  1.00  0.00     0.059 A 
ATOM     97  F   UNL A   1      42.434  32.166  29.426  1.00  0.00    -0.206 F 
ATOM     98  C   UNL A   1      44.720  32.982  26.749  1.00  0.00     0.060 A 
BRANCH  98  99
ATOM     99  S   UNL A   1      44.763  33.989  25.248  1.00  0.00     0.124 S 
ATOM    100  O   UNL A   1      44.469  33.005  24.210  1.00  0.00    -0.237 OA
ATOM    101  O   UNL A   1      43.719  34.978  25.498  1.00  0.00    -0.237 OA
ATOM    102  O   UNL A   1      46.123  34.522  25.233  1.00  0.00    -0.744 OA
ENDBRANCH  98  99
ENDBRANCH  66  91
ENDBRANCH  40  41
ENDBRANCH  33  35
ENDBRANCH  32  33
ENDBRANCH  31  32
ENDBRANCH  30  31
ENDBRANCH  29  30
ENDBRANCH  28  29
ENDBRANCH   1  28
TORSDOF 24
ENDMDL
MODEL 2
REMARK VINA RESULT:      -9.4      2.953      9.660
REMARK SMILES C[C@@H]1C(C(=O)OCCOCCOCCOCCOC(=O)c2ccc(-c3c4nc(c(-c5c(F)cc(S(=O)(=O)[O-])cc5F)c5ccc([nH]5)c(-c5c(F)cc(S(=O)(=O)[O-])cc5F)c5nc(c(-c6c(F)cc(S(=O)(=O)[O-])cc6F)c6ccc3[nH]6)C=C5)C=C4)cc2)=NC2=C1C(=O)C[C@H](c1ccccc1)C2
REMARK SMILES IDX 13 1 12 2 11 3 10 4 9 5 8 6 7 7 6 8 4 9 5 10 3 11 1 12 2 13
REMARK SMILES IDX 89 14 87 15 88 16 90 17 100 18 91 19 92 20 93 21 94 22 95 23
REMARK SMILES IDX 99 24 96 25 98 26 97 27 14 28 15 29 16 30 17 31 18 32 19 33
REMARK SMILES IDX 20 34 21 35 22 36 86 37 23 38 85 39 24 40 25 41 26 42 79 43
REMARK SMILES IDX 27 44 84 45 78 46 80 47 28 48 83 49 77 50 76 51 29 53 63 54
REMARK SMILES IDX 42 55 62 56 43 57 46 58 61 59 81 60 44 61 45 62 60 64 82 65
REMARK SMILES IDX 47 66 30 67 31 68 40 69 32 70 33 71 39 72 41 73 34 74 35 75
REMARK SMILES IDX 36 76 37 77 38 78 64 79 65 80 74 81 66 82 67 83 73 84 75 85
REMARK SMILES IDX 68 86 69 87 70 88 71 89 72 90 48 91 49 92 58 93 50 94 51 95
REMARK SMILES IDX 57 96 59 97 52 98 53 99 54 100 55 101 56 102
REMARK H PARENT 80 52 46 63
REMARK Flexibility Score: inf
ROOT
ATOM      1  C   UNL A   1      39.078  23.405  25.952  1.00  0.00     0.188 C 
ENDROOT
BRANCH   1   2
ATOM      2  O   UNL A   1      37.888  22.686  25.695  1.00  0.00    -0.377 OA
BRANCH   2   3
ATOM      3  C   UNL A   1      36.742  23.403  25.277  1.00  0.00     0.188 C 
BRANCH   3   4
ATOM      4  C   UNL A   1      35.452  23.222  26.069  1.00  0.00     0.188 C 
BRANCH   4   5
ATOM      5  O   UNL A   1      35.293  21.992  26.749  1.00  0.00    -0.376 OA
BRANCH   5   6
ATOM      6  C   UNL A   1      33.956  21.493  26.870  1.00  0.00     0.202 C 
BRANCH   6   7
ATOM      7  C   UNL A   1      32.957  22.228  27.803  1.00  0.00     0.261 C 
BRANCH   7   8
ATOM      8  O   UNL A   1      32.399  23.461  27.279  1.00  0.00    -0.459 OA
BRANCH   8   9
ATOM      9  C   UNL A   1      31.156  23.457  26.759  1.00  0.00     0.353 C 
ATOM     10  O   UNL A   1      30.120  23.350  27.386  1.00  0.00    -0.245 OA
BRANCH   9  11
ATOM     11  C   UNL A   1      31.228  23.883  25.278  1.00  0.00     0.133 C 
ATOM     12  C   UNL A   1      31.438  22.103  23.542  1.00  0.00     0.020 C 
ATOM     13  C   UNL A   1      32.173  23.202  24.298  1.00  0.00     0.078 C 
ATOM     14  C   UNL A   1      32.312  24.424  23.462  1.00  0.00     0.026 C 
ATOM     15  N   UNL A   1      30.589  24.928  24.805  1.00  0.00    -0.249 NA
ATOM     16  C   UNL A   1      31.298  25.261  23.671  1.00  0.00     0.049 C 
ATOM     17  C   UNL A   1      33.535  24.969  22.860  1.00  0.00     0.161 C 
ATOM     18  C   UNL A   1      31.297  26.631  23.058  1.00  0.00     0.065 C 
ATOM     19  O   UNL A   1      34.347  24.202  22.351  1.00  0.00    -0.294 OA
ATOM     20  C   UNL A   1      33.802  26.482  22.990  1.00  0.00     0.089 C 
ATOM     21  C   UNL A   1      32.595  27.354  23.477  1.00  0.00     0.033 C 
BRANCH  21  22
ATOM     22  C   UNL A   1      32.597  27.772  24.960  1.00  0.00    -0.044 A 
ATOM     23  C   UNL A   1      33.793  28.071  25.646  1.00  0.00     0.004 A 
ATOM     24  C   UNL A   1      31.423  27.812  25.720  1.00  0.00     0.004 A 
ATOM     25  C   UNL A   1      33.811  28.557  26.953  1.00  0.00     0.000 A 
ATOM     26  C   UNL A   1      31.448  28.240  27.057  1.00  0.00     0.000 A 
ATOM     27  C   UNL A   1      32.628  28.667  27.656  1.00  0.00     0.000 A 
ENDBRANCH  21  22
ENDBRANCH   9  11
ENDBRANCH   8   9
ENDBRANCH   7   8
ENDBRANCH   6   7
ENDBRANCH   5   6
ENDBRANCH   4   5
ENDBRANCH   3   4
ENDBRANCH   2   3
ENDBRANCH   1   2
BRANCH   1  28
ATOM     28  C   UNL A   1      39.712  23.423  27.362  1.00  0.00     0.188 C 
BRANCH  28  29
ATOM     29  O   UNL A   1      40.404  22.376  28.016  1.00  0.00    -0.376 OA
BRANCH  29  30
ATOM     30  C   UNL A   1      41.714  21.930  27.736  1.00  0.00     0.202 C 
BRANCH  30  31
ATOM     31  C   UNL A   1      42.109  20.961  26.620  1.00  0.00     0.261 C 
BRANCH  31  32
ATOM     32  O   UNL A   1      42.379  21.600  25.399  1.00  0.00    -0.460 OA
BRANCH  32  33
ATOM     33  C   UNL A   1      43.695  21.683  25.155  1.00  0.00     0.338 C 
ATOM     34  O   UNL A   1      44.471  20.747  24.973  1.00  0.00    -0.246 OA
BRANCH  33  35
ATOM     35  C   UNL A   1      44.113  23.078  25.217  1.00  0.00     0.060 A 
ATOM     36  C   UNL A   1      45.266  23.305  25.964  1.00  0.00     0.016 A 
ATOM     37  C   UNL A   1      43.192  24.089  24.904  1.00  0.00     0.016 A 
ATOM     38  C   UNL A   1      45.321  24.463  26.685  1.00  0.00     0.010 A 
ATOM     39  C   UNL A   1      43.248  25.248  25.628  1.00  0.00     0.010 A 
ATOM     40  C   UNL A   1      44.246  25.354  26.590  1.00  0.00    -0.014 A 
BRANCH  40  41
ATOM     41  C   UNL A   1      44.238  26.450  27.522  1.00  0.00     0.031 A 
ATOM     42  C   UNL A   1      45.384  27.348  27.312  1.00  0.00     0.074 A 
ATOM     43  C   UNL A   1      43.266  26.604  28.437  1.00  0.00     0.049 A 
ATOM     44  N   UNL A   1      46.443  27.450  28.040  1.00  0.00    -0.248 NA
ATOM     45  C   UNL A   1      45.471  28.026  26.009  1.00  0.00     0.031 C 
ATOM     46  C   UNL A   1      41.978  25.914  28.536  1.00  0.00     0.029 A 
ATOM     47  N   UNL A   1      43.205  27.508  29.443  1.00  0.00    -0.354 N 
ATOM     48  C   UNL A   1      47.222  28.406  27.403  1.00  0.00     0.074 A 
ATOM     49  C   UNL A   1      46.697  28.539  26.070  1.00  0.00     0.031 C 
ATOM     50  C   UNL A   1      41.179  26.593  29.392  1.00  0.00     0.029 A 
ATOM     51  C   UNL A   1      41.944  27.675  29.993  1.00  0.00     0.049 A 
ATOM     52  H   UNL A   1      43.993  28.008  29.759  1.00  0.00     0.167 HD
ATOM     53  C   UNL A   1      48.043  29.220  28.116  1.00  0.00     0.037 A 
ATOM     54  C   UNL A   1      41.570  28.705  30.794  1.00  0.00     0.037 A 
ATOM     55  C   UNL A   1      48.314  28.676  29.424  1.00  0.00     0.049 A 
ATOM     56  C   UNL A   1      42.823  29.289  31.358  1.00  0.00     0.074 A 
ATOM     57  C   UNL A   1      48.890  27.504  29.879  1.00  0.00     0.029 A 
ATOM     58  N   UNL A   1      47.612  29.189  30.489  1.00  0.00    -0.354 N 
ATOM     59  N   UNL A   1      43.607  28.658  32.191  1.00  0.00    -0.248 NA
ATOM     60  C   UNL A   1      43.453  30.379  30.625  1.00  0.00     0.031 C 
ATOM     61  C   UNL A   1      48.134  27.140  31.032  1.00  0.00     0.029 A 
ATOM     62  C   UNL A   1      47.180  28.134  31.255  1.00  0.00     0.049 A 
ATOM     63  H   UNL A   1      47.447  30.143  30.670  1.00  0.00     0.167 HD
ATOM     64  C   UNL A   1      44.898  28.981  31.790  1.00  0.00     0.074 A 
ATOM     65  C   UNL A   1      44.738  30.105  30.871  1.00  0.00     0.031 C 
ATOM     66  C   UNL A   1      45.946  28.132  32.012  1.00  0.00     0.037 A 
BRANCH  53  67
ATOM     67  C   UNL A   1      48.256  30.670  27.768  1.00  0.00     0.058 A 
ATOM     68  C   UNL A   1      47.142  31.527  27.693  1.00  0.00     0.135 A 
ATOM     69  C   UNL A   1      49.463  31.188  27.240  1.00  0.00     0.135 A 
ATOM     70  F   UNL A   1      45.945  31.130  28.151  1.00  0.00    -0.206 F 
ATOM     71  C   UNL A   1      47.208  32.777  27.078  1.00  0.00     0.059 A 
ATOM     72  C   UNL A   1      49.565  32.452  26.680  1.00  0.00     0.059 A 
ATOM     73  F   UNL A   1      50.583  30.463  27.145  1.00  0.00    -0.206 F 
ATOM     74  C   UNL A   1      48.422  33.222  26.562  1.00  0.00     0.060 A 
BRANCH  74  75
ATOM     75  S   UNL A   1      48.491  34.782  25.671  1.00  0.00     0.124 S 
ATOM     76  O   UNL A   1      49.740  34.636  24.931  1.00  0.00    -0.237 OA
ATOM     77  O   UNL A   1      47.266  34.731  24.880  1.00  0.00    -0.237 OA
ATOM     78  O   UNL A   1      48.500  35.779  26.738  1.00  0.00    -0.744 OA
ENDBRANCH  74  75
ENDBRANCH  53  67
BRANCH  54  79
ATOM     79  C   UNL A   1      40.280  29.447  30.753  1.00  0.00     0.058 A 
ATOM     80  C   UNL A   1      39.489  29.590  31.907  1.00  0.00     0.135 A 
ATOM     81  C   UNL A   1      39.930  30.264  29.658  1.00  0.00     0.135 A 
ATOM     82  F   UNL A   1      39.763  28.871  33.006  1.00  0.00    -0.206 F 
ATOM     83  C   UNL A   1      38.443  30.519  31.985  1.00  0.00     0.059 A 
ATOM     84  C   UNL A   1      38.887  31.187  29.709  1.00  0.00     0.059 A 
ATOM     85  F   UNL A   1      40.651  30.259  28.527  1.00  0.00    -0.206 F 
ATOM     86  C   UNL A   1      38.163  31.328  30.885  1.00  0.00     0.060 A 
BRANCH  86  87
ATOM     87  S   UNL A   1      36.932  32.645  31.033  1.00  0.00     0.124 S 
ATOM     88  O   UNL A   1      37.764  33.800  31.353  1.00  0.00    -0.237 OA
ATOM     89  O   UNL A   1      36.321  32.648  29.708  1.00  0.00    -0.237 OA
ATOM     90  O   UNL A   1      36.067  32.182  32.114  1.00  0.00    -0.744 OA
ENDBRANCH  86  87
ENDBRANCH  54  79
BRANCH  66  91
ATOM     91  C   UNL A   1      45.735  26.971  32.954  1.00  0.00     0.058 A 
ATOM     92  C   UNL A   1      45.913  27.032  34.348  1.00  0.00     0.135 A 
ATOM     93  C   UNL A   1      45.176  25.794  32.434  1.00  0.00     0.135 A 
ATOM     94  F   UNL A   1      46.344  28.155  34.938  1.00  0.00    -0.206 F 
ATOM     95  C   UNL A   1      45.588  25.957  35.180  1.00  0.00     0.059 A 
ATOM     96  C   UNL A   1      44.814  24.723  33.246  1.00  0.00     0.059 A 
ATOM     97  F   UNL A   1      44.922  25.695  31.118  1.00  0.00    -0.206 F 
ATOM     98  C   UNL A   1      45.036  24.806  34.619  1.00  0.00     0.060 A 
BRANCH  98  99
ATOM     99  S   UNL A   1      44.543  23.444  35.700  1.00  0.00     0.124 S 
ATOM    100  O   UNL A   1      43.406  22.878  34.981  1.00  0.00    -0.237 OA
ATOM    101  O   UNL A   1      45.745  22.616  35.737  1.00  0.00    -0.237 OA
ATOM    102  O   UNL A   1      44.216  24.108  36.959  1.00  0.00    -0.744 OA
ENDBRANCH  98  99
ENDBRANCH  66  91
ENDBRANCH  40  41
ENDBRANCH  33  35
ENDBRANCH  32  33
ENDBRANCH  31  32
ENDBRANCH  30  31
ENDBRANCH  29  30
ENDBRANCH  28  29
ENDBRANCH   1  28
TORSDOF 24
ENDMDL
MODEL 3
REMARK VINA RESULT:      -9.3      3.896      9.479
REMARK SMILES C[C@@H]1C(C(=O)OCCOCCOCCOCCOC(=O)c2ccc(-c3c4nc(c(-c5c(F)cc(S(=O)(=O)[O-])cc5F)c5ccc([nH]5)c(-c5c(F)cc(S(=O)(=O)[O-])cc5F)c5nc(c(-c6c(F)cc(S(=O)(=O)[O-])cc6F)c6ccc3[nH]6)C=C5)C=C4)cc2)=NC2=C1C(=O)C[C@H](c1ccccc1)C2
REMARK SMILES IDX 13 1 12 2 11 3 10 4 9 5 8 6 7 7 6 8 4 9 5 10 3 11 1 12 2 13
REMARK SMILES IDX 89 14 87 15 88 16 90 17 100 18 91 19 92 20 93 21 94 22 95 23
REMARK SMILES IDX 99 24 96 25 98 26 97 27 14 28 15 29 16 30 17 31 18 32 19 33
REMARK SMILES IDX 20 34 21 35 22 36 86 37 23 38 85 39 24 40 25 41 26 42 79 43
REMARK SMILES IDX 27 44 84 45 78 46 80 47 28 48 83 49 77 50 76 51 29 53 63 54
REMARK SMILES IDX 42 55 62 56 43 57 46 58 61 59 81 60 44 61 45 62 60 64 82 65
REMARK SMILES IDX 47 66 30 67 31 68 40 69 32 70 33 71 39 72 41 73 34 74 35 75
REMARK SMILES IDX 36 76 37 77 38 78 64 79 65 80 74 81 66 82 67 83 73 84 75 85
REMARK SMILES IDX 68 86 69 87 70 88 71 89 72 90 48 91 49 92 58 93 50 94 51 95
REMARK SMILES IDX 57 96 59 97 52 98 53 99 54 100 55 101 56 102
REMARK H PARENT 80 52 46 63
REMARK Flexibility Score: inf
ROOT
ATOM      1  C   UNL A   1      35.413  33.082  31.906  1.00  0.00     0.188 C 
ENDROOT
BRANCH   1   2
ATOM      2  O   UNL A   1      36.645  32.785  32.533  1.00  0.00    -0.377 OA
BRANCH   2   3
ATOM      3  C   UNL A   1      36.659  31.828  33.576  1.00  0.00     0.188 C 
BRANCH   3   4
ATOM      4  C   UNL A   1      37.877  31.781  34.493  1.00  0.00     0.188 C 
BRANCH   4   5
ATOM      5  O   UNL A   1      37.646  31.393  35.834  1.00  0.00    -0.376 OA
BRANCH   5   6
ATOM      6  C   UNL A   1      38.634  31.784  36.794  1.00  0.00     0.202 C 
BRANCH   6   7
ATOM      7  C   UNL A   1      39.837  32.648  36.332  1.00  0.00     0.261 C 
BRANCH   7   8
ATOM      8  O   UNL A   1      40.474  33.444  37.365  1.00  0.00    -0.459 OA
BRANCH   8   9
ATOM      9  C   UNL A   1      39.718  34.233  38.153  1.00  0.00     0.353 C 
ATOM     10  O   UNL A   1      38.703  34.812  37.820  1.00  0.00    -0.245 OA
BRANCH   9  11
ATOM     11  C   UNL A   1      40.180  34.075  39.617  1.00  0.00     0.133 C 
ATOM     12  C   UNL A   1      42.626  34.157  40.102  1.00  0.00     0.020 C 
ATOM     13  C   UNL A   1      41.408  33.252  39.980  1.00  0.00     0.078 C 
ATOM     14  C   UNL A   1      40.869  32.896  41.320  1.00  0.00     0.026 C 
ATOM     15  N   UNL A   1      39.482  34.520  40.636  1.00  0.00    -0.249 NA
ATOM     16  C   UNL A   1      39.921  33.752  41.694  1.00  0.00     0.049 C 
ATOM     17  C   UNL A   1      40.915  31.592  41.992  1.00  0.00     0.161 C 
ATOM     18  C   UNL A   1      39.120  33.512  42.940  1.00  0.00     0.065 C 
ATOM     19  O   UNL A   1      41.940  30.919  41.928  1.00  0.00    -0.294 OA
ATOM     20  C   UNL A   1      39.629  31.070  42.663  1.00  0.00     0.089 C 
ATOM     21  C   UNL A   1      38.475  32.113  42.843  1.00  0.00     0.033 C 
BRANCH  21  22
ATOM     22  C   UNL A   1      37.323  32.054  41.820  1.00  0.00    -0.044 A 
ATOM     23  C   UNL A   1      36.196  32.897  41.921  1.00  0.00     0.004 A 
ATOM     24  C   UNL A   1      37.303  31.118  40.780  1.00  0.00     0.004 A 
ATOM     25  C   UNL A   1      35.196  32.938  40.950  1.00  0.00     0.000 A 
ATOM     26  C   UNL A   1      36.262  31.116  39.837  1.00  0.00     0.000 A 
ATOM     27  C   UNL A   1      35.242  32.060  39.887  1.00  0.00     0.000 A 
ENDBRANCH  21  22
ENDBRANCH   9  11
ENDBRANCH   8   9
ENDBRANCH   7   8
ENDBRANCH   6   7
ENDBRANCH   5   6
ENDBRANCH   4   5
ENDBRANCH   3   4
ENDBRANCH   2   3
ENDBRANCH   1   2
BRANCH   1  28
ATOM     28  C   UNL A   1      35.138  34.480  31.305  1.00  0.00     0.188 C 
BRANCH  28  29
ATOM     29  O   UNL A   1      34.707  34.791  29.994  1.00  0.00    -0.376 OA
BRANCH  29  30
ATOM     30  C   UNL A   1      33.722  34.107  29.249  1.00  0.00     0.202 C 
BRANCH  30  31
ATOM     31  C   UNL A   1      33.971  33.269  27.993  1.00  0.00     0.261 C 
BRANCH  31  32
ATOM     32  O   UNL A   1      35.299  32.828  27.874  1.00  0.00    -0.460 OA
BRANCH  32  33
ATOM     33  C   UNL A   1      35.382  31.490  27.827  1.00  0.00     0.338 C 
ATOM     34  O   UNL A   1      34.740  30.738  27.097  1.00  0.00    -0.246 OA
BRANCH  33  35
ATOM     35  C   UNL A   1      36.308  31.025  28.851  1.00  0.00     0.060 A 
ATOM     36  C   UNL A   1      37.366  31.892  29.114  1.00  0.00     0.016 A 
ATOM     37  C   UNL A   1      36.329  29.665  29.197  1.00  0.00     0.016 A 
ATOM     38  C   UNL A   1      38.574  31.327  29.408  1.00  0.00     0.010 A 
ATOM     39  C   UNL A   1      37.540  29.101  29.491  1.00  0.00     0.010 A 
ATOM     40  C   UNL A   1      38.655  29.931  29.469  1.00  0.00    -0.014 A 
BRANCH  40  41
ATOM     41  C   UNL A   1      39.975  29.369  29.565  1.00  0.00     0.031 A 
ATOM     42  C   UNL A   1      40.378  29.170  30.966  1.00  0.00     0.074 A 
ATOM     43  C   UNL A   1      40.702  29.059  28.479  1.00  0.00     0.049 A 
ATOM     44  N   UNL A   1      41.219  29.871  31.647  1.00  0.00    -0.248 NA
ATOM     45  C   UNL A   1      39.568  28.240  31.768  1.00  0.00     0.031 C 
ATOM     46  C   UNL A   1      40.277  28.985  27.078  1.00  0.00     0.029 A 
ATOM     47  N   UNL A   1      41.991  28.648  28.428  1.00  0.00    -0.354 N 
ATOM     48  C   UNL A   1      41.222  29.296  32.910  1.00  0.00     0.074 A 
ATOM     49  C   UNL A   1      40.041  28.477  32.989  1.00  0.00     0.031 C 
ATOM     50  C   UNL A   1      41.221  28.326  26.366  1.00  0.00     0.029 A 
ATOM     51  C   UNL A   1      42.361  28.058  27.229  1.00  0.00     0.049 A 
ATOM     52  H   UNL A   1      42.615  28.758  29.182  1.00  0.00     0.167 HD
ATOM     53  C   UNL A   1      42.344  29.306  33.676  1.00  0.00     0.037 A 
ATOM     54  C   UNL A   1      43.482  27.319  27.036  1.00  0.00     0.037 A 
ATOM     55  C   UNL A   1      43.274  30.313  33.228  1.00  0.00     0.049 A 
ATOM     56  C   UNL A   1      44.432  27.681  28.129  1.00  0.00     0.074 A 
ATOM     57  C   UNL A   1      43.213  31.688  33.094  1.00  0.00     0.029 A 
ATOM     58  N   UNL A   1      44.338  29.905  32.458  1.00  0.00    -0.354 N 
ATOM     59  N   UNL A   1      44.983  28.860  28.251  1.00  0.00    -0.248 NA
ATOM     60  C   UNL A   1      44.391  26.891  29.352  1.00  0.00     0.031 C 
ATOM     61  C   UNL A   1      43.939  31.978  31.901  1.00  0.00     0.029 A 
ATOM     62  C   UNL A   1      44.453  30.779  31.405  1.00  0.00     0.049 A 
ATOM     63  H   UNL A   1      44.914  29.125  32.631  1.00  0.00     0.167 HD
ATOM     64  C   UNL A   1      44.975  29.126  29.615  1.00  0.00     0.074 A 
ATOM     65  C   UNL A   1      44.670  27.845  30.247  1.00  0.00     0.031 C 
ATOM     66  C   UNL A   1      44.931  30.407  30.090  1.00  0.00     0.037 A 
BRANCH  53  67
ATOM     67  C   UNL A   1      42.743  28.147  34.552  1.00  0.00     0.058 A 
ATOM     68  C   UNL A   1      42.908  28.358  35.933  1.00  0.00     0.135 A 
ATOM     69  C   UNL A   1      43.234  26.915  34.057  1.00  0.00     0.135 A 
ATOM     70  F   UNL A   1      42.491  29.499  36.503  1.00  0.00    -0.206 F 
ATOM     71  C   UNL A   1      43.572  27.443  36.749  1.00  0.00     0.059 A 
ATOM     72  C   UNL A   1      43.842  25.964  34.863  1.00  0.00     0.059 A 
ATOM     73  F   UNL A   1      43.245  26.608  32.756  1.00  0.00    -0.206 F 
ATOM     74  C   UNL A   1      44.047  26.255  36.199  1.00  0.00     0.060 A 
BRANCH  74  75
ATOM     75  S   UNL A   1      45.000  25.123  37.219  1.00  0.00     0.124 S 
ATOM     76  O   UNL A   1      44.655  23.837  36.621  1.00  0.00    -0.237 OA
ATOM     77  O   UNL A   1      46.364  25.589  36.994  1.00  0.00    -0.237 OA
ATOM     78  O   UNL A   1      44.476  25.357  38.562  1.00  0.00    -0.744 OA
ENDBRANCH  74  75
ENDBRANCH  53  67
BRANCH  54  79
ATOM     79  C   UNL A   1      43.599  26.061  26.249  1.00  0.00     0.058 A 
ATOM     80  C   UNL A   1      44.701  25.832  25.406  1.00  0.00     0.135 A 
ATOM     81  C   UNL A   1      42.782  24.942  26.514  1.00  0.00     0.135 A 
ATOM     82  F   UNL A   1      45.548  26.832  25.117  1.00  0.00    -0.206 F 
ATOM     83  C   UNL A   1      45.000  24.562  24.894  1.00  0.00     0.059 A 
ATOM     84  C   UNL A   1      43.053  23.672  26.008  1.00  0.00     0.059 A 
ATOM     85  F   UNL A   1      41.740  25.025  27.354  1.00  0.00    -0.206 F 
ATOM     86  C   UNL A   1      44.179  23.483  25.218  1.00  0.00     0.060 A 
BRANCH  86  87
ATOM     87  S   UNL A   1      44.650  21.814  24.705  1.00  0.00     0.124 S 
ATOM     88  O   UNL A   1      44.597  21.919  23.251  1.00  0.00    -0.237 OA
ATOM     89  O   UNL A   1      45.982  21.677  25.286  1.00  0.00    -0.237 OA
ATOM     90  O   UNL A   1      43.621  20.970  25.307  1.00  0.00    -0.744 OA
ENDBRANCH  86  87
ENDBRANCH  54  79
BRANCH  66  91
ATOM     91  C   UNL A   1      45.184  31.536  29.120  1.00  0.00     0.058 A 
ATOM     92  C   UNL A   1      46.457  32.035  28.791  1.00  0.00     0.135 A 
ATOM     93  C   UNL A   1      44.097  32.021  28.376  1.00  0.00     0.135 A 
ATOM     94  F   UNL A   1      47.560  31.550  29.380  1.00  0.00    -0.206 F 
ATOM     95  C   UNL A   1      46.636  33.001  27.798  1.00  0.00     0.059 A 
ATOM     96  C   UNL A   1      44.255  32.959  27.361  1.00  0.00     0.059 A 
ATOM     97  F   UNL A   1      42.863  31.539  28.597  1.00  0.00    -0.206 F 
ATOM     98  C   UNL A   1      45.527  33.456  27.085  1.00  0.00     0.060 A 
BRANCH  98  99
ATOM     99  S   UNL A   1      45.763  34.649  25.748  1.00  0.00     0.124 S 
ATOM    100  O   UNL A   1      44.623  34.368  24.881  1.00  0.00    -0.237 OA
ATOM    101  O   UNL A   1      45.725  35.927  26.451  1.00  0.00    -0.237 OA
ATOM    102  O   UNL A   1      47.068  34.290  25.196  1.00  0.00    -0.744 OA
ENDBRANCH  98  99
ENDBRANCH  66  91
ENDBRANCH  40  41
ENDBRANCH  33  35
ENDBRANCH  32  33
ENDBRANCH  31  32
ENDBRANCH  30  31
ENDBRANCH  29  30
ENDBRANCH  28  29
ENDBRANCH   1  28
TORSDOF 24
ENDMDL
