MODEL 1
REMARK VINA RESULT:      -7.8      0.000      0.000
REMARK SMILES CCSc1cccc(-c2ccc([C@@H](C)C(=O)OCCOCCOCCOCCOC(=O)c3ccc(-c4c5nc(c(-c6c(F)cc(S(=O)(=O)[O-])cc6F)c6ccc([nH]6)c(-c6c(F)cc(S(=O)(=O)[O-])cc6F)c6nc(c(-c7c(F)cc(S(=O)(=O)[O-])cc7F)c7ccc4[nH]7)C=C6)C=C5)cc3)cc2)c1
REMARK SMILES IDX 22 1 21 2 20 3 19 4 18 5 17 6 15 7 16 8 13 9 14 10 12 11
REMARK SMILES IDX 9 12 10 13 99 14 11 15 98 16 8 17 4 18 5 19 100 20 6 21 7 22
REMARK SMILES IDX 3 23 2 24 1 25 23 26 24 27 25 28 26 29 27 30 28 31 29 32
REMARK SMILES IDX 30 33 31 34 32 35 33 36 97 37 34 38 96 39 35 40 36 41 37 42
REMARK SMILES IDX 90 43 38 44 95 45 89 46 91 47 39 48 94 49 88 50 87 51 40 53
REMARK SMILES IDX 74 54 53 55 73 56 54 57 57 58 72 59 92 60 55 61 56 62 71 64
REMARK SMILES IDX 93 65 58 66 41 67 42 68 51 69 43 70 44 71 50 72 52 73 45 74
REMARK SMILES IDX 46 75 47 76 48 77 49 78 75 79 76 80 85 81 77 82 78 83 84 84
REMARK SMILES IDX 86 85 79 86 80 87 81 88 82 89 83 90 59 91 60 92 69 93 61 94
REMARK SMILES IDX 62 95 68 96 70 97 63 98 64 99 65 100 66 101 67 102
REMARK H PARENT 91 52 57 63
REMARK Flexibility Score: inf
ROOT
ATOM      1  C   UNL A   1      36.683  33.135  28.184  1.00  0.00     0.188 C 
ENDROOT
BRANCH   1   2
ATOM      2  C   UNL A   1      37.247  33.833  29.430  1.00  0.00     0.188 C 
BRANCH   2   3
ATOM      3  O   UNL A   1      38.490  34.520  29.385  1.00  0.00    -0.376 OA
BRANCH   3   4
ATOM      4  C   UNL A   1      39.647  33.971  30.004  1.00  0.00     0.202 C 
BRANCH   4   5
ATOM      5  C   UNL A   1      39.637  32.575  30.659  1.00  0.00     0.261 C 
BRANCH   5   6
ATOM      6  O   UNL A   1      40.809  31.753  30.480  1.00  0.00    -0.463 OA
BRANCH   6   7
ATOM      7  C   UNL A   1      40.602  30.498  30.025  1.00  0.00     0.313 C 
ATOM      8  O   UNL A   1      41.387  29.912  29.278  1.00  0.00    -0.252 OA
BRANCH   7   9
ATOM      9  C   UNL A   1      39.307  29.823  30.472  1.00  0.00     0.126 C 
ATOM     10  C   UNL A   1      39.646  28.425  30.976  1.00  0.00     0.025 C 
BRANCH   9  11
ATOM     11  C   UNL A   1      38.061  29.808  29.583  1.00  0.00    -0.034 A 
ATOM     12  C   UNL A   1      35.653  29.763  28.018  1.00  0.00    -0.018 A 
ATOM     13  C   UNL A   1      36.929  29.679  27.427  1.00  0.00     0.009 A 
ATOM     14  C   UNL A   1      35.603  29.893  29.409  1.00  0.00     0.009 A 
ATOM     15  C   UNL A   1      38.112  29.694  28.190  1.00  0.00     0.005 A 
ATOM     16  C   UNL A   1      36.782  29.901  30.177  1.00  0.00     0.005 A 
BRANCH  12  17
ATOM     17  C   UNL A   1      34.428  29.628  27.199  1.00  0.00    -0.017 A 
ATOM     18  C   UNL A   1      33.031  28.487  25.529  1.00  0.00     0.008 A 
ATOM     19  C   UNL A   1      32.002  29.397  25.775  1.00  0.00     0.015 A 
ATOM     20  C   UNL A   1      34.233  28.599  26.255  1.00  0.00     0.023 A 
ATOM     21  C   UNL A   1      32.188  30.446  26.669  1.00  0.00     0.002 A 
ATOM     22  C   UNL A   1      33.389  30.561  27.367  1.00  0.00     0.009 A 
BRANCH  18  23
ATOM     23  S   UNL A   1      32.772  27.109  24.417  1.00  0.00    -0.126 SA
BRANCH  23  24
ATOM     24  C   UNL A   1      33.266  25.662  25.435  1.00  0.00     0.071 C 
ATOM     25  C   UNL A   1      32.223  25.186  26.436  1.00  0.00     0.016 C 
ENDBRANCH  23  24
ENDBRANCH  18  23
ENDBRANCH  12  17
ENDBRANCH   9  11
ENDBRANCH   7   9
ENDBRANCH   6   7
ENDBRANCH   5   6
ENDBRANCH   4   5
ENDBRANCH   3   4
ENDBRANCH   2   3
ENDBRANCH   1   2
BRANCH   1  26
ATOM     26  O   UNL A   1      35.519  33.724  27.650  1.00  0.00    -0.377 OA
BRANCH  26  27
ATOM     27  C   UNL A   1      34.847  34.676  28.456  1.00  0.00     0.188 C 
BRANCH  27  28
ATOM     28  C   UNL A   1      33.307  34.635  28.463  1.00  0.00     0.188 C 
BRANCH  28  29
ATOM     29  O   UNL A   1      32.734  34.629  29.765  1.00  0.00    -0.376 OA
BRANCH  29  30
ATOM     30  C   UNL A   1      32.915  35.771  30.592  1.00  0.00     0.202 C 
BRANCH  30  31
ATOM     31  C   UNL A   1      33.643  35.602  31.939  1.00  0.00     0.261 C 
BRANCH  31  32
ATOM     32  O   UNL A   1      34.924  34.953  31.919  1.00  0.00    -0.460 OA
BRANCH  32  33
ATOM     33  C   UNL A   1      35.013  33.663  32.302  1.00  0.00     0.338 C 
ATOM     34  O   UNL A   1      34.294  32.743  31.951  1.00  0.00    -0.246 OA
BRANCH  33  35
ATOM     35  C   UNL A   1      36.279  33.512  33.055  1.00  0.00     0.060 A 
ATOM     36  C   UNL A   1      36.474  32.371  33.845  1.00  0.00     0.016 A 
ATOM     37  C   UNL A   1      37.289  34.472  32.949  1.00  0.00     0.016 A 
ATOM     38  C   UNL A   1      37.675  32.189  34.536  1.00  0.00     0.010 A 
ATOM     39  C   UNL A   1      38.478  34.303  33.668  1.00  0.00     0.010 A 
ATOM     40  C   UNL A   1      38.672  33.170  34.478  1.00  0.00    -0.014 A 
BRANCH  40  41
ATOM     41  C   UNL A   1      39.857  33.095  35.370  1.00  0.00     0.031 A 
ATOM     42  C   UNL A   1      40.732  31.874  35.301  1.00  0.00     0.074 A 
ATOM     43  C   UNL A   1      40.142  34.082  36.240  1.00  0.00     0.049 A 
ATOM     44  N   UNL A   1      41.743  31.534  36.056  1.00  0.00    -0.248 NA
ATOM     45  C   UNL A   1      40.421  30.907  34.236  1.00  0.00     0.031 C 
ATOM     46  C   UNL A   1      39.402  35.336  36.368  1.00  0.00     0.029 A 
ATOM     47  N   UNL A   1      41.123  34.171  37.198  1.00  0.00    -0.354 N 
ATOM     48  C   UNL A   1      42.181  30.307  35.570  1.00  0.00     0.074 A 
ATOM     49  C   UNL A   1      41.315  29.955  34.465  1.00  0.00     0.031 C 
ATOM     50  C   UNL A   1      39.937  36.058  37.368  1.00  0.00     0.029 A 
ATOM     51  C   UNL A   1      41.030  35.300  37.979  1.00  0.00     0.049 A 
ATOM     52  H   UNL A   1      41.825  33.492  37.314  1.00  0.00     0.167 HD
ATOM     53  C   UNL A   1      43.214  29.545  36.005  1.00  0.00     0.037 A 
ATOM     54  C   UNL A   1      41.718  35.660  39.082  1.00  0.00     0.037 A 
ATOM     55  C   UNL A   1      44.067  29.900  37.108  1.00  0.00     0.049 A 
ATOM     56  C   UNL A   1      42.803  34.750  39.606  1.00  0.00     0.074 A 
ATOM     57  C   UNL A   1      45.156  29.207  37.608  1.00  0.00     0.029 A 
ATOM     58  N   UNL A   1      43.922  31.035  37.893  1.00  0.00    -0.354 N 
ATOM     59  N   UNL A   1      43.231  33.609  39.120  1.00  0.00    -0.248 NA
ATOM     60  C   UNL A   1      43.495  35.171  40.834  1.00  0.00     0.031 C 
ATOM     61  C   UNL A   1      45.626  29.888  38.735  1.00  0.00     0.029 A 
ATOM     62  C   UNL A   1      44.874  31.039  38.899  1.00  0.00     0.049 A 
ATOM     63  H   UNL A   1      43.242  31.734  37.754  1.00  0.00     0.167 HD
ATOM     64  C   UNL A   1      44.252  33.190  39.967  1.00  0.00     0.074 A 
ATOM     65  C   UNL A   1      44.391  34.207  40.988  1.00  0.00     0.031 C 
ATOM     66  C   UNL A   1      45.005  32.062  39.908  1.00  0.00     0.037 A 
BRANCH  53  67
ATOM     67  C   UNL A   1      43.457  28.233  35.311  1.00  0.00     0.058 A 
ATOM     68  C   UNL A   1      44.455  28.082  34.335  1.00  0.00     0.135 A 
ATOM     69  C   UNL A   1      42.711  27.096  35.665  1.00  0.00     0.135 A 
ATOM     70  F   UNL A   1      45.185  29.139  33.945  1.00  0.00    -0.206 F 
ATOM     71  C   UNL A   1      44.691  26.857  33.721  1.00  0.00     0.059 A 
ATOM     72  C   UNL A   1      42.950  25.854  35.086  1.00  0.00     0.059 A 
ATOM     73  F   UNL A   1      41.741  27.185  36.588  1.00  0.00    -0.206 F 
ATOM     74  C   UNL A   1      43.936  25.747  34.106  1.00  0.00     0.060 A 
BRANCH  74  75
ATOM     75  S   UNL A   1      44.269  24.161  33.312  1.00  0.00     0.124 S 
ATOM     76  O   UNL A   1      43.281  23.299  33.954  1.00  0.00    -0.237 OA
ATOM     77  O   UNL A   1      44.028  24.462  31.905  1.00  0.00    -0.237 OA
ATOM     78  O   UNL A   1      45.660  23.887  33.663  1.00  0.00    -0.744 OA
ENDBRANCH  74  75
ENDBRANCH  53  67
BRANCH  54  79
ATOM     79  C   UNL A   1      41.380  36.921  39.797  1.00  0.00     0.058 A 
ATOM     80  C   UNL A   1      42.100  38.104  39.567  1.00  0.00     0.135 A 
ATOM     81  C   UNL A   1      40.337  36.968  40.737  1.00  0.00     0.135 A 
ATOM     82  F   UNL A   1      43.119  38.109  38.694  1.00  0.00    -0.206 F 
ATOM     83  C   UNL A   1      41.810  39.281  40.251  1.00  0.00     0.059 A 
ATOM     84  C   UNL A   1      40.008  38.140  41.410  1.00  0.00     0.059 A 
ATOM     85  F   UNL A   1      39.613  35.868  40.994  1.00  0.00    -0.206 F 
ATOM     86  C   UNL A   1      40.757  39.290  41.167  1.00  0.00     0.060 A 
BRANCH  86  87
ATOM     87  S   UNL A   1      40.357  40.836  42.011  1.00  0.00     0.124 S 
ATOM     88  O   UNL A   1      39.334  41.393  41.135  1.00  0.00    -0.237 OA
ATOM     89  O   UNL A   1      39.897  40.362  43.312  1.00  0.00    -0.237 OA
ATOM     90  O   UNL A   1      41.631  41.549  42.027  1.00  0.00    -0.744 OA
ENDBRANCH  86  87
ENDBRANCH  54  79
BRANCH  66  91
ATOM     91  C   UNL A   1      46.066  31.868  40.959  1.00  0.00     0.058 A 
ATOM     92  C   UNL A   1      45.816  31.139  42.132  1.00  0.00     0.135 A 
ATOM     93  C   UNL A   1      47.371  32.347  40.754  1.00  0.00     0.135 A 
ATOM     94  F   UNL A   1      44.585  30.665  42.385  1.00  0.00    -0.206 F 
ATOM     95  C   UNL A   1      46.818  30.900  43.069  1.00  0.00     0.059 A 
ATOM     96  C   UNL A   1      48.396  32.094  41.662  1.00  0.00     0.059 A 
ATOM     97  F   UNL A   1      47.669  33.042  39.645  1.00  0.00    -0.206 F 
ATOM     98  C   UNL A   1      48.107  31.374  42.820  1.00  0.00     0.060 A 
BRANCH  98  99
ATOM     99  S   UNL A   1      49.409  31.006  44.016  1.00  0.00     0.124 S 
ATOM    100  O   UNL A   1      48.710  30.133  44.955  1.00  0.00    -0.237 OA
ATOM    101  O   UNL A   1      50.420  30.360  43.184  1.00  0.00    -0.237 OA
ATOM    102  O   UNL A   1      49.777  32.319  44.535  1.00  0.00    -0.744 OA
ENDBRANCH  98  99
ENDBRANCH  66  91
ENDBRANCH  40  41
ENDBRANCH  33  35
ENDBRANCH  32  33
ENDBRANCH  31  32
ENDBRANCH  30  31
ENDBRANCH  29  30
ENDBRANCH  28  29
ENDBRANCH  27  28
ENDBRANCH  26  27
ENDBRANCH   1  26
TORSDOF 27
ENDMDL
MODEL 2
REMARK VINA RESULT:      -7.5      0.703      7.970
REMARK SMILES CCSc1cccc(-c2ccc([C@@H](C)C(=O)OCCOCCOCCOCCOC(=O)c3ccc(-c4c5nc(c(-c6c(F)cc(S(=O)(=O)[O-])cc6F)c6ccc([nH]6)c(-c6c(F)cc(S(=O)(=O)[O-])cc6F)c6nc(c(-c7c(F)cc(S(=O)(=O)[O-])cc7F)c7ccc4[nH]7)C=C6)C=C5)cc3)cc2)c1
REMARK SMILES IDX 22 1 21 2 20 3 19 4 18 5 17 6 15 7 16 8 13 9 14 10 12 11
REMARK SMILES IDX 9 12 10 13 99 14 11 15 98 16 8 17 4 18 5 19 100 20 6 21 7 22
REMARK SMILES IDX 3 23 2 24 1 25 23 26 24 27 25 28 26 29 27 30 28 31 29 32
REMARK SMILES IDX 30 33 31 34 32 35 33 36 97 37 34 38 96 39 35 40 36 41 37 42
REMARK SMILES IDX 90 43 38 44 95 45 89 46 91 47 39 48 94 49 88 50 87 51 40 53
REMARK SMILES IDX 74 54 53 55 73 56 54 57 57 58 72 59 92 60 55 61 56 62 71 64
REMARK SMILES IDX 93 65 58 66 41 67 42 68 51 69 43 70 44 71 50 72 52 73 45 74
REMARK SMILES IDX 46 75 47 76 48 77 49 78 75 79 76 80 85 81 77 82 78 83 84 84
REMARK SMILES IDX 86 85 79 86 80 87 81 88 82 89 83 90 59 91 60 92 69 93 61 94
REMARK SMILES IDX 62 95 68 96 70 97 63 98 64 99 65 100 66 101 67 102
REMARK H PARENT 91 52 57 63
REMARK Flexibility Score: inf
ROOT
ATOM      1  C   UNL A   1      36.427  33.109  28.301  1.00  0.00     0.188 C 
ENDROOT
BRANCH   1   2
ATOM      2  C   UNL A   1      37.112  33.682  29.550  1.00  0.00     0.188 C 
BRANCH   2   3
ATOM      3  O   UNL A   1      38.308  34.441  29.447  1.00  0.00    -0.376 OA
BRANCH   3   4
ATOM      4  C   UNL A   1      39.561  33.877  29.814  1.00  0.00     0.202 C 
BRANCH   4   5
ATOM      5  C   UNL A   1      39.667  32.490  30.479  1.00  0.00     0.261 C 
BRANCH   5   6
ATOM      6  O   UNL A   1      40.821  31.689  30.153  1.00  0.00    -0.463 OA
BRANCH   6   7
ATOM      7  C   UNL A   1      40.585  30.404  29.806  1.00  0.00     0.313 C 
ATOM      8  O   UNL A   1      41.350  29.742  29.104  1.00  0.00    -0.252 OA
BRANCH   7   9
ATOM      9  C   UNL A   1      39.282  29.795  30.321  1.00  0.00     0.126 C 
ATOM     10  C   UNL A   1      39.593  28.421  30.902  1.00  0.00     0.025 C 
BRANCH   9  11
ATOM     11  C   UNL A   1      38.017  29.763  29.460  1.00  0.00    -0.034 A 
ATOM     12  C   UNL A   1      35.575  29.677  27.948  1.00  0.00    -0.018 A 
ATOM     13  C   UNL A   1      36.839  29.687  27.325  1.00  0.00     0.009 A 
ATOM     14  C   UNL A   1      35.554  29.733  29.345  1.00  0.00     0.009 A 
ATOM     15  C   UNL A   1      38.039  29.722  28.062  1.00  0.00     0.005 A 
ATOM     16  C   UNL A   1      36.750  29.761  30.085  1.00  0.00     0.005 A 
BRANCH  12  17
ATOM     17  C   UNL A   1      34.339  29.523  27.150  1.00  0.00    -0.017 A 
ATOM     18  C   UNL A   1      32.904  28.325  25.553  1.00  0.00     0.008 A 
ATOM     19  C   UNL A   1      31.892  29.262  25.767  1.00  0.00     0.015 A 
ATOM     20  C   UNL A   1      34.117  28.452  26.259  1.00  0.00     0.023 A 
ATOM     21  C   UNL A   1      32.105  30.349  26.608  1.00  0.00     0.002 A 
ATOM     22  C   UNL A   1      33.316  30.479  27.285  1.00  0.00     0.009 A 
BRANCH  18  23
ATOM     23  S   UNL A   1      32.612  26.900  24.512  1.00  0.00    -0.126 SA
BRANCH  23  24
ATOM     24  C   UNL A   1      32.218  25.578  25.725  1.00  0.00     0.071 C 
ATOM     25  C   UNL A   1      33.390  24.695  26.126  1.00  0.00     0.016 C 
ENDBRANCH  23  24
ENDBRANCH  18  23
ENDBRANCH  12  17
ENDBRANCH   9  11
ENDBRANCH   7   9
ENDBRANCH   6   7
ENDBRANCH   5   6
ENDBRANCH   4   5
ENDBRANCH   3   4
ENDBRANCH   2   3
ENDBRANCH   1   2
BRANCH   1  26
ATOM     26  O   UNL A   1      35.400  33.912  27.766  1.00  0.00    -0.377 OA
BRANCH  26  27
ATOM     27  C   UNL A   1      34.822  34.881  28.625  1.00  0.00     0.188 C 
BRANCH  27  28
ATOM     28  C   UNL A   1      33.293  34.845  28.803  1.00  0.00     0.188 C 
BRANCH  28  29
ATOM     29  O   UNL A   1      32.871  34.725  30.157  1.00  0.00    -0.376 OA
BRANCH  29  30
ATOM     30  C   UNL A   1      32.954  35.869  30.998  1.00  0.00     0.202 C 
BRANCH  30  31
ATOM     31  C   UNL A   1      33.951  35.854  32.171  1.00  0.00     0.261 C 
BRANCH  31  32
ATOM     32  O   UNL A   1      35.051  34.933  32.092  1.00  0.00    -0.460 OA
BRANCH  32  33
ATOM     33  C   UNL A   1      34.947  33.732  32.696  1.00  0.00     0.338 C 
ATOM     34  O   UNL A   1      34.156  32.843  32.429  1.00  0.00    -0.246 OA
BRANCH  33  35
ATOM     35  C   UNL A   1      36.111  33.591  33.601  1.00  0.00     0.060 A 
ATOM     36  C   UNL A   1      37.405  33.711  33.075  1.00  0.00     0.016 A 
ATOM     37  C   UNL A   1      35.928  33.384  34.970  1.00  0.00     0.016 A 
ATOM     38  C   UNL A   1      38.518  33.618  33.914  1.00  0.00     0.010 A 
ATOM     39  C   UNL A   1      37.045  33.259  35.803  1.00  0.00     0.010 A 
ATOM     40  C   UNL A   1      38.346  33.359  35.279  1.00  0.00    -0.014 A 
BRANCH  40  41
ATOM     41  C   UNL A   1      39.515  33.047  36.141  1.00  0.00     0.031 A 
ATOM     42  C   UNL A   1      39.958  34.069  37.150  1.00  0.00     0.074 A 
ATOM     43  C   UNL A   1      40.184  31.885  36.018  1.00  0.00     0.049 A 
ATOM     44  N   UNL A   1      41.012  34.070  37.923  1.00  0.00    -0.248 NA
ATOM     45  C   UNL A   1      39.095  35.250  37.304  1.00  0.00     0.031 C 
ATOM     46  C   UNL A   1      39.824  30.793  35.113  1.00  0.00     0.029 A 
ATOM     47  N   UNL A   1      41.324  31.441  36.644  1.00  0.00    -0.354 N 
ATOM     48  C   UNL A   1      40.949  35.256  38.646  1.00  0.00     0.074 A 
ATOM     49  C   UNL A   1      39.762  35.957  38.206  1.00  0.00     0.031 C 
ATOM     50  C   UNL A   1      40.742  29.817  35.223  1.00  0.00     0.029 A 
ATOM     51  C   UNL A   1      41.777  30.231  36.172  1.00  0.00     0.049 A 
ATOM     52  H   UNL A   1      41.772  31.941  37.363  1.00  0.00     0.167 HD
ATOM     53  C   UNL A   1      41.803  35.716  39.591  1.00  0.00     0.037 A 
ATOM     54  C   UNL A   1      42.913  29.556  36.443  1.00  0.00     0.037 A 
ATOM     55  C   UNL A   1      42.985  35.014  40.018  1.00  0.00     0.049 A 
ATOM     56  C   UNL A   1      43.898  30.133  37.430  1.00  0.00     0.074 A 
ATOM     57  C   UNL A   1      43.900  35.386  40.988  1.00  0.00     0.029 A 
ATOM     58  N   UNL A   1      43.426  33.808  39.495  1.00  0.00    -0.354 N 
ATOM     59  N   UNL A   1      43.813  31.238  38.133  1.00  0.00    -0.248 NA
ATOM     60  C   UNL A   1      45.138  29.376  37.659  1.00  0.00     0.031 C 
ATOM     61  C   UNL A   1      44.928  34.438  41.004  1.00  0.00     0.029 A 
ATOM     62  C   UNL A   1      44.622  33.442  40.091  1.00  0.00     0.049 A 
ATOM     63  H   UNL A   1      42.958  33.288  38.802  1.00  0.00     0.167 HD
ATOM     64  C   UNL A   1      44.974  31.297  38.898  1.00  0.00     0.074 A 
ATOM     65  C   UNL A   1      45.738  30.107  38.588  1.00  0.00     0.031 C 
ATOM     66  C   UNL A   1      45.372  32.251  39.777  1.00  0.00     0.037 A 
BRANCH  53  67
ATOM     67  C   UNL A   1      41.513  37.059  40.204  1.00  0.00     0.058 A 
ATOM     68  C   UNL A   1      40.686  37.199  41.328  1.00  0.00     0.135 A 
ATOM     69  C   UNL A   1      42.114  38.218  39.683  1.00  0.00     0.135 A 
ATOM     70  F   UNL A   1      40.072  36.129  41.855  1.00  0.00    -0.206 F 
ATOM     71  C   UNL A   1      40.448  38.443  41.905  1.00  0.00     0.059 A 
ATOM     72  C   UNL A   1      41.914  39.468  40.262  1.00  0.00     0.059 A 
ATOM     73  F   UNL A   1      42.910  38.142  38.606  1.00  0.00    -0.206 F 
ATOM     74  C   UNL A   1      41.070  39.571  41.367  1.00  0.00     0.060 A 
BRANCH  74  75
ATOM     75  S   UNL A   1      40.765  41.174  42.139  1.00  0.00     0.124 S 
ATOM     76  O   UNL A   1      39.349  41.374  41.847  1.00  0.00    -0.237 OA
ATOM     77  O   UNL A   1      41.093  40.912  43.536  1.00  0.00    -0.237 OA
ATOM     78  O   UNL A   1      41.681  42.071  41.440  1.00  0.00    -0.744 OA
ENDBRANCH  74  75
ENDBRANCH  53  67
BRANCH  54  79
ATOM     79  C   UNL A   1      43.209  28.276  35.742  1.00  0.00     0.058 A 
ATOM     80  C   UNL A   1      44.093  28.230  34.652  1.00  0.00     0.135 A 
ATOM     81  C   UNL A   1      42.603  27.072  36.137  1.00  0.00     0.135 A 
ATOM     82  F   UNL A   1      44.684  29.355  34.222  1.00  0.00    -0.206 F 
ATOM     83  C   UNL A   1      44.355  27.044  33.973  1.00  0.00     0.059 A 
ATOM     84  C   UNL A   1      42.872  25.868  35.494  1.00  0.00     0.059 A 
ATOM     85  F   UNL A   1      41.750  27.057  37.175  1.00  0.00    -0.206 F 
ATOM     86  C   UNL A   1      43.742  25.866  34.406  1.00  0.00     0.060 A 
BRANCH  86  87
ATOM     87  S   UNL A   1      44.129  24.324  33.549  1.00  0.00     0.124 S 
ATOM     88  O   UNL A   1      45.488  24.065  34.007  1.00  0.00    -0.237 OA
ATOM     89  O   UNL A   1      43.099  23.425  34.060  1.00  0.00    -0.237 OA
ATOM     90  O   UNL A   1      43.995  24.681  32.139  1.00  0.00    -0.744 OA
ENDBRANCH  86  87
ENDBRANCH  54  79
BRANCH  66  91
ATOM     91  C   UNL A   1      46.684  32.049  40.488  1.00  0.00     0.058 A 
ATOM     92  C   UNL A   1      47.884  32.576  39.986  1.00  0.00     0.135 A 
ATOM     93  C   UNL A   1      46.730  31.390  41.729  1.00  0.00     0.135 A 
ATOM     94  F   UNL A   1      47.901  33.207  38.801  1.00  0.00    -0.206 F 
ATOM     95  C   UNL A   1      49.083  32.449  40.681  1.00  0.00     0.059 A 
ATOM     96  C   UNL A   1      47.911  31.278  42.456  1.00  0.00     0.059 A 
ATOM     97  F   UNL A   1      45.610  30.875  42.261  1.00  0.00    -0.206 F 
ATOM     98  C   UNL A   1      49.084  31.806  41.921  1.00  0.00     0.060 A 
BRANCH  98  99
ATOM     99  S   UNL A   1      50.637  31.701  42.838  1.00  0.00     0.124 S 
ATOM    100  O   UNL A   1      51.557  31.230  41.807  1.00  0.00    -0.237 OA
ATOM    101  O   UNL A   1      50.830  33.079  43.278  1.00  0.00    -0.237 OA
ATOM    102  O   UNL A   1      50.341  30.745  43.900  1.00  0.00    -0.744 OA
ENDBRANCH  98  99
ENDBRANCH  66  91
ENDBRANCH  40  41
ENDBRANCH  33  35
ENDBRANCH  32  33
ENDBRANCH  31  32
ENDBRANCH  30  31
ENDBRANCH  29  30
ENDBRANCH  28  29
ENDBRANCH  27  28
ENDBRANCH  26  27
ENDBRANCH   1  26
TORSDOF 27
ENDMDL
MODEL 3
REMARK VINA RESULT:      -7.4      1.539      2.201
REMARK SMILES CCSc1cccc(-c2ccc([C@@H](C)C(=O)OCCOCCOCCOCCOC(=O)c3ccc(-c4c5nc(c(-c6c(F)cc(S(=O)(=O)[O-])cc6F)c6ccc([nH]6)c(-c6c(F)cc(S(=O)(=O)[O-])cc6F)c6nc(c(-c7c(F)cc(S(=O)(=O)[O-])cc7F)c7ccc4[nH]7)C=C6)C=C5)cc3)cc2)c1
REMARK SMILES IDX 22 1 21 2 20 3 19 4 18 5 17 6 15 7 16 8 13 9 14 10 12 11
REMARK SMILES IDX 9 12 10 13 99 14 11 15 98 16 8 17 4 18 5 19 100 20 6 21 7 22
REMARK SMILES IDX 3 23 2 24 1 25 23 26 24 27 25 28 26 29 27 30 28 31 29 32
REMARK SMILES IDX 30 33 31 34 32 35 33 36 97 37 34 38 96 39 35 40 36 41 37 42
REMARK SMILES IDX 90 43 38 44 95 45 89 46 91 47 39 48 94 49 88 50 87 51 40 53
REMARK SMILES IDX 74 54 53 55 73 56 54 57 57 58 72 59 92 60 55 61 56 62 71 64
REMARK SMILES IDX 93 65 58 66 41 67 42 68 51 69 43 70 44 71 50 72 52 73 45 74
REMARK SMILES IDX 46 75 47 76 48 77 49 78 75 79 76 80 85 81 77 82 78 83 84 84
REMARK SMILES IDX 86 85 79 86 80 87 81 88 82 89 83 90 59 91 60 92 69 93 61 94
REMARK SMILES IDX 62 95 68 96 70 97 63 98 64 99 65 100 66 101 67 102
REMARK H PARENT 91 52 57 63
REMARK Flexibility Score: inf
ROOT
ATOM      1  C   UNL A   1      35.491  33.293  28.024  1.00  0.00     0.188 C 
ENDROOT
BRANCH   1   2
ATOM      2  C   UNL A   1      36.324  33.565  29.285  1.00  0.00     0.188 C 
BRANCH   2   3
ATOM      3  O   UNL A   1      37.464  34.411  29.241  1.00  0.00    -0.376 OA
BRANCH   3   4
ATOM      4  C   UNL A   1      38.767  33.890  29.471  1.00  0.00     0.202 C 
BRANCH   4   5
ATOM      5  C   UNL A   1      38.989  32.515  30.133  1.00  0.00     0.261 C 
BRANCH   5   6
ATOM      6  O   UNL A   1      40.323  31.968  30.086  1.00  0.00    -0.463 OA
BRANCH   6   7
ATOM      7  C   UNL A   1      40.422  30.637  29.873  1.00  0.00     0.313 C 
ATOM      8  O   UNL A   1      41.410  30.106  29.365  1.00  0.00    -0.252 OA
BRANCH   7   9
ATOM      9  C   UNL A   1      39.213  29.797  30.282  1.00  0.00     0.126 C 
ATOM     10  C   UNL A   1      39.699  28.391  30.616  1.00  0.00     0.025 C 
BRANCH   9  11
ATOM     11  C   UNL A   1      37.939  29.760  29.435  1.00  0.00    -0.034 A 
ATOM     12  C   UNL A   1      35.480  29.668  27.951  1.00  0.00    -0.018 A 
ATOM     13  C   UNL A   1      36.737  29.651  27.315  1.00  0.00     0.009 A 
ATOM     14  C   UNL A   1      35.475  29.753  29.347  1.00  0.00     0.009 A 
ATOM     15  C   UNL A   1      37.945  29.689  28.038  1.00  0.00     0.005 A 
ATOM     16  C   UNL A   1      36.679  29.785  30.074  1.00  0.00     0.005 A 
BRANCH  12  17
ATOM     17  C   UNL A   1      34.234  29.509  27.170  1.00  0.00    -0.017 A 
ATOM     18  C   UNL A   1      32.797  28.326  25.564  1.00  0.00     0.008 A 
ATOM     19  C   UNL A   1      31.770  29.235  25.822  1.00  0.00     0.015 A 
ATOM     20  C   UNL A   1      34.019  28.459  26.253  1.00  0.00     0.023 A 
ATOM     21  C   UNL A   1      31.974  30.303  26.689  1.00  0.00     0.002 A 
ATOM     22  C   UNL A   1      33.194  30.439  27.350  1.00  0.00     0.009 A 
BRANCH  18  23
ATOM     23  S   UNL A   1      32.516  26.925  24.488  1.00  0.00    -0.126 SA
BRANCH  23  24
ATOM     24  C   UNL A   1      33.837  27.104  23.225  1.00  0.00     0.071 C 
ATOM     25  C   UNL A   1      33.868  28.443  22.503  1.00  0.00     0.016 C 
ENDBRANCH  23  24
ENDBRANCH  18  23
ENDBRANCH  12  17
ENDBRANCH   9  11
ENDBRANCH   7   9
ENDBRANCH   6   7
ENDBRANCH   5   6
ENDBRANCH   4   5
ENDBRANCH   3   4
ENDBRANCH   2   3
ENDBRANCH   1   2
BRANCH   1  26
ATOM     26  O   UNL A   1      34.783  34.407  27.529  1.00  0.00    -0.377 OA
BRANCH  26  27
ATOM     27  C   UNL A   1      34.449  35.426  28.456  1.00  0.00     0.188 C 
BRANCH  27  28
ATOM     28  C   UNL A   1      32.954  35.641  28.762  1.00  0.00     0.188 C 
BRANCH  28  29
ATOM     29  O   UNL A   1      32.539  35.116  30.018  1.00  0.00    -0.376 OA
BRANCH  29  30
ATOM     30  C   UNL A   1      32.398  36.011  31.114  1.00  0.00     0.202 C 
BRANCH  30  31
ATOM     31  C   UNL A   1      33.583  36.192  32.080  1.00  0.00     0.261 C 
BRANCH  31  32
ATOM     32  O   UNL A   1      34.690  35.286  31.943  1.00  0.00    -0.460 OA
BRANCH  32  33
ATOM     33  C   UNL A   1      34.694  34.140  32.654  1.00  0.00     0.338 C 
ATOM     34  O   UNL A   1      33.890  33.227  32.575  1.00  0.00    -0.246 OA
BRANCH  33  35
ATOM     35  C   UNL A   1      35.975  34.083  33.394  1.00  0.00     0.060 A 
ATOM     36  C   UNL A   1      37.125  34.639  32.816  1.00  0.00     0.016 A 
ATOM     37  C   UNL A   1      36.034  33.525  34.673  1.00  0.00     0.016 A 
ATOM     38  C   UNL A   1      38.337  34.630  33.510  1.00  0.00     0.010 A 
ATOM     39  C   UNL A   1      37.256  33.488  35.353  1.00  0.00     0.010 A 
ATOM     40  C   UNL A   1      38.418  34.026  34.771  1.00  0.00    -0.014 A 
BRANCH  40  41
ATOM     41  C   UNL A   1      39.735  33.819  35.425  1.00  0.00     0.031 A 
ATOM     42  C   UNL A   1      40.646  32.753  34.885  1.00  0.00     0.074 A 
ATOM     43  C   UNL A   1      40.109  34.550  36.491  1.00  0.00     0.049 A 
ATOM     44  N   UNL A   1      41.783  32.313  35.358  1.00  0.00    -0.248 NA
ATOM     45  C   UNL A   1      40.214  32.092  33.643  1.00  0.00     0.031 C 
ATOM     46  C   UNL A   1      39.338  35.646  37.078  1.00  0.00     0.029 A 
ATOM     47  N   UNL A   1      41.228  34.464  37.285  1.00  0.00    -0.354 N 
ATOM     48  C   UNL A   1      42.196  31.315  34.483  1.00  0.00     0.074 A 
ATOM     49  C   UNL A   1      41.179  31.201  33.460  1.00  0.00     0.031 C 
ATOM     50  C   UNL A   1      39.994  36.111  38.156  1.00  0.00     0.029 A 
ATOM     51  C   UNL A   1      41.208  35.320  38.361  1.00  0.00     0.049 A 
ATOM     52  H   UNL A   1      41.972  33.848  37.100  1.00  0.00     0.167 HD
ATOM     53  C   UNL A   1      43.322  30.563  34.530  1.00  0.00     0.037 A 
ATOM     54  C   UNL A   1      42.048  35.425  39.411  1.00  0.00     0.037 A 
ATOM     55  C   UNL A   1      44.325  30.679  35.555  1.00  0.00     0.049 A 
ATOM     56  C   UNL A   1      43.248  34.512  39.493  1.00  0.00     0.074 A 
ATOM     57  C   UNL A   1      45.514  29.980  35.675  1.00  0.00     0.029 A 
ATOM     58  N   UNL A   1      44.254  31.535  36.644  1.00  0.00    -0.354 N 
ATOM     59  N   UNL A   1      43.647  33.594  38.643  1.00  0.00    -0.248 NA
ATOM     60  C   UNL A   1      44.109  34.642  40.677  1.00  0.00     0.031 C 
ATOM     61  C   UNL A   1      46.128  30.365  36.870  1.00  0.00     0.029 A 
ATOM     62  C   UNL A   1      45.356  31.351  37.463  1.00  0.00     0.049 A 
ATOM     63  H   UNL A   1      43.527  32.178  36.811  1.00  0.00     0.167 HD
ATOM     64  C   UNL A   1      44.812  33.055  39.180  1.00  0.00     0.074 A 
ATOM     65  C   UNL A   1      45.066  33.761  40.419  1.00  0.00     0.031 C 
ATOM     66  C   UNL A   1      45.600  32.064  38.693  1.00  0.00     0.037 A 
BRANCH  53  67
ATOM     67  C   UNL A   1      43.513  29.521  33.461  1.00  0.00     0.058 A 
ATOM     68  C   UNL A   1      43.007  28.219  33.594  1.00  0.00     0.135 A 
ATOM     69  C   UNL A   1      44.173  29.849  32.265  1.00  0.00     0.135 A 
ATOM     70  F   UNL A   1      42.385  27.846  34.723  1.00  0.00    -0.206 F 
ATOM     71  C   UNL A   1      43.165  27.272  32.587  1.00  0.00     0.059 A 
ATOM     72  C   UNL A   1      44.316  28.927  31.232  1.00  0.00     0.059 A 
ATOM     73  F   UNL A   1      44.681  31.078  32.087  1.00  0.00    -0.206 F 
ATOM     74  C   UNL A   1      43.818  27.637  31.407  1.00  0.00     0.060 A 
BRANCH  74  75
ATOM     75  S   UNL A   1      43.997  26.402  30.104  1.00  0.00     0.124 S 
ATOM     76  O   UNL A   1      42.671  26.427  29.493  1.00  0.00    -0.237 OA
ATOM     77  O   UNL A   1      45.077  26.958  29.296  1.00  0.00    -0.237 OA
ATOM     78  O   UNL A   1      44.327  25.180  30.832  1.00  0.00    -0.744 OA
ENDBRANCH  74  75
ENDBRANCH  53  67
BRANCH  54  79
ATOM     79  C   UNL A   1      41.770  36.403  40.498  1.00  0.00     0.058 A 
ATOM     80  C   UNL A   1      40.997  36.051  41.616  1.00  0.00     0.135 A 
ATOM     81  C   UNL A   1      42.259  37.719  40.437  1.00  0.00     0.135 A 
ATOM     82  F   UNL A   1      40.489  34.812  41.715  1.00  0.00    -0.206 F 
ATOM     83  C   UNL A   1      40.708  36.966  42.624  1.00  0.00     0.059 A 
ATOM     84  C   UNL A   1      42.010  38.643  41.446  1.00  0.00     0.059 A 
ATOM     85  F   UNL A   1      43.006  38.111  39.392  1.00  0.00    -0.206 F 
ATOM     86  C   UNL A   1      41.225  38.260  42.532  1.00  0.00     0.060 A 
BRANCH  86  87
ATOM     87  S   UNL A   1      40.886  39.424  43.870  1.00  0.00     0.124 S 
ATOM     88  O   UNL A   1      41.572  40.621  43.400  1.00  0.00    -0.237 OA
ATOM     89  O   UNL A   1      39.428  39.478  43.865  1.00  0.00    -0.237 OA
ATOM     90  O   UNL A   1      41.477  38.775  45.038  1.00  0.00    -0.744 OA
ENDBRANCH  86  87
ENDBRANCH  54  79
BRANCH  66  91
ATOM     91  C   UNL A   1      46.827  31.687  39.482  1.00  0.00     0.058 A 
ATOM     92  C   UNL A   1      46.804  30.656  40.434  1.00  0.00     0.135 A 
ATOM     93  C   UNL A   1      48.060  32.311  39.226  1.00  0.00     0.135 A 
ATOM     94  F   UNL A   1      45.651  30.031  40.725  1.00  0.00    -0.206 F 
ATOM     95  C   UNL A   1      47.955  30.262  41.110  1.00  0.00     0.059 A 
ATOM     96  C   UNL A   1      49.229  31.914  39.868  1.00  0.00     0.059 A 
ATOM     97  F   UNL A   1      48.142  33.298  38.319  1.00  0.00    -0.206 F 
ATOM     98  C   UNL A   1      49.165  30.892  40.813  1.00  0.00     0.060 A 
BRANCH  98  99
ATOM     99  S   UNL A   1      50.660  30.330  41.656  1.00  0.00     0.124 S 
ATOM    100  O   UNL A   1      50.303  28.960  42.009  1.00  0.00    -0.237 OA
ATOM    101  O   UNL A   1      51.674  30.473  40.616  1.00  0.00    -0.237 OA
ATOM    102  O   UNL A   1      50.787  31.255  42.778  1.00  0.00    -0.744 OA
ENDBRANCH  98  99
ENDBRANCH  66  91
ENDBRANCH  40  41
ENDBRANCH  33  35
ENDBRANCH  32  33
ENDBRANCH  31  32
ENDBRANCH  30  31
ENDBRANCH  29  30
ENDBRANCH  28  29
ENDBRANCH  27  28
ENDBRANCH  26  27
ENDBRANCH   1  26
TORSDOF 27
ENDMDL
