MODEL 1
REMARK VINA RESULT:      -9.5      0.000      0.000
REMARK SMILES O=C(OCCOCCOCCOCCOC(=O)c1ccc2c(=O)n(CCC[NH+]3CCOCC3)c(=O)[nH]c2c1)c1ccc(-c2c3nc(c(-c4c(F)cc(S(=O)(=O)[O-])cc4F)c4ccc([nH]4)c(-c4c(F)cc(S(=O)(=O)[O-])cc4F)c4nc(c(-c5c(F)cc(S(=O)(=O)[O-])cc5F)c5ccc2[nH]5)C=C4)C=C3)cc1
REMARK SMILES IDX 10 1 9 2 8 3 7 4 6 5 5 6 4 7 3 8 2 9 1 10 39 11 40 12 104 13
REMARK SMILES IDX 41 14 103 15 42 16 43 17 44 18 97 19 45 20 102 21 96 22
REMARK SMILES IDX 98 23 46 24 101 25 95 26 94 27 47 29 81 30 60 31 80 32 61 33
REMARK SMILES IDX 64 34 79 35 99 36 62 37 63 38 78 40 100 41 65 42 48 43 49 44
REMARK SMILES IDX 58 45 50 46 51 47 57 48 59 49 52 50 53 51 54 52 55 53 56 54
REMARK SMILES IDX 82 55 83 56 92 57 84 58 85 59 91 60 93 61 86 62 87 63 88 64
REMARK SMILES IDX 89 65 90 66 66 67 67 68 76 69 68 70 69 71 75 72 77 73 70 74
REMARK SMILES IDX 71 75 72 76 73 77 74 78 11 79 12 80 13 81 14 82 15 83 16 84
REMARK SMILES IDX 17 85 18 86 19 87 38 88 20 89 37 90 21 91 36 92 22 93 34 94
REMARK SMILES IDX 23 96 24 97 35 98 25 99 26 100 27 101 28 102 29 103 33 104
REMARK SMILES IDX 30 106 32 107 31 108
REMARK H PARENT 98 28 64 39 36 95 28 105
REMARK Flexibility Score: inf
ROOT
ATOM      1  C   UNL A   1      33.825  28.554  23.474  1.00  0.00     0.188 C 
ENDROOT
BRANCH   1   2
ATOM      2  O   UNL A   1      33.181  29.399  24.419  1.00  0.00    -0.377 OA
BRANCH   2   3
ATOM      3  C   UNL A   1      33.227  28.992  25.783  1.00  0.00     0.188 C 
BRANCH   3   4
ATOM      4  C   UNL A   1      32.186  29.623  26.711  1.00  0.00     0.188 C 
BRANCH   4   5
ATOM      5  O   UNL A   1      32.545  30.929  27.166  1.00  0.00    -0.376 OA
BRANCH   5   6
ATOM      6  C   UNL A   1      31.628  31.980  26.877  1.00  0.00     0.202 C 
BRANCH   6   7
ATOM      7  C   UNL A   1      32.069  33.389  27.254  1.00  0.00     0.261 C 
BRANCH   7   8
ATOM      8  O   UNL A   1      33.372  33.491  27.839  1.00  0.00    -0.460 OA
BRANCH   8   9
ATOM      9  C   UNL A   1      33.753  33.784  29.103  1.00  0.00     0.338 C 
ATOM     10  O   UNL A   1      33.033  34.563  29.730  1.00  0.00    -0.246 OA
BRANCH   9  11
ATOM     11  C   UNL A   1      35.019  33.321  29.771  1.00  0.00     0.060 A 
ATOM     12  C   UNL A   1      36.206  33.957  29.356  1.00  0.00     0.016 A 
ATOM     13  C   UNL A   1      35.137  32.294  30.711  1.00  0.00     0.016 A 
ATOM     14  C   UNL A   1      37.457  33.562  29.837  1.00  0.00     0.010 A 
ATOM     15  C   UNL A   1      36.383  31.851  31.150  1.00  0.00     0.010 A 
ATOM     16  C   UNL A   1      37.546  32.496  30.732  1.00  0.00    -0.014 A 
BRANCH  16  17
ATOM     17  C   UNL A   1      38.794  32.184  31.449  1.00  0.00     0.031 A 
ATOM     18  C   UNL A   1      39.152  32.849  32.738  1.00  0.00     0.074 A 
ATOM     19  C   UNL A   1      39.661  31.388  30.797  1.00  0.00     0.049 A 
ATOM     20  N   UNL A   1      40.225  32.694  33.467  1.00  0.00    -0.248 NA
ATOM     21  C   UNL A   1      38.195  33.831  33.266  1.00  0.00     0.031 C 
ATOM     22  C   UNL A   1      39.406  30.778  29.488  1.00  0.00     0.029 A 
ATOM     23  N   UNL A   1      40.926  30.985  31.114  1.00  0.00    -0.354 N 
ATOM     24  C   UNL A   1      40.060  33.527  34.565  1.00  0.00     0.074 A 
ATOM     25  C   UNL A   1      38.815  34.241  34.365  1.00  0.00     0.031 C 
ATOM     26  C   UNL A   1      40.483  30.079  29.113  1.00  0.00     0.029 A 
ATOM     27  C   UNL A   1      41.498  30.193  30.151  1.00  0.00     0.049 A 
ATOM     28  H   UNL A   1      41.382  31.238  31.949  1.00  0.00     0.167 HD
ATOM     29  C   UNL A   1      40.872  33.656  35.645  1.00  0.00     0.037 A 
ATOM     30  C   UNL A   1      42.705  29.605  30.123  1.00  0.00     0.037 A 
ATOM     31  C   UNL A   1      42.142  32.976  35.762  1.00  0.00     0.049 A 
ATOM     32  C   UNL A   1      43.598  29.778  31.312  1.00  0.00     0.074 A 
ATOM     33  C   UNL A   1      43.048  32.999  36.808  1.00  0.00     0.029 A 
ATOM     34  N   UNL A   1      42.697  32.163  34.777  1.00  0.00    -0.354 N 
ATOM     35  N   UNL A   1      43.393  30.490  32.397  1.00  0.00    -0.248 NA
ATOM     36  C   UNL A   1      44.870  29.054  31.288  1.00  0.00     0.031 C 
ATOM     37  C   UNL A   1      44.167  32.243  36.435  1.00  0.00     0.029 A 
ATOM     38  C   UNL A   1      43.940  31.700  35.179  1.00  0.00     0.049 A 
ATOM     39  H   UNL A   1      42.268  31.948  33.919  1.00  0.00     0.167 HD
ATOM     40  C   UNL A   1      44.506  30.289  33.199  1.00  0.00     0.074 A 
ATOM     41  C   UNL A   1      45.367  29.366  32.478  1.00  0.00     0.031 C 
ATOM     42  C   UNL A   1      44.793  30.815  34.417  1.00  0.00     0.037 A 
BRANCH  29  43
ATOM     43  C   UNL A   1      40.399  34.545  36.769  1.00  0.00     0.058 A 
ATOM     44  C   UNL A   1      40.730  35.912  36.802  1.00  0.00     0.135 A 
ATOM     45  C   UNL A   1      39.604  34.050  37.816  1.00  0.00     0.135 A 
ATOM     46  F   UNL A   1      41.488  36.448  35.833  1.00  0.00    -0.206 F 
ATOM     47  C   UNL A   1      40.335  36.738  37.850  1.00  0.00     0.059 A 
ATOM     48  C   UNL A   1      39.170  34.867  38.860  1.00  0.00     0.059 A 
ATOM     49  F   UNL A   1      39.246  32.757  37.841  1.00  0.00    -0.206 F 
ATOM     50  C   UNL A   1      39.559  36.206  38.879  1.00  0.00     0.060 A 
BRANCH  50  51
ATOM     51  S   UNL A   1      39.091  37.289  40.246  1.00  0.00     0.124 S 
ATOM     52  O   UNL A   1      38.231  38.256  39.570  1.00  0.00    -0.237 OA
ATOM     53  O   UNL A   1      38.416  36.369  41.155  1.00  0.00    -0.237 OA
ATOM     54  O   UNL A   1      40.369  37.812  40.721  1.00  0.00    -0.744 OA
ENDBRANCH  50  51
ENDBRANCH  29  43
BRANCH  30  55
ATOM     55  C   UNL A   1      43.037  28.712  28.986  1.00  0.00     0.058 A 
ATOM     56  C   UNL A   1      43.912  29.153  27.984  1.00  0.00     0.135 A 
ATOM     57  C   UNL A   1      42.621  27.371  28.952  1.00  0.00     0.135 A 
ATOM     58  F   UNL A   1      44.344  30.423  27.985  1.00  0.00    -0.206 F 
ATOM     59  C   UNL A   1      44.374  28.296  26.994  1.00  0.00     0.059 A 
ATOM     60  C   UNL A   1      43.085  26.488  27.982  1.00  0.00     0.059 A 
ATOM     61  F   UNL A   1      41.810  26.894  29.911  1.00  0.00    -0.206 F 
ATOM     62  C   UNL A   1      43.968  26.961  27.010  1.00  0.00     0.060 A 
BRANCH  62  63
ATOM     63  S   UNL A   1      44.667  25.839  25.779  1.00  0.00     0.124 S 
ATOM     64  O   UNL A   1      45.396  26.763  24.919  1.00  0.00    -0.237 OA
ATOM     65  O   UNL A   1      45.484  24.956  26.606  1.00  0.00    -0.237 OA
ATOM     66  O   UNL A   1      43.490  25.216  25.182  1.00  0.00    -0.744 OA
ENDBRANCH  62  63
ENDBRANCH  30  55
BRANCH  42  67
ATOM     67  C   UNL A   1      46.109  30.408  35.022  1.00  0.00     0.058 A 
ATOM     68  C   UNL A   1      46.235  29.230  35.775  1.00  0.00     0.135 A 
ATOM     69  C   UNL A   1      47.252  31.205  34.853  1.00  0.00     0.135 A 
ATOM     70  F   UNL A   1      45.171  28.437  35.974  1.00  0.00    -0.206 F 
ATOM     71  C   UNL A   1      47.436  28.883  36.383  1.00  0.00     0.059 A 
ATOM     72  C   UNL A   1      48.473  30.857  35.422  1.00  0.00     0.059 A 
ATOM     73  F   UNL A   1      47.190  32.335  34.131  1.00  0.00    -0.206 F 
ATOM     74  C   UNL A   1      48.549  29.707  36.204  1.00  0.00     0.060 A 
BRANCH  74  75
ATOM     75  S   UNL A   1      50.093  29.249  37.014  1.00  0.00     0.124 S 
ATOM     76  O   UNL A   1      49.628  28.884  38.348  1.00  0.00    -0.237 OA
ATOM     77  O   UNL A   1      50.566  28.147  36.182  1.00  0.00    -0.237 OA
ATOM     78  O   UNL A   1      50.892  30.470  36.940  1.00  0.00    -0.744 OA
ENDBRANCH  74  75
ENDBRANCH  42  67
ENDBRANCH  16  17
ENDBRANCH   9  11
ENDBRANCH   8   9
ENDBRANCH   7   8
ENDBRANCH   6   7
ENDBRANCH   5   6
ENDBRANCH   4   5
ENDBRANCH   3   4
ENDBRANCH   2   3
ENDBRANCH   1   2
BRANCH   1  79
ATOM     79  C   UNL A   1      32.990  27.911  22.338  1.00  0.00     0.188 C 
BRANCH  79  80
ATOM     80  O   UNL A   1      33.620  26.810  21.717  1.00  0.00    -0.376 OA
BRANCH  80  81
ATOM     81  C   UNL A   1      32.766  25.774  21.246  1.00  0.00     0.202 C 
BRANCH  81  82
ATOM     82  C   UNL A   1      32.925  24.352  21.822  1.00  0.00     0.261 C 
BRANCH  82  83
ATOM     83  O   UNL A   1      33.970  24.149  22.794  1.00  0.00    -0.460 OA
BRANCH  83  84
ATOM     84  C   UNL A   1      33.630  23.640  23.994  1.00  0.00     0.338 C 
ATOM     85  O   UNL A   1      32.510  23.533  24.471  1.00  0.00    -0.246 OA
BRANCH  84  86
ATOM     86  C   UNL A   1      34.829  23.016  24.591  1.00  0.00     0.062 A 
ATOM     87  C   UNL A   1      34.780  21.683  25.013  1.00  0.00     0.016 A 
ATOM     88  C   UNL A   1      36.002  23.788  24.753  1.00  0.00     0.042 A 
ATOM     89  C   UNL A   1      35.958  21.072  25.429  1.00  0.00     0.017 A 
ATOM     90  C   UNL A   1      37.126  23.205  25.312  1.00  0.00     0.056 A 
ATOM     91  C   UNL A   1      37.123  21.840  25.512  1.00  0.00     0.064 A 
ATOM     92  N   UNL A   1      38.252  23.935  25.706  1.00  0.00    -0.307 N 
ATOM     93  C   UNL A   1      38.438  21.230  25.616  1.00  0.00     0.264 A 
ATOM     94  C   UNL A   1      39.358  23.355  26.294  1.00  0.00     0.328 A 
ATOM     95  H   UNL A   1      38.256  24.908  25.557  1.00  0.00     0.171 HD
ATOM     96  O   UNL A   1      38.601  20.179  25.010  1.00  0.00    -0.268 OA
ATOM     97  N   UNL A   1      39.407  21.967  26.272  1.00  0.00    -0.260 N 
ATOM     98  O   UNL A   1      40.240  24.074  26.759  1.00  0.00    -0.248 OA
BRANCH  97  99
ATOM     99  C   UNL A   1      40.631  21.276  26.676  1.00  0.00     0.137 C 
BRANCH  99 100
ATOM    100  C   UNL A   1      41.918  21.912  26.117  1.00  0.00     0.083 C 
BRANCH 100 101
ATOM    101  C   UNL A   1      43.189  21.047  26.205  1.00  0.00     0.264 C 
BRANCH 101 102
ATOM    102  N   UNL A   1      43.618  20.513  24.912  1.00  0.00    -0.331 N 
ATOM    103  C   UNL A   1      43.759  19.042  24.921  1.00  0.00     0.291 C 
ATOM    104  C   UNL A   1      44.837  21.105  24.354  1.00  0.00     0.291 C 
ATOM    105  H   UNL A   1      42.852  20.787  24.298  1.00  0.00     0.348 HD
ATOM    106  C   UNL A   1      45.055  18.562  25.589  1.00  0.00     0.221 C 
ATOM    107  C   UNL A   1      46.108  20.610  25.054  1.00  0.00     0.221 C 
ATOM    108  O   UNL A   1      46.212  19.180  25.008  1.00  0.00    -0.370 OA
ENDBRANCH 101 102
ENDBRANCH 100 101
ENDBRANCH  99 100
ENDBRANCH  97  99
ENDBRANCH  84  86
ENDBRANCH  83  84
ENDBRANCH  82  83
ENDBRANCH  81  82
ENDBRANCH  80  81
ENDBRANCH  79  80
ENDBRANCH   1  79
TORSDOF 27
ENDMDL
MODEL 2
REMARK VINA RESULT:      -9.4      5.537     12.594
REMARK SMILES O=C(OCCOCCOCCOCCOC(=O)c1ccc2c(=O)n(CCC[NH+]3CCOCC3)c(=O)[nH]c2c1)c1ccc(-c2c3nc(c(-c4c(F)cc(S(=O)(=O)[O-])cc4F)c4ccc([nH]4)c(-c4c(F)cc(S(=O)(=O)[O-])cc4F)c4nc(c(-c5c(F)cc(S(=O)(=O)[O-])cc5F)c5ccc2[nH]5)C=C4)C=C3)cc1
REMARK SMILES IDX 10 1 9 2 8 3 7 4 6 5 5 6 4 7 3 8 2 9 1 10 39 11 40 12 104 13
REMARK SMILES IDX 41 14 103 15 42 16 43 17 44 18 97 19 45 20 102 21 96 22
REMARK SMILES IDX 98 23 46 24 101 25 95 26 94 27 47 29 81 30 60 31 80 32 61 33
REMARK SMILES IDX 64 34 79 35 99 36 62 37 63 38 78 40 100 41 65 42 48 43 49 44
REMARK SMILES IDX 58 45 50 46 51 47 57 48 59 49 52 50 53 51 54 52 55 53 56 54
REMARK SMILES IDX 82 55 83 56 92 57 84 58 85 59 91 60 93 61 86 62 87 63 88 64
REMARK SMILES IDX 89 65 90 66 66 67 67 68 76 69 68 70 69 71 75 72 77 73 70 74
REMARK SMILES IDX 71 75 72 76 73 77 74 78 11 79 12 80 13 81 14 82 15 83 16 84
REMARK SMILES IDX 17 85 18 86 19 87 38 88 20 89 37 90 21 91 36 92 22 93 34 94
REMARK SMILES IDX 23 96 24 97 35 98 25 99 26 100 27 101 28 102 29 103 33 104
REMARK SMILES IDX 30 106 32 107 31 108
REMARK H PARENT 98 28 64 39 36 95 28 105
REMARK Flexibility Score: inf
ROOT
ATOM      1  C   UNL A   1      36.594  21.031  25.348  1.00  0.00     0.188 C 
ENDROOT
BRANCH   1   2
ATOM      2  O   UNL A   1      37.695  21.807  24.896  1.00  0.00    -0.377 OA
BRANCH   2   3
ATOM      3  C   UNL A   1      38.763  22.007  25.817  1.00  0.00     0.188 C 
BRANCH   3   4
ATOM      4  C   UNL A   1      39.722  20.828  26.006  1.00  0.00     0.188 C 
BRANCH   4   5
ATOM      5  O   UNL A   1      41.069  21.124  25.632  1.00  0.00    -0.376 OA
BRANCH   5   6
ATOM      6  C   UNL A   1      42.090  20.680  26.519  1.00  0.00     0.202 C 
BRANCH   6   7
ATOM      7  C   UNL A   1      42.725  19.330  26.203  1.00  0.00     0.261 C 
BRANCH   7   8
ATOM      8  O   UNL A   1      43.779  19.358  25.235  1.00  0.00    -0.460 OA
BRANCH   8   9
ATOM      9  C   UNL A   1      44.260  20.372  24.480  1.00  0.00     0.338 C 
ATOM     10  O   UNL A   1      44.537  20.104  23.309  1.00  0.00    -0.246 OA
BRANCH   9  11
ATOM     11  C   UNL A   1      44.574  21.761  24.965  1.00  0.00     0.060 A 
ATOM     12  C   UNL A   1      45.340  21.845  26.145  1.00  0.00     0.016 A 
ATOM     13  C   UNL A   1      44.137  22.959  24.398  1.00  0.00     0.016 A 
ATOM     14  C   UNL A   1      45.629  23.073  26.747  1.00  0.00     0.010 A 
ATOM     15  C   UNL A   1      44.366  24.184  25.022  1.00  0.00     0.010 A 
ATOM     16  C   UNL A   1      45.131  24.249  26.186  1.00  0.00    -0.014 A 
BRANCH  16  17
ATOM     17  C   UNL A   1      45.587  25.577  26.630  1.00  0.00     0.031 A 
ATOM     18  C   UNL A   1      46.957  26.084  26.324  1.00  0.00     0.074 A 
ATOM     19  C   UNL A   1      44.756  26.234  27.459  1.00  0.00     0.049 A 
ATOM     20  N   UNL A   1      47.505  27.219  26.670  1.00  0.00    -0.248 NA
ATOM     21  C   UNL A   1      47.835  25.197  25.549  1.00  0.00     0.031 C 
ATOM     22  C   UNL A   1      43.435  25.746  27.871  1.00  0.00     0.029 A 
ATOM     23  N   UNL A   1      44.901  27.416  28.128  1.00  0.00    -0.354 N 
ATOM     24  C   UNL A   1      48.781  27.206  26.123  1.00  0.00     0.074 A 
ATOM     25  C   UNL A   1      48.949  25.916  25.484  1.00  0.00     0.031 C 
ATOM     26  C   UNL A   1      42.891  26.622  28.723  1.00  0.00     0.029 A 
ATOM     27  C   UNL A   1      43.821  27.726  28.916  1.00  0.00     0.049 A 
ATOM     28  H   UNL A   1      45.698  27.987  28.052  1.00  0.00     0.167 HD
ATOM     29  C   UNL A   1      49.706  28.198  26.140  1.00  0.00     0.037 A 
ATOM     30  C   UNL A   1      43.601  28.799  29.694  1.00  0.00     0.037 A 
ATOM     31  C   UNL A   1      49.519  29.440  26.854  1.00  0.00     0.049 A 
ATOM     32  C   UNL A   1      44.645  29.871  29.720  1.00  0.00     0.074 A 
ATOM     33  C   UNL A   1      50.362  30.534  26.935  1.00  0.00     0.029 A 
ATOM     34  N   UNL A   1      48.407  29.741  27.637  1.00  0.00    -0.354 N 
ATOM     35  N   UNL A   1      45.811  29.899  29.118  1.00  0.00    -0.248 NA
ATOM     36  C   UNL A   1      44.337  31.066  30.508  1.00  0.00     0.031 C 
ATOM     37  C   UNL A   1      49.784  31.470  27.803  1.00  0.00     0.029 A 
ATOM     38  C   UNL A   1      48.553  30.989  28.222  1.00  0.00     0.049 A 
ATOM     39  H   UNL A   1      47.628  29.151  27.758  1.00  0.00     0.167 HD
ATOM     40  C   UNL A   1      46.377  31.123  29.439  1.00  0.00     0.074 A 
ATOM     41  C   UNL A   1      45.406  31.815  30.270  1.00  0.00     0.031 C 
ATOM     42  C   UNL A   1      47.584  31.632  29.082  1.00  0.00     0.037 A 
BRANCH  29  43
ATOM     43  C   UNL A   1      50.978  27.977  25.358  1.00  0.00     0.058 A 
ATOM     44  C   UNL A   1      50.984  28.019  23.951  1.00  0.00     0.135 A 
ATOM     45  C   UNL A   1      52.204  27.732  25.999  1.00  0.00     0.135 A 
ATOM     46  F   UNL A   1      49.845  28.246  23.278  1.00  0.00    -0.206 F 
ATOM     47  C   UNL A   1      52.138  27.779  23.214  1.00  0.00     0.059 A 
ATOM     48  C   UNL A   1      53.381  27.520  25.279  1.00  0.00     0.059 A 
ATOM     49  F   UNL A   1      52.270  27.686  27.338  1.00  0.00    -0.206 F 
ATOM     50  C   UNL A   1      53.333  27.524  23.886  1.00  0.00     0.060 A 
BRANCH  50  51
ATOM     51  S   UNL A   1      54.810  27.179  22.906  1.00  0.00     0.124 S 
ATOM     52  O   UNL A   1      55.548  26.285  23.794  1.00  0.00    -0.237 OA
ATOM     53  O   UNL A   1      54.250  26.559  21.709  1.00  0.00    -0.237 OA
ATOM     54  O   UNL A   1      55.405  28.497  22.707  1.00  0.00    -0.744 OA
ENDBRANCH  50  51
ENDBRANCH  29  43
BRANCH  30  55
ATOM     55  C   UNL A   1      42.290  28.929  30.374  1.00  0.00     0.058 A 
ATOM     56  C   UNL A   1      41.204  29.497  29.694  1.00  0.00     0.135 A 
ATOM     57  C   UNL A   1      42.052  28.362  31.637  1.00  0.00     0.135 A 
ATOM     58  F   UNL A   1      41.384  30.039  28.480  1.00  0.00    -0.206 F 
ATOM     59  C   UNL A   1      39.924  29.489  30.234  1.00  0.00     0.059 A 
ATOM     60  C   UNL A   1      40.775  28.324  32.189  1.00  0.00     0.059 A 
ATOM     61  F   UNL A   1      43.054  27.775  32.310  1.00  0.00    -0.206 F 
ATOM     62  C   UNL A   1      39.716  28.886  31.475  1.00  0.00     0.060 A 
BRANCH  62  63
ATOM     63  S   UNL A   1      38.027  28.789  32.107  1.00  0.00     0.124 S 
ATOM     64  O   UNL A   1      37.258  28.659  30.875  1.00  0.00    -0.237 OA
ATOM     65  O   UNL A   1      38.089  27.600  32.951  1.00  0.00    -0.237 OA
ATOM     66  O   UNL A   1      37.862  30.050  32.824  1.00  0.00    -0.744 OA
ENDBRANCH  62  63
ENDBRANCH  30  55
BRANCH  42  67
ATOM     67  C   UNL A   1      47.912  32.999  29.619  1.00  0.00     0.058 A 
ATOM     68  C   UNL A   1      47.563  34.163  28.917  1.00  0.00     0.135 A 
ATOM     69  C   UNL A   1      48.588  33.145  30.841  1.00  0.00     0.135 A 
ATOM     70  F   UNL A   1      46.924  34.078  27.740  1.00  0.00    -0.206 F 
ATOM     71  C   UNL A   1      47.918  35.424  29.383  1.00  0.00     0.059 A 
ATOM     72  C   UNL A   1      48.920  34.399  31.343  1.00  0.00     0.059 A 
ATOM     73  F   UNL A   1      48.934  32.064  31.558  1.00  0.00    -0.206 F 
ATOM     74  C   UNL A   1      48.600  35.531  30.596  1.00  0.00     0.060 A 
BRANCH  74  75
ATOM     75  S   UNL A   1      49.066  37.173  31.176  1.00  0.00     0.124 S 
ATOM     76  O   UNL A   1      50.323  36.896  31.864  1.00  0.00    -0.237 OA
ATOM     77  O   UNL A   1      49.177  37.923  29.929  1.00  0.00    -0.237 OA
ATOM     78  O   UNL A   1      47.951  37.560  32.036  1.00  0.00    -0.744 OA
ENDBRANCH  74  75
ENDBRANCH  42  67
ENDBRANCH  16  17
ENDBRANCH   9  11
ENDBRANCH   8   9
ENDBRANCH   7   8
ENDBRANCH   6   7
ENDBRANCH   5   6
ENDBRANCH   4   5
ENDBRANCH   3   4
ENDBRANCH   2   3
ENDBRANCH   1   2
BRANCH   1  79
ATOM     79  C   UNL A   1      35.322  21.748  25.867  1.00  0.00     0.188 C 
BRANCH  79  80
ATOM     80  O   UNL A   1      34.184  20.916  25.939  1.00  0.00    -0.376 OA
BRANCH  80  81
ATOM     81  C   UNL A   1      34.220  19.723  25.165  1.00  0.00     0.202 C 
BRANCH  81  82
ATOM     82  C   UNL A   1      32.907  19.182  24.561  1.00  0.00     0.261 C 
BRANCH  82  83
ATOM     83  O   UNL A   1      31.954  20.152  24.082  1.00  0.00    -0.460 OA
BRANCH  83  84
ATOM     84  C   UNL A   1      32.118  20.640  22.837  1.00  0.00     0.338 C 
ATOM     85  O   UNL A   1      32.061  20.028  21.781  1.00  0.00    -0.246 OA
BRANCH  84  86
ATOM     86  C   UNL A   1      32.175  22.114  22.919  1.00  0.00     0.062 A 
ATOM     87  C   UNL A   1      32.994  22.827  22.038  1.00  0.00     0.016 A 
ATOM     88  C   UNL A   1      31.418  22.781  23.910  1.00  0.00     0.042 A 
ATOM     89  C   UNL A   1      32.915  24.216  22.031  1.00  0.00     0.017 A 
ATOM     90  C   UNL A   1      31.470  24.161  23.989  1.00  0.00     0.056 A 
ATOM     91  C   UNL A   1      32.104  24.850  22.976  1.00  0.00     0.064 A 
ATOM     92  N   UNL A   1      30.933  24.889  25.056  1.00  0.00    -0.307 N 
ATOM     93  C   UNL A   1      31.711  26.242  22.838  1.00  0.00     0.264 A 
ATOM     94  C   UNL A   1      31.016  26.264  25.148  1.00  0.00     0.328 A 
ATOM     95  H   UNL A   1      30.476  24.397  25.775  1.00  0.00     0.171 HD
ATOM     96  O   UNL A   1      31.522  26.646  21.697  1.00  0.00    -0.268 OA
ATOM     97  N   UNL A   1      31.458  26.929  24.012  1.00  0.00    -0.260 N 
ATOM     98  O   UNL A   1      30.666  26.821  26.187  1.00  0.00    -0.248 OA
BRANCH  97  99
ATOM     99  C   UNL A   1      31.374  28.387  23.944  1.00  0.00     0.137 C 
BRANCH  99 100
ATOM    100  C   UNL A   1      29.980  28.913  23.552  1.00  0.00     0.083 C 
BRANCH 100 101
ATOM    101  C   UNL A   1      29.888  29.630  22.193  1.00  0.00     0.264 C 
BRANCH 101 102
ATOM    102  N   UNL A   1      28.519  29.970  21.807  1.00  0.00    -0.331 N 
ATOM    103  C   UNL A   1      28.443  31.202  20.995  1.00  0.00     0.291 C 
ATOM    104  C   UNL A   1      27.555  30.065  22.907  1.00  0.00     0.291 C 
ATOM    105  H   UNL A   1      28.244  29.164  21.246  1.00  0.00     0.348 HD
ATOM    106  C   UNL A   1      28.564  32.484  21.828  1.00  0.00     0.221 C 
ATOM    107  C   UNL A   1      27.714  31.353  23.722  1.00  0.00     0.221 C 
ATOM    108  O   UNL A   1      27.603  32.519  22.893  1.00  0.00    -0.370 OA
ENDBRANCH 101 102
ENDBRANCH 100 101
ENDBRANCH  99 100
ENDBRANCH  97  99
ENDBRANCH  84  86
ENDBRANCH  83  84
ENDBRANCH  82  83
ENDBRANCH  81  82
ENDBRANCH  80  81
ENDBRANCH  79  80
ENDBRANCH   1  79
TORSDOF 27
ENDMDL
MODEL 3
REMARK VINA RESULT:      -9.3      6.039     12.720
REMARK SMILES O=C(OCCOCCOCCOCCOC(=O)c1ccc2c(=O)n(CCC[NH+]3CCOCC3)c(=O)[nH]c2c1)c1ccc(-c2c3nc(c(-c4c(F)cc(S(=O)(=O)[O-])cc4F)c4ccc([nH]4)c(-c4c(F)cc(S(=O)(=O)[O-])cc4F)c4nc(c(-c5c(F)cc(S(=O)(=O)[O-])cc5F)c5ccc2[nH]5)C=C4)C=C3)cc1
REMARK SMILES IDX 10 1 9 2 8 3 7 4 6 5 5 6 4 7 3 8 2 9 1 10 39 11 40 12 104 13
REMARK SMILES IDX 41 14 103 15 42 16 43 17 44 18 97 19 45 20 102 21 96 22
REMARK SMILES IDX 98 23 46 24 101 25 95 26 94 27 47 29 81 30 60 31 80 32 61 33
REMARK SMILES IDX 64 34 79 35 99 36 62 37 63 38 78 40 100 41 65 42 48 43 49 44
REMARK SMILES IDX 58 45 50 46 51 47 57 48 59 49 52 50 53 51 54 52 55 53 56 54
REMARK SMILES IDX 82 55 83 56 92 57 84 58 85 59 91 60 93 61 86 62 87 63 88 64
REMARK SMILES IDX 89 65 90 66 66 67 67 68 76 69 68 70 69 71 75 72 77 73 70 74
REMARK SMILES IDX 71 75 72 76 73 77 74 78 11 79 12 80 13 81 14 82 15 83 16 84
REMARK SMILES IDX 17 85 18 86 19 87 38 88 20 89 37 90 21 91 36 92 22 93 34 94
REMARK SMILES IDX 23 96 24 97 35 98 25 99 26 100 27 101 28 102 29 103 33 104
REMARK SMILES IDX 30 106 32 107 31 108
REMARK H PARENT 98 28 64 39 36 95 28 105
REMARK Flexibility Score: inf
ROOT
ATOM      1  C   UNL A   1      36.807  22.132  24.734  1.00  0.00     0.188 C 
ENDROOT
BRANCH   1   2
ATOM      2  O   UNL A   1      38.142  22.552  24.977  1.00  0.00    -0.377 OA
BRANCH   2   3
ATOM      3  C   UNL A   1      38.744  22.113  26.191  1.00  0.00     0.188 C 
BRANCH   3   4
ATOM      4  C   UNL A   1      39.621  20.862  26.096  1.00  0.00     0.188 C 
BRANCH   4   5
ATOM      5  O   UNL A   1      41.020  21.140  26.180  1.00  0.00    -0.376 OA
BRANCH   5   6
ATOM      6  C   UNL A   1      41.819  20.188  26.875  1.00  0.00     0.202 C 
BRANCH   6   7
ATOM      7  C   UNL A   1      42.228  18.944  26.094  1.00  0.00     0.261 C 
BRANCH   7   8
ATOM      8  O   UNL A   1      43.555  18.966  25.556  1.00  0.00    -0.460 OA
BRANCH   8   9
ATOM      9  C   UNL A   1      44.172  19.868  24.760  1.00  0.00     0.338 C 
ATOM     10  O   UNL A   1      44.497  19.481  23.635  1.00  0.00    -0.246 OA
BRANCH   9  11
ATOM     11  C   UNL A   1      44.577  21.261  25.156  1.00  0.00     0.060 A 
ATOM     12  C   UNL A   1      44.607  22.214  24.118  1.00  0.00     0.016 A 
ATOM     13  C   UNL A   1      44.978  21.683  26.425  1.00  0.00     0.016 A 
ATOM     14  C   UNL A   1      45.047  23.523  24.336  1.00  0.00     0.010 A 
ATOM     15  C   UNL A   1      45.477  22.967  26.640  1.00  0.00     0.010 A 
ATOM     16  C   UNL A   1      45.493  23.898  25.603  1.00  0.00    -0.014 A 
BRANCH  16  17
ATOM     17  C   UNL A   1      45.746  25.306  25.954  1.00  0.00     0.031 A 
ATOM     18  C   UNL A   1      47.125  25.878  25.979  1.00  0.00     0.074 A 
ATOM     19  C   UNL A   1      44.682  25.998  26.401  1.00  0.00     0.049 A 
ATOM     20  N   UNL A   1      47.501  27.089  26.292  1.00  0.00    -0.248 NA
ATOM     21  C   UNL A   1      48.226  24.970  25.631  1.00  0.00     0.031 C 
ATOM     22  C   UNL A   1      43.319  25.463  26.486  1.00  0.00     0.029 A 
ATOM     23  N   UNL A   1      44.578  27.266  26.897  1.00  0.00    -0.354 N 
ATOM     24  C   UNL A   1      48.882  27.108  26.141  1.00  0.00     0.074 A 
ATOM     25  C   UNL A   1      49.281  25.762  25.780  1.00  0.00     0.031 C 
ATOM     26  C   UNL A   1      42.514  26.397  27.005  1.00  0.00     0.029 A 
ATOM     27  C   UNL A   1      43.302  27.589  27.287  1.00  0.00     0.049 A 
ATOM     28  H   UNL A   1      45.339  27.885  26.967  1.00  0.00     0.167 HD
ATOM     29  C   UNL A   1      49.722  28.165  26.273  1.00  0.00     0.037 A 
ATOM     30  C   UNL A   1      42.821  28.734  27.798  1.00  0.00     0.037 A 
ATOM     31  C   UNL A   1      49.283  29.472  26.708  1.00  0.00     0.049 A 
ATOM     32  C   UNL A   1      43.768  29.882  27.960  1.00  0.00     0.074 A 
ATOM     33  C   UNL A   1      50.022  30.632  26.860  1.00  0.00     0.029 A 
ATOM     34  N   UNL A   1      47.979  29.782  27.085  1.00  0.00    -0.354 N 
ATOM     35  N   UNL A   1      45.059  29.924  27.719  1.00  0.00    -0.248 NA
ATOM     36  C   UNL A   1      43.195  31.142  28.437  1.00  0.00     0.031 C 
ATOM     37  C   UNL A   1      49.178  31.625  27.375  1.00  0.00     0.029 A 
ATOM     38  C   UNL A   1      47.897  31.105  27.492  1.00  0.00     0.049 A 
ATOM     39  H   UNL A   1      47.223  29.153  27.066  1.00  0.00     0.167 HD
ATOM     40  C   UNL A   1      45.456  31.222  28.000  1.00  0.00     0.074 A 
ATOM     41  C   UNL A   1      44.257  31.938  28.405  1.00  0.00     0.031 C 
ATOM     42  C   UNL A   1      46.694  31.776  27.931  1.00  0.00     0.037 A 
BRANCH  29  43
ATOM     43  C   UNL A   1      51.175  27.946  25.930  1.00  0.00     0.058 A 
ATOM     44  C   UNL A   1      51.623  27.993  24.597  1.00  0.00     0.135 A 
ATOM     45  C   UNL A   1      52.137  27.698  26.924  1.00  0.00     0.135 A 
ATOM     46  F   UNL A   1      50.754  28.224  23.600  1.00  0.00    -0.206 F 
ATOM     47  C   UNL A   1      52.952  27.755  24.260  1.00  0.00     0.059 A 
ATOM     48  C   UNL A   1      53.481  27.488  26.611  1.00  0.00     0.059 A 
ATOM     49  F   UNL A   1      51.778  27.647  28.215  1.00  0.00    -0.206 F 
ATOM     50  C   UNL A   1      53.874  27.497  25.273  1.00  0.00     0.060 A 
BRANCH  50  51
ATOM     51  S   UNL A   1      55.584  27.155  24.806  1.00  0.00     0.124 S 
ATOM     52  O   UNL A   1      55.710  27.926  23.573  1.00  0.00    -0.237 OA
ATOM     53  O   UNL A   1      56.328  27.669  25.952  1.00  0.00    -0.237 OA
ATOM     54  O   UNL A   1      55.611  25.705  24.643  1.00  0.00    -0.744 OA
ENDBRANCH  50  51
ENDBRANCH  29  43
BRANCH  30  55
ATOM     55  C   UNL A   1      41.364  28.847  28.047  1.00  0.00     0.058 A 
ATOM     56  C   UNL A   1      40.885  28.931  29.362  1.00  0.00     0.135 A 
ATOM     57  C   UNL A   1      40.445  29.024  27.000  1.00  0.00     0.135 A 
ATOM     58  F   UNL A   1      41.730  28.779  30.392  1.00  0.00    -0.206 F 
ATOM     59  C   UNL A   1      39.549  29.199  29.632  1.00  0.00     0.059 A 
ATOM     60  C   UNL A   1      39.107  29.314  27.246  1.00  0.00     0.059 A 
ATOM     61  F   UNL A   1      40.864  28.988  25.724  1.00  0.00    -0.206 F 
ATOM     62  C   UNL A   1      38.670  29.406  28.568  1.00  0.00     0.060 A 
BRANCH  62  63
ATOM     63  S   UNL A   1      36.964  29.862  28.944  1.00  0.00     0.124 S 
ATOM     64  O   UNL A   1      36.672  29.000  30.083  1.00  0.00    -0.237 OA
ATOM     65  O   UNL A   1      37.090  31.286  29.236  1.00  0.00    -0.237 OA
ATOM     66  O   UNL A   1      36.249  29.542  27.712  1.00  0.00    -0.744 OA
ENDBRANCH  62  63
ENDBRANCH  30  55
BRANCH  42  67
ATOM     67  C   UNL A   1      46.796  33.224  28.327  1.00  0.00     0.058 A 
ATOM     68  C   UNL A   1      46.814  34.245  27.364  1.00  0.00     0.135 A 
ATOM     69  C   UNL A   1      46.883  33.593  29.678  1.00  0.00     0.135 A 
ATOM     70  F   UNL A   1      46.742  33.946  26.058  1.00  0.00    -0.206 F 
ATOM     71  C   UNL A   1      46.967  35.579  27.725  1.00  0.00     0.059 A 
ATOM     72  C   UNL A   1      47.000  34.924  30.064  1.00  0.00     0.059 A 
ATOM     73  F   UNL A   1      46.858  32.656  30.640  1.00  0.00    -0.206 F 
ATOM     74  C   UNL A   1      47.064  35.907  29.078  1.00  0.00     0.060 A 
BRANCH  74  75
ATOM     75  S   UNL A   1      47.279  37.641  29.526  1.00  0.00     0.124 S 
ATOM     76  O   UNL A   1      48.670  37.660  29.965  1.00  0.00    -0.237 OA
ATOM     77  O   UNL A   1      47.001  38.324  28.268  1.00  0.00    -0.237 OA
ATOM     78  O   UNL A   1      46.286  37.846  30.578  1.00  0.00    -0.744 OA
ENDBRANCH  74  75
ENDBRANCH  42  67
ENDBRANCH  16  17
ENDBRANCH   9  11
ENDBRANCH   8   9
ENDBRANCH   7   8
ENDBRANCH   6   7
ENDBRANCH   5   6
ENDBRANCH   4   5
ENDBRANCH   3   4
ENDBRANCH   2   3
ENDBRANCH   1   2
BRANCH   1  79
ATOM     79  C   UNL A   1      35.665  23.179  24.750  1.00  0.00     0.188 C 
BRANCH  79  80
ATOM     80  O   UNL A   1      34.879  23.152  25.922  1.00  0.00    -0.376 OA
BRANCH  80  81
ATOM     81  C   UNL A   1      34.650  21.874  26.504  1.00  0.00     0.202 C 
BRANCH  81  82
ATOM     82  C   UNL A   1      33.468  21.695  27.478  1.00  0.00     0.261 C 
BRANCH  82  83
ATOM     83  O   UNL A   1      32.705  22.872  27.811  1.00  0.00    -0.460 OA
BRANCH  83  84
ATOM     84  C   UNL A   1      31.497  23.029  27.235  1.00  0.00     0.338 C 
ATOM     85  O   UNL A   1      30.424  22.582  27.615  1.00  0.00    -0.246 OA
BRANCH  84  86
ATOM     86  C   UNL A   1      31.623  24.027  26.154  1.00  0.00     0.062 A 
ATOM     87  C   UNL A   1      31.653  23.606  24.820  1.00  0.00     0.016 A 
ATOM     88  C   UNL A   1      31.740  25.396  26.487  1.00  0.00     0.042 A 
ATOM     89  C   UNL A   1      31.617  24.567  23.817  1.00  0.00     0.017 A 
ATOM     90  C   UNL A   1      31.858  26.333  25.475  1.00  0.00     0.056 A 
ATOM     91  C   UNL A   1      31.662  25.917  24.175  1.00  0.00     0.064 A 
ATOM     92  N   UNL A   1      32.191  27.672  25.706  1.00  0.00    -0.307 N 
ATOM     93  C   UNL A   1      31.305  26.971  23.239  1.00  0.00     0.264 A 
ATOM     94  C   UNL A   1      32.340  28.596  24.691  1.00  0.00     0.328 A 
ATOM     95  H   UNL A   1      32.324  27.968  26.634  1.00  0.00     0.171 HD
ATOM     96  O   UNL A   1      30.408  26.716  22.446  1.00  0.00    -0.268 OA
ATOM     97  N   UNL A   1      31.919  28.196  23.430  1.00  0.00    -0.260 N 
ATOM     98  O   UNL A   1      32.789  29.711  24.953  1.00  0.00    -0.248 OA
BRANCH  97  99
ATOM     99  C   UNL A   1      31.840  29.174  22.346  1.00  0.00     0.137 C 
BRANCH  99 100
ATOM    100  C   UNL A   1      30.405  29.640  22.031  1.00  0.00     0.083 C 
BRANCH 100 101
ATOM    101  C   UNL A   1      29.552  30.057  23.244  1.00  0.00     0.264 C 
BRANCH 101 102
ATOM    102  N   UNL A   1      28.178  30.413  22.890  1.00  0.00    -0.331 N 
ATOM    103  C   UNL A   1      27.971  30.514  21.431  1.00  0.00     0.291 C 
ATOM    104  C   UNL A   1      27.651  31.623  23.531  1.00  0.00     0.291 C 
ATOM    105  H   UNL A   1      27.646  29.628  23.265  1.00  0.00     0.348 HD
ATOM    106  C   UNL A   1      28.502  31.824  20.833  1.00  0.00     0.221 C 
ATOM    107  C   UNL A   1      28.213  32.909  22.914  1.00  0.00     0.221 C 
ATOM    108  O   UNL A   1      27.961  32.971  21.503  1.00  0.00    -0.370 OA
ENDBRANCH 101 102
ENDBRANCH 100 101
ENDBRANCH  99 100
ENDBRANCH  97  99
ENDBRANCH  84  86
ENDBRANCH  83  84
ENDBRANCH  82  83
ENDBRANCH  81  82
ENDBRANCH  80  81
ENDBRANCH  79  80
ENDBRANCH   1  79
TORSDOF 27
ENDMDL
