MODEL 1
REMARK VINA RESULT:     -10.4      0.000      0.000
REMARK SMILES C[C@H](NC(=O)[C@]1(C)Sc2ccccc2NC1=O)C(=O)OCCOCCOCCOCCOC(=O)c1ccc(-c2c3nc(c(-c4c(F)cc(S(=O)(=O)[O-])cc4F)c4ccc([nH]4)c(-c4c(F)cc(S(=O)(=O)[O-])cc4F)c4nc(c(-c5c(F)cc(S(=O)(=O)[O-])cc5F)c5ccc2[nH]5)C=C4)C=C3)cc1
REMARK SMILES IDX 27 1 26 2 25 3 24 4 23 5 22 6 21 7 20 8 18 9 19 10 2 11 1 12
REMARK SMILES IDX 3 13 4 14 5 16 6 17 8 18 16 19 7 20 9 21 15 22 17 23 10 24
REMARK SMILES IDX 14 25 11 27 13 28 12 29 28 30 29 31 30 32 31 33 32 34 33 35
REMARK SMILES IDX 34 36 35 37 36 38 100 39 37 40 99 41 38 42 39 43 40 44 93 45
REMARK SMILES IDX 41 46 98 47 92 48 94 49 42 50 97 51 91 52 90 53 43 55 77 56
REMARK SMILES IDX 56 57 76 58 57 59 60 60 75 61 95 62 58 63 59 64 74 66 96 67
REMARK SMILES IDX 61 68 44 69 45 70 54 71 46 72 47 73 53 74 55 75 48 76 49 77
REMARK SMILES IDX 50 78 51 79 52 80 78 81 79 82 88 83 80 84 81 85 87 86 89 87
REMARK SMILES IDX 82 88 83 89 84 90 85 91 86 92 62 93 63 94 72 95 64 96 65 97
REMARK SMILES IDX 71 98 73 99 66 100 67 101 68 102 69 103 70 104
REMARK H PARENT 3 15 15 26 94 54 60 65
REMARK Flexibility Score: inf
ROOT
ATOM      1  C   UNL A   1      40.064  21.217  26.386  1.00  0.00     0.188 C 
ENDROOT
BRANCH   1   2
ATOM      2  O   UNL A   1      38.917  21.060  25.552  1.00  0.00    -0.377 OA
BRANCH   2   3
ATOM      3  C   UNL A   1      37.911  22.058  25.545  1.00  0.00     0.188 C 
BRANCH   3   4
ATOM      4  C   UNL A   1      37.055  22.180  24.276  1.00  0.00     0.188 C 
BRANCH   4   5
ATOM      5  O   UNL A   1      35.701  21.787  24.461  1.00  0.00    -0.376 OA
BRANCH   5   6
ATOM      6  C   UNL A   1      35.485  20.484  24.987  1.00  0.00     0.202 C 
BRANCH   6   7
ATOM      7  C   UNL A   1      34.036  19.975  24.956  1.00  0.00     0.261 C 
BRANCH   7   8
ATOM      8  O   UNL A   1      33.191  20.542  25.970  1.00  0.00    -0.462 OA
BRANCH   8   9
ATOM      9  C   UNL A   1      32.459  21.610  25.574  1.00  0.00     0.328 C 
ATOM     10  O   UNL A   1      31.736  21.623  24.582  1.00  0.00    -0.250 OA
BRANCH   9  11
ATOM     11  C   UNL A   1      32.723  22.854  26.430  1.00  0.00     0.189 C 
ATOM     12  C   UNL A   1      33.247  22.357  27.772  1.00  0.00     0.043 C 
BRANCH  11  13
ATOM     13  N   UNL A   1      31.597  23.762  26.660  1.00  0.00    -0.341 N 
ATOM     14  C   UNL A   1      31.320  25.020  26.208  1.00  0.00     0.246 C 
ATOM     15  H   UNL A   1      30.906  23.393  27.256  1.00  0.00     0.164 HD
ATOM     16  O   UNL A   1      30.277  25.516  26.664  1.00  0.00    -0.273 OA
BRANCH  14  17
ATOM     17  C   UNL A   1      32.134  25.812  25.136  1.00  0.00     0.175 C 
ATOM     18  S   UNL A   1      33.572  26.588  26.012  1.00  0.00    -0.097 SA
ATOM     19  C   UNL A   1      31.161  26.789  24.476  1.00  0.00     0.250 C 
ATOM     20  C   UNL A   1      32.832  25.059  23.998  1.00  0.00     0.045 C 
ATOM     21  C   UNL A   1      33.050  28.260  26.264  1.00  0.00     0.032 A 
ATOM     22  N   UNL A   1      31.087  28.102  24.815  1.00  0.00    -0.323 N 
ATOM     23  O   UNL A   1      30.342  26.390  23.635  1.00  0.00    -0.273 OA
ATOM     24  C   UNL A   1      33.871  29.075  27.060  1.00  0.00     0.017 A 
ATOM     25  C   UNL A   1      31.916  28.816  25.678  1.00  0.00     0.054 A 
ATOM     26  H   UNL A   1      30.355  28.613  24.399  1.00  0.00     0.170 HD
ATOM     27  C   UNL A   1      33.553  30.416  27.284  1.00  0.00     0.001 A 
ATOM     28  C   UNL A   1      31.594  30.162  25.909  1.00  0.00     0.027 A 
ATOM     29  C   UNL A   1      32.408  30.958  26.713  1.00  0.00     0.002 A 
ENDBRANCH  14  17
ENDBRANCH  11  13
ENDBRANCH   9  11
ENDBRANCH   8   9
ENDBRANCH   7   8
ENDBRANCH   6   7
ENDBRANCH   5   6
ENDBRANCH   4   5
ENDBRANCH   3   4
ENDBRANCH   2   3
ENDBRANCH   1   2
BRANCH   1  30
ATOM     30  C   UNL A   1      41.222  20.193  26.444  1.00  0.00     0.188 C 
BRANCH  30  31
ATOM     31  O   UNL A   1      42.517  20.737  26.650  1.00  0.00    -0.376 OA
BRANCH  31  32
ATOM     32  C   UNL A   1      42.911  21.768  25.755  1.00  0.00     0.202 C 
BRANCH  32  33
ATOM     33  C   UNL A   1      43.230  23.106  26.430  1.00  0.00     0.261 C 
BRANCH  33  34
ATOM     34  O   UNL A   1      42.120  24.006  26.569  1.00  0.00    -0.460 OA
BRANCH  34  35
ATOM     35  C   UNL A   1      42.263  25.272  26.104  1.00  0.00     0.338 C 
ATOM     36  O   UNL A   1      42.482  25.619  24.967  1.00  0.00    -0.246 OA
BRANCH  35  37
ATOM     37  C   UNL A   1      41.903  26.174  27.222  1.00  0.00     0.060 A 
ATOM     38  C   UNL A   1      40.851  25.838  28.078  1.00  0.00     0.016 A 
ATOM     39  C   UNL A   1      42.584  27.388  27.372  1.00  0.00     0.016 A 
ATOM     40  C   UNL A   1      40.494  26.711  29.104  1.00  0.00     0.010 A 
ATOM     41  C   UNL A   1      42.216  28.267  28.395  1.00  0.00     0.010 A 
ATOM     42  C   UNL A   1      41.182  27.925  29.280  1.00  0.00    -0.014 A 
BRANCH  42  43
ATOM     43  C   UNL A   1      40.939  28.724  30.504  1.00  0.00     0.031 A 
ATOM     44  C   UNL A   1      41.782  28.583  31.735  1.00  0.00     0.074 A 
ATOM     45  C   UNL A   1      39.932  29.617  30.469  1.00  0.00     0.049 A 
ATOM     46  N   UNL A   1      41.743  29.290  32.836  1.00  0.00    -0.248 NA
ATOM     47  C   UNL A   1      42.791  27.516  31.736  1.00  0.00     0.031 C 
ATOM     48  C   UNL A   1      39.040  29.825  29.325  1.00  0.00     0.029 A 
ATOM     49  N   UNL A   1      39.498  30.523  31.400  1.00  0.00    -0.354 N 
ATOM     50  C   UNL A   1      42.741  28.779  33.655  1.00  0.00     0.074 A 
ATOM     51  C   UNL A   1      43.334  27.665  32.941  1.00  0.00     0.031 C 
ATOM     52  C   UNL A   1      38.186  30.817  29.612  1.00  0.00     0.029 A 
ATOM     53  C   UNL A   1      38.453  31.300  30.964  1.00  0.00     0.049 A 
ATOM     54  H   UNL A   1      39.897  30.609  32.296  1.00  0.00     0.167 HD
ATOM     55  C   UNL A   1      43.135  29.216  34.877  1.00  0.00     0.037 A 
ATOM     56  C   UNL A   1      37.789  32.297  31.575  1.00  0.00     0.037 A 
ATOM     57  C   UNL A   1      42.518  30.312  35.588  1.00  0.00     0.049 A 
ATOM     58  C   UNL A   1      38.209  32.723  32.954  1.00  0.00     0.074 A 
ATOM     59  C   UNL A   1      42.863  30.840  36.821  1.00  0.00     0.029 A 
ATOM     60  N   UNL A   1      41.425  31.040  35.139  1.00  0.00    -0.354 N 
ATOM     61  N   UNL A   1      39.193  32.268  33.690  1.00  0.00    -0.248 NA
ATOM     62  C   UNL A   1      37.432  33.800  33.580  1.00  0.00     0.031 C 
ATOM     63  C   UNL A   1      41.951  31.852  37.139  1.00  0.00     0.029 A 
ATOM     64  C   UNL A   1      41.066  31.992  36.082  1.00  0.00     0.049 A 
ATOM     65  H   UNL A   1      40.971  30.902  34.277  1.00  0.00     0.167 HD
ATOM     66  C   UNL A   1      39.167  33.016  34.861  1.00  0.00     0.074 A 
ATOM     67  C   UNL A   1      38.078  33.964  34.726  1.00  0.00     0.031 C 
ATOM     68  C   UNL A   1      39.973  32.925  35.947  1.00  0.00     0.037 A 
BRANCH  55  69
ATOM     69  C   UNL A   1      44.298  28.520  35.531  1.00  0.00     0.058 A 
ATOM     70  C   UNL A   1      44.106  27.417  36.378  1.00  0.00     0.135 A 
ATOM     71  C   UNL A   1      45.621  28.903  35.249  1.00  0.00     0.135 A 
ATOM     72  F   UNL A   1      42.864  27.010  36.686  1.00  0.00    -0.206 F 
ATOM     73  C   UNL A   1      45.179  26.732  36.939  1.00  0.00     0.059 A 
ATOM     74  C   UNL A   1      46.710  28.217  35.780  1.00  0.00     0.059 A 
ATOM     75  F   UNL A   1      45.865  29.945  34.441  1.00  0.00    -0.206 F 
ATOM     76  C   UNL A   1      46.479  27.139  36.634  1.00  0.00     0.060 A 
BRANCH  76  77
ATOM     77  S   UNL A   1      47.856  26.237  37.373  1.00  0.00     0.124 S 
ATOM     78  O   UNL A   1      48.694  25.975  36.207  1.00  0.00    -0.237 OA
ATOM     79  O   UNL A   1      48.386  27.205  38.328  1.00  0.00    -0.237 OA
ATOM     80  O   UNL A   1      47.220  25.063  37.962  1.00  0.00    -0.744 OA
ENDBRANCH  76  77
ENDBRANCH  55  69
BRANCH  56  81
ATOM     81  C   UNL A   1      36.687  32.986  30.858  1.00  0.00     0.058 A 
ATOM     82  C   UNL A   1      35.348  32.728  31.184  1.00  0.00     0.135 A 
ATOM     83  C   UNL A   1      36.950  33.946  29.869  1.00  0.00     0.135 A 
ATOM     84  F   UNL A   1      35.050  31.816  32.122  1.00  0.00    -0.206 F 
ATOM     85  C   UNL A   1      34.306  33.396  30.551  1.00  0.00     0.059 A 
ATOM     86  C   UNL A   1      35.926  34.646  29.240  1.00  0.00     0.059 A 
ATOM     87  F   UNL A   1      38.217  34.240  29.537  1.00  0.00    -0.206 F 
ATOM     88  C   UNL A   1      34.605  34.359  29.585  1.00  0.00     0.060 A 
BRANCH  88  89
ATOM     89  S   UNL A   1      33.244  35.260  28.817  1.00  0.00     0.124 S 
ATOM     90  O   UNL A   1      33.957  36.294  28.075  1.00  0.00    -0.237 OA
ATOM     91  O   UNL A   1      32.606  34.222  28.013  1.00  0.00    -0.237 OA
ATOM     92  O   UNL A   1      32.463  35.728  29.958  1.00  0.00    -0.744 OA
ENDBRANCH  88  89
ENDBRANCH  56  81
BRANCH  68  93
ATOM     93  C   UNL A   1      39.715  33.879  37.083  1.00  0.00     0.058 A 
ATOM     94  C   UNL A   1      38.958  33.499  38.202  1.00  0.00     0.135 A 
ATOM     95  C   UNL A   1      40.270  35.168  37.075  1.00  0.00     0.135 A 
ATOM     96  F   UNL A   1      38.395  32.281  38.255  1.00  0.00    -0.206 F 
ATOM     97  C   UNL A   1      38.745  34.369  39.267  1.00  0.00     0.059 A 
ATOM     98  C   UNL A   1      40.094  36.047  38.142  1.00  0.00     0.059 A 
ATOM     99  F   UNL A   1      41.008  35.582  36.033  1.00  0.00    -0.206 F 
ATOM    100  C   UNL A   1      39.322  35.641  39.229  1.00  0.00     0.060 A 
BRANCH 100 101
ATOM    101  S   UNL A   1      39.069  36.743  40.636  1.00  0.00     0.124 S 
ATOM    102  O   UNL A   1      38.641  37.972  39.975  1.00  0.00    -0.237 OA
ATOM    103  O   UNL A   1      38.041  36.043  41.399  1.00  0.00    -0.237 OA
ATOM    104  O   UNL A   1      40.384  36.796  41.269  1.00  0.00    -0.744 OA
ENDBRANCH 100 101
ENDBRANCH  68  93
ENDBRANCH  42  43
ENDBRANCH  35  37
ENDBRANCH  34  35
ENDBRANCH  33  34
ENDBRANCH  32  33
ENDBRANCH  31  32
ENDBRANCH  30  31
ENDBRANCH   1  30
TORSDOF 25
ENDMDL
MODEL 2
REMARK VINA RESULT:      -9.4      1.461      2.326
REMARK SMILES C[C@H](NC(=O)[C@]1(C)Sc2ccccc2NC1=O)C(=O)OCCOCCOCCOCCOC(=O)c1ccc(-c2c3nc(c(-c4c(F)cc(S(=O)(=O)[O-])cc4F)c4ccc([nH]4)c(-c4c(F)cc(S(=O)(=O)[O-])cc4F)c4nc(c(-c5c(F)cc(S(=O)(=O)[O-])cc5F)c5ccc2[nH]5)C=C4)C=C3)cc1
REMARK SMILES IDX 27 1 26 2 25 3 24 4 23 5 22 6 21 7 20 8 18 9 19 10 2 11 1 12
REMARK SMILES IDX 3 13 4 14 5 16 6 17 8 18 16 19 7 20 9 21 15 22 17 23 10 24
REMARK SMILES IDX 14 25 11 27 13 28 12 29 28 30 29 31 30 32 31 33 32 34 33 35
REMARK SMILES IDX 34 36 35 37 36 38 100 39 37 40 99 41 38 42 39 43 40 44 93 45
REMARK SMILES IDX 41 46 98 47 92 48 94 49 42 50 97 51 91 52 90 53 43 55 77 56
REMARK SMILES IDX 56 57 76 58 57 59 60 60 75 61 95 62 58 63 59 64 74 66 96 67
REMARK SMILES IDX 61 68 44 69 45 70 54 71 46 72 47 73 53 74 55 75 48 76 49 77
REMARK SMILES IDX 50 78 51 79 52 80 78 81 79 82 88 83 80 84 81 85 87 86 89 87
REMARK SMILES IDX 82 88 83 89 84 90 85 91 86 92 62 93 63 94 72 95 64 96 65 97
REMARK SMILES IDX 71 98 73 99 66 100 67 101 68 102 69 103 70 104
REMARK H PARENT 3 15 15 26 94 54 60 65
REMARK Flexibility Score: inf
ROOT
ATOM      1  C   UNL A   1      40.209  22.408  26.861  1.00  0.00     0.188 C 
ENDROOT
BRANCH   1   2
ATOM      2  O   UNL A   1      39.176  21.563  26.358  1.00  0.00    -0.377 OA
BRANCH   2   3
ATOM      3  C   UNL A   1      38.163  22.107  25.530  1.00  0.00     0.188 C 
BRANCH   3   4
ATOM      4  C   UNL A   1      37.031  21.164  25.098  1.00  0.00     0.188 C 
BRANCH   4   5
ATOM      5  O   UNL A   1      36.096  21.764  24.210  1.00  0.00    -0.376 OA
BRANCH   5   6
ATOM      6  C   UNL A   1      36.240  23.161  23.986  1.00  0.00     0.202 C 
BRANCH   6   7
ATOM      7  C   UNL A   1      35.072  24.043  24.450  1.00  0.00     0.261 C 
BRANCH   7   8
ATOM      8  O   UNL A   1      33.788  23.629  23.954  1.00  0.00    -0.462 OA
BRANCH   8   9
ATOM      9  C   UNL A   1      33.563  23.911  22.649  1.00  0.00     0.328 C 
ATOM     10  O   UNL A   1      33.954  23.219  21.714  1.00  0.00    -0.250 OA
BRANCH   9  11
ATOM     11  C   UNL A   1      32.866  25.263  22.450  1.00  0.00     0.189 C 
ATOM     12  C   UNL A   1      32.536  25.370  20.967  1.00  0.00     0.043 C 
BRANCH  11  13
ATOM     13  N   UNL A   1      33.596  26.462  22.868  1.00  0.00    -0.341 N 
ATOM     14  C   UNL A   1      33.327  27.430  23.792  1.00  0.00     0.246 C 
ATOM     15  H   UNL A   1      34.446  26.595  22.389  1.00  0.00     0.164 HD
ATOM     16  O   UNL A   1      34.162  28.348  23.839  1.00  0.00    -0.273 OA
BRANCH  14  17
ATOM     17  C   UNL A   1      32.145  27.424  24.813  1.00  0.00     0.175 C 
ATOM     18  S   UNL A   1      30.599  27.781  23.854  1.00  0.00    -0.097 SA
ATOM     19  C   UNL A   1      32.495  28.441  25.899  1.00  0.00     0.250 C 
ATOM     20  C   UNL A   1      31.770  26.126  25.538  1.00  0.00     0.045 C 
ATOM     21  C   UNL A   1      30.315  29.502  24.152  1.00  0.00     0.032 A 
ATOM     22  N   UNL A   1      31.989  29.701  25.924  1.00  0.00    -0.323 N 
ATOM     23  O   UNL A   1      33.326  28.164  26.778  1.00  0.00    -0.273 OA
ATOM     24  C   UNL A   1      29.288  30.119  23.420  1.00  0.00     0.017 A 
ATOM     25  C   UNL A   1      31.007  30.250  25.101  1.00  0.00     0.054 A 
ATOM     26  H   UNL A   1      32.362  30.302  26.610  1.00  0.00     0.170 HD
ATOM     27  C   UNL A   1      28.973  31.465  23.615  1.00  0.00     0.001 A 
ATOM     28  C   UNL A   1      30.695  31.605  25.292  1.00  0.00     0.027 A 
ATOM     29  C   UNL A   1      29.684  32.211  24.548  1.00  0.00     0.002 A 
ENDBRANCH  14  17
ENDBRANCH  11  13
ENDBRANCH   9  11
ENDBRANCH   8   9
ENDBRANCH   7   8
ENDBRANCH   6   7
ENDBRANCH   5   6
ENDBRANCH   4   5
ENDBRANCH   3   4
ENDBRANCH   2   3
ENDBRANCH   1   2
BRANCH   1  30
ATOM     30  C   UNL A   1      41.712  22.047  26.801  1.00  0.00     0.188 C 
BRANCH  30  31
ATOM     31  O   UNL A   1      42.487  22.440  27.923  1.00  0.00    -0.376 OA
BRANCH  31  32
ATOM     32  C   UNL A   1      43.827  22.825  27.653  1.00  0.00     0.202 C 
BRANCH  32  33
ATOM     33  C   UNL A   1      44.015  23.583  26.334  1.00  0.00     0.261 C 
BRANCH  33  34
ATOM     34  O   UNL A   1      43.955  25.015  26.434  1.00  0.00    -0.460 OA
BRANCH  34  35
ATOM     35  C   UNL A   1      42.803  25.631  26.069  1.00  0.00     0.338 C 
ATOM     36  O   UNL A   1      42.146  25.433  25.074  1.00  0.00    -0.246 OA
BRANCH  35  37
ATOM     37  C   UNL A   1      42.387  26.461  27.221  1.00  0.00     0.060 A 
ATOM     38  C   UNL A   1      41.372  26.015  28.072  1.00  0.00     0.016 A 
ATOM     39  C   UNL A   1      42.976  27.718  27.412  1.00  0.00     0.016 A 
ATOM     40  C   UNL A   1      40.960  26.822  29.132  1.00  0.00     0.010 A 
ATOM     41  C   UNL A   1      42.552  28.529  28.468  1.00  0.00     0.010 A 
ATOM     42  C   UNL A   1      41.556  28.077  29.347  1.00  0.00    -0.014 A 
BRANCH  42  43
ATOM     43  C   UNL A   1      41.265  28.810  30.602  1.00  0.00     0.031 A 
ATOM     44  C   UNL A   1      42.089  28.639  31.842  1.00  0.00     0.074 A 
ATOM     45  C   UNL A   1      40.231  29.673  30.588  1.00  0.00     0.049 A 
ATOM     46  N   UNL A   1      42.008  29.292  32.973  1.00  0.00    -0.248 NA
ATOM     47  C   UNL A   1      43.132  27.605  31.814  1.00  0.00     0.031 C 
ATOM     48  C   UNL A   1      39.354  29.906  29.438  1.00  0.00     0.029 A 
ATOM     49  N   UNL A   1      39.752  30.520  31.552  1.00  0.00    -0.354 N 
ATOM     50  C   UNL A   1      43.007  28.774  33.787  1.00  0.00     0.074 A 
ATOM     51  C   UNL A   1      43.647  27.714  33.034  1.00  0.00     0.031 C 
ATOM     52  C   UNL A   1      38.464  30.857  29.753  1.00  0.00     0.029 A 
ATOM     53  C   UNL A   1      38.691  31.284  31.130  1.00  0.00     0.049 A 
ATOM     54  H   UNL A   1      40.132  30.577  32.458  1.00  0.00     0.167 HD
ATOM     55  C   UNL A   1      43.364  29.166  35.036  1.00  0.00     0.037 A 
ATOM     56  C   UNL A   1      37.984  32.231  31.774  1.00  0.00     0.037 A 
ATOM     57  C   UNL A   1      42.700  30.208  35.784  1.00  0.00     0.049 A 
ATOM     58  C   UNL A   1      38.365  32.604  33.178  1.00  0.00     0.074 A 
ATOM     59  C   UNL A   1      43.006  30.689  37.046  1.00  0.00     0.029 A 
ATOM     60  N   UNL A   1      41.592  30.922  35.347  1.00  0.00    -0.354 N 
ATOM     61  N   UNL A   1      39.349  32.146  33.912  1.00  0.00    -0.248 NA
ATOM     62  C   UNL A   1      37.543  33.627  33.838  1.00  0.00     0.031 C 
ATOM     63  C   UNL A   1      42.056  31.656  37.392  1.00  0.00     0.029 A 
ATOM     64  C   UNL A   1      41.186  31.818  36.326  1.00  0.00     0.049 A 
ATOM     65  H   UNL A   1      41.159  30.811  34.471  1.00  0.00     0.167 HD
ATOM     66  C   UNL A   1      39.278  32.838  35.116  1.00  0.00     0.074 A 
ATOM     67  C   UNL A   1      38.163  33.757  35.003  1.00  0.00     0.031 C 
ATOM     68  C   UNL A   1      40.066  32.722  36.212  1.00  0.00     0.037 A 
BRANCH  55  69
ATOM     69  C   UNL A   1      44.537  28.477  35.680  1.00  0.00     0.058 A 
ATOM     70  C   UNL A   1      44.363  27.336  36.480  1.00  0.00     0.135 A 
ATOM     71  C   UNL A   1      45.852  28.906  35.432  1.00  0.00     0.135 A 
ATOM     72  F   UNL A   1      43.128  26.885  36.754  1.00  0.00    -0.206 F 
ATOM     73  C   UNL A   1      45.446  26.660  37.031  1.00  0.00     0.059 A 
ATOM     74  C   UNL A   1      46.953  28.229  35.954  1.00  0.00     0.059 A 
ATOM     75  F   UNL A   1      46.078  29.985  34.669  1.00  0.00    -0.206 F 
ATOM     76  C   UNL A   1      46.739  27.113  36.762  1.00  0.00     0.060 A 
BRANCH  76  77
ATOM     77  S   UNL A   1      48.130  26.220  37.486  1.00  0.00     0.124 S 
ATOM     78  O   UNL A   1      47.504  24.953  37.852  1.00  0.00    -0.237 OA
ATOM     79  O   UNL A   1      49.075  26.163  36.376  1.00  0.00    -0.237 OA
ATOM     80  O   UNL A   1      48.533  27.065  38.607  1.00  0.00    -0.744 OA
ENDBRANCH  76  77
ENDBRANCH  55  69
BRANCH  56  81
ATOM     81  C   UNL A   1      36.874  32.918  31.067  1.00  0.00     0.058 A 
ATOM     82  C   UNL A   1      37.136  33.850  30.053  1.00  0.00     0.135 A 
ATOM     83  C   UNL A   1      35.533  32.622  31.358  1.00  0.00     0.135 A 
ATOM     84  F   UNL A   1      38.403  34.165  29.744  1.00  0.00    -0.206 F 
ATOM     85  C   UNL A   1      36.107  34.470  29.354  1.00  0.00     0.059 A 
ATOM     86  C   UNL A   1      34.487  33.209  30.654  1.00  0.00     0.059 A 
ATOM     87  F   UNL A   1      35.234  31.721  32.307  1.00  0.00    -0.206 F 
ATOM     88  C   UNL A   1      34.786  34.137  29.657  1.00  0.00     0.060 A 
BRANCH  88  89
ATOM     89  S   UNL A   1      33.463  34.905  28.699  1.00  0.00     0.124 S 
ATOM     90  O   UNL A   1      32.433  35.091  29.715  1.00  0.00    -0.237 OA
ATOM     91  O   UNL A   1      34.107  36.121  28.211  1.00  0.00    -0.237 OA
ATOM     92  O   UNL A   1      33.166  33.907  27.675  1.00  0.00    -0.744 OA
ENDBRANCH  88  89
ENDBRANCH  56  81
BRANCH  68  93
ATOM     93  C   UNL A   1      39.757  33.613  37.385  1.00  0.00     0.058 A 
ATOM     94  C   UNL A   1      38.791  33.261  38.340  1.00  0.00     0.135 A 
ATOM     95  C   UNL A   1      40.468  34.807  37.583  1.00  0.00     0.135 A 
ATOM     96  F   UNL A   1      38.075  32.134  38.191  1.00  0.00    -0.206 F 
ATOM     97  C   UNL A   1      38.527  34.069  39.441  1.00  0.00     0.059 A 
ATOM     98  C   UNL A   1      40.241  35.618  38.693  1.00  0.00     0.059 A 
ATOM     99  F   UNL A   1      41.409  35.190  36.705  1.00  0.00    -0.206 F 
ATOM    100  C   UNL A   1      39.261  35.244  39.611  1.00  0.00     0.060 A 
BRANCH 100 101
ATOM    101  S   UNL A   1      38.933  36.261  41.067  1.00  0.00     0.124 S 
ATOM    102  O   UNL A   1      40.223  36.224  41.749  1.00  0.00    -0.237 OA
ATOM    103  O   UNL A   1      38.566  37.543  40.475  1.00  0.00    -0.237 OA
ATOM    104  O   UNL A   1      37.847  35.554  41.739  1.00  0.00    -0.744 OA
ENDBRANCH 100 101
ENDBRANCH  68  93
ENDBRANCH  42  43
ENDBRANCH  35  37
ENDBRANCH  34  35
ENDBRANCH  33  34
ENDBRANCH  32  33
ENDBRANCH  31  32
ENDBRANCH  30  31
ENDBRANCH   1  30
TORSDOF 25
ENDMDL
MODEL 3
REMARK VINA RESULT:      -9.1      1.211      2.494
REMARK SMILES C[C@H](NC(=O)[C@]1(C)Sc2ccccc2NC1=O)C(=O)OCCOCCOCCOCCOC(=O)c1ccc(-c2c3nc(c(-c4c(F)cc(S(=O)(=O)[O-])cc4F)c4ccc([nH]4)c(-c4c(F)cc(S(=O)(=O)[O-])cc4F)c4nc(c(-c5c(F)cc(S(=O)(=O)[O-])cc5F)c5ccc2[nH]5)C=C4)C=C3)cc1
REMARK SMILES IDX 27 1 26 2 25 3 24 4 23 5 22 6 21 7 20 8 18 9 19 10 2 11 1 12
REMARK SMILES IDX 3 13 4 14 5 16 6 17 8 18 16 19 7 20 9 21 15 22 17 23 10 24
REMARK SMILES IDX 14 25 11 27 13 28 12 29 28 30 29 31 30 32 31 33 32 34 33 35
REMARK SMILES IDX 34 36 35 37 36 38 100 39 37 40 99 41 38 42 39 43 40 44 93 45
REMARK SMILES IDX 41 46 98 47 92 48 94 49 42 50 97 51 91 52 90 53 43 55 77 56
REMARK SMILES IDX 56 57 76 58 57 59 60 60 75 61 95 62 58 63 59 64 74 66 96 67
REMARK SMILES IDX 61 68 44 69 45 70 54 71 46 72 47 73 53 74 55 75 48 76 49 77
REMARK SMILES IDX 50 78 51 79 52 80 78 81 79 82 88 83 80 84 81 85 87 86 89 87
REMARK SMILES IDX 82 88 83 89 84 90 85 91 86 92 62 93 63 94 72 95 64 96 65 97
REMARK SMILES IDX 71 98 73 99 66 100 67 101 68 102 69 103 70 104
REMARK H PARENT 3 15 15 26 94 54 60 65
REMARK Flexibility Score: inf
ROOT
ATOM      1  C   UNL A   1      40.142  22.344  26.859  1.00  0.00     0.188 C 
ENDROOT
BRANCH   1   2
ATOM      2  O   UNL A   1      39.075  21.544  26.353  1.00  0.00    -0.377 OA
BRANCH   2   3
ATOM      3  C   UNL A   1      38.130  22.114  25.463  1.00  0.00     0.188 C 
BRANCH   3   4
ATOM      4  C   UNL A   1      37.004  21.200  24.959  1.00  0.00     0.188 C 
BRANCH   4   5
ATOM      5  O   UNL A   1      36.135  21.827  24.025  1.00  0.00    -0.376 OA
BRANCH   5   6
ATOM      6  C   UNL A   1      36.322  23.222  23.822  1.00  0.00     0.202 C 
BRANCH   6   7
ATOM      7  C   UNL A   1      35.193  24.134  24.325  1.00  0.00     0.261 C 
BRANCH   7   8
ATOM      8  O   UNL A   1      33.883  23.757  23.869  1.00  0.00    -0.462 OA
BRANCH   8   9
ATOM      9  C   UNL A   1      33.618  24.062  22.577  1.00  0.00     0.328 C 
ATOM     10  O   UNL A   1      33.990  23.393  21.618  1.00  0.00    -0.250 OA
BRANCH   9  11
ATOM     11  C   UNL A   1      32.901  25.410  22.426  1.00  0.00     0.189 C 
ATOM     12  C   UNL A   1      32.475  25.515  20.968  1.00  0.00     0.043 C 
BRANCH  11  13
ATOM     13  N   UNL A   1      33.650  26.613  22.796  1.00  0.00    -0.341 N 
ATOM     14  C   UNL A   1      33.378  27.640  23.654  1.00  0.00     0.246 C 
ATOM     15  H   UNL A   1      34.517  26.697  22.338  1.00  0.00     0.164 HD
ATOM     16  O   UNL A   1      34.235  28.538  23.674  1.00  0.00    -0.273 OA
BRANCH  14  17
ATOM     17  C   UNL A   1      32.166  27.723  24.635  1.00  0.00     0.175 C 
ATOM     18  S   UNL A   1      32.671  26.858  26.195  1.00  0.00    -0.097 SA
ATOM     19  C   UNL A   1      30.966  27.116  23.906  1.00  0.00     0.250 C 
ATOM     20  C   UNL A   1      31.707  29.085  25.168  1.00  0.00     0.045 C 
ATOM     21  C   UNL A   1      31.923  25.262  26.046  1.00  0.00     0.032 A 
ATOM     22  N   UNL A   1      30.540  25.844  24.114  1.00  0.00    -0.323 N 
ATOM     23  O   UNL A   1      30.370  27.761  23.030  1.00  0.00    -0.273 OA
ATOM     24  C   UNL A   1      32.260  24.302  27.014  1.00  0.00     0.017 A 
ATOM     25  C   UNL A   1      30.988  24.931  25.068  1.00  0.00     0.054 A 
ATOM     26  H   UNL A   1      29.825  25.526  23.517  1.00  0.00     0.170 HD
ATOM     27  C   UNL A   1      31.691  23.028  26.992  1.00  0.00     0.001 A 
ATOM     28  C   UNL A   1      30.422  23.648  25.042  1.00  0.00     0.027 A 
ATOM     29  C   UNL A   1      30.776  22.697  26.000  1.00  0.00     0.002 A 
ENDBRANCH  14  17
ENDBRANCH  11  13
ENDBRANCH   9  11
ENDBRANCH   8   9
ENDBRANCH   7   8
ENDBRANCH   6   7
ENDBRANCH   5   6
ENDBRANCH   4   5
ENDBRANCH   3   4
ENDBRANCH   2   3
ENDBRANCH   1   2
BRANCH   1  30
ATOM     30  C   UNL A   1      41.629  21.921  26.797  1.00  0.00     0.188 C 
BRANCH  30  31
ATOM     31  O   UNL A   1      42.427  22.305  27.906  1.00  0.00    -0.376 OA
BRANCH  31  32
ATOM     32  C   UNL A   1      43.763  22.687  27.611  1.00  0.00     0.202 C 
BRANCH  32  33
ATOM     33  C   UNL A   1      43.924  23.479  26.309  1.00  0.00     0.261 C 
BRANCH  33  34
ATOM     34  O   UNL A   1      43.863  24.908  26.446  1.00  0.00    -0.460 OA
BRANCH  34  35
ATOM     35  C   UNL A   1      42.724  25.537  26.065  1.00  0.00     0.338 C 
ATOM     36  O   UNL A   1      42.065  25.330  25.073  1.00  0.00    -0.246 OA
BRANCH  35  37
ATOM     37  C   UNL A   1      42.319  26.398  27.199  1.00  0.00     0.060 A 
ATOM     38  C   UNL A   1      41.297  25.987  28.058  1.00  0.00     0.016 A 
ATOM     39  C   UNL A   1      42.927  27.650  27.363  1.00  0.00     0.016 A 
ATOM     40  C   UNL A   1      40.897  26.822  29.100  1.00  0.00     0.010 A 
ATOM     41  C   UNL A   1      42.515  28.490  28.401  1.00  0.00     0.010 A 
ATOM     42  C   UNL A   1      41.512  28.072  29.288  1.00  0.00    -0.014 A 
BRANCH  42  43
ATOM     43  C   UNL A   1      41.231  28.837  30.526  1.00  0.00     0.031 A 
ATOM     44  C   UNL A   1      42.068  28.699  31.762  1.00  0.00     0.074 A 
ATOM     45  C   UNL A   1      40.196  29.697  30.500  1.00  0.00     0.049 A 
ATOM     46  N   UNL A   1      41.996  29.381  32.878  1.00  0.00    -0.248 NA
ATOM     47  C   UNL A   1      43.111  27.666  31.751  1.00  0.00     0.031 C 
ATOM     48  C   UNL A   1      39.307  29.899  29.353  1.00  0.00     0.029 A 
ATOM     49  N   UNL A   1      39.724  30.568  31.446  1.00  0.00    -0.354 N 
ATOM     50  C   UNL A   1      43.003  28.886  33.695  1.00  0.00     0.074 A 
ATOM     51  C   UNL A   1      43.639  27.808  32.963  1.00  0.00     0.031 C 
ATOM     52  C   UNL A   1      38.418  30.856  29.652  1.00  0.00     0.029 A 
ATOM     53  C   UNL A   1      38.657  31.319  31.016  1.00  0.00     0.049 A 
ATOM     54  H   UNL A   1      40.112  30.649  32.348  1.00  0.00     0.167 HD
ATOM     55  C   UNL A   1      43.371  29.310  34.930  1.00  0.00     0.037 A 
ATOM     56  C   UNL A   1      37.955  32.281  31.641  1.00  0.00     0.037 A 
ATOM     57  C   UNL A   1      42.712  30.370  35.657  1.00  0.00     0.049 A 
ATOM     58  C   UNL A   1      38.347  32.691  33.032  1.00  0.00     0.074 A 
ATOM     59  C   UNL A   1      43.029  30.884  36.903  1.00  0.00     0.029 A 
ATOM     60  N   UNL A   1      41.599  31.071  35.212  1.00  0.00    -0.354 N 
ATOM     61  N   UNL A   1      39.340  32.253  33.768  1.00  0.00    -0.248 NA
ATOM     62  C   UNL A   1      37.530  33.729  33.673  1.00  0.00     0.031 C 
ATOM     63  C   UNL A   1      42.080  31.858  37.234  1.00  0.00     0.029 A 
ATOM     64  C   UNL A   1      41.200  31.991  36.172  1.00  0.00     0.049 A 
ATOM     65  H   UNL A   1      41.157  30.936  34.344  1.00  0.00     0.167 HD
ATOM     66  C   UNL A   1      39.279  32.976  34.954  1.00  0.00     0.074 A 
ATOM     67  C   UNL A   1      38.160  33.890  34.828  1.00  0.00     0.031 C 
ATOM     68  C   UNL A   1      40.078  32.889  36.046  1.00  0.00     0.037 A 
BRANCH  55  69
ATOM     69  C   UNL A   1      44.551  28.640  35.580  1.00  0.00     0.058 A 
ATOM     70  C   UNL A   1      44.384  27.547  36.445  1.00  0.00     0.135 A 
ATOM     71  C   UNL A   1      45.865  29.037  35.276  1.00  0.00     0.135 A 
ATOM     72  F   UNL A   1      43.151  27.129  36.774  1.00  0.00    -0.206 F 
ATOM     73  C   UNL A   1      45.473  26.886  37.004  1.00  0.00     0.059 A 
ATOM     74  C   UNL A   1      46.970  28.373  35.805  1.00  0.00     0.059 A 
ATOM     75  F   UNL A   1      46.086  30.070  34.450  1.00  0.00    -0.206 F 
ATOM     76  C   UNL A   1      46.763  27.305  36.678  1.00  0.00     0.060 A 
BRANCH  76  77
ATOM     77  S   UNL A   1      48.161  26.433  37.414  1.00  0.00     0.124 S 
ATOM     78  O   UNL A   1      48.740  27.472  38.261  1.00  0.00    -0.237 OA
ATOM     79  O   UNL A   1      47.507  25.335  38.117  1.00  0.00    -0.237 OA
ATOM     80  O   UNL A   1      48.968  26.044  36.261  1.00  0.00    -0.744 OA
ENDBRANCH  76  77
ENDBRANCH  55  69
BRANCH  56  81
ATOM     81  C   UNL A   1      36.836  32.947  30.928  1.00  0.00     0.058 A 
ATOM     82  C   UNL A   1      37.077  34.024  30.063  1.00  0.00     0.135 A 
ATOM     83  C   UNL A   1      35.515  32.492  31.060  1.00  0.00     0.135 A 
ATOM     84  F   UNL A   1      38.324  34.494  29.909  1.00  0.00    -0.206 F 
ATOM     85  C   UNL A   1      36.046  34.631  29.356  1.00  0.00     0.059 A 
ATOM     86  C   UNL A   1      34.470  33.066  30.343  1.00  0.00     0.059 A 
ATOM     87  F   UNL A   1      35.239  31.452  31.862  1.00  0.00    -0.206 F 
ATOM     88  C   UNL A   1      34.746  34.140  29.497  1.00  0.00     0.060 A 
BRANCH  88  89
ATOM     89  S   UNL A   1      33.429  34.899  28.526  1.00  0.00     0.124 S 
ATOM     90  O   UNL A   1      34.186  35.768  27.631  1.00  0.00    -0.237 OA
ATOM     91  O   UNL A   1      32.799  33.737  27.906  1.00  0.00    -0.237 OA
ATOM     92  O   UNL A   1      32.619  35.581  29.531  1.00  0.00    -0.744 OA
ENDBRANCH  88  89
ENDBRANCH  56  81
BRANCH  68  93
ATOM     93  C   UNL A   1      39.778  33.810  37.198  1.00  0.00     0.058 A 
ATOM     94  C   UNL A   1      38.881  33.445  38.214  1.00  0.00     0.135 A 
ATOM     95  C   UNL A   1      40.430  35.048  37.314  1.00  0.00     0.135 A 
ATOM     96  F   UNL A   1      38.222  32.277  38.146  1.00  0.00    -0.206 F 
ATOM     97  C   UNL A   1      38.627  34.282  39.296  1.00  0.00     0.059 A 
ATOM     98  C   UNL A   1      40.213  35.890  38.402  1.00  0.00     0.059 A 
ATOM     99  F   UNL A   1      41.303  35.444  36.374  1.00  0.00    -0.206 F 
ATOM    100  C   UNL A   1      39.302  35.502  39.383  1.00  0.00     0.060 A 
BRANCH 100 101
ATOM    101  S   UNL A   1      38.991  36.559  40.815  1.00  0.00     0.124 S 
ATOM    102  O   UNL A   1      40.348  36.881  41.244  1.00  0.00    -0.237 OA
ATOM    103  O   UNL A   1      38.233  37.660  40.229  1.00  0.00    -0.237 OA
ATOM    104  O   UNL A   1      38.234  35.695  41.717  1.00  0.00    -0.744 OA
ENDBRANCH 100 101
ENDBRANCH  68  93
ENDBRANCH  42  43
ENDBRANCH  35  37
ENDBRANCH  34  35
ENDBRANCH  33  34
ENDBRANCH  32  33
ENDBRANCH  31  32
ENDBRANCH  30  31
ENDBRANCH   1  30
TORSDOF 25
ENDMDL
