MODEL 1
REMARK VINA RESULT:      -7.9      0.000      0.000
REMARK SMILES CC[C@@H]1CCCC[N@H+]1Cc1c(C(=O)OCCOCCOCCOCCOC(=O)c2ccc(-c3c4nc(c(-c5c(F)cc(S(=O)(=O)[O-])cc5F)c5ccc([nH]5)c(-c5c(F)cc(S(=O)(=O)[O-])cc5F)c5nc(c(-c6c(F)cc(S(=O)(=O)[O-])cc6F)c6ccc3[nH]6)C=C5)C=C4)cc2)oc2ccccc12
REMARK SMILES IDX 20 1 19 2 18 3 17 4 16 5 15 6 14 7 12 8 13 9 11 10 10 11
REMARK SMILES IDX 101 12 95 13 96 14 100 15 97 16 99 17 98 18 9 19 8 20 3 21
REMARK SMILES IDX 4 22 5 23 7 24 6 26 2 27 1 28 21 29 22 30 23 31 24 32 25 33
REMARK SMILES IDX 26 34 27 35 28 36 29 37 30 38 94 39 31 40 93 41 32 42 33 43
REMARK SMILES IDX 34 44 87 45 35 46 92 47 86 48 88 49 36 50 91 51 85 52 84 53
REMARK SMILES IDX 37 55 71 56 50 57 70 58 51 59 54 60 69 61 89 62 52 63 53 64
REMARK SMILES IDX 68 66 90 67 55 68 38 69 39 70 48 71 40 72 41 73 47 74 49 75
REMARK SMILES IDX 42 76 43 77 44 78 45 79 46 80 72 81 73 82 82 83 74 84 75 85
REMARK SMILES IDX 81 86 83 87 76 88 77 89 78 90 79 91 80 92 56 93 57 94 66 95
REMARK SMILES IDX 58 96 59 97 65 98 67 99 60 100 61 101 62 102 63 103 64 104
REMARK H PARENT 8 25 88 54 54 65
REMARK Flexibility Score: inf
ROOT
ATOM      1  O   UNL A   1      34.217  33.136  32.140  1.00  0.00    -0.377 OA
ENDROOT
BRANCH   1   2
ATOM      2  C   UNL A   1      35.409  32.372  32.104  1.00  0.00     0.188 C 
BRANCH   2   3
ATOM      3  C   UNL A   1      36.439  32.482  33.241  1.00  0.00     0.188 C 
BRANCH   3   4
ATOM      4  O   UNL A   1      37.793  32.276  32.853  1.00  0.00    -0.376 OA
BRANCH   4   5
ATOM      5  C   UNL A   1      38.309  30.970  33.074  1.00  0.00     0.202 C 
BRANCH   5   6
ATOM      6  C   UNL A   1      39.088  30.858  34.388  1.00  0.00     0.261 C 
BRANCH   6   7
ATOM      7  O   UNL A   1      40.347  30.176  34.270  1.00  0.00    -0.457 OA
BRANCH   7   8
ATOM      8  C   UNL A   1      40.875  29.649  35.405  1.00  0.00     0.374 C 
ATOM      9  O   UNL A   1      40.226  29.122  36.300  1.00  0.00    -0.242 OA
BRANCH   8  10
ATOM     10  C   UNL A   1      42.314  29.671  35.307  1.00  0.00     0.221 A 
ATOM     11  C   UNL A   1      43.214  28.785  34.711  1.00  0.00     0.067 A 
ATOM     12  C   UNL A   1      44.509  29.386  34.892  1.00  0.00     0.030 A 
ATOM     13  O   UNL A   1      42.970  30.754  35.812  1.00  0.00    -0.448 OA
ATOM     14  C   UNL A   1      44.288  30.584  35.562  1.00  0.00     0.135 A 
ATOM     15  C   UNL A   1      45.841  29.084  34.542  1.00  0.00     0.012 A 
ATOM     16  C   UNL A   1      45.285  31.494  35.912  1.00  0.00     0.048 A 
ATOM     17  C   UNL A   1      46.871  29.968  34.896  1.00  0.00     0.001 A 
ATOM     18  C   UNL A   1      46.594  31.156  35.568  1.00  0.00     0.004 A 
BRANCH  11  19
ATOM     19  C   UNL A   1      42.834  27.573  33.902  1.00  0.00     0.304 C 
BRANCH  19  20
ATOM     20  N   UNL A   1      43.290  26.262  34.399  1.00  0.00    -0.329 N 
ATOM     21  C   UNL A   1      42.294  25.459  35.127  1.00  0.00     0.184 C 
ATOM     22  C   UNL A   1      42.759  23.994  35.369  1.00  0.00     0.065 C 
ATOM     23  C   UNL A   1      43.381  23.335  34.154  1.00  0.00     0.012 C 
ATOM     24  C   UNL A   1      44.049  25.571  33.341  1.00  0.00     0.262 C 
ATOM     25  H   UNL A   1      43.937  26.435  35.169  1.00  0.00     0.348 HD
ATOM     26  C   UNL A   1      44.551  24.185  33.708  1.00  0.00     0.062 C 
BRANCH  21  27
ATOM     27  C   UNL A   1      41.947  25.977  36.562  1.00  0.00     0.061 C 
ATOM     28  C   UNL A   1      40.755  25.421  37.323  1.00  0.00     0.010 C 
ENDBRANCH  21  27
ENDBRANCH  19  20
ENDBRANCH  11  19
ENDBRANCH   8  10
ENDBRANCH   7   8
ENDBRANCH   6   7
ENDBRANCH   5   6
ENDBRANCH   4   5
ENDBRANCH   3   4
ENDBRANCH   2   3
ENDBRANCH   1   2
BRANCH   1  29
ATOM     29  C   UNL A   1      34.240  34.498  31.748  1.00  0.00     0.188 C 
BRANCH  29  30
ATOM     30  C   UNL A   1      33.649  34.889  30.383  1.00  0.00     0.188 C 
BRANCH  30  31
ATOM     31  O   UNL A   1      34.463  34.537  29.265  1.00  0.00    -0.376 OA
BRANCH  31  32
ATOM     32  C   UNL A   1      33.755  34.136  28.098  1.00  0.00     0.202 C 
BRANCH  32  33
ATOM     33  C   UNL A   1      33.520  32.624  28.020  1.00  0.00     0.261 C 
BRANCH  33  34
ATOM     34  O   UNL A   1      34.588  31.825  28.547  1.00  0.00    -0.460 OA
BRANCH  34  35
ATOM     35  C   UNL A   1      34.617  30.525  28.181  1.00  0.00     0.338 C 
ATOM     36  O   UNL A   1      33.721  29.883  27.665  1.00  0.00    -0.246 OA
BRANCH  35  37
ATOM     37  C   UNL A   1      35.999  30.042  28.354  1.00  0.00     0.060 A 
ATOM     38  C   UNL A   1      36.398  29.577  29.613  1.00  0.00     0.016 A 
ATOM     39  C   UNL A   1      36.888  30.040  27.275  1.00  0.00     0.016 A 
ATOM     40  C   UNL A   1      37.708  29.142  29.805  1.00  0.00     0.010 A 
ATOM     41  C   UNL A   1      38.204  29.623  27.474  1.00  0.00     0.010 A 
ATOM     42  C   UNL A   1      38.626  29.206  28.747  1.00  0.00    -0.014 A 
BRANCH  42  43
ATOM     43  C   UNL A   1      40.072  29.053  29.020  1.00  0.00     0.031 A 
ATOM     44  C   UNL A   1      40.707  27.725  28.715  1.00  0.00     0.074 A 
ATOM     45  C   UNL A   1      40.800  30.060  29.531  1.00  0.00     0.049 A 
ATOM     46  N   UNL A   1      41.943  27.338  28.887  1.00  0.00    -0.248 NA
ATOM     47  C   UNL A   1      39.825  26.694  28.139  1.00  0.00     0.031 C 
ATOM     48  C   UNL A   1      40.296  31.393  29.855  1.00  0.00     0.029 A 
ATOM     49  N   UNL A   1      42.126  30.106  29.880  1.00  0.00    -0.354 N 
ATOM     50  C   UNL A   1      41.989  26.023  28.439  1.00  0.00     0.074 A 
ATOM     51  C   UNL A   1      40.653  25.669  28.013  1.00  0.00     0.031 C 
ATOM     52  C   UNL A   1      41.301  32.124  30.372  1.00  0.00     0.029 A 
ATOM     53  C   UNL A   1      42.511  31.305  30.429  1.00  0.00     0.049 A 
ATOM     54  H   UNL A   1      42.744  29.351  29.748  1.00  0.00     0.167 HD
ATOM     55  C   UNL A   1      43.051  25.186  28.382  1.00  0.00     0.037 A 
ATOM     56  C   UNL A   1      43.701  31.686  30.933  1.00  0.00     0.037 A 
ATOM     57  C   UNL A   1      44.373  25.534  28.823  1.00  0.00     0.049 A 
ATOM     58  C   UNL A   1      44.859  30.720  30.906  1.00  0.00     0.074 A 
ATOM     59  C   UNL A   1      45.521  24.762  28.797  1.00  0.00     0.029 A 
ATOM     60  N   UNL A   1      44.722  26.754  29.381  1.00  0.00    -0.354 N 
ATOM     61  N   UNL A   1      44.899  29.492  30.443  1.00  0.00    -0.248 NA
ATOM     62  C   UNL A   1      46.133  31.193  31.466  1.00  0.00     0.031 C 
ATOM     63  C   UNL A   1      46.557  25.504  29.373  1.00  0.00     0.029 A 
ATOM     64  C   UNL A   1      46.063  26.752  29.721  1.00  0.00     0.049 A 
ATOM     65  H   UNL A   1      44.106  27.511  29.515  1.00  0.00     0.167 HD
ATOM     66  C   UNL A   1      46.207  29.056  30.633  1.00  0.00     0.074 A 
ATOM     67  C   UNL A   1      46.928  30.153  31.247  1.00  0.00     0.031 C 
ATOM     68  C   UNL A   1      46.763  27.859  30.325  1.00  0.00     0.037 A 
BRANCH  55  69
ATOM     69  C   UNL A   1      42.808  23.810  27.839  1.00  0.00     0.058 A 
ATOM     70  C   UNL A   1      42.845  23.548  26.461  1.00  0.00     0.135 A 
ATOM     71  C   UNL A   1      42.534  22.739  28.705  1.00  0.00     0.135 A 
ATOM     72  F   UNL A   1      43.078  24.542  25.589  1.00  0.00    -0.206 F 
ATOM     73  C   UNL A   1      42.596  22.276  25.957  1.00  0.00     0.059 A 
ATOM     74  C   UNL A   1      42.302  21.455  28.225  1.00  0.00     0.059 A 
ATOM     75  F   UNL A   1      42.477  22.941  30.031  1.00  0.00    -0.206 F 
ATOM     76  C   UNL A   1      42.321  21.236  26.847  1.00  0.00     0.060 A 
BRANCH  76  77
ATOM     77  S   UNL A   1      41.993  19.590  26.182  1.00  0.00     0.124 S 
ATOM     78  O   UNL A   1      42.472  18.739  27.265  1.00  0.00    -0.237 OA
ATOM     79  O   UNL A   1      40.546  19.613  25.987  1.00  0.00    -0.237 OA
ATOM     80  O   UNL A   1      42.786  19.555  24.957  1.00  0.00    -0.744 OA
ENDBRANCH  76  77
ENDBRANCH  55  69
BRANCH  56  81
ATOM     81  C   UNL A   1      43.865  33.047  31.509  1.00  0.00     0.058 A 
ATOM     82  C   UNL A   1      43.400  33.348  32.797  1.00  0.00     0.135 A 
ATOM     83  C   UNL A   1      44.485  34.072  30.780  1.00  0.00     0.135 A 
ATOM     84  F   UNL A   1      42.790  32.401  33.527  1.00  0.00    -0.206 F 
ATOM     85  C   UNL A   1      43.532  34.621  33.340  1.00  0.00     0.059 A 
ATOM     86  C   UNL A   1      44.648  35.349  31.309  1.00  0.00     0.059 A 
ATOM     87  F   UNL A   1      44.954  33.832  29.545  1.00  0.00    -0.206 F 
ATOM     88  C   UNL A   1      44.159  35.616  32.588  1.00  0.00     0.060 A 
BRANCH  88  89
ATOM     89  S   UNL A   1      44.372  37.255  33.319  1.00  0.00     0.124 S 
ATOM     90  O   UNL A   1      43.201  37.344  34.183  1.00  0.00    -0.237 OA
ATOM     91  O   UNL A   1      45.658  37.125  33.997  1.00  0.00    -0.237 OA
ATOM     92  O   UNL A   1      44.372  38.141  32.158  1.00  0.00    -0.744 OA
ENDBRANCH  88  89
ENDBRANCH  56  81
BRANCH  68  93
ATOM     93  C   UNL A   1      48.226  27.678  30.613  1.00  0.00     0.058 A 
ATOM     94  C   UNL A   1      48.680  27.241  31.866  1.00  0.00     0.135 A 
ATOM     95  C   UNL A   1      49.179  27.887  29.604  1.00  0.00     0.135 A 
ATOM     96  F   UNL A   1      47.808  27.032  32.865  1.00  0.00    -0.206 F 
ATOM     97  C   UNL A   1      50.033  27.034  32.116  1.00  0.00     0.059 A 
ATOM     98  C   UNL A   1      50.535  27.664  29.824  1.00  0.00     0.059 A 
ATOM     99  F   UNL A   1      48.794  28.293  28.383  1.00  0.00    -0.206 F 
ATOM    100  C   UNL A   1      50.953  27.249  31.087  1.00  0.00     0.060 A 
BRANCH 100 101
ATOM    101  S   UNL A   1      52.703  26.941  31.407  1.00  0.00     0.124 S 
ATOM    102  O   UNL A   1      53.189  26.599  30.075  1.00  0.00    -0.237 OA
ATOM    103  O   UNL A   1      53.158  28.222  31.939  1.00  0.00    -0.237 OA
ATOM    104  O   UNL A   1      52.683  25.843  32.370  1.00  0.00    -0.744 OA
ENDBRANCH 100 101
ENDBRANCH  68  93
ENDBRANCH  42  43
ENDBRANCH  35  37
ENDBRANCH  34  35
ENDBRANCH  33  34
ENDBRANCH  32  33
ENDBRANCH  31  32
ENDBRANCH  30  31
ENDBRANCH  29  30
ENDBRANCH   1  29
TORSDOF 26
ENDMDL
MODEL 2
REMARK VINA RESULT:      -7.8      4.671     11.181
REMARK SMILES CC[C@@H]1CCCC[N@H+]1Cc1c(C(=O)OCCOCCOCCOCCOC(=O)c2ccc(-c3c4nc(c(-c5c(F)cc(S(=O)(=O)[O-])cc5F)c5ccc([nH]5)c(-c5c(F)cc(S(=O)(=O)[O-])cc5F)c5nc(c(-c6c(F)cc(S(=O)(=O)[O-])cc6F)c6ccc3[nH]6)C=C5)C=C4)cc2)oc2ccccc12
REMARK SMILES IDX 20 1 19 2 18 3 17 4 16 5 15 6 14 7 12 8 13 9 11 10 10 11
REMARK SMILES IDX 101 12 95 13 96 14 100 15 97 16 99 17 98 18 9 19 8 20 3 21
REMARK SMILES IDX 4 22 5 23 7 24 6 26 2 27 1 28 21 29 22 30 23 31 24 32 25 33
REMARK SMILES IDX 26 34 27 35 28 36 29 37 30 38 94 39 31 40 93 41 32 42 33 43
REMARK SMILES IDX 34 44 87 45 35 46 92 47 86 48 88 49 36 50 91 51 85 52 84 53
REMARK SMILES IDX 37 55 71 56 50 57 70 58 51 59 54 60 69 61 89 62 52 63 53 64
REMARK SMILES IDX 68 66 90 67 55 68 38 69 39 70 48 71 40 72 41 73 47 74 49 75
REMARK SMILES IDX 42 76 43 77 44 78 45 79 46 80 72 81 73 82 82 83 74 84 75 85
REMARK SMILES IDX 81 86 83 87 76 88 77 89 78 90 79 91 80 92 56 93 57 94 66 95
REMARK SMILES IDX 58 96 59 97 65 98 67 99 60 100 61 101 62 102 63 103 64 104
REMARK H PARENT 8 25 88 54 54 65
REMARK Flexibility Score: inf
ROOT
ATOM      1  O   UNL A   1      31.454  30.863  26.741  1.00  0.00    -0.377 OA
ENDROOT
BRANCH   1   2
ATOM      2  C   UNL A   1      31.440  30.450  25.387  1.00  0.00     0.188 C 
BRANCH   2   3
ATOM      3  C   UNL A   1      31.850  29.018  25.005  1.00  0.00     0.188 C 
BRANCH   3   4
ATOM      4  O   UNL A   1      31.002  27.991  25.507  1.00  0.00    -0.376 OA
BRANCH   4   5
ATOM      5  C   UNL A   1      31.494  27.277  26.633  1.00  0.00     0.202 C 
BRANCH   5   6
ATOM      6  C   UNL A   1      31.696  25.786  26.346  1.00  0.00     0.261 C 
BRANCH   6   7
ATOM      7  O   UNL A   1      33.054  25.339  26.473  1.00  0.00    -0.457 OA
BRANCH   7   8
ATOM      8  C   UNL A   1      33.795  25.274  25.336  1.00  0.00     0.374 C 
ATOM      9  O   UNL A   1      33.896  26.177  24.515  1.00  0.00    -0.242 OA
BRANCH   8  10
ATOM     10  C   UNL A   1      34.553  24.047  25.340  1.00  0.00     0.221 A 
ATOM     11  C   UNL A   1      34.162  22.718  25.519  1.00  0.00     0.067 A 
ATOM     12  C   UNL A   1      35.364  21.946  25.350  1.00  0.00     0.030 A 
ATOM     13  O   UNL A   1      35.886  24.122  25.064  1.00  0.00    -0.448 OA
ATOM     14  C   UNL A   1      36.373  22.859  25.069  1.00  0.00     0.135 A 
ATOM     15  C   UNL A   1      35.721  20.582  25.366  1.00  0.00     0.012 A 
ATOM     16  C   UNL A   1      37.701  22.522  24.809  1.00  0.00     0.048 A 
ATOM     17  C   UNL A   1      37.051  20.208  25.128  1.00  0.00     0.001 A 
ATOM     18  C   UNL A   1      38.025  21.165  24.852  1.00  0.00     0.004 A 
BRANCH  11  19
ATOM     19  C   UNL A   1      32.740  22.243  25.665  1.00  0.00     0.304 C 
BRANCH  19  20
ATOM     20  N   UNL A   1      32.173  21.464  24.550  1.00  0.00    -0.329 N 
ATOM     21  C   UNL A   1      32.509  21.929  23.194  1.00  0.00     0.184 C 
ATOM     22  C   UNL A   1      32.115  20.906  22.089  1.00  0.00     0.065 C 
ATOM     23  C   UNL A   1      32.494  19.474  22.410  1.00  0.00     0.012 C 
ATOM     24  C   UNL A   1      32.350  20.025  24.815  1.00  0.00     0.262 C 
ATOM     25  H   UNL A   1      31.170  21.645  24.528  1.00  0.00     0.348 HD
ATOM     26  C   UNL A   1      31.840  19.100  23.723  1.00  0.00     0.062 C 
BRANCH  21  27
ATOM     27  C   UNL A   1      31.790  23.246  22.749  1.00  0.00     0.061 C 
ATOM     28  C   UNL A   1      30.541  23.730  23.465  1.00  0.00     0.010 C 
ENDBRANCH  21  27
ENDBRANCH  19  20
ENDBRANCH  11  19
ENDBRANCH   8  10
ENDBRANCH   7   8
ENDBRANCH   6   7
ENDBRANCH   5   6
ENDBRANCH   4   5
ENDBRANCH   3   4
ENDBRANCH   2   3
ENDBRANCH   1   2
BRANCH   1  29
ATOM     29  C   UNL A   1      32.330  31.898  27.155  1.00  0.00     0.188 C 
BRANCH  29  30
ATOM     30  C   UNL A   1      33.753  31.532  27.607  1.00  0.00     0.188 C 
BRANCH  30  31
ATOM     31  O   UNL A   1      34.530  32.638  28.062  1.00  0.00    -0.376 OA
BRANCH  31  32
ATOM     32  C   UNL A   1      34.350  32.989  29.429  1.00  0.00     0.202 C 
BRANCH  32  33
ATOM     33  C   UNL A   1      35.305  32.252  30.375  1.00  0.00     0.261 C 
BRANCH  33  34
ATOM     34  O   UNL A   1      36.123  31.257  29.742  1.00  0.00    -0.460 OA
BRANCH  34  35
ATOM     35  C   UNL A   1      36.696  30.335  30.547  1.00  0.00     0.338 C 
ATOM     36  O   UNL A   1      36.150  29.653  31.394  1.00  0.00    -0.246 OA
BRANCH  35  37
ATOM     37  C   UNL A   1      38.091  30.160  30.103  1.00  0.00     0.060 A 
ATOM     38  C   UNL A   1      38.350  30.024  28.734  1.00  0.00     0.016 A 
ATOM     39  C   UNL A   1      39.133  30.143  31.035  1.00  0.00     0.016 A 
ATOM     40  C   UNL A   1      39.658  29.830  28.295  1.00  0.00     0.010 A 
ATOM     41  C   UNL A   1      40.439  29.929  30.595  1.00  0.00     0.010 A 
ATOM     42  C   UNL A   1      40.700  29.737  29.228  1.00  0.00    -0.014 A 
BRANCH  42  43
ATOM     43  C   UNL A   1      42.021  29.220  28.806  1.00  0.00     0.031 A 
ATOM     44  C   UNL A   1      43.164  30.193  28.732  1.00  0.00     0.074 A 
ATOM     45  C   UNL A   1      42.199  27.927  28.488  1.00  0.00     0.049 A 
ATOM     46  N   UNL A   1      44.403  29.991  28.369  1.00  0.00    -0.248 NA
ATOM     47  C   UNL A   1      42.867  31.584  29.119  1.00  0.00     0.031 C 
ATOM     48  C   UNL A   1      41.169  26.892  28.534  1.00  0.00     0.029 A 
ATOM     49  N   UNL A   1      43.320  27.269  28.050  1.00  0.00    -0.354 N 
ATOM     50  C   UNL A   1      45.033  31.224  28.486  1.00  0.00     0.074 A 
ATOM     51  C   UNL A   1      44.036  32.174  28.927  1.00  0.00     0.031 C 
ATOM     52  C   UNL A   1      41.704  25.727  28.123  1.00  0.00     0.029 A 
ATOM     53  C   UNL A   1      43.107  25.942  27.770  1.00  0.00     0.049 A 
ATOM     54  H   UNL A   1      44.195  27.707  27.945  1.00  0.00     0.167 HD
ATOM     55  C   UNL A   1      46.330  31.536  28.253  1.00  0.00     0.037 A 
ATOM     56  C   UNL A   1      43.948  25.013  27.272  1.00  0.00     0.037 A 
ATOM     57  C   UNL A   1      47.314  30.595  27.797  1.00  0.00     0.049 A 
ATOM     58  C   UNL A   1      45.376  25.396  26.971  1.00  0.00     0.074 A 
ATOM     59  C   UNL A   1      48.657  30.809  27.542  1.00  0.00     0.029 A 
ATOM     60  N   UNL A   1      47.058  29.261  27.517  1.00  0.00    -0.354 N 
ATOM     61  N   UNL A   1      45.969  26.557  27.124  1.00  0.00    -0.248 NA
ATOM     62  C   UNL A   1      46.248  24.341  26.433  1.00  0.00     0.031 C 
ATOM     63  C   UNL A   1      49.206  29.610  27.073  1.00  0.00     0.029 A 
ATOM     64  C   UNL A   1      48.213  28.642  27.074  1.00  0.00     0.049 A 
ATOM     65  H   UNL A   1      46.184  28.821  27.619  1.00  0.00     0.167 HD
ATOM     66  C   UNL A   1      47.289  26.364  26.727  1.00  0.00     0.074 A 
ATOM     67  C   UNL A   1      47.408  24.976  26.331  1.00  0.00     0.031 C 
ATOM     68  C   UNL A   1      48.311  27.255  26.693  1.00  0.00     0.037 A 
BRANCH  55  69
ATOM     69  C   UNL A   1      46.738  32.963  28.473  1.00  0.00     0.058 A 
ATOM     70  C   UNL A   1      46.665  33.913  27.442  1.00  0.00     0.135 A 
ATOM     71  C   UNL A   1      47.209  33.385  29.726  1.00  0.00     0.135 A 
ATOM     72  F   UNL A   1      46.245  33.554  26.219  1.00  0.00    -0.206 F 
ATOM     73  C   UNL A   1      47.066  35.230  27.640  1.00  0.00     0.059 A 
ATOM     74  C   UNL A   1      47.597  34.702  29.952  1.00  0.00     0.059 A 
ATOM     75  F   UNL A   1      47.308  32.511  30.740  1.00  0.00    -0.206 F 
ATOM     76  C   UNL A   1      47.535  35.614  28.898  1.00  0.00     0.060 A 
BRANCH  76  77
ATOM     77  S   UNL A   1      48.059  37.324  29.142  1.00  0.00     0.124 S 
ATOM     78  O   UNL A   1      49.421  37.143  29.632  1.00  0.00    -0.237 OA
ATOM     79  O   UNL A   1      47.938  37.884  27.799  1.00  0.00    -0.237 OA
ATOM     80  O   UNL A   1      47.103  37.836  30.118  1.00  0.00    -0.744 OA
ENDBRANCH  76  77
ENDBRANCH  55  69
BRANCH  56  81
ATOM     81  C   UNL A   1      43.467  23.629  27.024  1.00  0.00     0.058 A 
ATOM     82  C   UNL A   1      43.363  22.702  28.070  1.00  0.00     0.135 A 
ATOM     83  C   UNL A   1      43.107  23.207  25.735  1.00  0.00     0.135 A 
ATOM     84  F   UNL A   1      43.707  23.058  29.317  1.00  0.00    -0.206 F 
ATOM     85  C   UNL A   1      42.931  21.399  27.848  1.00  0.00     0.059 A 
ATOM     86  C   UNL A   1      42.652  21.914  25.491  1.00  0.00     0.059 A 
ATOM     87  F   UNL A   1      43.183  24.060  24.702  1.00  0.00    -0.206 F 
ATOM     88  C   UNL A   1      42.576  21.014  26.554  1.00  0.00     0.060 A 
BRANCH  88  89
ATOM     89  S   UNL A   1      41.968  19.335  26.281  1.00  0.00     0.124 S 
ATOM     90  O   UNL A   1      40.526  19.549  26.245  1.00  0.00    -0.237 OA
ATOM     91  O   UNL A   1      42.593  18.983  25.009  1.00  0.00    -0.237 OA
ATOM     92  O   UNL A   1      42.471  18.605  27.440  1.00  0.00    -0.744 OA
ENDBRANCH  88  89
ENDBRANCH  56  81
BRANCH  68  93
ATOM     93  C   UNL A   1      49.655  26.753  26.247  1.00  0.00     0.058 A 
ATOM     94  C   UNL A   1      50.061  26.828  24.907  1.00  0.00     0.135 A 
ATOM     95  C   UNL A   1      50.570  26.246  27.184  1.00  0.00     0.135 A 
ATOM     96  F   UNL A   1      49.220  27.301  23.973  1.00  0.00    -0.206 F 
ATOM     97  C   UNL A   1      51.322  26.402  24.505  1.00  0.00     0.059 A 
ATOM     98  C   UNL A   1      51.845  25.835  26.809  1.00  0.00     0.059 A 
ATOM     99  F   UNL A   1      50.234  26.166  28.482  1.00  0.00    -0.206 F 
ATOM    100  C   UNL A   1      52.208  25.906  25.465  1.00  0.00     0.060 A 
BRANCH 100 101
ATOM    101  S   UNL A   1      53.858  25.390  24.943  1.00  0.00     0.124 S 
ATOM    102  O   UNL A   1      53.677  23.952  24.778  1.00  0.00    -0.237 OA
ATOM    103  O   UNL A   1      54.052  26.149  23.712  1.00  0.00    -0.237 OA
ATOM    104  O   UNL A   1      54.707  25.793  26.060  1.00  0.00    -0.744 OA
ENDBRANCH 100 101
ENDBRANCH  68  93
ENDBRANCH  42  43
ENDBRANCH  35  37
ENDBRANCH  34  35
ENDBRANCH  33  34
ENDBRANCH  32  33
ENDBRANCH  31  32
ENDBRANCH  30  31
ENDBRANCH  29  30
ENDBRANCH   1  29
TORSDOF 26
ENDMDL
MODEL 3
REMARK VINA RESULT:      -7.7      3.913     11.330
REMARK SMILES CC[C@@H]1CCCC[N@H+]1Cc1c(C(=O)OCCOCCOCCOCCOC(=O)c2ccc(-c3c4nc(c(-c5c(F)cc(S(=O)(=O)[O-])cc5F)c5ccc([nH]5)c(-c5c(F)cc(S(=O)(=O)[O-])cc5F)c5nc(c(-c6c(F)cc(S(=O)(=O)[O-])cc6F)c6ccc3[nH]6)C=C5)C=C4)cc2)oc2ccccc12
REMARK SMILES IDX 20 1 19 2 18 3 17 4 16 5 15 6 14 7 12 8 13 9 11 10 10 11
REMARK SMILES IDX 101 12 95 13 96 14 100 15 97 16 99 17 98 18 9 19 8 20 3 21
REMARK SMILES IDX 4 22 5 23 7 24 6 26 2 27 1 28 21 29 22 30 23 31 24 32 25 33
REMARK SMILES IDX 26 34 27 35 28 36 29 37 30 38 94 39 31 40 93 41 32 42 33 43
REMARK SMILES IDX 34 44 87 45 35 46 92 47 86 48 88 49 36 50 91 51 85 52 84 53
REMARK SMILES IDX 37 55 71 56 50 57 70 58 51 59 54 60 69 61 89 62 52 63 53 64
REMARK SMILES IDX 68 66 90 67 55 68 38 69 39 70 48 71 40 72 41 73 47 74 49 75
REMARK SMILES IDX 42 76 43 77 44 78 45 79 46 80 72 81 73 82 82 83 74 84 75 85
REMARK SMILES IDX 81 86 83 87 76 88 77 89 78 90 79 91 80 92 56 93 57 94 66 95
REMARK SMILES IDX 58 96 59 97 65 98 67 99 60 100 61 101 62 102 63 103 64 104
REMARK H PARENT 8 25 88 54 54 65
REMARK Flexibility Score: inf
ROOT
ATOM      1  O   UNL A   1      32.883  35.443  30.269  1.00  0.00    -0.377 OA
ENDROOT
BRANCH   1   2
ATOM      2  C   UNL A   1      33.168  35.743  28.914  1.00  0.00     0.188 C 
BRANCH   2   3
ATOM      3  C   UNL A   1      34.248  34.956  28.153  1.00  0.00     0.188 C 
BRANCH   3   4
ATOM      4  O   UNL A   1      34.593  33.698  28.721  1.00  0.00    -0.376 OA
BRANCH   4   5
ATOM      5  C   UNL A   1      34.791  32.635  27.798  1.00  0.00     0.202 C 
BRANCH   5   6
ATOM      6  C   UNL A   1      33.661  31.602  27.836  1.00  0.00     0.261 C 
BRANCH   6   7
ATOM      7  O   UNL A   1      33.646  30.702  26.717  1.00  0.00    -0.457 OA
BRANCH   7   8
ATOM      8  C   UNL A   1      32.758  29.675  26.759  1.00  0.00     0.374 C 
ATOM      9  O   UNL A   1      32.597  28.928  27.716  1.00  0.00    -0.242 OA
BRANCH   8  10
ATOM     10  C   UNL A   1      31.943  29.711  25.569  1.00  0.00     0.221 A 
ATOM     11  C   UNL A   1      31.890  28.868  24.457  1.00  0.00     0.067 A 
ATOM     12  C   UNL A   1      30.830  29.393  23.637  1.00  0.00     0.030 A 
ATOM     13  O   UNL A   1      30.990  30.682  25.481  1.00  0.00    -0.448 OA
ATOM     14  C   UNL A   1      30.320  30.490  24.321  1.00  0.00     0.135 A 
ATOM     15  C   UNL A   1      30.212  29.055  22.416  1.00  0.00     0.012 A 
ATOM     16  C   UNL A   1      29.255  31.275  23.882  1.00  0.00     0.048 A 
ATOM     17  C   UNL A   1      29.150  29.834  21.934  1.00  0.00     0.001 A 
ATOM     18  C   UNL A   1      28.679  30.926  22.660  1.00  0.00     0.004 A 
BRANCH  11  19
ATOM     19  C   UNL A   1      32.672  27.591  24.297  1.00  0.00     0.304 C 
BRANCH  19  20
ATOM     20  N   UNL A   1      31.936  26.326  24.475  1.00  0.00    -0.329 N 
ATOM     21  C   UNL A   1      32.739  25.093  24.430  1.00  0.00     0.184 C 
ATOM     22  C   UNL A   1      31.948  23.838  24.901  1.00  0.00     0.065 C 
ATOM     23  C   UNL A   1      31.142  24.057  26.165  1.00  0.00     0.012 C 
ATOM     24  C   UNL A   1      30.995  26.458  25.602  1.00  0.00     0.262 C 
ATOM     25  H   UNL A   1      31.379  26.174  23.635  1.00  0.00     0.348 HD
ATOM     26  C   UNL A   1      30.191  25.209  25.922  1.00  0.00     0.062 C 
BRANCH  21  27
ATOM     27  C   UNL A   1      33.254  24.690  23.008  1.00  0.00     0.061 C 
ATOM     28  C   UNL A   1      32.651  25.309  21.758  1.00  0.00     0.010 C 
ENDBRANCH  21  27
ENDBRANCH  19  20
ENDBRANCH  11  19
ENDBRANCH   8  10
ENDBRANCH   7   8
ENDBRANCH   6   7
ENDBRANCH   5   6
ENDBRANCH   4   5
ENDBRANCH   3   4
ENDBRANCH   2   3
ENDBRANCH   1   2
BRANCH   1  29
ATOM     29  C   UNL A   1      33.612  36.086  31.302  1.00  0.00     0.188 C 
BRANCH  29  30
ATOM     30  C   UNL A   1      33.839  35.339  32.627  1.00  0.00     0.188 C 
BRANCH  30  31
ATOM     31  O   UNL A   1      33.403  33.981  32.621  1.00  0.00    -0.376 OA
BRANCH  31  32
ATOM     32  C   UNL A   1      34.431  33.010  32.776  1.00  0.00     0.202 C 
BRANCH  32  33
ATOM     33  C   UNL A   1      34.851  32.356  31.455  1.00  0.00     0.261 C 
BRANCH  33  34
ATOM     34  O   UNL A   1      35.989  31.487  31.554  1.00  0.00    -0.460 OA
BRANCH  34  35
ATOM     35  C   UNL A   1      37.155  32.048  31.943  1.00  0.00     0.338 C 
ATOM     36  O   UNL A   1      37.315  32.905  32.792  1.00  0.00    -0.246 OA
BRANCH  35  37
ATOM     37  C   UNL A   1      38.248  31.315  31.279  1.00  0.00     0.060 A 
ATOM     38  C   UNL A   1      39.145  30.585  32.069  1.00  0.00     0.016 A 
ATOM     39  C   UNL A   1      38.375  31.340  29.888  1.00  0.00     0.016 A 
ATOM     40  C   UNL A   1      40.202  29.907  31.465  1.00  0.00     0.010 A 
ATOM     41  C   UNL A   1      39.444  30.677  29.287  1.00  0.00     0.010 A 
ATOM     42  C   UNL A   1      40.379  29.988  30.077  1.00  0.00    -0.014 A 
BRANCH  42  43
ATOM     43  C   UNL A   1      41.656  29.546  29.472  1.00  0.00     0.031 A 
ATOM     44  C   UNL A   1      42.741  30.572  29.297  1.00  0.00     0.074 A 
ATOM     45  C   UNL A   1      41.845  28.275  29.082  1.00  0.00     0.049 A 
ATOM     46  N   UNL A   1      43.931  30.439  28.774  1.00  0.00    -0.248 NA
ATOM     47  C   UNL A   1      42.439  31.933  29.774  1.00  0.00     0.031 C 
ATOM     48  C   UNL A   1      40.872  27.193  29.214  1.00  0.00     0.029 A 
ATOM     49  N   UNL A   1      42.928  27.684  28.481  1.00  0.00    -0.354 N 
ATOM     50  C   UNL A   1      44.521  31.695  28.862  1.00  0.00     0.074 A 
ATOM     51  C   UNL A   1      43.550  32.582  29.462  1.00  0.00     0.031 C 
ATOM     52  C   UNL A   1      41.397  26.069  28.692  1.00  0.00     0.029 A 
ATOM     53  C   UNL A   1      42.734  26.359  28.176  1.00  0.00     0.049 A 
ATOM     54  H   UNL A   1      43.764  28.165  28.287  1.00  0.00     0.167 HD
ATOM     55  C   UNL A   1      45.764  32.073  28.483  1.00  0.00     0.037 A 
ATOM     56  C   UNL A   1      43.543  25.488  27.540  1.00  0.00     0.037 A 
ATOM     57  C   UNL A   1      46.720  31.194  27.870  1.00  0.00     0.049 A 
ATOM     58  C   UNL A   1      44.905  25.945  27.080  1.00  0.00     0.074 A 
ATOM     59  C   UNL A   1      48.010  31.477  27.458  1.00  0.00     0.029 A 
ATOM     60  N   UNL A   1      46.485  29.861  27.569  1.00  0.00    -0.354 N 
ATOM     61  N   UNL A   1      45.465  27.125  27.205  1.00  0.00    -0.248 NA
ATOM     62  C   UNL A   1      45.744  24.951  26.395  1.00  0.00     0.031 C 
ATOM     63  C   UNL A   1      48.543  30.322  26.876  1.00  0.00     0.029 A 
ATOM     64  C   UNL A   1      47.599  29.310  26.960  1.00  0.00     0.049 A 
ATOM     65  H   UNL A   1      45.649  29.378  27.761  1.00  0.00     0.167 HD
ATOM     66  C   UNL A   1      46.731  27.007  26.639  1.00  0.00     0.074 A 
ATOM     67  C   UNL A   1      46.856  25.640  26.175  1.00  0.00     0.031 C 
ATOM     68  C   UNL A   1      47.704  27.943  26.515  1.00  0.00     0.037 A 
BRANCH  55  69
ATOM     69  C   UNL A   1      46.139  33.508  28.707  1.00  0.00     0.058 A 
ATOM     70  C   UNL A   1      46.701  33.937  29.919  1.00  0.00     0.135 A 
ATOM     71  C   UNL A   1      45.935  34.464  27.700  1.00  0.00     0.135 A 
ATOM     72  F   UNL A   1      46.893  33.066  30.922  1.00  0.00    -0.206 F 
ATOM     73  C   UNL A   1      47.027  35.272  30.135  1.00  0.00     0.059 A 
ATOM     74  C   UNL A   1      46.272  35.801  27.887  1.00  0.00     0.059 A 
ATOM     75  F   UNL A   1      45.390  34.105  26.527  1.00  0.00    -0.206 F 
ATOM     76  C   UNL A   1      46.805  36.198  29.114  1.00  0.00     0.060 A 
BRANCH  76  77
ATOM     77  S   UNL A   1      47.227  37.928  29.407  1.00  0.00     0.124 S 
ATOM     78  O   UNL A   1      48.252  38.152  28.394  1.00  0.00    -0.237 OA
ATOM     79  O   UNL A   1      45.953  38.604  29.178  1.00  0.00    -0.237 OA
ATOM     80  O   UNL A   1      47.696  37.934  30.788  1.00  0.00    -0.744 OA
ENDBRANCH  76  77
ENDBRANCH  55  69
BRANCH  56  81
ATOM     81  C   UNL A   1      43.091  24.093  27.297  1.00  0.00     0.058 A 
ATOM     82  C   UNL A   1      42.513  23.722  26.075  1.00  0.00     0.135 A 
ATOM     83  C   UNL A   1      43.225  23.106  28.285  1.00  0.00     0.135 A 
ATOM     84  F   UNL A   1      42.355  24.636  25.105  1.00  0.00    -0.206 F 
ATOM     85  C   UNL A   1      42.071  22.424  25.842  1.00  0.00     0.059 A 
ATOM     86  C   UNL A   1      42.809  21.795  28.069  1.00  0.00     0.059 A 
ATOM     87  F   UNL A   1      43.779  23.409  29.470  1.00  0.00    -0.206 F 
ATOM     88  C   UNL A   1      42.224  21.467  26.846  1.00  0.00     0.060 A 
BRANCH  88  89
ATOM     89  S   UNL A   1      41.694  19.771  26.519  1.00  0.00     0.124 S 
ATOM     90  O   UNL A   1      42.776  19.284  25.672  1.00  0.00    -0.237 OA
ATOM     91  O   UNL A   1      41.630  19.203  27.863  1.00  0.00    -0.237 OA
ATOM     92  O   UNL A   1      40.403  19.946  25.860  1.00  0.00    -0.744 OA
ENDBRANCH  88  89
ENDBRANCH  56  81
BRANCH  68  93
ATOM     93  C   UNL A   1      49.000  27.519  25.885  1.00  0.00     0.058 A 
ATOM     94  C   UNL A   1      49.165  27.487  24.492  1.00  0.00     0.135 A 
ATOM     95  C   UNL A   1      50.108  27.199  26.687  1.00  0.00     0.135 A 
ATOM     96  F   UNL A   1      48.135  27.780  23.683  1.00  0.00    -0.206 F 
ATOM     97  C   UNL A   1      50.380  27.134  23.914  1.00  0.00     0.059 A 
ATOM     98  C   UNL A   1      51.338  26.865  26.130  1.00  0.00     0.059 A 
ATOM     99  F   UNL A   1      50.004  27.228  28.025  1.00  0.00    -0.206 F 
ATOM    100  C   UNL A   1      51.462  26.825  24.742  1.00  0.00     0.060 A 
BRANCH 100 101
ATOM    101  S   UNL A   1      53.046  26.405  23.985  1.00  0.00     0.124 S 
ATOM    102  O   UNL A   1      53.740  27.688  24.028  1.00  0.00    -0.237 OA
ATOM    103  O   UNL A   1      53.562  25.375  24.880  1.00  0.00    -0.237 OA
ATOM    104  O   UNL A   1      52.671  25.938  22.653  1.00  0.00    -0.744 OA
ENDBRANCH 100 101
ENDBRANCH  68  93
ENDBRANCH  42  43
ENDBRANCH  35  37
ENDBRANCH  34  35
ENDBRANCH  33  34
ENDBRANCH  32  33
ENDBRANCH  31  32
ENDBRANCH  30  31
ENDBRANCH  29  30
ENDBRANCH   1  29
TORSDOF 26
ENDMDL
