MODEL 1
REMARK VINA RESULT:      -9.5      0.000      0.000
REMARK SMILES CC1=C(C)C(=O)N(C[C@H](CC(C)C)C(=O)OCCOCCOCCOCCOC(=O)c2ccc(-c3c4nc(c(-c5c(F)cc(S(=O)(=O)[O-])cc5F)c5ccc([nH]5)c(-c5c(F)cc(S(=O)(=O)[O-])cc5F)c5nc(c(-c6c(F)cc(S(=O)(=O)[O-])cc6F)c6ccc3[nH]6)C=C5)C=C4)cc2)C1=O
REMARK SMILES IDX 23 1 22 2 21 3 20 4 19 5 18 6 17 7 16 8 14 9 15 10 9 11 8 12
REMARK SMILES IDX 7 13 1 14 2 15 3 16 97 17 4 18 5 19 98 20 6 21 10 22 11 23
REMARK SMILES IDX 12 24 13 25 24 26 25 27 26 28 27 29 28 30 29 31 30 32 31 33
REMARK SMILES IDX 32 34 96 35 33 36 95 37 34 38 35 39 36 40 89 41 37 42 94 43
REMARK SMILES IDX 88 44 90 45 38 46 93 47 87 48 86 49 39 51 73 52 52 53 72 54
REMARK SMILES IDX 53 55 56 56 71 57 91 58 54 59 55 60 70 62 92 63 57 64 40 65
REMARK SMILES IDX 41 66 50 67 42 68 43 69 49 70 51 71 44 72 45 73 46 74 47 75
REMARK SMILES IDX 48 76 74 77 75 78 84 79 76 80 77 81 83 82 85 83 78 84 79 85
REMARK SMILES IDX 80 86 81 87 82 88 58 89 59 90 68 91 60 92 61 93 67 94 69 95
REMARK SMILES IDX 62 96 63 97 64 98 65 99 66 100
REMARK H PARENT 90 50 56 61
REMARK Flexibility Score: inf
ROOT
ATOM      1  C   UNL A   1      38.760  21.437  25.750  1.00  0.00     0.188 C 
ENDROOT
BRANCH   1   2
ATOM      2  O   UNL A   1      38.140  22.727  25.790  1.00  0.00    -0.377 OA
BRANCH   2   3
ATOM      3  C   UNL A   1      36.720  22.854  25.781  1.00  0.00     0.188 C 
BRANCH   3   4
ATOM      4  C   UNL A   1      35.902  21.828  24.884  1.00  0.00     0.188 C 
BRANCH   4   5
ATOM      5  O   UNL A   1      34.785  21.066  25.428  1.00  0.00    -0.376 OA
BRANCH   5   6
ATOM      6  C   UNL A   1      33.808  21.589  26.415  1.00  0.00     0.202 C 
BRANCH   6   7
ATOM      7  C   UNL A   1      32.435  22.675  26.105  1.00  0.00     0.261 C 
BRANCH   7   8
ATOM      8  O   UNL A   1      32.454  24.447  26.375  1.00  0.00    -0.463 OA
BRANCH   8   9
ATOM      9  C   UNL A   1      32.894  26.111  25.368  1.00  0.00     0.310 C 
ATOM     10  O   UNL A   1      33.882  26.891  25.508  1.00  0.00    -0.252 OA
BRANCH   9  11
ATOM     11  C   UNL A   1      31.876  26.719  24.287  1.00  0.00     0.119 C 
BRANCH  11  12
ATOM     12  C   UNL A   1      30.863  27.476  25.036  1.00  0.00     0.144 C 
BRANCH  12  13
ATOM     13  N   UNL A   1      31.293  28.698  24.510  1.00  0.00    -0.274 N 
ATOM     14  C   UNL A   1      28.812  31.663  22.909  1.00  0.00     0.051 C 
ATOM     15  C   UNL A   1      29.546  31.141  24.164  1.00  0.00     0.023 C 
ATOM     16  C   UNL A   1      30.637  31.506  25.498  1.00  0.00     0.023 C 
ATOM     17  C   UNL A   1      29.944  29.306  23.464  1.00  0.00     0.256 C 
ATOM     18  C   UNL A   1      31.350  32.492  26.409  1.00  0.00     0.051 C 
ATOM     19  C   UNL A   1      31.835  29.893  25.784  1.00  0.00     0.256 C 
ATOM     20  O   UNL A   1      29.188  28.626  22.789  1.00  0.00    -0.269 OA
ATOM     21  O   UNL A   1      32.440  29.639  26.813  1.00  0.00    -0.269 OA
ENDBRANCH  12  13
ENDBRANCH  11  12
BRANCH  11  22
ATOM     22  C   UNL A   1      31.545  25.516  23.358  1.00  0.00     0.020 C 
BRANCH  22  23
ATOM     23  C   UNL A   1      32.414  25.273  22.128  1.00  0.00    -0.017 C 
ATOM     24  C   UNL A   1      33.268  26.498  21.811  1.00  0.00     0.007 C 
ATOM     25  C   UNL A   1      33.323  24.061  22.386  1.00  0.00     0.007 C 
ENDBRANCH  22  23
ENDBRANCH  11  22
ENDBRANCH   9  11
ENDBRANCH   8   9
ENDBRANCH   7   8
ENDBRANCH   6   7
ENDBRANCH   5   6
ENDBRANCH   4   5
ENDBRANCH   3   4
ENDBRANCH   2   3
ENDBRANCH   1   2
BRANCH   1  26
ATOM     26  C   UNL A   1      40.069  21.264  26.525  1.00  0.00     0.188 C 
BRANCH  26  27
ATOM     27  O   UNL A   1      41.103  20.570  25.826  1.00  0.00    -0.376 OA
BRANCH  27  28
ATOM     28  C   UNL A   1      41.638  19.416  26.467  1.00  0.00     0.202 C 
BRANCH  28  29
ATOM     29  C   UNL A   1      42.697  18.601  25.704  1.00  0.00     0.261 C 
BRANCH  29  30
ATOM     30  O   UNL A   1      44.040  19.114  25.758  1.00  0.00    -0.460 OA
BRANCH  30  31
ATOM     31  C   UNL A   1      44.319  20.036  24.798  1.00  0.00     0.338 C 
ATOM     32  O   UNL A   1      44.531  19.814  23.616  1.00  0.00    -0.246 OA
BRANCH  31  33
ATOM     33  C   UNL A   1      44.222  21.411  25.333  1.00  0.00     0.060 A 
ATOM     34  C   UNL A   1      44.090  22.468  24.420  1.00  0.00     0.016 A 
ATOM     35  C   UNL A   1      44.403  21.673  26.692  1.00  0.00     0.016 A 
ATOM     36  C   UNL A   1      44.200  23.790  24.856  1.00  0.00     0.010 A 
ATOM     37  C   UNL A   1      44.527  22.999  27.125  1.00  0.00     0.010 A 
ATOM     38  C   UNL A   1      44.473  24.060  26.203  1.00  0.00    -0.014 A 
BRANCH  38  39
ATOM     39  C   UNL A   1      44.925  25.417  26.608  1.00  0.00     0.031 A 
ATOM     40  C   UNL A   1      43.900  26.378  27.151  1.00  0.00     0.074 A 
ATOM     41  C   UNL A   1      46.211  25.794  26.503  1.00  0.00     0.049 A 
ATOM     42  N   UNL A   1      44.031  27.635  27.489  1.00  0.00    -0.248 NA
ATOM     43  C   UNL A   1      42.539  25.845  27.331  1.00  0.00     0.031 C 
ATOM     44  C   UNL A   1      47.304  24.948  26.030  1.00  0.00     0.029 A 
ATOM     45  N   UNL A   1      46.809  27.002  26.771  1.00  0.00    -0.354 N 
ATOM     46  C   UNL A   1      42.773  28.045  27.915  1.00  0.00     0.074 A 
ATOM     47  C   UNL A   1      41.886  26.911  27.766  1.00  0.00     0.031 C 
ATOM     48  C   UNL A   1      48.437  25.673  26.013  1.00  0.00     0.029 A 
ATOM     49  C   UNL A   1      48.142  27.040  26.444  1.00  0.00     0.049 A 
ATOM     50  H   UNL A   1      46.327  27.766  27.161  1.00  0.00     0.167 HD
ATOM     51  C   UNL A   1      42.389  29.254  28.390  1.00  0.00     0.037 A 
ATOM     52  C   UNL A   1      49.016  28.068  26.458  1.00  0.00     0.037 A 
ATOM     53  C   UNL A   1      43.269  30.385  28.520  1.00  0.00     0.049 A 
ATOM     54  C   UNL A   1      48.558  29.425  26.931  1.00  0.00     0.074 A 
ATOM     55  C   UNL A   1      42.978  31.655  28.986  1.00  0.00     0.029 A 
ATOM     56  N   UNL A   1      44.611  30.386  28.172  1.00  0.00    -0.354 N 
ATOM     57  N   UNL A   1      47.369  29.798  27.340  1.00  0.00    -0.248 NA
ATOM     58  C   UNL A   1      49.561  30.500  26.945  1.00  0.00     0.031 C 
ATOM     59  C   UNL A   1      44.135  32.436  28.879  1.00  0.00     0.029 A 
ATOM     60  C   UNL A   1      45.160  31.638  28.393  1.00  0.00     0.049 A 
ATOM     61  H   UNL A   1      45.103  29.609  27.818  1.00  0.00     0.167 HD
ATOM     62  C   UNL A   1      47.485  31.144  27.679  1.00  0.00     0.074 A 
ATOM     63  C   UNL A   1      48.864  31.516  27.437  1.00  0.00     0.031 C 
ATOM     64  C   UNL A   1      46.537  31.993  28.148  1.00  0.00     0.037 A 
BRANCH  51  65
ATOM     65  C   UNL A   1      40.941  29.413  28.768  1.00  0.00     0.058 A 
ATOM     66  C   UNL A   1      39.928  29.486  27.798  1.00  0.00     0.135 A 
ATOM     67  C   UNL A   1      40.564  29.514  30.117  1.00  0.00     0.135 A 
ATOM     68  F   UNL A   1      40.235  29.413  26.493  1.00  0.00    -0.206 F 
ATOM     69  C   UNL A   1      38.599  29.696  28.150  1.00  0.00     0.059 A 
ATOM     70  C   UNL A   1      39.237  29.697  30.492  1.00  0.00     0.059 A 
ATOM     71  F   UNL A   1      41.491  29.452  31.086  1.00  0.00    -0.206 F 
ATOM     72  C   UNL A   1      38.264  29.809  29.499  1.00  0.00     0.060 A 
BRANCH  72  73
ATOM     73  S   UNL A   1      36.541  30.117  29.941  1.00  0.00     0.124 S 
ATOM     74  O   UNL A   1      35.842  29.583  28.775  1.00  0.00    -0.237 OA
ATOM     75  O   UNL A   1      36.391  29.352  31.174  1.00  0.00    -0.237 OA
ATOM     76  O   UNL A   1      36.484  31.567  30.095  1.00  0.00    -0.744 OA
ENDBRANCH  72  73
ENDBRANCH  51  65
BRANCH  52  77
ATOM     77  C   UNL A   1      50.409  27.854  25.983  1.00  0.00     0.058 A 
ATOM     78  C   UNL A   1      51.471  27.691  26.883  1.00  0.00     0.135 A 
ATOM     79  C   UNL A   1      50.701  27.786  24.610  1.00  0.00     0.135 A 
ATOM     80  F   UNL A   1      51.248  27.765  28.204  1.00  0.00    -0.206 F 
ATOM     81  C   UNL A   1      52.773  27.464  26.443  1.00  0.00     0.059 A 
ATOM     82  C   UNL A   1      51.989  27.537  24.146  1.00  0.00     0.059 A 
ATOM     83  F   UNL A   1      49.719  27.934  23.707  1.00  0.00    -0.206 F 
ATOM     84  C   UNL A   1      53.019  27.379  25.071  1.00  0.00     0.060 A 
BRANCH  84  85
ATOM     85  S   UNL A   1      54.696  27.000  24.513  1.00  0.00     0.124 S 
ATOM     86  O   UNL A   1      55.321  28.317  24.541  1.00  0.00    -0.237 OA
ATOM     87  O   UNL A   1      55.149  26.055  25.528  1.00  0.00    -0.237 OA
ATOM     88  O   UNL A   1      54.486  26.428  23.186  1.00  0.00    -0.744 OA
ENDBRANCH  84  85
ENDBRANCH  52  77
BRANCH  64  89
ATOM     89  C   UNL A   1      46.957  33.404  28.461  1.00  0.00     0.058 A 
ATOM     90  C   UNL A   1      47.317  33.796  29.759  1.00  0.00     0.135 A 
ATOM     91  C   UNL A   1      47.063  34.357  27.435  1.00  0.00     0.135 A 
ATOM     92  F   UNL A   1      47.230  32.925  30.777  1.00  0.00    -0.206 F 
ATOM     93  C   UNL A   1      47.748  35.091  30.034  1.00  0.00     0.059 A 
ATOM     94  C   UNL A   1      47.516  35.651  27.682  1.00  0.00     0.059 A 
ATOM     95  F   UNL A   1      46.744  34.032  26.173  1.00  0.00    -0.206 F 
ATOM     96  C   UNL A   1      47.847  36.011  28.988  1.00  0.00     0.060 A 
BRANCH  96  97
ATOM     97  S   UNL A   1      48.442  37.677  29.350  1.00  0.00     0.124 S 
ATOM     98  O   UNL A   1      47.451  38.140  30.317  1.00  0.00    -0.237 OA
ATOM     99  O   UNL A   1      49.778  37.425  29.882  1.00  0.00    -0.237 OA
ATOM    100  O   UNL A   1      48.407  38.340  28.050  1.00  0.00    -0.744 OA
ENDBRANCH  96  97
ENDBRANCH  64  89
ENDBRANCH  38  39
ENDBRANCH  31  33
ENDBRANCH  30  31
ENDBRANCH  29  30
ENDBRANCH  28  29
ENDBRANCH  27  28
ENDBRANCH  26  27
ENDBRANCH   1  26
TORSDOF 27
ENDMDL
MODEL 2
REMARK VINA RESULT:      -8.8      5.993     10.345
REMARK SMILES CC1=C(C)C(=O)N(C[C@H](CC(C)C)C(=O)OCCOCCOCCOCCOC(=O)c2ccc(-c3c4nc(c(-c5c(F)cc(S(=O)(=O)[O-])cc5F)c5ccc([nH]5)c(-c5c(F)cc(S(=O)(=O)[O-])cc5F)c5nc(c(-c6c(F)cc(S(=O)(=O)[O-])cc6F)c6ccc3[nH]6)C=C5)C=C4)cc2)C1=O
REMARK SMILES IDX 23 1 22 2 21 3 20 4 19 5 18 6 17 7 16 8 14 9 15 10 9 11 8 12
REMARK SMILES IDX 7 13 1 14 2 15 3 16 97 17 4 18 5 19 98 20 6 21 10 22 11 23
REMARK SMILES IDX 12 24 13 25 24 26 25 27 26 28 27 29 28 30 29 31 30 32 31 33
REMARK SMILES IDX 32 34 96 35 33 36 95 37 34 38 35 39 36 40 89 41 37 42 94 43
REMARK SMILES IDX 88 44 90 45 38 46 93 47 87 48 86 49 39 51 73 52 52 53 72 54
REMARK SMILES IDX 53 55 56 56 71 57 91 58 54 59 55 60 70 62 92 63 57 64 40 65
REMARK SMILES IDX 41 66 50 67 42 68 43 69 49 70 51 71 44 72 45 73 46 74 47 75
REMARK SMILES IDX 48 76 74 77 75 78 84 79 76 80 77 81 83 82 85 83 78 84 79 85
REMARK SMILES IDX 80 86 81 87 82 88 58 89 59 90 68 91 60 92 61 93 67 94 69 95
REMARK SMILES IDX 62 96 63 97 64 98 65 99 66 100
REMARK H PARENT 90 50 56 61
REMARK Flexibility Score: inf
ROOT
ATOM      1  C   UNL A   1      38.498  21.792  25.706  1.00  0.00     0.188 C 
ENDROOT
BRANCH   1   2
ATOM      2  O   UNL A   1      37.486  22.794  25.848  1.00  0.00    -0.377 OA
BRANCH   2   3
ATOM      3  C   UNL A   1      36.106  22.437  25.888  1.00  0.00     0.188 C 
BRANCH   3   4
ATOM      4  C   UNL A   1      35.511  21.686  24.621  1.00  0.00     0.188 C 
BRANCH   4   5
ATOM      5  O   UNL A   1      34.658  20.512  24.766  1.00  0.00    -0.376 OA
BRANCH   5   6
ATOM      6  C   UNL A   1      33.372  20.490  25.508  1.00  0.00     0.202 C 
BRANCH   6   7
ATOM      7  C   UNL A   1      31.778  21.018  24.925  1.00  0.00     0.261 C 
BRANCH   7   8
ATOM      8  O   UNL A   1      31.126  22.678  25.097  1.00  0.00    -0.463 OA
BRANCH   8   9
ATOM      9  C   UNL A   1      31.294  24.454  24.206  1.00  0.00     0.310 C 
ATOM     10  O   UNL A   1      31.300  24.729  22.970  1.00  0.00    -0.252 OA
BRANCH   9  11
ATOM     11  C   UNL A   1      31.586  25.783  25.056  1.00  0.00     0.119 C 
BRANCH  11  12
ATOM     12  C   UNL A   1      32.334  25.366  26.252  1.00  0.00     0.144 C 
BRANCH  12  13
ATOM     13  N   UNL A   1      33.083  26.546  26.274  1.00  0.00    -0.274 N 
ATOM     14  C   UNL A   1      34.234  28.757  22.913  1.00  0.00     0.051 C 
ATOM     15  C   UNL A   1      33.185  28.571  24.031  1.00  0.00     0.023 C 
ATOM     16  C   UNL A   1      32.252  29.320  25.323  1.00  0.00     0.023 C 
ATOM     17  C   UNL A   1      33.771  26.744  24.609  1.00  0.00     0.256 C 
ATOM     18  C   UNL A   1      31.683  30.544  26.023  1.00  0.00     0.051 C 
ATOM     19  C   UNL A   1      32.142  28.001  26.861  1.00  0.00     0.256 C 
ATOM     20  O   UNL A   1      34.136  25.848  23.865  1.00  0.00    -0.269 OA
ATOM     21  O   UNL A   1      31.300  28.017  27.744  1.00  0.00    -0.269 OA
ENDBRANCH  12  13
ENDBRANCH  11  12
BRANCH  11  22
ATOM     22  C   UNL A   1      30.214  26.513  25.106  1.00  0.00     0.020 C 
BRANCH  22  23
ATOM     23  C   UNL A   1      29.455  26.748  23.804  1.00  0.00    -0.017 C 
ATOM     24  C   UNL A   1      27.967  26.458  23.978  1.00  0.00     0.007 C 
ATOM     25  C   UNL A   1      29.650  28.207  23.363  1.00  0.00     0.007 C 
ENDBRANCH  22  23
ENDBRANCH  11  22
ENDBRANCH   9  11
ENDBRANCH   8   9
ENDBRANCH   7   8
ENDBRANCH   6   7
ENDBRANCH   5   6
ENDBRANCH   4   5
ENDBRANCH   3   4
ENDBRANCH   2   3
ENDBRANCH   1   2
BRANCH   1  26
ATOM     26  C   UNL A   1      39.700  21.869  26.651  1.00  0.00     0.188 C 
BRANCH  26  27
ATOM     27  O   UNL A   1      40.905  22.361  26.065  1.00  0.00    -0.376 OA
BRANCH  27  28
ATOM     28  C   UNL A   1      42.026  21.484  26.087  1.00  0.00     0.202 C 
BRANCH  28  29
ATOM     29  C   UNL A   1      43.409  22.099  26.363  1.00  0.00     0.261 C 
BRANCH  29  30
ATOM     30  O   UNL A   1      43.410  23.323  27.118  1.00  0.00    -0.460 OA
BRANCH  30  31
ATOM     31  C   UNL A   1      43.185  24.435  26.369  1.00  0.00     0.338 C 
ATOM     32  O   UNL A   1      43.397  24.564  25.174  1.00  0.00    -0.246 OA
BRANCH  31  33
ATOM     33  C   UNL A   1      42.516  25.488  27.164  1.00  0.00     0.060 A 
ATOM     34  C   UNL A   1      42.949  26.813  27.004  1.00  0.00     0.016 A 
ATOM     35  C   UNL A   1      41.584  25.167  28.152  1.00  0.00     0.016 A 
ATOM     36  C   UNL A   1      42.497  27.809  27.873  1.00  0.00     0.010 A 
ATOM     37  C   UNL A   1      41.142  26.164  29.031  1.00  0.00     0.010 A 
ATOM     38  C   UNL A   1      41.633  27.478  28.924  1.00  0.00    -0.014 A 
BRANCH  38  39
ATOM     39  C   UNL A   1      41.421  28.440  30.038  1.00  0.00     0.031 A 
ATOM     40  C   UNL A   1      42.299  28.325  31.256  1.00  0.00     0.074 A 
ATOM     41  C   UNL A   1      40.476  29.394  29.978  1.00  0.00     0.049 A 
ATOM     42  N   UNL A   1      42.252  28.986  32.384  1.00  0.00    -0.248 NA
ATOM     43  C   UNL A   1      43.375  27.322  31.190  1.00  0.00     0.031 C 
ATOM     44  C   UNL A   1      39.588  29.635  28.843  1.00  0.00     0.029 A 
ATOM     45  N   UNL A   1      40.095  30.329  30.910  1.00  0.00    -0.354 N 
ATOM     46  C   UNL A   1      43.285  28.477  33.163  1.00  0.00     0.074 A 
ATOM     47  C   UNL A   1      43.923  27.432  32.391  1.00  0.00     0.031 C 
ATOM     48  C   UNL A   1      38.743  30.633  29.157  1.00  0.00     0.029 A 
ATOM     49  C   UNL A   1      39.012  31.081  30.524  1.00  0.00     0.049 A 
ATOM     50  H   UNL A   1      40.556  30.449  31.771  1.00  0.00     0.167 HD
ATOM     51  C   UNL A   1      43.670  28.846  34.409  1.00  0.00     0.037 A 
ATOM     52  C   UNL A   1      38.298  31.999  31.207  1.00  0.00     0.037 A 
ATOM     53  C   UNL A   1      43.023  29.871  35.183  1.00  0.00     0.049 A 
ATOM     54  C   UNL A   1      38.701  32.354  32.616  1.00  0.00     0.074 A 
ATOM     55  C   UNL A   1      43.333  30.317  36.455  1.00  0.00     0.029 A 
ATOM     56  N   UNL A   1      41.924  30.605  34.759  1.00  0.00    -0.354 N 
ATOM     57  N   UNL A   1      39.685  31.873  33.340  1.00  0.00    -0.248 NA
ATOM     58  C   UNL A   1      37.899  33.378  33.301  1.00  0.00     0.031 C 
ATOM     59  C   UNL A   1      42.395  31.291  36.817  1.00  0.00     0.029 A 
ATOM     60  C   UNL A   1      41.531  31.487  35.751  1.00  0.00     0.049 A 
ATOM     61  H   UNL A   1      41.488  30.512  33.881  1.00  0.00     0.167 HD
ATOM     62  C   UNL A   1      39.632  32.549  34.556  1.00  0.00     0.074 A 
ATOM     63  C   UNL A   1      38.526  33.480  34.467  1.00  0.00     0.031 C 
ATOM     64  C   UNL A   1      40.427  32.410  35.647  1.00  0.00     0.037 A 
BRANCH  51  65
ATOM     65  C   UNL A   1      44.828  28.100  35.015  1.00  0.00     0.058 A 
ATOM     66  C   UNL A   1      46.157  28.504  34.808  1.00  0.00     0.135 A 
ATOM     67  C   UNL A   1      44.607  26.955  35.798  1.00  0.00     0.135 A 
ATOM     68  F   UNL A   1      46.426  29.581  34.053  1.00  0.00    -0.206 F 
ATOM     69  C   UNL A   1      47.226  27.776  35.318  1.00  0.00     0.059 A 
ATOM     70  C   UNL A   1      45.661  26.227  36.341  1.00  0.00     0.059 A 
ATOM     71  F   UNL A   1      43.357  26.523  36.028  1.00  0.00    -0.206 F 
ATOM     72  C   UNL A   1      46.969  26.633  36.076  1.00  0.00     0.060 A 
BRANCH  72  73
ATOM     73  S   UNL A   1      48.366  25.676  36.702  1.00  0.00     0.124 S 
ATOM     74  O   UNL A   1      49.449  26.149  35.845  1.00  0.00    -0.237 OA
ATOM     75  O   UNL A   1      48.434  26.097  38.098  1.00  0.00    -0.237 OA
ATOM     76  O   UNL A   1      47.954  24.293  36.487  1.00  0.00    -0.744 OA
ENDBRANCH  72  73
ENDBRANCH  51  65
BRANCH  52  77
ATOM     77  C   UNL A   1      37.109  32.628  30.571  1.00  0.00     0.058 A 
ATOM     78  C   UNL A   1      35.814  32.145  30.805  1.00  0.00     0.135 A 
ATOM     79  C   UNL A   1      37.248  33.744  29.730  1.00  0.00     0.135 A 
ATOM     80  F   UNL A   1      35.629  31.071  31.587  1.00  0.00    -0.206 F 
ATOM     81  C   UNL A   1      34.697  32.748  30.234  1.00  0.00     0.059 A 
ATOM     82  C   UNL A   1      36.145  34.378  29.165  1.00  0.00     0.059 A 
ATOM     83  F   UNL A   1      38.467  34.245  29.475  1.00  0.00    -0.206 F 
ATOM     84  C   UNL A   1      34.873  33.870  29.422  1.00  0.00     0.060 A 
BRANCH  84  85
ATOM     85  S   UNL A   1      33.411  34.696  28.753  1.00  0.00     0.124 S 
ATOM     86  O   UNL A   1      32.922  33.704  27.801  1.00  0.00    -0.237 OA
ATOM     87  O   UNL A   1      32.596  34.890  29.948  1.00  0.00    -0.237 OA
ATOM     88  O   UNL A   1      33.953  35.919  28.169  1.00  0.00    -0.744 OA
ENDBRANCH  84  85
ENDBRANCH  52  77
BRANCH  64  89
ATOM     89  C   UNL A   1      40.154  33.304  36.826  1.00  0.00     0.058 A 
ATOM     90  C   UNL A   1      40.857  34.503  37.023  1.00  0.00     0.135 A 
ATOM     91  C   UNL A   1      39.131  32.988  37.735  1.00  0.00     0.135 A 
ATOM     92  F   UNL A   1      41.847  34.850  36.185  1.00  0.00    -0.206 F 
ATOM     93  C   UNL A   1      40.569  35.348  38.090  1.00  0.00     0.059 A 
ATOM     94  C   UNL A   1      38.809  33.830  38.796  1.00  0.00     0.059 A 
ATOM     95  F   UNL A   1      38.419  31.860  37.587  1.00  0.00    -0.206 F 
ATOM     96  C   UNL A   1      39.541  35.004  38.972  1.00  0.00     0.060 A 
BRANCH  96  97
ATOM     97  S   UNL A   1      39.152  36.126  40.332  1.00  0.00     0.124 S 
ATOM     98  O   UNL A   1      38.622  37.282  39.616  1.00  0.00    -0.237 OA
ATOM     99  O   UNL A   1      38.179  35.358  41.104  1.00  0.00    -0.237 OA
ATOM    100  O   UNL A   1      40.441  36.328  40.985  1.00  0.00    -0.744 OA
ENDBRANCH  96  97
ENDBRANCH  64  89
ENDBRANCH  38  39
ENDBRANCH  31  33
ENDBRANCH  30  31
ENDBRANCH  29  30
ENDBRANCH  28  29
ENDBRANCH  27  28
ENDBRANCH  26  27
ENDBRANCH   1  26
TORSDOF 27
ENDMDL
MODEL 3
REMARK VINA RESULT:      -8.1      5.388     10.808
REMARK SMILES CC1=C(C)C(=O)N(C[C@H](CC(C)C)C(=O)OCCOCCOCCOCCOC(=O)c2ccc(-c3c4nc(c(-c5c(F)cc(S(=O)(=O)[O-])cc5F)c5ccc([nH]5)c(-c5c(F)cc(S(=O)(=O)[O-])cc5F)c5nc(c(-c6c(F)cc(S(=O)(=O)[O-])cc6F)c6ccc3[nH]6)C=C5)C=C4)cc2)C1=O
REMARK SMILES IDX 23 1 22 2 21 3 20 4 19 5 18 6 17 7 16 8 14 9 15 10 9 11 8 12
REMARK SMILES IDX 7 13 1 14 2 15 3 16 97 17 4 18 5 19 98 20 6 21 10 22 11 23
REMARK SMILES IDX 12 24 13 25 24 26 25 27 26 28 27 29 28 30 29 31 30 32 31 33
REMARK SMILES IDX 32 34 96 35 33 36 95 37 34 38 35 39 36 40 89 41 37 42 94 43
REMARK SMILES IDX 88 44 90 45 38 46 93 47 87 48 86 49 39 51 73 52 52 53 72 54
REMARK SMILES IDX 53 55 56 56 71 57 91 58 54 59 55 60 70 62 92 63 57 64 40 65
REMARK SMILES IDX 41 66 50 67 42 68 43 69 49 70 51 71 44 72 45 73 46 74 47 75
REMARK SMILES IDX 48 76 74 77 75 78 84 79 76 80 77 81 83 82 85 83 78 84 79 85
REMARK SMILES IDX 80 86 81 87 82 88 58 89 59 90 68 91 60 92 61 93 67 94 69 95
REMARK SMILES IDX 62 96 63 97 64 98 65 99 66 100
REMARK H PARENT 90 50 56 61
REMARK Flexibility Score: inf
ROOT
ATOM      1  C   UNL A   1      36.480  29.663  28.656  1.00  0.00     0.188 C 
ENDROOT
BRANCH   1   2
ATOM      2  O   UNL A   1      37.898  29.474  28.620  1.00  0.00    -0.377 OA
BRANCH   2   3
ATOM      3  C   UNL A   1      38.457  28.168  28.495  1.00  0.00     0.188 C 
BRANCH   3   4
ATOM      4  C   UNL A   1      39.902  28.053  27.842  1.00  0.00     0.188 C 
BRANCH   4   5
ATOM      5  O   UNL A   1      40.306  26.867  27.097  1.00  0.00    -0.376 OA
BRANCH   5   6
ATOM      6  C   UNL A   1      39.775  25.501  27.333  1.00  0.00     0.202 C 
BRANCH   6   7
ATOM      7  C   UNL A   1      38.621  24.600  26.325  1.00  0.00     0.261 C 
BRANCH   7   8
ATOM      8  O   UNL A   1      37.251  23.633  26.957  1.00  0.00    -0.463 OA
BRANCH   8   9
ATOM      9  C   UNL A   1      35.264  23.566  26.797  1.00  0.00     0.310 C 
ATOM     10  O   UNL A   1      34.432  22.880  27.462  1.00  0.00    -0.252 OA
BRANCH   9  11
ATOM     11  C   UNL A   1      34.501  24.352  25.625  1.00  0.00     0.119 C 
BRANCH  11  12
ATOM     12  C   UNL A   1      33.170  24.701  26.142  1.00  0.00     0.144 C 
BRANCH  12  13
ATOM     13  N   UNL A   1      32.963  25.662  25.149  1.00  0.00    -0.274 N 
ATOM     14  C   UNL A   1      29.246  26.783  23.588  1.00  0.00     0.051 C 
ATOM     15  C   UNL A   1      30.343  27.080  24.634  1.00  0.00     0.023 C 
ATOM     16  C   UNL A   1      31.413  28.278  25.357  1.00  0.00     0.023 C 
ATOM     17  C   UNL A   1      31.319  25.338  24.461  1.00  0.00     0.256 C 
ATOM     18  C   UNL A   1      31.815  29.719  25.628  1.00  0.00     0.051 C 
ATOM     19  C   UNL A   1      33.193  27.380  25.733  1.00  0.00     0.256 C 
ATOM     20  O   UNL A   1      30.796  24.244  24.316  1.00  0.00    -0.269 OA
ATOM     21  O   UNL A   1      34.024  27.773  26.536  1.00  0.00    -0.269 OA
ENDBRANCH  12  13
ENDBRANCH  11  12
BRANCH  11  22
ATOM     22  C   UNL A   1      34.735  23.475  24.362  1.00  0.00     0.020 C 
BRANCH  22  23
ATOM     23  C   UNL A   1      35.965  22.574  24.308  1.00  0.00    -0.017 C 
ATOM     24  C   UNL A   1      35.576  21.107  24.466  1.00  0.00     0.007 C 
ATOM     25  C   UNL A   1      36.679  22.777  22.962  1.00  0.00     0.007 C 
ENDBRANCH  22  23
ENDBRANCH  11  22
ENDBRANCH   9  11
ENDBRANCH   8   9
ENDBRANCH   7   8
ENDBRANCH   6   7
ENDBRANCH   5   6
ENDBRANCH   4   5
ENDBRANCH   3   4
ENDBRANCH   2   3
ENDBRANCH   1   2
BRANCH   1  26
ATOM     26  C   UNL A   1      35.867  30.575  27.589  1.00  0.00     0.188 C 
BRANCH  26  27
ATOM     27  O   UNL A   1      35.959  31.974  27.859  1.00  0.00    -0.376 OA
BRANCH  27  28
ATOM     28  C   UNL A   1      34.729  32.671  28.029  1.00  0.00     0.202 C 
BRANCH  28  29
ATOM     29  C   UNL A   1      34.277  32.983  29.466  1.00  0.00     0.261 C 
BRANCH  29  30
ATOM     30  O   UNL A   1      34.891  32.195  30.500  1.00  0.00    -0.460 OA
BRANCH  30  31
ATOM     31  C   UNL A   1      34.793  32.740  31.743  1.00  0.00     0.338 C 
ATOM     32  O   UNL A   1      33.778  32.853  32.410  1.00  0.00    -0.246 OA
BRANCH  31  33
ATOM     33  C   UNL A   1      36.126  33.095  32.277  1.00  0.00     0.060 A 
ATOM     34  C   UNL A   1      36.789  34.199  31.722  1.00  0.00     0.016 A 
ATOM     35  C   UNL A   1      36.776  32.277  33.203  1.00  0.00     0.016 A 
ATOM     36  C   UNL A   1      38.124  34.452  32.044  1.00  0.00     0.010 A 
ATOM     37  C   UNL A   1      38.119  32.523  33.514  1.00  0.00     0.010 A 
ATOM     38  C   UNL A   1      38.812  33.583  32.900  1.00  0.00    -0.014 A 
BRANCH  38  39
ATOM     39  C   UNL A   1      40.295  33.641  32.978  1.00  0.00     0.031 A 
ATOM     40  C   UNL A   1      41.094  32.819  32.001  1.00  0.00     0.074 A 
ATOM     41  C   UNL A   1      40.925  34.402  33.890  1.00  0.00     0.049 A 
ATOM     42  N   UNL A   1      42.387  32.638  31.925  1.00  0.00    -0.248 NA
ATOM     43  C   UNL A   1      40.323  32.101  30.972  1.00  0.00     0.031 C 
ATOM     44  C   UNL A   1      40.270  35.271  34.865  1.00  0.00     0.029 A 
ATOM     45  N   UNL A   1      42.266  34.549  34.153  1.00  0.00    -0.354 N 
ATOM     46  C   UNL A   1      42.585  31.782  30.847  1.00  0.00     0.074 A 
ATOM     47  C   UNL A   1      41.277  31.458  30.318  1.00  0.00     0.031 C 
ATOM     48  C   UNL A   1      41.211  35.838  35.641  1.00  0.00     0.029 A 
ATOM     49  C   UNL A   1      42.529  35.349  35.238  1.00  0.00     0.049 A 
ATOM     50  H   UNL A   1      42.970  34.121  33.615  1.00  0.00     0.167 HD
ATOM     51  C   UNL A   1      43.750  31.309  30.341  1.00  0.00     0.037 A 
ATOM     52  C   UNL A   1      43.696  35.627  35.856  1.00  0.00     0.037 A 
ATOM     53  C   UNL A   1      45.047  31.617  30.880  1.00  0.00     0.049 A 
ATOM     54  C   UNL A   1      44.978  35.043  35.318  1.00  0.00     0.074 A 
ATOM     55  C   UNL A   1      46.287  31.186  30.444  1.00  0.00     0.029 A 
ATOM     56  N   UNL A   1      45.272  32.427  31.984  1.00  0.00    -0.354 N 
ATOM     57  N   UNL A   1      45.154  34.243  34.292  1.00  0.00    -0.248 NA
ATOM     58  C   UNL A   1      46.220  35.400  36.019  1.00  0.00     0.031 C 
ATOM     59  C   UNL A   1      47.259  31.701  31.311  1.00  0.00     0.029 A 
ATOM     60  C   UNL A   1      46.628  32.493  32.257  1.00  0.00     0.049 A 
ATOM     61  H   UNL A   1      44.569  32.887  32.499  1.00  0.00     0.167 HD
ATOM     62  C   UNL A   1      46.526  34.017  34.213  1.00  0.00     0.074 A 
ATOM     63  C   UNL A   1      47.134  34.774  35.288  1.00  0.00     0.031 C 
ATOM     64  C   UNL A   1      47.219  33.254  33.332  1.00  0.00     0.037 A 
BRANCH  51  65
ATOM     65  C   UNL A   1      43.655  30.379  29.162  1.00  0.00     0.058 A 
ATOM     66  C   UNL A   1      43.593  28.985  29.324  1.00  0.00     0.135 A 
ATOM     67  C   UNL A   1      43.648  30.886  27.852  1.00  0.00     0.135 A 
ATOM     68  F   UNL A   1      43.615  28.445  30.553  1.00  0.00    -0.206 F 
ATOM     69  C   UNL A   1      43.570  28.126  28.230  1.00  0.00     0.059 A 
ATOM     70  C   UNL A   1      43.597  30.046  26.744  1.00  0.00     0.059 A 
ATOM     71  F   UNL A   1      43.707  32.210  27.639  1.00  0.00    -0.206 F 
ATOM     72  C   UNL A   1      43.581  28.666  26.944  1.00  0.00     0.060 A 
BRANCH  72  73
ATOM     73  S   UNL A   1      43.587  27.540  25.532  1.00  0.00     0.124 S 
ATOM     74  O   UNL A   1      43.407  26.249  26.190  1.00  0.00    -0.237 OA
ATOM     75  O   UNL A   1      42.452  28.014  24.748  1.00  0.00    -0.237 OA
ATOM     76  O   UNL A   1      44.897  27.759  24.928  1.00  0.00    -0.744 OA
ENDBRANCH  72  73
ENDBRANCH  51  65
BRANCH  52  77
ATOM     77  C   UNL A   1      43.698  36.483  37.072  1.00  0.00     0.058 A 
ATOM     78  C   UNL A   1      43.515  35.938  38.350  1.00  0.00     0.135 A 
ATOM     79  C   UNL A   1      43.907  37.869  36.977  1.00  0.00     0.135 A 
ATOM     80  F   UNL A   1      43.294  34.622  38.493  1.00  0.00    -0.206 F 
ATOM     81  C   UNL A   1      43.543  36.732  39.493  1.00  0.00     0.059 A 
ATOM     82  C   UNL A   1      43.962  38.681  38.106  1.00  0.00     0.059 A 
ATOM     83  F   UNL A   1      44.089  38.440  35.776  1.00  0.00    -0.206 F 
ATOM     84  C   UNL A   1      43.777  38.102  39.361  1.00  0.00     0.060 A 
BRANCH  84  85
ATOM     85  S   UNL A   1      43.895  39.111  40.856  1.00  0.00     0.124 S 
ATOM     86  O   UNL A   1      45.065  39.933  40.565  1.00  0.00    -0.237 OA
ATOM     87  O   UNL A   1      42.612  39.805  40.858  1.00  0.00    -0.237 OA
ATOM     88  O   UNL A   1      44.065  38.122  41.916  1.00  0.00    -0.744 OA
ENDBRANCH  84  85
ENDBRANCH  52  77
BRANCH  64  89
ATOM     89  C   UNL A   1      48.717  33.216  33.467  1.00  0.00     0.058 A 
ATOM     90  C   UNL A   1      49.365  32.234  34.231  1.00  0.00     0.135 A 
ATOM     91  C   UNL A   1      49.516  34.137  32.770  1.00  0.00     0.135 A 
ATOM     92  F   UNL A   1      48.648  31.332  34.920  1.00  0.00    -0.206 F 
ATOM     93  C   UNL A   1      50.753  32.176  34.316  1.00  0.00     0.059 A 
ATOM     94  C   UNL A   1      50.907  34.084  32.820  1.00  0.00     0.059 A 
ATOM     95  F   UNL A   1      48.949  35.090  32.014  1.00  0.00    -0.206 F 
ATOM     96  C   UNL A   1      51.516  33.106  33.604  1.00  0.00     0.060 A 
BRANCH  96  97
ATOM     97  S   UNL A   1      53.317  33.000  33.692  1.00  0.00     0.124 S 
ATOM     98  O   UNL A   1      53.712  33.736  32.495  1.00  0.00    -0.237 OA
ATOM     99  O   UNL A   1      53.609  33.654  34.963  1.00  0.00    -0.237 OA
ATOM    100  O   UNL A   1      53.575  31.564  33.658  1.00  0.00    -0.744 OA
ENDBRANCH  96  97
ENDBRANCH  64  89
ENDBRANCH  38  39
ENDBRANCH  31  33
ENDBRANCH  30  31
ENDBRANCH  29  30
ENDBRANCH  28  29
ENDBRANCH  27  28
ENDBRANCH  26  27
ENDBRANCH   1  26
TORSDOF 27
ENDMDL
