MODEL 1
REMARK VINA RESULT:      -9.9      0.000      0.000
REMARK SMILES Cc1nc(CNC(=O)[C@H]2CCO[C@H]2C)sc1C(=O)OCCOCCOCCOCCOC(=O)c1ccc(-c2c3nc(c(-c4c(F)cc(S(=O)(=O)[O-])cc4F)c4ccc([nH]4)c(-c4c(F)cc(S(=O)(=O)[O-])cc4F)c4nc(c(-c5c(F)cc(S(=O)(=O)[O-])cc5F)c5ccc2[nH]5)C=C4)C=C3)cc1
REMARK SMILES IDX 25 1 24 2 23 3 22 4 21 5 20 6 19 7 17 8 18 9 16 10 1 11 2 12
REMARK SMILES IDX 3 13 4 14 15 15 5 16 6 17 7 18 8 20 9 21 10 22 13 23 11 24
REMARK SMILES IDX 12 25 14 26 26 27 27 28 28 29 29 30 30 31 31 32 32 33 33 34
REMARK SMILES IDX 34 35 35 36 99 37 36 38 98 39 37 40 38 41 39 42 92 43 40 44
REMARK SMILES IDX 97 45 91 46 93 47 41 48 96 49 90 50 89 51 42 53 76 54 55 55
REMARK SMILES IDX 75 56 56 57 59 58 74 59 94 60 57 61 58 62 73 64 95 65 60 66
REMARK SMILES IDX 43 67 44 68 53 69 45 70 46 71 52 72 54 73 47 74 48 75 49 76
REMARK SMILES IDX 50 77 51 78 77 79 78 80 87 81 79 82 80 83 86 84 88 85 81 86
REMARK SMILES IDX 82 87 83 88 84 89 85 90 61 91 62 92 71 93 63 94 64 95 70 96
REMARK SMILES IDX 72 97 65 98 66 99 67 100 68 101 69 102
REMARK H PARENT 6 19 93 52 59 63
REMARK Flexibility Score: inf
ROOT
ATOM      1  O   UNL A   1      33.061  30.010  27.261  1.00  0.00    -0.377 OA
ENDROOT
BRANCH   1   2
ATOM      2  C   UNL A   1      32.213  29.190  26.474  1.00  0.00     0.188 C 
BRANCH   2   3
ATOM      3  C   UNL A   1      32.449  29.349  24.964  1.00  0.00     0.188 C 
BRANCH   3   4
ATOM      4  O   UNL A   1      31.381  29.203  24.046  1.00  0.00    -0.376 OA
BRANCH   4   5
ATOM      5  C   UNL A   1      30.612  28.014  23.939  1.00  0.00     0.202 C 
BRANCH   5   6
ATOM      6  C   UNL A   1      31.177  26.609  23.640  1.00  0.00     0.261 C 
BRANCH   6   7
ATOM      7  O   UNL A   1      30.547  25.500  24.275  1.00  0.00    -0.459 OA
BRANCH   7   8
ATOM      8  C   UNL A   1      30.829  25.280  25.582  1.00  0.00     0.350 C 
ATOM      9  O   UNL A   1      30.206  25.767  26.519  1.00  0.00    -0.245 OA
BRANCH   8  10
ATOM     10  C   UNL A   1      31.854  24.262  25.674  1.00  0.00     0.135 A 
ATOM     11  C   UNL A   1      34.116  25.538  25.585  1.00  0.00     0.068 C 
ATOM     12  C   UNL A   1      33.241  24.329  25.618  1.00  0.00     0.063 A 
ATOM     13  N   UNL A   1      33.874  23.091  25.562  1.00  0.00    -0.244 NA
ATOM     14  C   UNL A   1      32.993  22.116  25.596  1.00  0.00     0.113 A 
ATOM     15  S   UNL A   1      31.362  22.619  25.779  1.00  0.00    -0.110 S 
BRANCH  14  16
ATOM     16  C   UNL A   1      33.293  20.649  25.513  1.00  0.00     0.183 C 
BRANCH  16  17
ATOM     17  N   UNL A   1      32.729  20.053  24.316  1.00  0.00    -0.349 N 
ATOM     18  C   UNL A   1      32.572  18.737  24.000  1.00  0.00     0.226 C 
ATOM     19  H   UNL A   1      32.417  20.690  23.634  1.00  0.00     0.163 HD
ATOM     20  O   UNL A   1      31.952  18.448  22.977  1.00  0.00    -0.275 OA
BRANCH  18  21
ATOM     21  C   UNL A   1      33.143  17.687  24.928  1.00  0.00     0.109 C 
ATOM     22  C   UNL A   1      32.223  16.512  25.192  1.00  0.00     0.044 C 
ATOM     23  C   UNL A   1      34.390  16.990  24.393  1.00  0.00     0.127 C 
ATOM     24  C   UNL A   1      33.191  15.472  25.712  1.00  0.00     0.161 C 
ATOM     25  O   UNL A   1      34.468  15.744  25.119  1.00  0.00    -0.378 OA
ATOM     26  C   UNL A   1      34.371  16.652  22.904  1.00  0.00     0.039 C 
ENDBRANCH  18  21
ENDBRANCH  16  17
ENDBRANCH  14  16
ENDBRANCH   8  10
ENDBRANCH   7   8
ENDBRANCH   6   7
ENDBRANCH   5   6
ENDBRANCH   4   5
ENDBRANCH   3   4
ENDBRANCH   2   3
ENDBRANCH   1   2
BRANCH   1  27
ATOM     27  C   UNL A   1      32.814  31.407  27.136  1.00  0.00     0.188 C 
BRANCH  27  28
ATOM     28  C   UNL A   1      33.531  32.291  28.168  1.00  0.00     0.188 C 
BRANCH  28  29
ATOM     29  O   UNL A   1      34.645  32.997  27.611  1.00  0.00    -0.376 OA
BRANCH  29  30
ATOM     30  C   UNL A   1      35.932  32.456  27.906  1.00  0.00     0.202 C 
BRANCH  30  31
ATOM     31  C   UNL A   1      36.838  33.408  28.700  1.00  0.00     0.261 C 
BRANCH  31  32
ATOM     32  O   UNL A   1      37.040  33.041  30.073  1.00  0.00    -0.460 OA
BRANCH  32  33
ATOM     33  C   UNL A   1      36.810  31.751  30.402  1.00  0.00     0.338 C 
ATOM     34  O   UNL A   1      35.755  31.265  30.766  1.00  0.00    -0.246 OA
BRANCH  33  35
ATOM     35  C   UNL A   1      38.016  30.971  30.065  1.00  0.00     0.060 A 
ATOM     36  C   UNL A   1      39.038  30.877  31.017  1.00  0.00     0.016 A 
ATOM     37  C   UNL A   1      38.145  30.356  28.816  1.00  0.00     0.016 A 
ATOM     38  C   UNL A   1      40.218  30.202  30.704  1.00  0.00     0.010 A 
ATOM     39  C   UNL A   1      39.333  29.693  28.499  1.00  0.00     0.010 A 
ATOM     40  C   UNL A   1      40.386  29.645  29.429  1.00  0.00    -0.014 A 
BRANCH  40  41
ATOM     41  C   UNL A   1      41.725  29.182  28.996  1.00  0.00     0.031 A 
ATOM     42  C   UNL A   1      42.842  30.188  28.936  1.00  0.00     0.074 A 
ATOM     43  C   UNL A   1      41.944  27.899  28.659  1.00  0.00     0.049 A 
ATOM     44  N   UNL A   1      44.081  30.030  28.551  1.00  0.00    -0.248 NA
ATOM     45  C   UNL A   1      42.514  31.556  29.368  1.00  0.00     0.031 C 
ATOM     46  C   UNL A   1      40.948  26.831  28.695  1.00  0.00     0.029 A 
ATOM     47  N   UNL A   1      43.084  27.284  28.205  1.00  0.00    -0.354 N 
ATOM     48  C   UNL A   1      44.680  31.274  28.696  1.00  0.00     0.074 A 
ATOM     49  C   UNL A   1      43.664  32.185  29.176  1.00  0.00     0.031 C 
ATOM     50  C   UNL A   1      41.516  25.691  28.263  1.00  0.00     0.029 A 
ATOM     51  C   UNL A   1      42.908  25.956  27.900  1.00  0.00     0.049 A 
ATOM     52  H   UNL A   1      43.945  27.749  28.107  1.00  0.00     0.167 HD
ATOM     53  C   UNL A   1      45.966  31.627  28.459  1.00  0.00     0.037 A 
ATOM     54  C   UNL A   1      43.769  25.063  27.370  1.00  0.00     0.037 A 
ATOM     55  C   UNL A   1      46.972  30.726  27.968  1.00  0.00     0.049 A 
ATOM     56  C   UNL A   1      45.180  25.492  27.057  1.00  0.00     0.074 A 
ATOM     57  C   UNL A   1      48.305  30.983  27.702  1.00  0.00     0.029 A 
ATOM     58  N   UNL A   1      46.753  29.391  27.660  1.00  0.00    -0.354 N 
ATOM     59  N   UNL A   1      45.743  26.665  27.228  1.00  0.00    -0.248 NA
ATOM     60  C   UNL A   1      46.074  24.476  26.483  1.00  0.00     0.031 C 
ATOM     61  C   UNL A   1      48.884  29.813  27.197  1.00  0.00     0.029 A 
ATOM     62  C   UNL A   1      47.921  28.817  27.188  1.00  0.00     0.049 A 
ATOM     63  H   UNL A   1      45.894  28.922  27.761  1.00  0.00     0.167 HD
ATOM     64  C   UNL A   1      47.061  26.521  26.805  1.00  0.00     0.074 A 
ATOM     65  C   UNL A   1      47.214  25.145  26.378  1.00  0.00     0.031 C 
ATOM     66  C   UNL A   1      48.055  27.442  26.775  1.00  0.00     0.037 A 
BRANCH  53  67
ATOM     67  C   UNL A   1      46.344  33.057  28.714  1.00  0.00     0.058 A 
ATOM     68  C   UNL A   1      46.021  34.074  27.801  1.00  0.00     0.135 A 
ATOM     69  C   UNL A   1      47.025  33.418  29.886  1.00  0.00     0.135 A 
ATOM     70  F   UNL A   1      45.390  33.777  26.654  1.00  0.00    -0.206 F 
ATOM     71  C   UNL A   1      46.385  35.397  28.030  1.00  0.00     0.059 A 
ATOM     72  C   UNL A   1      47.380  34.738  30.147  1.00  0.00     0.059 A 
ATOM     73  F   UNL A   1      47.364  32.482  30.788  1.00  0.00    -0.206 F 
ATOM     74  C   UNL A   1      47.067  35.719  29.205  1.00  0.00     0.060 A 
BRANCH  74  75
ATOM     75  S   UNL A   1      47.537  37.438  29.487  1.00  0.00     0.124 S 
ATOM     76  O   UNL A   1      48.493  37.301  30.581  1.00  0.00    -0.237 OA
ATOM     77  O   UNL A   1      48.102  37.825  28.197  1.00  0.00    -0.237 OA
ATOM     78  O   UNL A   1      46.274  38.083  29.833  1.00  0.00    -0.744 OA
ENDBRANCH  74  75
ENDBRANCH  53  67
BRANCH  54  79
ATOM     79  C   UNL A   1      43.322  23.674  27.092  1.00  0.00     0.058 A 
ATOM     80  C   UNL A   1      43.335  22.694  28.095  1.00  0.00     0.135 A 
ATOM     81  C   UNL A   1      42.875  23.299  25.816  1.00  0.00     0.135 A 
ATOM     82  F   UNL A   1      43.765  23.002  29.328  1.00  0.00    -0.206 F 
ATOM     83  C   UNL A   1      42.932  21.387  27.841  1.00  0.00     0.059 A 
ATOM     84  C   UNL A   1      42.447  22.003  25.542  1.00  0.00     0.059 A 
ATOM     85  F   UNL A   1      42.836  24.202  24.824  1.00  0.00    -0.206 F 
ATOM     86  C   UNL A   1      42.488  21.051  26.561  1.00  0.00     0.060 A 
BRANCH  86  87
ATOM     87  S   UNL A   1      41.918  19.366  26.252  1.00  0.00     0.124 S 
ATOM     88  O   UNL A   1      42.294  18.697  27.492  1.00  0.00    -0.237 OA
ATOM     89  O   UNL A   1      40.486  19.560  26.039  1.00  0.00    -0.237 OA
ATOM     90  O   UNL A   1      42.670  18.971  25.066  1.00  0.00    -0.744 OA
ENDBRANCH  86  87
ENDBRANCH  54  79
BRANCH  66  91
ATOM     91  C   UNL A   1      49.406  26.991  26.296  1.00  0.00     0.058 A 
ATOM     92  C   UNL A   1      50.302  26.320  27.142  1.00  0.00     0.135 A 
ATOM     93  C   UNL A   1      49.783  27.177  24.956  1.00  0.00     0.135 A 
ATOM     94  F   UNL A   1      49.991  26.120  28.433  1.00  0.00    -0.206 F 
ATOM     95  C   UNL A   1      51.533  25.864  26.681  1.00  0.00     0.059 A 
ATOM     96  C   UNL A   1      50.999  26.710  24.468  1.00  0.00     0.059 A 
ATOM     97  F   UNL A   1      48.957  27.804  24.102  1.00  0.00    -0.206 F 
ATOM     98  C   UNL A   1      51.872  26.061  25.341  1.00  0.00     0.060 A 
BRANCH  98  99
ATOM     99  S   UNL A   1      53.455  25.432  24.742  1.00  0.00     0.124 S 
ATOM    100  O   UNL A   1      54.393  26.367  25.353  1.00  0.00    -0.237 OA
ATOM    101  O   UNL A   1      53.475  24.073  25.277  1.00  0.00    -0.237 OA
ATOM    102  O   UNL A   1      53.328  25.525  23.291  1.00  0.00    -0.744 OA
ENDBRANCH  98  99
ENDBRANCH  66  91
ENDBRANCH  40  41
ENDBRANCH  33  35
ENDBRANCH  32  33
ENDBRANCH  31  32
ENDBRANCH  30  31
ENDBRANCH  29  30
ENDBRANCH  28  29
ENDBRANCH  27  28
ENDBRANCH   1  27
TORSDOF 26
ENDMDL
MODEL 2
REMARK VINA RESULT:      -9.8      0.559      7.978
REMARK SMILES Cc1nc(CNC(=O)[C@H]2CCO[C@H]2C)sc1C(=O)OCCOCCOCCOCCOC(=O)c1ccc(-c2c3nc(c(-c4c(F)cc(S(=O)(=O)[O-])cc4F)c4ccc([nH]4)c(-c4c(F)cc(S(=O)(=O)[O-])cc4F)c4nc(c(-c5c(F)cc(S(=O)(=O)[O-])cc5F)c5ccc2[nH]5)C=C4)C=C3)cc1
REMARK SMILES IDX 25 1 24 2 23 3 22 4 21 5 20 6 19 7 17 8 18 9 16 10 1 11 2 12
REMARK SMILES IDX 3 13 4 14 15 15 5 16 6 17 7 18 8 20 9 21 10 22 13 23 11 24
REMARK SMILES IDX 12 25 14 26 26 27 27 28 28 29 29 30 30 31 31 32 32 33 33 34
REMARK SMILES IDX 34 35 35 36 99 37 36 38 98 39 37 40 38 41 39 42 92 43 40 44
REMARK SMILES IDX 97 45 91 46 93 47 41 48 96 49 90 50 89 51 42 53 76 54 55 55
REMARK SMILES IDX 75 56 56 57 59 58 74 59 94 60 57 61 58 62 73 64 95 65 60 66
REMARK SMILES IDX 43 67 44 68 53 69 45 70 46 71 52 72 54 73 47 74 48 75 49 76
REMARK SMILES IDX 50 77 51 78 77 79 78 80 87 81 79 82 80 83 86 84 88 85 81 86
REMARK SMILES IDX 82 87 83 88 84 89 85 90 61 91 62 92 71 93 63 94 64 95 70 96
REMARK SMILES IDX 72 97 65 98 66 99 67 100 68 101 69 102
REMARK H PARENT 6 19 93 52 59 63
REMARK Flexibility Score: inf
ROOT
ATOM      1  O   UNL A   1      33.013  29.634  27.074  1.00  0.00    -0.377 OA
ENDROOT
BRANCH   1   2
ATOM      2  C   UNL A   1      32.081  28.926  26.274  1.00  0.00     0.188 C 
BRANCH   2   3
ATOM      3  C   UNL A   1      32.231  29.214  24.772  1.00  0.00     0.188 C 
BRANCH   3   4
ATOM      4  O   UNL A   1      31.120  29.105  23.901  1.00  0.00    -0.376 OA
BRANCH   4   5
ATOM      5  C   UNL A   1      30.341  27.922  23.787  1.00  0.00     0.202 C 
BRANCH   5   6
ATOM      6  C   UNL A   1      30.902  26.506  23.541  1.00  0.00     0.261 C 
BRANCH   6   7
ATOM      7  O   UNL A   1      30.340  25.438  24.299  1.00  0.00    -0.459 OA
BRANCH   7   8
ATOM      8  C   UNL A   1      30.728  25.312  25.592  1.00  0.00     0.350 C 
ATOM      9  O   UNL A   1      30.163  25.844  26.542  1.00  0.00    -0.245 OA
BRANCH   8  10
ATOM     10  C   UNL A   1      31.788  24.330  25.668  1.00  0.00     0.135 A 
ATOM     11  C   UNL A   1      34.003  25.689  25.622  1.00  0.00     0.068 C 
ATOM     12  C   UNL A   1      33.172  24.449  25.623  1.00  0.00     0.063 A 
ATOM     13  N   UNL A   1      33.850  23.235  25.544  1.00  0.00    -0.244 NA
ATOM     14  C   UNL A   1      33.004  22.229  25.550  1.00  0.00     0.113 A 
ATOM     15  S   UNL A   1      31.356  22.668  25.733  1.00  0.00    -0.110 S 
BRANCH  14  16
ATOM     16  C   UNL A   1      33.358  20.776  25.437  1.00  0.00     0.183 C 
BRANCH  16  17
ATOM     17  N   UNL A   1      32.818  20.185  24.226  1.00  0.00    -0.349 N 
ATOM     18  C   UNL A   1      32.651  18.871  23.908  1.00  0.00     0.226 C 
ATOM     19  H   UNL A   1      32.533  20.825  23.535  1.00  0.00     0.163 HD
ATOM     20  O   UNL A   1      32.054  18.588  22.870  1.00  0.00    -0.275 OA
BRANCH  18  21
ATOM     21  C   UNL A   1      33.182  17.815  24.853  1.00  0.00     0.109 C 
ATOM     22  C   UNL A   1      32.211  16.691  25.153  1.00  0.00     0.044 C 
ATOM     23  C   UNL A   1      34.388  17.047  24.319  1.00  0.00     0.127 C 
ATOM     24  C   UNL A   1      33.135  15.618  25.686  1.00  0.00     0.161 C 
ATOM     25  O   UNL A   1      34.416  15.815  25.072  1.00  0.00    -0.378 OA
ATOM     26  C   UNL A   1      34.334  16.678  22.839  1.00  0.00     0.039 C 
ENDBRANCH  18  21
ENDBRANCH  16  17
ENDBRANCH  14  16
ENDBRANCH   8  10
ENDBRANCH   7   8
ENDBRANCH   6   7
ENDBRANCH   5   6
ENDBRANCH   4   5
ENDBRANCH   3   4
ENDBRANCH   2   3
ENDBRANCH   1   2
BRANCH   1  27
ATOM     27  C   UNL A   1      32.892  31.052  27.008  1.00  0.00     0.188 C 
BRANCH  27  28
ATOM     28  C   UNL A   1      33.644  31.822  28.105  1.00  0.00     0.188 C 
BRANCH  28  29
ATOM     29  O   UNL A   1      34.677  32.663  27.579  1.00  0.00    -0.376 OA
BRANCH  29  30
ATOM     30  C   UNL A   1      36.012  32.193  27.762  1.00  0.00     0.202 C 
BRANCH  30  31
ATOM     31  C   UNL A   1      36.885  33.125  28.615  1.00  0.00     0.261 C 
BRANCH  31  32
ATOM     32  O   UNL A   1      37.122  32.668  29.956  1.00  0.00    -0.460 OA
BRANCH  32  33
ATOM     33  C   UNL A   1      37.001  31.342  30.181  1.00  0.00     0.338 C 
ATOM     34  O   UNL A   1      35.982  30.735  30.458  1.00  0.00    -0.246 OA
BRANCH  33  35
ATOM     35  C   UNL A   1      38.288  30.703  29.847  1.00  0.00     0.060 A 
ATOM     36  C   UNL A   1      39.355  30.842  30.743  1.00  0.00     0.016 A 
ATOM     37  C   UNL A   1      38.446  29.989  28.655  1.00  0.00     0.016 A 
ATOM     38  C   UNL A   1      40.602  30.305  30.425  1.00  0.00     0.010 A 
ATOM     39  C   UNL A   1      39.699  29.466  28.332  1.00  0.00     0.010 A 
ATOM     40  C   UNL A   1      40.790  29.652  29.199  1.00  0.00    -0.014 A 
BRANCH  40  41
ATOM     41  C   UNL A   1      42.159  29.334  28.733  1.00  0.00     0.031 A 
ATOM     42  C   UNL A   1      42.462  27.920  28.318  1.00  0.00     0.074 A 
ATOM     43  C   UNL A   1      43.115  30.278  28.683  1.00  0.00     0.049 A 
ATOM     44  N   UNL A   1      43.590  27.397  27.918  1.00  0.00    -0.248 NA
ATOM     45  C   UNL A   1      41.338  26.970  28.365  1.00  0.00     0.031 C 
ATOM     46  C   UNL A   1      42.938  31.684  29.040  1.00  0.00     0.029 A 
ATOM     47  N   UNL A   1      44.436  30.185  28.321  1.00  0.00    -0.354 N 
ATOM     48  C   UNL A   1      43.313  26.059  27.662  1.00  0.00     0.074 A 
ATOM     49  C   UNL A   1      41.919  25.844  27.981  1.00  0.00     0.031 C 
ATOM     50  C   UNL A   1      44.114  32.321  28.895  1.00  0.00     0.029 A 
ATOM     51  C   UNL A   1      45.128  31.364  28.458  1.00  0.00     0.049 A 
ATOM     52  H   UNL A   1      44.848  29.353  27.995  1.00  0.00     0.167 HD
ATOM     53  C   UNL A   1      44.144  25.098  27.194  1.00  0.00     0.037 A 
ATOM     54  C   UNL A   1      46.437  31.631  28.270  1.00  0.00     0.037 A 
ATOM     55  C   UNL A   1      45.533  25.309  26.893  1.00  0.00     0.049 A 
ATOM     56  C   UNL A   1      47.358  30.530  27.807  1.00  0.00     0.074 A 
ATOM     57  C   UNL A   1      46.458  24.401  26.408  1.00  0.00     0.029 A 
ATOM     58  N   UNL A   1      46.201  26.513  27.055  1.00  0.00    -0.354 N 
ATOM     59  N   UNL A   1      47.077  29.276  27.539  1.00  0.00    -0.248 NA
ATOM     60  C   UNL A   1      48.773  30.881  27.617  1.00  0.00     0.031 C 
ATOM     61  C   UNL A   1      47.695  25.047  26.313  1.00  0.00     0.029 A 
ATOM     62  C   UNL A   1      47.531  26.368  26.699  1.00  0.00     0.049 A 
ATOM     63  H   UNL A   1      45.791  27.348  27.377  1.00  0.00     0.167 HD
ATOM     64  C   UNL A   1      48.272  28.697  27.127  1.00  0.00     0.074 A 
ATOM     65  C   UNL A   1      49.278  29.738  27.174  1.00  0.00     0.031 C 
ATOM     66  C   UNL A   1      48.516  27.420  26.743  1.00  0.00     0.037 A 
BRANCH  53  67
ATOM     67  C   UNL A   1      43.566  23.726  27.002  1.00  0.00     0.058 A 
ATOM     68  C   UNL A   1      43.284  22.890  28.094  1.00  0.00     0.135 A 
ATOM     69  C   UNL A   1      43.281  23.244  25.715  1.00  0.00     0.135 A 
ATOM     70  F   UNL A   1      43.559  23.295  29.345  1.00  0.00    -0.206 F 
ATOM     71  C   UNL A   1      42.763  21.613  27.915  1.00  0.00     0.059 A 
ATOM     72  C   UNL A   1      42.739  21.979  25.514  1.00  0.00     0.059 A 
ATOM     73  F   UNL A   1      43.539  24.002  24.637  1.00  0.00    -0.206 F 
ATOM     74  C   UNL A   1      42.496  21.165  26.621  1.00  0.00     0.060 A 
BRANCH  74  75
ATOM     75  S   UNL A   1      41.826  19.504  26.402  1.00  0.00     0.124 S 
ATOM     76  O   UNL A   1      42.439  19.107  25.139  1.00  0.00    -0.237 OA
ATOM     77  O   UNL A   1      42.314  18.809  27.589  1.00  0.00    -0.237 OA
ATOM     78  O   UNL A   1      40.383  19.723  26.358  1.00  0.00    -0.744 OA
ENDBRANCH  74  75
ENDBRANCH  53  67
BRANCH  54  79
ATOM     79  C   UNL A   1      46.961  32.997  28.527  1.00  0.00     0.058 A 
ATOM     80  C   UNL A   1      47.056  33.942  27.495  1.00  0.00     0.135 A 
ATOM     81  C   UNL A   1      47.379  33.384  29.809  1.00  0.00     0.135 A 
ATOM     82  F   UNL A   1      46.679  33.615  26.249  1.00  0.00    -0.206 F 
ATOM     83  C   UNL A   1      47.559  35.219  27.722  1.00  0.00     0.059 A 
ATOM     84  C   UNL A   1      47.867  34.661  30.066  1.00  0.00     0.059 A 
ATOM     85  F   UNL A   1      47.301  32.518  30.831  1.00  0.00    -0.206 F 
ATOM     86  C   UNL A   1      47.961  35.570  29.011  1.00  0.00     0.060 A 
BRANCH  86  87
ATOM     87  S   UNL A   1      48.563  37.246  29.309  1.00  0.00     0.124 S 
ATOM     88  O   UNL A   1      47.335  37.937  29.685  1.00  0.00    -0.237 OA
ATOM     89  O   UNL A   1      49.534  37.039  30.380  1.00  0.00    -0.237 OA
ATOM     90  O   UNL A   1      49.136  37.628  28.022  1.00  0.00    -0.744 OA
ENDBRANCH  86  87
ENDBRANCH  54  79
BRANCH  66  91
ATOM     91  C   UNL A   1      49.914  27.079  26.311  1.00  0.00     0.058 A 
ATOM     92  C   UNL A   1      50.902  26.709  27.237  1.00  0.00     0.135 A 
ATOM     93  C   UNL A   1      50.252  27.061  24.947  1.00  0.00     0.135 A 
ATOM     94  F   UNL A   1      50.632  26.714  28.551  1.00  0.00    -0.206 F 
ATOM     95  C   UNL A   1      52.182  26.350  26.827  1.00  0.00     0.059 A 
ATOM     96  C   UNL A   1      51.518  26.684  24.514  1.00  0.00     0.059 A 
ATOM     97  F   UNL A   1      49.339  27.395  24.021  1.00  0.00    -0.206 F 
ATOM     98  C   UNL A   1      52.481  26.339  25.463  1.00  0.00     0.060 A 
BRANCH  98  99
ATOM     99  S   UNL A   1      54.134  25.834  24.938  1.00  0.00     0.124 S 
ATOM    100  O   UNL A   1      53.882  24.490  24.431  1.00  0.00    -0.237 OA
ATOM    101  O   UNL A   1      54.466  26.840  23.934  1.00  0.00    -0.237 OA
ATOM    102  O   UNL A   1      54.916  25.905  26.169  1.00  0.00    -0.744 OA
ENDBRANCH  98  99
ENDBRANCH  66  91
ENDBRANCH  40  41
ENDBRANCH  33  35
ENDBRANCH  32  33
ENDBRANCH  31  32
ENDBRANCH  30  31
ENDBRANCH  29  30
ENDBRANCH  28  29
ENDBRANCH  27  28
ENDBRANCH   1  27
TORSDOF 26
ENDMDL
MODEL 3
REMARK VINA RESULT:      -8.6      8.445     13.757
REMARK SMILES Cc1nc(CNC(=O)[C@H]2CCO[C@H]2C)sc1C(=O)OCCOCCOCCOCCOC(=O)c1ccc(-c2c3nc(c(-c4c(F)cc(S(=O)(=O)[O-])cc4F)c4ccc([nH]4)c(-c4c(F)cc(S(=O)(=O)[O-])cc4F)c4nc(c(-c5c(F)cc(S(=O)(=O)[O-])cc5F)c5ccc2[nH]5)C=C4)C=C3)cc1
REMARK SMILES IDX 25 1 24 2 23 3 22 4 21 5 20 6 19 7 17 8 18 9 16 10 1 11 2 12
REMARK SMILES IDX 3 13 4 14 15 15 5 16 6 17 7 18 8 20 9 21 10 22 13 23 11 24
REMARK SMILES IDX 12 25 14 26 26 27 27 28 28 29 29 30 30 31 31 32 32 33 33 34
REMARK SMILES IDX 34 35 35 36 99 37 36 38 98 39 37 40 38 41 39 42 92 43 40 44
REMARK SMILES IDX 97 45 91 46 93 47 41 48 96 49 90 50 89 51 42 53 76 54 55 55
REMARK SMILES IDX 75 56 56 57 59 58 74 59 94 60 57 61 58 62 73 64 95 65 60 66
REMARK SMILES IDX 43 67 44 68 53 69 45 70 46 71 52 72 54 73 47 74 48 75 49 76
REMARK SMILES IDX 50 77 51 78 77 79 78 80 87 81 79 82 80 83 86 84 88 85 81 86
REMARK SMILES IDX 82 87 83 88 84 89 85 90 61 91 62 92 71 93 63 94 64 95 70 96
REMARK SMILES IDX 72 97 65 98 66 99 67 100 68 101 69 102
REMARK H PARENT 6 19 93 52 59 63
REMARK Flexibility Score: inf
ROOT
ATOM      1  O   UNL A   1      32.928  29.731  27.118  1.00  0.00    -0.377 OA
ENDROOT
BRANCH   1   2
ATOM      2  C   UNL A   1      31.857  29.206  26.351  1.00  0.00     0.188 C 
BRANCH   2   3
ATOM      3  C   UNL A   1      32.132  29.222  24.839  1.00  0.00     0.188 C 
BRANCH   3   4
ATOM      4  O   UNL A   1      31.070  29.101  23.910  1.00  0.00    -0.376 OA
BRANCH   4   5
ATOM      5  C   UNL A   1      30.291  27.920  23.778  1.00  0.00     0.202 C 
BRANCH   5   6
ATOM      6  C   UNL A   1      30.849  26.512  23.478  1.00  0.00     0.261 C 
BRANCH   6   7
ATOM      7  O   UNL A   1      30.321  25.424  24.231  1.00  0.00    -0.459 OA
BRANCH   7   8
ATOM      8  C   UNL A   1      30.696  25.314  25.529  1.00  0.00     0.350 C 
ATOM      9  O   UNL A   1      30.127  25.865  26.466  1.00  0.00    -0.245 OA
BRANCH   8  10
ATOM     10  C   UNL A   1      31.747  24.325  25.629  1.00  0.00     0.135 A 
ATOM     11  C   UNL A   1      33.973  25.666  25.604  1.00  0.00     0.068 C 
ATOM     12  C   UNL A   1      33.133  24.432  25.603  1.00  0.00     0.063 A 
ATOM     13  N   UNL A   1      33.802  23.213  25.545  1.00  0.00    -0.244 NA
ATOM     14  C   UNL A   1      32.948  22.214  25.547  1.00  0.00     0.113 A 
ATOM     15  S   UNL A   1      31.301  22.667  25.702  1.00  0.00    -0.110 S 
BRANCH  14  16
ATOM     16  C   UNL A   1      33.292  20.757  25.452  1.00  0.00     0.183 C 
BRANCH  16  17
ATOM     17  N   UNL A   1      32.797  20.168  24.221  1.00  0.00    -0.349 N 
ATOM     18  C   UNL A   1      32.663  18.855  23.886  1.00  0.00     0.226 C 
ATOM     19  H   UNL A   1      32.518  20.810  23.529  1.00  0.00     0.163 HD
ATOM     20  O   UNL A   1      32.101  18.571  22.829  1.00  0.00    -0.275 OA
BRANCH  18  21
ATOM     21  C   UNL A   1      33.189  17.799  24.835  1.00  0.00     0.109 C 
ATOM     22  C   UNL A   1      32.211  16.682  25.140  1.00  0.00     0.044 C 
ATOM     23  C   UNL A   1      34.390  17.023  24.305  1.00  0.00     0.127 C 
ATOM     24  C   UNL A   1      33.129  15.606  25.676  1.00  0.00     0.161 C 
ATOM     25  O   UNL A   1      34.411  15.793  25.063  1.00  0.00    -0.378 OA
ATOM     26  C   UNL A   1      34.335  16.648  22.826  1.00  0.00     0.039 C 
ENDBRANCH  18  21
ENDBRANCH  16  17
ENDBRANCH  14  16
ENDBRANCH   8  10
ENDBRANCH   7   8
ENDBRANCH   6   7
ENDBRANCH   5   6
ENDBRANCH   4   5
ENDBRANCH   3   4
ENDBRANCH   2   3
ENDBRANCH   1   2
BRANCH   1  27
ATOM     27  C   UNL A   1      32.896  31.146  27.285  1.00  0.00     0.188 C 
BRANCH  27  28
ATOM     28  C   UNL A   1      34.238  31.787  27.672  1.00  0.00     0.188 C 
BRANCH  28  29
ATOM     29  O   UNL A   1      35.353  30.921  27.430  1.00  0.00    -0.376 OA
BRANCH  29  30
ATOM     30  C   UNL A   1      35.888  30.263  28.577  1.00  0.00     0.202 C 
BRANCH  30  31
ATOM     31  C   UNL A   1      36.518  31.216  29.602  1.00  0.00     0.261 C 
BRANCH  31  32
ATOM     32  O   UNL A   1      36.001  31.092  30.937  1.00  0.00    -0.460 OA
BRANCH  32  33
ATOM     33  C   UNL A   1      36.522  30.112  31.705  1.00  0.00     0.338 C 
ATOM     34  O   UNL A   1      36.605  28.929  31.428  1.00  0.00    -0.246 OA
BRANCH  33  35
ATOM     35  C   UNL A   1      37.158  30.740  32.879  1.00  0.00     0.060 A 
ATOM     36  C   UNL A   1      36.720  32.009  33.276  1.00  0.00     0.016 A 
ATOM     37  C   UNL A   1      38.187  30.093  33.569  1.00  0.00     0.016 A 
ATOM     38  C   UNL A   1      37.345  32.657  34.341  1.00  0.00     0.010 A 
ATOM     39  C   UNL A   1      38.822  30.749  34.625  1.00  0.00     0.010 A 
ATOM     40  C   UNL A   1      38.427  32.046  34.992  1.00  0.00    -0.014 A 
BRANCH  40  41
ATOM     41  C   UNL A   1      39.269  32.834  35.922  1.00  0.00     0.031 A 
ATOM     42  C   UNL A   1      38.934  32.803  37.388  1.00  0.00     0.074 A 
ATOM     43  C   UNL A   1      40.306  33.564  35.475  1.00  0.00     0.049 A 
ATOM     44  N   UNL A   1      39.497  33.439  38.381  1.00  0.00    -0.248 NA
ATOM     45  C   UNL A   1      37.810  31.939  37.784  1.00  0.00     0.031 C 
ATOM     46  C   UNL A   1      40.739  33.657  34.083  1.00  0.00     0.029 A 
ATOM     47  N   UNL A   1      41.175  34.380  36.155  1.00  0.00    -0.354 N 
ATOM     48  C   UNL A   1      38.800  33.051  39.518  1.00  0.00     0.074 A 
ATOM     49  C   UNL A   1      37.754  32.149  39.090  1.00  0.00     0.031 C 
ATOM     50  C   UNL A   1      41.786  34.499  34.008  1.00  0.00     0.029 A 
ATOM     51  C   UNL A   1      42.080  35.020  35.343  1.00  0.00     0.049 A 
ATOM     52  H   UNL A   1      41.154  34.495  37.132  1.00  0.00     0.167 HD
ATOM     53  C   UNL A   1      39.017  33.408  40.807  1.00  0.00     0.037 A 
ATOM     54  C   UNL A   1      43.023  35.935  35.643  1.00  0.00     0.037 A 
ATOM     55  C   UNL A   1      40.047  34.317  41.229  1.00  0.00     0.049 A 
ATOM     56  C   UNL A   1      43.208  36.364  37.076  1.00  0.00     0.074 A 
ATOM     57  C   UNL A   1      40.353  34.737  42.511  1.00  0.00     0.029 A 
ATOM     58  N   UNL A   1      40.935  34.954  40.376  1.00  0.00    -0.354 N 
ATOM     59  N   UNL A   1      42.562  35.967  38.148  1.00  0.00    -0.248 NA
ATOM     60  C   UNL A   1      44.253  37.364  37.343  1.00  0.00     0.031 C 
ATOM     61  C   UNL A   1      41.403  35.658  42.430  1.00  0.00     0.029 A 
ATOM     62  C   UNL A   1      41.778  35.779  41.101  1.00  0.00     0.049 A 
ATOM     63  H   UNL A   1      40.963  34.837  39.399  1.00  0.00     0.167 HD
ATOM     64  C   UNL A   1      43.137  36.648  39.215  1.00  0.00     0.074 A 
ATOM     65  C   UNL A   1      44.188  37.478  38.663  1.00  0.00     0.031 C 
ATOM     66  C   UNL A   1      42.825  36.591  40.534  1.00  0.00     0.037 A 
BRANCH  53  67
ATOM     67  C   UNL A   1      38.104  32.822  41.844  1.00  0.00     0.058 A 
ATOM     68  C   UNL A   1      36.865  33.410  42.146  1.00  0.00     0.135 A 
ATOM     69  C   UNL A   1      38.464  31.655  42.536  1.00  0.00     0.135 A 
ATOM     70  F   UNL A   1      36.485  34.540  41.529  1.00  0.00    -0.206 F 
ATOM     71  C   UNL A   1      36.026  32.876  43.118  1.00  0.00     0.059 A 
ATOM     72  C   UNL A   1      37.630  31.091  43.496  1.00  0.00     0.059 A 
ATOM     73  F   UNL A   1      39.641  31.058  42.289  1.00  0.00    -0.206 F 
ATOM     74  C   UNL A   1      36.419  31.717  43.790  1.00  0.00     0.060 A 
BRANCH  74  75
ATOM     75  S   UNL A   1      35.324  31.038  45.053  1.00  0.00     0.124 S 
ATOM     76  O   UNL A   1      35.492  32.003  46.134  1.00  0.00    -0.237 OA
ATOM     77  O   UNL A   1      34.025  31.054  44.385  1.00  0.00    -0.237 OA
ATOM     78  O   UNL A   1      35.878  29.710  45.305  1.00  0.00    -0.744 OA
ENDBRANCH  74  75
ENDBRANCH  53  67
BRANCH  54  79
ATOM     79  C   UNL A   1      43.862  36.519  34.565  1.00  0.00     0.058 A 
ATOM     80  C   UNL A   1      44.996  35.846  34.086  1.00  0.00     0.135 A 
ATOM     81  C   UNL A   1      43.548  37.762  33.994  1.00  0.00     0.135 A 
ATOM     82  F   UNL A   1      45.343  34.660  34.608  1.00  0.00    -0.206 F 
ATOM     83  C   UNL A   1      45.797  36.391  33.087  1.00  0.00     0.059 A 
ATOM     84  C   UNL A   1      44.322  38.317  32.980  1.00  0.00     0.059 A 
ATOM     85  F   UNL A   1      42.469  38.440  34.413  1.00  0.00    -0.206 F 
ATOM     86  C   UNL A   1      45.450  37.627  32.539  1.00  0.00     0.060 A 
BRANCH  86  87
ATOM     87  S   UNL A   1      46.465  38.302  31.206  1.00  0.00     0.124 S 
ATOM     88  O   UNL A   1      46.257  39.735  31.376  1.00  0.00    -0.237 OA
ATOM     89  O   UNL A   1      47.795  37.804  31.550  1.00  0.00    -0.237 OA
ATOM     90  O   UNL A   1      45.876  37.714  30.008  1.00  0.00    -0.744 OA
ENDBRANCH  86  87
ENDBRANCH  54  79
BRANCH  66  91
ATOM     91  C   UNL A   1      43.648  37.422  41.479  1.00  0.00     0.058 A 
ATOM     92  C   UNL A   1      43.268  38.725  41.835  1.00  0.00     0.135 A 
ATOM     93  C   UNL A   1      44.796  36.883  42.083  1.00  0.00     0.135 A 
ATOM     94  F   UNL A   1      42.181  39.287  41.283  1.00  0.00    -0.206 F 
ATOM     95  C   UNL A   1      44.008  39.472  42.746  1.00  0.00     0.059 A 
ATOM     96  C   UNL A   1      45.537  37.604  43.012  1.00  0.00     0.059 A 
ATOM     97  F   UNL A   1      45.195  35.636  41.784  1.00  0.00    -0.206 F 
ATOM     98  C   UNL A   1      45.141  38.903  43.331  1.00  0.00     0.060 A 
BRANCH  98  99
ATOM     99  S   UNL A   1      46.073  39.867  44.541  1.00  0.00     0.124 S 
ATOM    100  O   UNL A   1      45.578  41.215  44.286  1.00  0.00    -0.237 OA
ATOM    101  O   UNL A   1      45.658  39.267  45.806  1.00  0.00    -0.237 OA
ATOM    102  O   UNL A   1      47.463  39.626  44.166  1.00  0.00    -0.744 OA
ENDBRANCH  98  99
ENDBRANCH  66  91
ENDBRANCH  40  41
ENDBRANCH  33  35
ENDBRANCH  32  33
ENDBRANCH  31  32
ENDBRANCH  30  31
ENDBRANCH  29  30
ENDBRANCH  28  29
ENDBRANCH  27  28
ENDBRANCH   1  27
TORSDOF 26
ENDMDL
