MODEL 1
REMARK VINA RESULT:      -8.6      0.000      0.000
REMARK SMILES Cc1cc(SC[C@H]([NH3+])C(=O)OCCOCCOCCOCCOC(=O)c2ccc(-c3c4nc(c(-c5c(F)cc(S(=O)(=O)[O-])cc5F)c5ccc([nH]5)c(-c5c(F)cc(S(=O)(=O)[O-])cc5F)c5nc(c(-c6c(F)cc(S(=O)(=O)[O-])cc6F)c6ccc3[nH]6)C=C5)C=C4)cc2)ccc1N
REMARK SMILES IDX 16 1 15 2 14 3 13 4 12 5 11 6 9 7 10 8 7 9 6 10 5 11 4 12
REMARK SMILES IDX 1 13 2 14 3 15 94 16 93 17 92 18 95 19 8 22 17 26 18 27
REMARK SMILES IDX 19 28 20 29 21 30 22 31 23 32 24 33 25 34 26 35 27 36 91 37
REMARK SMILES IDX 28 38 90 39 29 40 30 41 31 42 84 43 32 44 89 45 83 46 85 47
REMARK SMILES IDX 33 48 88 49 82 50 81 51 34 53 68 54 47 55 67 56 48 57 51 58
REMARK SMILES IDX 66 59 86 60 49 61 50 62 65 64 87 65 52 66 35 67 36 68 45 69
REMARK SMILES IDX 37 70 38 71 44 72 46 73 39 74 40 75 41 76 42 77 43 78 69 79
REMARK SMILES IDX 70 80 79 81 71 82 72 83 78 84 80 85 73 86 74 87 75 88 76 89
REMARK SMILES IDX 77 90 53 91 54 92 63 93 55 94 56 95 62 96 64 97 57 98 58 99
REMARK SMILES IDX 59 100 60 101 61 102
REMARK H PARENT 95 20 95 21 8 23 8 24 8 25 85 52 51 63
REMARK Flexibility Score: inf
ROOT
ATOM      1  C   UNL A   1      31.006  29.559  24.678  1.00  0.00     0.188 C 
ENDROOT
BRANCH   1   2
ATOM      2  C   UNL A   1      31.129  29.500  23.147  1.00  0.00     0.188 C 
BRANCH   2   3
ATOM      3  O   UNL A   1      31.354  28.220  22.579  1.00  0.00    -0.376 OA
BRANCH   3   4
ATOM      4  C   UNL A   1      32.579  27.540  22.811  1.00  0.00     0.202 C 
BRANCH   4   5
ATOM      5  C   UNL A   1      32.571  26.417  23.844  1.00  0.00     0.261 C 
BRANCH   5   6
ATOM      6  O   UNL A   1      32.232  25.094  23.426  1.00  0.00    -0.459 OA
BRANCH   6   7
ATOM      7  C   UNL A   1      30.996  24.551  23.501  1.00  0.00     0.365 C 
ATOM      8  O   UNL A   1      29.917  25.120  23.455  1.00  0.00    -0.245 OA
BRANCH   7   9
ATOM      9  C   UNL A   1      31.141  23.049  23.648  1.00  0.00     0.302 C 
BRANCH   9  10
ATOM     10  C   UNL A   1      31.898  22.775  24.962  1.00  0.00     0.152 C 
BRANCH  10  11
ATOM     11  S   UNL A   1      32.621  21.075  25.125  1.00  0.00    -0.119 SA
BRANCH  11  12
ATOM     12  C   UNL A   1      34.402  21.299  25.204  1.00  0.00     0.008 A 
ATOM     13  C   UNL A   1      37.730  19.463  24.703  1.00  0.00     0.046 C 
ATOM     14  C   UNL A   1      36.741  20.549  25.062  1.00  0.00    -0.027 A 
ATOM     15  C   UNL A   1      35.344  20.288  24.989  1.00  0.00     0.020 A 
ATOM     16  C   UNL A   1      37.195  21.835  25.397  1.00  0.00     0.034 A 
ATOM     17  C   UNL A   1      36.247  22.814  25.699  1.00  0.00     0.027 A 
ATOM     18  C   UNL A   1      34.873  22.556  25.593  1.00  0.00     0.017 A 
BRANCH  16  19
ATOM     19  N   UNL A   1      38.543  22.145  25.489  1.00  0.00    -0.399 N 
ATOM     20  H   UNL A   1      39.059  21.867  26.279  1.00  0.00     0.156 HD
ATOM     21  H   UNL A   1      38.983  22.644  24.763  1.00  0.00     0.156 HD
ENDBRANCH  16  19
ENDBRANCH  11  12
ENDBRANCH  10  11
ENDBRANCH   9  10
BRANCH   9  22
ATOM     22  N   UNL A   1      31.861  22.514  22.457  1.00  0.00    -0.345 N 
ATOM     23  H   UNL A   1      31.940  21.500  22.535  1.00  0.00     0.345 HD
ATOM     24  H   UNL A   1      32.794  22.925  22.411  1.00  0.00     0.345 HD
ATOM     25  H   UNL A   1      31.343  22.751  21.610  1.00  0.00     0.345 HD
ENDBRANCH   9  22
ENDBRANCH   7   9
ENDBRANCH   6   7
ENDBRANCH   5   6
ENDBRANCH   4   5
ENDBRANCH   3   4
ENDBRANCH   2   3
ENDBRANCH   1   2
BRANCH   1  26
ATOM     26  O   UNL A   1      31.083  30.793  25.382  1.00  0.00    -0.377 OA
BRANCH  26  27
ATOM     27  C   UNL A   1      31.878  30.923  26.549  1.00  0.00     0.188 C 
BRANCH  27  28
ATOM     28  C   UNL A   1      33.043  29.935  26.665  1.00  0.00     0.188 C 
BRANCH  28  29
ATOM     29  O   UNL A   1      34.259  30.556  27.061  1.00  0.00    -0.376 OA
BRANCH  29  30
ATOM     30  C   UNL A   1      34.120  31.798  27.737  1.00  0.00     0.202 C 
BRANCH  30  31
ATOM     31  C   UNL A   1      35.008  32.025  28.972  1.00  0.00     0.261 C 
BRANCH  31  32
ATOM     32  O   UNL A   1      35.716  30.891  29.512  1.00  0.00    -0.460 OA
BRANCH  32  33
ATOM     33  C   UNL A   1      36.623  31.072  30.493  1.00  0.00     0.338 C 
ATOM     34  O   UNL A   1      36.413  31.510  31.612  1.00  0.00    -0.246 OA
BRANCH  33  35
ATOM     35  C   UNL A   1      37.907  30.472  30.054  1.00  0.00     0.060 A 
ATOM     36  C   UNL A   1      38.868  30.141  31.022  1.00  0.00     0.016 A 
ATOM     37  C   UNL A   1      38.157  30.209  28.704  1.00  0.00     0.016 A 
ATOM     38  C   UNL A   1      40.094  29.586  30.636  1.00  0.00     0.010 A 
ATOM     39  C   UNL A   1      39.394  29.682  28.317  1.00  0.00     0.010 A 
ATOM     40  C   UNL A   1      40.384  29.404  29.277  1.00  0.00    -0.014 A 
BRANCH  40  41
ATOM     41  C   UNL A   1      41.789  29.193  28.838  1.00  0.00     0.031 A 
ATOM     42  C   UNL A   1      42.176  27.803  28.403  1.00  0.00     0.074 A 
ATOM     43  C   UNL A   1      42.702  30.181  28.821  1.00  0.00     0.049 A 
ATOM     44  N   UNL A   1      43.343  27.334  28.046  1.00  0.00    -0.248 NA
ATOM     45  C   UNL A   1      41.091  26.804  28.371  1.00  0.00     0.031 C 
ATOM     46  C   UNL A   1      42.453  31.576  29.175  1.00  0.00     0.029 A 
ATOM     47  N   UNL A   1      44.040  30.150  28.501  1.00  0.00    -0.354 N 
ATOM     48  C   UNL A   1      43.134  25.991  27.750  1.00  0.00     0.074 A 
ATOM     49  C   UNL A   1      41.738  25.712  27.997  1.00  0.00     0.031 C 
ATOM     50  C   UNL A   1      43.605  32.266  29.070  1.00  0.00     0.029 A 
ATOM     51  C   UNL A   1      44.680  31.355  28.671  1.00  0.00     0.049 A 
ATOM     52  H   UNL A   1      44.496  29.339  28.179  1.00  0.00     0.167 HD
ATOM     53  C   UNL A   1      44.022  25.072  27.306  1.00  0.00     0.037 A 
ATOM     54  C   UNL A   1      45.985  31.676  28.544  1.00  0.00     0.037 A 
ATOM     55  C   UNL A   1      45.416  25.343  27.076  1.00  0.00     0.049 A 
ATOM     56  C   UNL A   1      46.977  30.613  28.130  1.00  0.00     0.074 A 
ATOM     57  C   UNL A   1      46.397  24.477  26.628  1.00  0.00     0.029 A 
ATOM     58  N   UNL A   1      46.028  26.569  27.286  1.00  0.00    -0.354 N 
ATOM     59  N   UNL A   1      46.763  29.352  27.834  1.00  0.00    -0.248 NA
ATOM     60  C   UNL A   1      48.389  31.015  28.036  1.00  0.00     0.031 C 
ATOM     61  C   UNL A   1      47.613  25.166  26.612  1.00  0.00     0.029 A 
ATOM     62  C   UNL A   1      47.378  26.477  26.997  1.00  0.00     0.049 A 
ATOM     63  H   UNL A   1      45.570  27.384  27.594  1.00  0.00     0.167 HD
ATOM     64  C   UNL A   1      48.004  28.824  27.485  1.00  0.00     0.074 A 
ATOM     65  C   UNL A   1      48.964  29.901  27.602  1.00  0.00     0.031 C 
ATOM     66  C   UNL A   1      48.320  27.563  27.100  1.00  0.00     0.037 A 
BRANCH  53  67
ATOM     67  C   UNL A   1      43.514  23.679  27.065  1.00  0.00     0.058 A 
ATOM     68  C   UNL A   1      43.279  22.787  28.124  1.00  0.00     0.135 A 
ATOM     69  C   UNL A   1      43.238  23.237  25.762  1.00  0.00     0.135 A 
ATOM     70  F   UNL A   1      43.549  23.151  29.388  1.00  0.00    -0.206 F 
ATOM     71  C   UNL A   1      42.810  21.498  27.897  1.00  0.00     0.059 A 
ATOM     72  C   UNL A   1      42.742  21.961  25.513  1.00  0.00     0.059 A 
ATOM     73  F   UNL A   1      43.452  24.048  24.714  1.00  0.00    -0.206 F 
ATOM     74  C   UNL A   1      42.544  21.094  26.587  1.00  0.00     0.060 A 
BRANCH  74  75
ATOM     75  S   UNL A   1      41.928  19.421  26.310  1.00  0.00     0.124 S 
ATOM     76  O   UNL A   1      40.488  19.648  26.244  1.00  0.00    -0.237 OA
ATOM     77  O   UNL A   1      42.569  19.057  25.050  1.00  0.00    -0.237 OA
ATOM     78  O   UNL A   1      42.395  18.687  27.482  1.00  0.00    -0.744 OA
ENDBRANCH  74  75
ENDBRANCH  53  67
BRANCH  54  79
ATOM     79  C   UNL A   1      46.451  33.063  28.827  1.00  0.00     0.058 A 
ATOM     80  C   UNL A   1      46.517  34.029  27.811  1.00  0.00     0.135 A 
ATOM     81  C   UNL A   1      46.874  33.441  30.112  1.00  0.00     0.135 A 
ATOM     82  F   UNL A   1      46.143  33.714  26.562  1.00  0.00    -0.206 F 
ATOM     83  C   UNL A   1      47.000  35.313  28.052  1.00  0.00     0.059 A 
ATOM     84  C   UNL A   1      47.334  34.727  30.383  1.00  0.00     0.059 A 
ATOM     85  F   UNL A   1      46.830  32.559  31.121  1.00  0.00    -0.206 F 
ATOM     86  C   UNL A   1      47.405  35.652  29.345  1.00  0.00     0.060 A 
BRANCH  86  87
ATOM     87  S   UNL A   1      47.991  37.333  29.656  1.00  0.00     0.124 S 
ATOM     88  O   UNL A   1      48.779  37.596  28.458  1.00  0.00    -0.237 OA
ATOM     89  O   UNL A   1      46.739  38.075  29.774  1.00  0.00    -0.237 OA
ATOM     90  O   UNL A   1      48.749  37.198  30.896  1.00  0.00    -0.744 OA
ENDBRANCH  86  87
ENDBRANCH  54  79
BRANCH  66  91
ATOM     91  C   UNL A   1      49.749  27.277  26.725  1.00  0.00     0.058 A 
ATOM     92  C   UNL A   1      50.690  26.831  27.667  1.00  0.00     0.135 A 
ATOM     93  C   UNL A   1      50.162  27.374  25.384  1.00  0.00     0.135 A 
ATOM     94  F   UNL A   1      50.350  26.723  28.961  1.00  0.00    -0.206 F 
ATOM     95  C   UNL A   1      51.991  26.507  27.297  1.00  0.00     0.059 A 
ATOM     96  C   UNL A   1      51.450  27.028  24.988  1.00  0.00     0.059 A 
ATOM     97  F   UNL A   1      49.300  27.783  24.439  1.00  0.00    -0.206 F 
ATOM     98  C   UNL A   1      52.361  26.604  25.954  1.00  0.00     0.060 A 
BRANCH  98  99
ATOM     99  S   UNL A   1      54.039  26.133  25.480  1.00  0.00     0.124 S 
ATOM    100  O   UNL A   1      54.543  25.553  26.721  1.00  0.00    -0.237 OA
ATOM    101  O   UNL A   1      53.804  25.191  24.390  1.00  0.00    -0.237 OA
ATOM    102  O   UNL A   1      54.650  27.398  25.086  1.00  0.00    -0.744 OA
ENDBRANCH  98  99
ENDBRANCH  66  91
ENDBRANCH  40  41
ENDBRANCH  33  35
ENDBRANCH  32  33
ENDBRANCH  31  32
ENDBRANCH  30  31
ENDBRANCH  29  30
ENDBRANCH  28  29
ENDBRANCH  27  28
ENDBRANCH  26  27
ENDBRANCH   1  26
TORSDOF 28
ENDMDL
MODEL 2
REMARK VINA RESULT:      -8.4      1.429      2.138
REMARK SMILES Cc1cc(SC[C@H]([NH3+])C(=O)OCCOCCOCCOCCOC(=O)c2ccc(-c3c4nc(c(-c5c(F)cc(S(=O)(=O)[O-])cc5F)c5ccc([nH]5)c(-c5c(F)cc(S(=O)(=O)[O-])cc5F)c5nc(c(-c6c(F)cc(S(=O)(=O)[O-])cc6F)c6ccc3[nH]6)C=C5)C=C4)cc2)ccc1N
REMARK SMILES IDX 16 1 15 2 14 3 13 4 12 5 11 6 9 7 10 8 7 9 6 10 5 11 4 12
REMARK SMILES IDX 1 13 2 14 3 15 94 16 93 17 92 18 95 19 8 22 17 26 18 27
REMARK SMILES IDX 19 28 20 29 21 30 22 31 23 32 24 33 25 34 26 35 27 36 91 37
REMARK SMILES IDX 28 38 90 39 29 40 30 41 31 42 84 43 32 44 89 45 83 46 85 47
REMARK SMILES IDX 33 48 88 49 82 50 81 51 34 53 68 54 47 55 67 56 48 57 51 58
REMARK SMILES IDX 66 59 86 60 49 61 50 62 65 64 87 65 52 66 35 67 36 68 45 69
REMARK SMILES IDX 37 70 38 71 44 72 46 73 39 74 40 75 41 76 42 77 43 78 69 79
REMARK SMILES IDX 70 80 79 81 71 82 72 83 78 84 80 85 73 86 74 87 75 88 76 89
REMARK SMILES IDX 77 90 53 91 54 92 63 93 55 94 56 95 62 96 64 97 57 98 58 99
REMARK SMILES IDX 59 100 60 101 61 102
REMARK H PARENT 95 20 95 21 8 23 8 24 8 25 85 52 51 63
REMARK Flexibility Score: inf
ROOT
ATOM      1  C   UNL A   1      31.663  26.875  26.533  1.00  0.00     0.188 C 
ENDROOT
BRANCH   1   2
ATOM      2  C   UNL A   1      31.150  25.530  25.994  1.00  0.00     0.188 C 
BRANCH   2   3
ATOM      3  O   UNL A   1      30.502  25.560  24.733  1.00  0.00    -0.376 OA
BRANCH   3   4
ATOM      4  C   UNL A   1      30.789  26.597  23.806  1.00  0.00     0.202 C 
BRANCH   4   5
ATOM      5  C   UNL A   1      32.148  26.561  23.115  1.00  0.00     0.261 C 
BRANCH   5   6
ATOM      6  O   UNL A   1      32.549  25.369  22.438  1.00  0.00    -0.459 OA
BRANCH   6   7
ATOM      7  C   UNL A   1      32.937  24.225  23.047  1.00  0.00     0.365 C 
ATOM      8  O   UNL A   1      32.281  23.214  23.241  1.00  0.00    -0.245 OA
BRANCH   7   9
ATOM      9  C   UNL A   1      34.384  24.374  23.470  1.00  0.00     0.302 C 
BRANCH   9  10
ATOM     10  C   UNL A   1      35.061  22.996  23.326  1.00  0.00     0.152 C 
BRANCH  10  11
ATOM     11  S   UNL A   1      35.413  22.111  24.918  1.00  0.00    -0.119 SA
BRANCH  11  12
ATOM     12  C   UNL A   1      34.492  20.570  24.843  1.00  0.00     0.008 A 
ATOM     13  C   UNL A   1      34.925  16.771  24.574  1.00  0.00     0.046 C 
ATOM     14  C   UNL A   1      34.264  18.129  24.632  1.00  0.00    -0.027 A 
ATOM     15  C   UNL A   1      35.065  19.305  24.674  1.00  0.00     0.020 A 
ATOM     16  C   UNL A   1      32.866  18.232  24.719  1.00  0.00     0.034 A 
ATOM     17  C   UNL A   1      32.299  19.505  24.795  1.00  0.00     0.027 A 
ATOM     18  C   UNL A   1      33.098  20.655  24.869  1.00  0.00     0.017 A 
BRANCH  16  19
ATOM     19  N   UNL A   1      32.037  17.122  24.678  1.00  0.00    -0.399 N 
ATOM     20  H   UNL A   1      31.358  17.041  23.971  1.00  0.00     0.156 HD
ATOM     21  H   UNL A   1      32.128  16.415  25.357  1.00  0.00     0.156 HD
ENDBRANCH  16  19
ENDBRANCH  11  12
ENDBRANCH  10  11
ENDBRANCH   9  10
BRANCH   9  22
ATOM     22  N   UNL A   1      34.429  24.883  24.872  1.00  0.00    -0.345 N 
ATOM     23  H   UNL A   1      34.534  25.897  24.861  1.00  0.00     0.345 HD
ATOM     24  H   UNL A   1      35.221  24.464  25.360  1.00  0.00     0.345 HD
ATOM     25  H   UNL A   1      33.564  24.634  25.352  1.00  0.00     0.345 HD
ENDBRANCH   9  22
ENDBRANCH   7   9
ENDBRANCH   6   7
ENDBRANCH   5   6
ENDBRANCH   4   5
ENDBRANCH   3   4
ENDBRANCH   2   3
ENDBRANCH   1   2
BRANCH   1  26
ATOM     26  O   UNL A   1      33.042  27.221  26.475  1.00  0.00    -0.377 OA
BRANCH  26  27
ATOM     27  C   UNL A   1      33.465  28.451  25.908  1.00  0.00     0.188 C 
BRANCH  27  28
ATOM     28  C   UNL A   1      34.309  29.341  26.824  1.00  0.00     0.188 C 
BRANCH  28  29
ATOM     29  O   UNL A   1      33.702  30.600  27.087  1.00  0.00    -0.376 OA
BRANCH  29  30
ATOM     30  C   UNL A   1      34.187  31.285  28.234  1.00  0.00     0.202 C 
BRANCH  30  31
ATOM     31  C   UNL A   1      35.574  30.876  28.758  1.00  0.00     0.261 C 
BRANCH  31  32
ATOM     32  O   UNL A   1      36.402  31.899  29.348  1.00  0.00    -0.460 OA
BRANCH  32  33
ATOM     33  C   UNL A   1      37.135  31.617  30.444  1.00  0.00     0.338 C 
ATOM     34  O   UNL A   1      36.793  31.749  31.606  1.00  0.00    -0.246 OA
BRANCH  33  35
ATOM     35  C   UNL A   1      38.379  30.935  30.007  1.00  0.00     0.060 A 
ATOM     36  C   UNL A   1      39.414  30.748  30.936  1.00  0.00     0.016 A 
ATOM     37  C   UNL A   1      38.519  30.456  28.701  1.00  0.00     0.016 A 
ATOM     38  C   UNL A   1      40.603  30.121  30.549  1.00  0.00     0.010 A 
ATOM     39  C   UNL A   1      39.720  29.855  28.307  1.00  0.00     0.010 A 
ATOM     40  C   UNL A   1      40.783  29.719  29.219  1.00  0.00    -0.014 A 
BRANCH  40  41
ATOM     41  C   UNL A   1      42.147  29.420  28.710  1.00  0.00     0.031 A 
ATOM     42  C   UNL A   1      42.434  27.999  28.296  1.00  0.00     0.074 A 
ATOM     43  C   UNL A   1      43.110  30.355  28.613  1.00  0.00     0.049 A 
ATOM     44  N   UNL A   1      43.553  27.457  27.890  1.00  0.00    -0.248 NA
ATOM     45  C   UNL A   1      41.298  27.061  28.354  1.00  0.00     0.031 C 
ATOM     46  C   UNL A   1      42.956  31.771  28.938  1.00  0.00     0.029 A 
ATOM     47  N   UNL A   1      44.424  30.242  28.221  1.00  0.00    -0.354 N 
ATOM     48  C   UNL A   1      43.256  26.120  27.647  1.00  0.00     0.074 A 
ATOM     49  C   UNL A   1      41.863  25.925  27.978  1.00  0.00     0.031 C 
ATOM     50  C   UNL A   1      44.136  32.393  28.749  1.00  0.00     0.029 A 
ATOM     51  C   UNL A   1      45.137  31.414  28.320  1.00  0.00     0.049 A 
ATOM     52  H   UNL A   1      44.817  29.399  27.900  1.00  0.00     0.167 HD
ATOM     53  C   UNL A   1      44.068  25.141  27.183  1.00  0.00     0.037 A 
ATOM     54  C   UNL A   1      46.447  31.659  28.112  1.00  0.00     0.037 A 
ATOM     55  C   UNL A   1      45.459  25.329  26.868  1.00  0.00     0.049 A 
ATOM     56  C   UNL A   1      47.356  30.532  27.677  1.00  0.00     0.074 A 
ATOM     57  C   UNL A   1      46.365  24.399  26.394  1.00  0.00     0.029 A 
ATOM     58  N   UNL A   1      46.147  26.525  27.008  1.00  0.00    -0.354 N 
ATOM     59  N   UNL A   1      47.059  29.277  27.430  1.00  0.00    -0.248 NA
ATOM     60  C   UNL A   1      48.780  30.854  27.493  1.00  0.00     0.031 C 
ATOM     61  C   UNL A   1      47.614  25.019  26.291  1.00  0.00     0.029 A 
ATOM     62  C   UNL A   1      47.471  26.351  26.648  1.00  0.00     0.049 A 
ATOM     63  H   UNL A   1      45.750  27.372  27.316  1.00  0.00     0.167 HD
ATOM     64  C   UNL A   1      48.248  28.673  27.030  1.00  0.00     0.074 A 
ATOM     65  C   UNL A   1      49.269  29.698  27.062  1.00  0.00     0.031 C 
ATOM     66  C   UNL A   1      48.474  27.386  26.666  1.00  0.00     0.037 A 
BRANCH  53  67
ATOM     67  C   UNL A   1      43.473  23.773  27.013  1.00  0.00     0.058 A 
ATOM     68  C   UNL A   1      43.283  22.911  28.104  1.00  0.00     0.135 A 
ATOM     69  C   UNL A   1      43.069  23.325  25.745  1.00  0.00     0.135 A 
ATOM     70  F   UNL A   1      43.673  23.281  29.335  1.00  0.00    -0.206 F 
ATOM     71  C   UNL A   1      42.733  21.644  27.943  1.00  0.00     0.059 A 
ATOM     72  C   UNL A   1      42.492  22.072  25.564  1.00  0.00     0.059 A 
ATOM     73  F   UNL A   1      43.236  24.107  24.667  1.00  0.00    -0.206 F 
ATOM     74  C   UNL A   1      42.340  21.233  26.666  1.00  0.00     0.060 A 
BRANCH  74  75
ATOM     75  S   UNL A   1      41.622  19.589  26.474  1.00  0.00     0.124 S 
ATOM     76  O   UNL A   1      42.132  18.908  27.660  1.00  0.00    -0.237 OA
ATOM     77  O   UNL A   1      40.190  19.873  26.475  1.00  0.00    -0.237 OA
ATOM     78  O   UNL A   1      42.166  19.126  25.202  1.00  0.00    -0.744 OA
ENDBRANCH  74  75
ENDBRANCH  53  67
BRANCH  54  79
ATOM     79  C   UNL A   1      47.002  33.025  28.327  1.00  0.00     0.058 A 
ATOM     80  C   UNL A   1      47.492  33.422  29.580  1.00  0.00     0.135 A 
ATOM     81  C   UNL A   1      47.022  33.974  27.292  1.00  0.00     0.135 A 
ATOM     82  F   UNL A   1      47.479  32.560  30.609  1.00  0.00    -0.206 F 
ATOM     83  C   UNL A   1      47.965  34.712  29.806  1.00  0.00     0.059 A 
ATOM     84  C   UNL A   1      47.515  35.262  27.486  1.00  0.00     0.059 A 
ATOM     85  F   UNL A   1      46.568  33.648  26.072  1.00  0.00    -0.206 F 
ATOM     86  C   UNL A   1      47.973  35.625  28.750  1.00  0.00     0.060 A 
BRANCH  86  87
ATOM     87  S   UNL A   1      48.627  37.284  29.043  1.00  0.00     0.124 S 
ATOM     88  O   UNL A   1      49.988  37.158  28.534  1.00  0.00    -0.237 OA
ATOM     89  O   UNL A   1      47.722  38.113  28.252  1.00  0.00    -0.237 OA
ATOM     90  O   UNL A   1      48.505  37.441  30.489  1.00  0.00    -0.744 OA
ENDBRANCH  86  87
ENDBRANCH  54  79
BRANCH  66  91
ATOM     91  C   UNL A   1      49.863  27.012  26.222  1.00  0.00     0.058 A 
ATOM     92  C   UNL A   1      50.830  26.542  27.125  1.00  0.00     0.135 A 
ATOM     93  C   UNL A   1      50.203  27.048  24.859  1.00  0.00     0.135 A 
ATOM     94  F   UNL A   1      50.559  26.490  28.438  1.00  0.00    -0.206 F 
ATOM     95  C   UNL A   1      52.089  26.137  26.694  1.00  0.00     0.059 A 
ATOM     96  C   UNL A   1      51.447  26.621  24.403  1.00  0.00     0.059 A 
ATOM     97  F   UNL A   1      49.312  27.476  23.950  1.00  0.00    -0.206 F 
ATOM     98  C   UNL A   1      52.387  26.176  25.330  1.00  0.00     0.060 A 
BRANCH  98  99
ATOM     99  S   UNL A   1      54.009  25.600  24.780  1.00  0.00     0.124 S 
ATOM    100  O   UNL A   1      54.875  26.103  25.841  1.00  0.00    -0.237 OA
ATOM    101  O   UNL A   1      53.830  24.152  24.740  1.00  0.00    -0.237 OA
ATOM    102  O   UNL A   1      54.174  26.241  23.479  1.00  0.00    -0.744 OA
ENDBRANCH  98  99
ENDBRANCH  66  91
ENDBRANCH  40  41
ENDBRANCH  33  35
ENDBRANCH  32  33
ENDBRANCH  31  32
ENDBRANCH  30  31
ENDBRANCH  29  30
ENDBRANCH  28  29
ENDBRANCH  27  28
ENDBRANCH  26  27
ENDBRANCH   1  26
TORSDOF 28
ENDMDL
MODEL 3
REMARK VINA RESULT:      -8.1      6.061      8.327
REMARK SMILES Cc1cc(SC[C@H]([NH3+])C(=O)OCCOCCOCCOCCOC(=O)c2ccc(-c3c4nc(c(-c5c(F)cc(S(=O)(=O)[O-])cc5F)c5ccc([nH]5)c(-c5c(F)cc(S(=O)(=O)[O-])cc5F)c5nc(c(-c6c(F)cc(S(=O)(=O)[O-])cc6F)c6ccc3[nH]6)C=C5)C=C4)cc2)ccc1N
REMARK SMILES IDX 16 1 15 2 14 3 13 4 12 5 11 6 9 7 10 8 7 9 6 10 5 11 4 12
REMARK SMILES IDX 1 13 2 14 3 15 94 16 93 17 92 18 95 19 8 22 17 26 18 27
REMARK SMILES IDX 19 28 20 29 21 30 22 31 23 32 24 33 25 34 26 35 27 36 91 37
REMARK SMILES IDX 28 38 90 39 29 40 30 41 31 42 84 43 32 44 89 45 83 46 85 47
REMARK SMILES IDX 33 48 88 49 82 50 81 51 34 53 68 54 47 55 67 56 48 57 51 58
REMARK SMILES IDX 66 59 86 60 49 61 50 62 65 64 87 65 52 66 35 67 36 68 45 69
REMARK SMILES IDX 37 70 38 71 44 72 46 73 39 74 40 75 41 76 42 77 43 78 69 79
REMARK SMILES IDX 70 80 79 81 71 82 72 83 78 84 80 85 73 86 74 87 75 88 76 89
REMARK SMILES IDX 77 90 53 91 54 92 63 93 55 94 56 95 62 96 64 97 57 98 58 99
REMARK SMILES IDX 59 100 60 101 61 102
REMARK H PARENT 95 20 95 21 8 23 8 24 8 25 85 52 51 63
REMARK Flexibility Score: inf
ROOT
ATOM      1  C   UNL A   1      31.825  26.221  26.217  1.00  0.00     0.188 C 
ENDROOT
BRANCH   1   2
ATOM      2  C   UNL A   1      31.263  26.112  24.790  1.00  0.00     0.188 C 
BRANCH   2   3
ATOM      3  O   UNL A   1      30.286  25.108  24.571  1.00  0.00    -0.376 OA
BRANCH   3   4
ATOM      4  C   UNL A   1      30.674  23.748  24.438  1.00  0.00     0.202 C 
BRANCH   4   5
ATOM      5  C   UNL A   1      31.350  23.338  23.134  1.00  0.00     0.261 C 
BRANCH   5   6
ATOM      6  O   UNL A   1      32.324  22.294  23.158  1.00  0.00    -0.459 OA
BRANCH   6   7
ATOM      7  C   UNL A   1      32.135  21.047  22.669  1.00  0.00     0.365 C 
ATOM      8  O   UNL A   1      31.983  20.707  21.506  1.00  0.00    -0.245 OA
BRANCH   7   9
ATOM      9  C   UNL A   1      32.152  20.070  23.827  1.00  0.00     0.302 C 
BRANCH   9  10
ATOM     10  C   UNL A   1      33.171  20.585  24.864  1.00  0.00     0.152 C 
BRANCH  10  11
ATOM     11  S   UNL A   1      34.867  19.844  24.749  1.00  0.00    -0.119 SA
BRANCH  11  12
ATOM     12  C   UNL A   1      36.009  21.140  25.240  1.00  0.00     0.008 A 
ATOM     13  C   UNL A   1      39.703  21.818  26.010  1.00  0.00     0.046 C 
ATOM     14  C   UNL A   1      38.213  22.035  25.869  1.00  0.00    -0.027 A 
ATOM     15  C   UNL A   1      37.372  20.951  25.490  1.00  0.00     0.020 A 
ATOM     16  C   UNL A   1      37.667  23.318  26.039  1.00  0.00     0.034 A 
ATOM     17  C   UNL A   1      36.290  23.478  25.875  1.00  0.00     0.027 A 
ATOM     18  C   UNL A   1      35.475  22.411  25.471  1.00  0.00     0.017 A 
BRANCH  16  19
ATOM     19  N   UNL A   1      38.437  24.408  26.412  1.00  0.00    -0.399 N 
ATOM     20  H   UNL A   1      38.196  24.931  27.210  1.00  0.00     0.156 HD
ATOM     21  H   UNL A   1      39.226  24.659  25.878  1.00  0.00     0.156 HD
ENDBRANCH  16  19
ENDBRANCH  11  12
ENDBRANCH  10  11
ENDBRANCH   9  10
BRANCH   9  22
ATOM     22  N   UNL A   1      32.503  18.715  23.313  1.00  0.00    -0.345 N 
ATOM     23  H   UNL A   1      32.424  18.706  22.297  1.00  0.00     0.345 HD
ATOM     24  H   UNL A   1      31.864  18.025  23.710  1.00  0.00     0.345 HD
ATOM     25  H   UNL A   1      33.460  18.485  23.583  1.00  0.00     0.345 HD
ENDBRANCH   9  22
ENDBRANCH   7   9
ENDBRANCH   6   7
ENDBRANCH   5   6
ENDBRANCH   4   5
ENDBRANCH   3   4
ENDBRANCH   2   3
ENDBRANCH   1   2
BRANCH   1  26
ATOM     26  O   UNL A   1      33.006  26.965  26.495  1.00  0.00    -0.377 OA
BRANCH  26  27
ATOM     27  C   UNL A   1      33.034  28.376  26.349  1.00  0.00     0.188 C 
BRANCH  27  28
ATOM     28  C   UNL A   1      34.412  28.980  26.065  1.00  0.00     0.188 C 
BRANCH  28  29
ATOM     29  O   UNL A   1      34.775  29.994  26.993  1.00  0.00    -0.376 OA
BRANCH  29  30
ATOM     30  C   UNL A   1      33.711  30.513  27.779  1.00  0.00     0.202 C 
BRANCH  30  31
ATOM     31  C   UNL A   1      33.089  31.844  27.321  1.00  0.00     0.261 C 
BRANCH  31  32
ATOM     32  O   UNL A   1      33.900  33.033  27.408  1.00  0.00    -0.460 OA
BRANCH  32  33
ATOM     33  C   UNL A   1      33.714  33.898  28.426  1.00  0.00     0.338 C 
ATOM     34  O   UNL A   1      32.747  34.617  28.607  1.00  0.00    -0.246 OA
BRANCH  33  35
ATOM     35  C   UNL A   1      34.808  33.698  29.409  1.00  0.00     0.060 A 
ATOM     36  C   UNL A   1      36.082  34.211  29.121  1.00  0.00     0.016 A 
ATOM     37  C   UNL A   1      34.579  33.037  30.619  1.00  0.00     0.016 A 
ATOM     38  C   UNL A   1      37.136  34.027  30.023  1.00  0.00     0.010 A 
ATOM     39  C   UNL A   1      35.640  32.827  31.507  1.00  0.00     0.010 A 
ATOM     40  C   UNL A   1      36.933  33.287  31.196  1.00  0.00    -0.014 A 
BRANCH  40  41
ATOM     41  C   UNL A   1      38.098  32.757  31.952  1.00  0.00     0.031 A 
ATOM     42  C   UNL A   1      38.923  31.684  31.287  1.00  0.00     0.074 A 
ATOM     43  C   UNL A   1      38.428  33.193  33.181  1.00  0.00     0.049 A 
ATOM     44  N   UNL A   1      39.939  31.005  31.751  1.00  0.00    -0.248 NA
ATOM     45  C   UNL A   1      38.542  31.329  29.908  1.00  0.00     0.031 C 
ATOM     46  C   UNL A   1      37.744  34.251  33.920  1.00  0.00     0.029 A 
ATOM     47  N   UNL A   1      39.427  32.781  34.033  1.00  0.00    -0.354 N 
ATOM     48  C   UNL A   1      40.316  30.144  30.726  1.00  0.00     0.074 A 
ATOM     49  C   UNL A   1      39.403  30.365  29.627  1.00  0.00     0.031 C 
ATOM     50  C   UNL A   1      38.332  34.394  35.124  1.00  0.00     0.029 A 
ATOM     51  C   UNL A   1      39.414  33.416  35.253  1.00  0.00     0.049 A 
ATOM     52  H   UNL A   1      40.089  32.094  33.791  1.00  0.00     0.167 HD
ATOM     53  C   UNL A   1      41.335  29.254  30.696  1.00  0.00     0.037 A 
ATOM     54  C   UNL A   1      40.172  33.212  36.352  1.00  0.00     0.037 A 
ATOM     55  C   UNL A   1      42.234  29.021  31.793  1.00  0.00     0.049 A 
ATOM     56  C   UNL A   1      41.249  32.151  36.327  1.00  0.00     0.074 A 
ATOM     57  C   UNL A   1      43.297  28.138  31.861  1.00  0.00     0.029 A 
ATOM     58  N   UNL A   1      42.170  29.666  33.019  1.00  0.00    -0.354 N 
ATOM     59  N   UNL A   1      41.608  31.359  35.344  1.00  0.00    -0.248 NA
ATOM     60  C   UNL A   1      42.023  31.955  37.563  1.00  0.00     0.031 C 
ATOM     61  C   UNL A   1      43.846  28.214  33.144  1.00  0.00     0.029 A 
ATOM     62  C   UNL A   1      43.161  29.185  33.856  1.00  0.00     0.049 A 
ATOM     63  H   UNL A   1      41.516  30.363  33.257  1.00  0.00     0.167 HD
ATOM     64  C   UNL A   1      42.669  30.599  35.831  1.00  0.00     0.074 A 
ATOM     65  C   UNL A   1      42.898  31.029  37.194  1.00  0.00     0.031 C 
ATOM     66  C   UNL A   1      43.390  29.636  35.207  1.00  0.00     0.037 A 
BRANCH  53  67
ATOM     67  C   UNL A   1      41.511  28.448  29.441  1.00  0.00     0.058 A 
ATOM     68  C   UNL A   1      40.711  27.327  29.165  1.00  0.00     0.135 A 
ATOM     69  C   UNL A   1      42.480  28.811  28.492  1.00  0.00     0.135 A 
ATOM     70  F   UNL A   1      39.786  26.923  30.051  1.00  0.00    -0.206 F 
ATOM     71  C   UNL A   1      40.879  26.582  28.003  1.00  0.00     0.059 A 
ATOM     72  C   UNL A   1      42.647  28.097  27.309  1.00  0.00     0.059 A 
ATOM     73  F   UNL A   1      43.276  29.869  28.710  1.00  0.00    -0.206 F 
ATOM     74  C   UNL A   1      41.851  26.976  27.080  1.00  0.00     0.060 A 
BRANCH  74  75
ATOM     75  S   UNL A   1      42.051  26.004  25.573  1.00  0.00     0.124 S 
ATOM     76  O   UNL A   1      40.663  25.703  25.235  1.00  0.00    -0.237 OA
ATOM     77  O   UNL A   1      42.729  26.942  24.685  1.00  0.00    -0.237 OA
ATOM     78  O   UNL A   1      42.852  24.864  26.008  1.00  0.00    -0.744 OA
ENDBRANCH  74  75
ENDBRANCH  53  67
BRANCH  54  79
ATOM     79  C   UNL A   1      39.938  34.011  37.587  1.00  0.00     0.058 A 
ATOM     80  C   UNL A   1      39.100  33.541  38.609  1.00  0.00     0.135 A 
ATOM     81  C   UNL A   1      40.522  35.277  37.756  1.00  0.00     0.135 A 
ATOM     82  F   UNL A   1      38.502  32.346  38.490  1.00  0.00    -0.206 F 
ATOM     83  C   UNL A   1      38.833  34.302  39.745  1.00  0.00     0.059 A 
ATOM     84  C   UNL A   1      40.292  36.044  38.895  1.00  0.00     0.059 A 
ATOM     85  F   UNL A   1      41.334  35.775  36.811  1.00  0.00    -0.206 F 
ATOM     86  C   UNL A   1      39.437  35.553  39.879  1.00  0.00     0.060 A 
BRANCH  86  87
ATOM     87  S   UNL A   1      39.118  36.515  41.375  1.00  0.00     0.124 S 
ATOM     88  O   UNL A   1      40.382  36.378  42.088  1.00  0.00    -0.237 OA
ATOM     89  O   UNL A   1      38.831  37.839  40.831  1.00  0.00    -0.237 OA
ATOM     90  O   UNL A   1      37.976  35.832  41.974  1.00  0.00    -0.744 OA
ENDBRANCH  86  87
ENDBRANCH  54  79
BRANCH  66  91
ATOM     91  C   UNL A   1      44.531  29.007  35.961  1.00  0.00     0.058 A 
ATOM     92  C   UNL A   1      45.812  29.580  35.985  1.00  0.00     0.135 A 
ATOM     93  C   UNL A   1      44.315  27.855  36.738  1.00  0.00     0.135 A 
ATOM     94  F   UNL A   1      46.073  30.678  35.259  1.00  0.00    -0.206 F 
ATOM     95  C   UNL A   1      46.842  29.026  36.738  1.00  0.00     0.059 A 
ATOM     96  C   UNL A   1      45.323  27.300  37.520  1.00  0.00     0.059 A 
ATOM     97  F   UNL A   1      43.105  27.272  36.762  1.00  0.00    -0.206 F 
ATOM     98  C   UNL A   1      46.587  27.888  37.506  1.00  0.00     0.060 A 
BRANCH  98  99
ATOM     99  S   UNL A   1      47.920  27.208  38.518  1.00  0.00     0.124 S 
ATOM    100  O   UNL A   1      48.918  28.269  38.441  1.00  0.00    -0.237 OA
ATOM    101  O   UNL A   1      47.273  27.039  39.816  1.00  0.00    -0.237 OA
ATOM    102  O   UNL A   1      48.269  25.968  37.833  1.00  0.00    -0.744 OA
ENDBRANCH  98  99
ENDBRANCH  66  91
ENDBRANCH  40  41
ENDBRANCH  33  35
ENDBRANCH  32  33
ENDBRANCH  31  32
ENDBRANCH  30  31
ENDBRANCH  29  30
ENDBRANCH  28  29
ENDBRANCH  27  28
ENDBRANCH  26  27
ENDBRANCH   1  26
TORSDOF 28
ENDMDL
