MODEL 1
REMARK VINA RESULT:     -11.2      0.000      0.000
REMARK SMILES CC(C)CN(C(=O)NC(=O)CCCC(=O)OCCOCCOCCOCCOC(=O)c1ccc(-c2c3nc(c(-c4c(F)cc(S(=O)(=O)[O-])cc4F)c4ccc([nH]4)c(-c4c(F)cc(S(=O)(=O)[O-])cc4F)c4nc(c(-c5c(F)cc(S(=O)(=O)[O-])cc5F)c5ccc2[nH]5)C=C4)C=C3)cc1)C1CCCC1
REMARK SMILES IDX 20 1 19 2 18 3 17 4 16 5 14 6 15 7 13 8 12 9 11 10 9 11 6 12
REMARK SMILES IDX 7 13 8 14 10 16 5 17 4 18 2 19 1 20 3 21 97 22 98 23 101 24
REMARK SMILES IDX 99 25 100 26 21 27 22 28 23 29 24 30 25 31 26 32 27 33 28 34
REMARK SMILES IDX 29 35 30 36 31 37 32 38 96 39 33 40 95 41 34 42 35 43 36 44
REMARK SMILES IDX 89 45 37 46 94 47 88 48 90 49 38 50 93 51 87 52 86 53 39 55
REMARK SMILES IDX 73 56 52 57 72 58 53 59 56 60 71 61 91 62 54 63 55 64 70 66
REMARK SMILES IDX 92 67 57 68 40 69 41 70 50 71 42 72 43 73 49 74 51 75 44 76
REMARK SMILES IDX 45 77 46 78 47 79 48 80 74 81 75 82 84 83 76 84 77 85 83 86
REMARK SMILES IDX 85 87 78 88 79 89 80 90 81 91 82 92 58 93 59 94 68 95 60 96
REMARK SMILES IDX 61 97 67 98 69 99 62 100 63 101 64 102 65 103 66 104
REMARK H PARENT 8 15 90 54 56 65
REMARK Flexibility Score: inf
ROOT
ATOM      1  C   UNL A   1      34.278  22.754  26.844  1.00  0.00     0.188 C 
ENDROOT
BRANCH   1   2
ATOM      2  O   UNL A   1      34.061  21.369  26.670  1.00  0.00    -0.376 OA
BRANCH   2   3
ATOM      3  C   UNL A   1      33.607  20.937  25.408  1.00  0.00     0.202 C 
BRANCH   3   4
ATOM      4  C   UNL A   1      32.165  21.243  24.983  1.00  0.00     0.261 C 
BRANCH   4   5
ATOM      5  O   UNL A   1      31.017  22.196  25.806  1.00  0.00    -0.463 OA
BRANCH   5   6
ATOM      6  C   UNL A   1      30.485  23.558  26.215  1.00  0.00     0.305 C 
ATOM      7  O   UNL A   1      29.804  23.563  27.263  1.00  0.00    -0.252 OA
BRANCH   6   8
ATOM      8  C   UNL A   1      30.596  25.143  25.498  1.00  0.00     0.123 C 
BRANCH   8   9
ATOM      9  C   UNL A   1      31.311  25.870  24.242  1.00  0.00     0.022 C 
BRANCH   9  10
ATOM     10  C   UNL A   1      31.329  25.450  22.750  1.00  0.00     0.101 C 
BRANCH  10  11
ATOM     11  C   UNL A   1      32.513  25.740  21.847  1.00  0.00     0.228 C 
ATOM     12  C   UNL A   1      33.319  28.163  22.374  1.00  0.00     0.324 C 
ATOM     13  O   UNL A   1      34.466  28.618  22.363  1.00  0.00    -0.248 OA
ATOM     14  N   UNL A   1      33.157  26.953  21.753  1.00  0.00    -0.278 N 
ATOM     15  H   UNL A   1      33.705  26.951  20.936  1.00  0.00     0.174 HD
ATOM     16  O   UNL A   1      32.917  24.850  21.087  1.00  0.00    -0.275 OA
BRANCH  12  17
ATOM     17  N   UNL A   1      32.272  28.815  23.034  1.00  0.00    -0.321 N 
BRANCH  17  18
ATOM     18  C   UNL A   1      30.899  29.346  22.026  1.00  0.00     0.124 C 
BRANCH  18  19
ATOM     19  C   UNL A   1      29.152  29.724  22.360  1.00  0.00     0.002 C 
ATOM     20  C   UNL A   1      28.008  30.444  21.489  1.00  0.00     0.009 C 
ATOM     21  C   UNL A   1      28.456  28.536  23.056  1.00  0.00     0.009 C 
ENDBRANCH  18  19
ENDBRANCH  17  18
BRANCH  17  22
ATOM     22  C   UNL A   1      32.839  29.124  24.696  1.00  0.00     0.087 C 
ATOM     23  C   UNL A   1      31.763  29.593  25.752  1.00  0.00     0.025 C 
ATOM     24  C   UNL A   1      33.883  28.383  25.698  1.00  0.00     0.025 C 
ATOM     25  C   UNL A   1      32.109  28.994  27.143  1.00  0.00     0.002 C 
ATOM     26  C   UNL A   1      33.149  27.921  26.942  1.00  0.00     0.002 C 
ENDBRANCH  17  22
ENDBRANCH  12  17
ENDBRANCH  10  11
ENDBRANCH   9  10
ENDBRANCH   8   9
ENDBRANCH   6   8
ENDBRANCH   5   6
ENDBRANCH   4   5
ENDBRANCH   3   4
ENDBRANCH   2   3
ENDBRANCH   1   2
BRANCH   1  27
ATOM     27  C   UNL A   1      35.513  23.328  26.135  1.00  0.00     0.188 C 
BRANCH  27  28
ATOM     28  O   UNL A   1      36.586  22.558  25.657  1.00  0.00    -0.377 OA
BRANCH  28  29
ATOM     29  C   UNL A   1      37.878  23.091  25.722  1.00  0.00     0.188 C 
BRANCH  29  30
ATOM     30  C   UNL A   1      38.950  22.089  26.160  1.00  0.00     0.188 C 
BRANCH  30  31
ATOM     31  O   UNL A   1      40.037  22.390  27.029  1.00  0.00    -0.376 OA
BRANCH  31  32
ATOM     32  C   UNL A   1      41.263  21.690  27.096  1.00  0.00     0.202 C 
BRANCH  32  33
ATOM     33  C   UNL A   1      42.601  22.384  26.792  1.00  0.00     0.261 C 
BRANCH  33  34
ATOM     34  O   UNL A   1      42.867  23.598  27.484  1.00  0.00    -0.460 OA
BRANCH  34  35
ATOM     35  C   UNL A   1      42.653  24.717  26.746  1.00  0.00     0.338 C 
ATOM     36  O   UNL A   1      42.720  24.837  25.552  1.00  0.00    -0.246 OA
BRANCH  35  37
ATOM     37  C   UNL A   1      42.139  25.751  27.668  1.00  0.00     0.060 A 
ATOM     38  C   UNL A   1      42.916  26.904  27.840  1.00  0.00     0.016 A 
ATOM     39  C   UNL A   1      40.912  25.604  28.320  1.00  0.00     0.016 A 
ATOM     40  C   UNL A   1      42.466  27.925  28.660  1.00  0.00     0.010 A 
ATOM     41  C   UNL A   1      40.501  26.590  29.215  1.00  0.00     0.010 A 
ATOM     42  C   UNL A   1      41.302  27.729  29.410  1.00  0.00    -0.014 A 
BRANCH  42  43
ATOM     43  C   UNL A   1      41.159  28.528  30.639  1.00  0.00     0.031 A 
ATOM     44  C   UNL A   1      40.072  29.568  30.638  1.00  0.00     0.074 A 
ATOM     45  C   UNL A   1      41.904  28.281  31.728  1.00  0.00     0.049 A 
ATOM     46  N   UNL A   1      39.734  30.415  31.570  1.00  0.00    -0.248 NA
ATOM     47  C   UNL A   1      39.244  29.653  29.419  1.00  0.00     0.031 C 
ATOM     48  C   UNL A   1      42.917  27.233  31.844  1.00  0.00     0.029 A 
ATOM     49  N   UNL A   1      41.915  28.902  32.947  1.00  0.00    -0.354 N 
ATOM     50  C   UNL A   1      38.660  31.128  31.050  1.00  0.00     0.074 A 
ATOM     51  C   UNL A   1      38.410  30.632  29.718  1.00  0.00     0.031 C 
ATOM     52  C   UNL A   1      43.473  27.302  33.067  1.00  0.00     0.029 A 
ATOM     53  C   UNL A   1      42.878  28.419  33.800  1.00  0.00     0.049 A 
ATOM     54  H   UNL A   1      41.294  29.626  33.191  1.00  0.00     0.167 HD
ATOM     55  C   UNL A   1      37.945  32.111  31.637  1.00  0.00     0.037 A 
ATOM     56  C   UNL A   1      43.245  28.862  35.017  1.00  0.00     0.037 A 
ATOM     57  C   UNL A   1      38.229  32.606  32.955  1.00  0.00     0.049 A 
ATOM     58  C   UNL A   1      42.504  30.036  35.610  1.00  0.00     0.074 A 
ATOM     59  C   UNL A   1      37.592  33.614  33.650  1.00  0.00     0.029 A 
ATOM     60  N   UNL A   1      39.247  32.130  33.770  1.00  0.00    -0.354 N 
ATOM     61  N   UNL A   1      41.490  30.709  35.114  1.00  0.00    -0.248 NA
ATOM     62  C   UNL A   1      42.955  30.513  36.923  1.00  0.00     0.031 C 
ATOM     63  C   UNL A   1      38.263  33.790  34.864  1.00  0.00     0.029 A 
ATOM     64  C   UNL A   1      39.273  32.844  34.953  1.00  0.00     0.049 A 
ATOM     65  H   UNL A   1      39.857  31.394  33.540  1.00  0.00     0.167 HD
ATOM     66  C   UNL A   1      41.163  31.666  36.069  1.00  0.00     0.074 A 
ATOM     67  C   UNL A   1      42.078  31.476  37.175  1.00  0.00     0.031 C 
ATOM     68  C   UNL A   1      40.194  32.618  36.040  1.00  0.00     0.037 A 
BRANCH  55  69
ATOM     69  C   UNL A   1      36.837  32.739  30.842  1.00  0.00     0.058 A 
ATOM     70  C   UNL A   1      37.087  33.699  29.847  1.00  0.00     0.135 A 
ATOM     71  C   UNL A   1      35.505  32.362  31.068  1.00  0.00     0.135 A 
ATOM     72  F   UNL A   1      38.340  34.122  29.616  1.00  0.00    -0.206 F 
ATOM     73  C   UNL A   1      36.053  34.266  29.110  1.00  0.00     0.059 A 
ATOM     74  C   UNL A   1      34.457  32.895  30.324  1.00  0.00     0.059 A 
ATOM     75  F   UNL A   1      35.209  31.466  32.023  1.00  0.00    -0.206 F 
ATOM     76  C   UNL A   1      34.742  33.852  29.351  1.00  0.00     0.060 A 
BRANCH  76  77
ATOM     77  S   UNL A   1      33.415  34.571  28.360  1.00  0.00     0.124 S 
ATOM     78  O   UNL A   1      32.924  33.402  27.637  1.00  0.00    -0.237 OA
ATOM     79  O   UNL A   1      32.521  35.104  29.382  1.00  0.00    -0.237 OA
ATOM     80  O   UNL A   1      34.100  35.570  27.546  1.00  0.00    -0.744 OA
ENDBRANCH  76  77
ENDBRANCH  55  69
BRANCH  56  81
ATOM     81  C   UNL A   1      44.382  28.227  35.738  1.00  0.00     0.058 A 
ATOM     82  C   UNL A   1      45.680  28.752  35.661  1.00  0.00     0.135 A 
ATOM     83  C   UNL A   1      44.195  27.063  36.503  1.00  0.00     0.135 A 
ATOM     84  F   UNL A   1      45.915  29.856  34.936  1.00  0.00    -0.206 F 
ATOM     85  C   UNL A   1      46.755  28.138  36.298  1.00  0.00     0.059 A 
ATOM     86  C   UNL A   1      45.248  26.449  37.174  1.00  0.00     0.059 A 
ATOM     87  F   UNL A   1      42.972  26.523  36.619  1.00  0.00    -0.206 F 
ATOM     88  C   UNL A   1      46.528  26.986  37.053  1.00  0.00     0.060 A 
BRANCH  88  89
ATOM     89  S   UNL A   1      47.925  26.215  37.897  1.00  0.00     0.124 S 
ATOM     90  O   UNL A   1      48.298  25.169  36.953  1.00  0.00    -0.237 OA
ATOM     91  O   UNL A   1      48.859  27.330  38.019  1.00  0.00    -0.237 OA
ATOM     92  O   UNL A   1      47.345  25.754  39.156  1.00  0.00    -0.744 OA
ENDBRANCH  88  89
ENDBRANCH  56  81
BRANCH  68  93
ATOM     93  C   UNL A   1      40.045  33.492  37.253  1.00  0.00     0.058 A 
ATOM     94  C   UNL A   1      40.826  34.644  37.435  1.00  0.00     0.135 A 
ATOM     95  C   UNL A   1      39.054  33.212  38.207  1.00  0.00     0.135 A 
ATOM     96  F   UNL A   1      41.789  34.955  36.553  1.00  0.00    -0.206 F 
ATOM     97  C   UNL A   1      40.646  35.473  38.536  1.00  0.00     0.059 A 
ATOM     98  C   UNL A   1      38.833  34.045  39.297  1.00  0.00     0.059 A 
ATOM     99  F   UNL A   1      38.268  32.130  38.070  1.00  0.00    -0.206 F 
ATOM    100  C   UNL A   1      39.643  35.167  39.459  1.00  0.00     0.060 A 
BRANCH 100 101
ATOM    101  S   UNL A   1      39.395  36.276  40.862  1.00  0.00     0.124 S 
ATOM    102  O   UNL A   1      38.764  35.386  41.831  1.00  0.00    -0.237 OA
ATOM    103  O   UNL A   1      40.758  36.691  41.175  1.00  0.00    -0.237 OA
ATOM    104  O   UNL A   1      38.535  37.324  40.319  1.00  0.00    -0.744 OA
ENDBRANCH 100 101
ENDBRANCH  68  93
ENDBRANCH  42  43
ENDBRANCH  35  37
ENDBRANCH  34  35
ENDBRANCH  33  34
ENDBRANCH  32  33
ENDBRANCH  31  32
ENDBRANCH  30  31
ENDBRANCH  29  30
ENDBRANCH  28  29
ENDBRANCH  27  28
ENDBRANCH   1  27
TORSDOF 30
ENDMDL
MODEL 2
REMARK VINA RESULT:     -10.5      5.756     10.397
REMARK SMILES CC(C)CN(C(=O)NC(=O)CCCC(=O)OCCOCCOCCOCCOC(=O)c1ccc(-c2c3nc(c(-c4c(F)cc(S(=O)(=O)[O-])cc4F)c4ccc([nH]4)c(-c4c(F)cc(S(=O)(=O)[O-])cc4F)c4nc(c(-c5c(F)cc(S(=O)(=O)[O-])cc5F)c5ccc2[nH]5)C=C4)C=C3)cc1)C1CCCC1
REMARK SMILES IDX 20 1 19 2 18 3 17 4 16 5 14 6 15 7 13 8 12 9 11 10 9 11 6 12
REMARK SMILES IDX 7 13 8 14 10 16 5 17 4 18 2 19 1 20 3 21 97 22 98 23 101 24
REMARK SMILES IDX 99 25 100 26 21 27 22 28 23 29 24 30 25 31 26 32 27 33 28 34
REMARK SMILES IDX 29 35 30 36 31 37 32 38 96 39 33 40 95 41 34 42 35 43 36 44
REMARK SMILES IDX 89 45 37 46 94 47 88 48 90 49 38 50 93 51 87 52 86 53 39 55
REMARK SMILES IDX 73 56 52 57 72 58 53 59 56 60 71 61 91 62 54 63 55 64 70 66
REMARK SMILES IDX 92 67 57 68 40 69 41 70 50 71 42 72 43 73 49 74 51 75 44 76
REMARK SMILES IDX 45 77 46 78 47 79 48 80 74 81 75 82 84 83 76 84 77 85 83 86
REMARK SMILES IDX 85 87 78 88 79 89 80 90 81 91 82 92 58 93 59 94 68 95 60 96
REMARK SMILES IDX 61 97 67 98 69 99 62 100 63 101 64 102 65 103 66 104
REMARK H PARENT 8 15 90 54 56 65
REMARK Flexibility Score: inf
ROOT
ATOM      1  C   UNL A   1      33.612  20.371  25.871  1.00  0.00     0.188 C 
ENDROOT
BRANCH   1   2
ATOM      2  O   UNL A   1      33.225  19.616  24.743  1.00  0.00    -0.376 OA
BRANCH   2   3
ATOM      3  C   UNL A   1      32.541  20.293  23.713  1.00  0.00     0.202 C 
BRANCH   3   4
ATOM      4  C   UNL A   1      31.845  21.625  24.023  1.00  0.00     0.261 C 
BRANCH   4   5
ATOM      5  O   UNL A   1      31.512  22.294  25.553  1.00  0.00    -0.463 OA
BRANCH   5   6
ATOM      6  C   UNL A   1      31.666  23.420  26.560  1.00  0.00     0.305 C 
ATOM      7  O   UNL A   1      32.236  23.099  27.624  1.00  0.00    -0.252 OA
BRANCH   6   8
ATOM      8  C   UNL A   1      31.172  25.092  26.561  1.00  0.00     0.123 C 
BRANCH   8   9
ATOM      9  C   UNL A   1      30.441  26.152  25.582  1.00  0.00     0.022 C 
BRANCH   9  10
ATOM     10  C   UNL A   1      29.540  25.885  24.349  1.00  0.00     0.101 C 
BRANCH  10  11
ATOM     11  C   UNL A   1      28.710  26.980  23.706  1.00  0.00     0.228 C 
ATOM     12  C   UNL A   1      30.368  28.752  22.751  1.00  0.00     0.324 C 
ATOM     13  O   UNL A   1      30.262  29.444  21.735  1.00  0.00    -0.248 OA
ATOM     14  N   UNL A   1      29.216  28.146  23.176  1.00  0.00    -0.278 N 
ATOM     15  H   UNL A   1      28.473  28.781  23.061  1.00  0.00     0.174 HD
ATOM     16  O   UNL A   1      27.478  26.864  23.691  1.00  0.00    -0.275 OA
BRANCH  12  17
ATOM     17  N   UNL A   1      31.599  28.553  23.384  1.00  0.00    -0.321 N 
BRANCH  17  18
ATOM     18  C   UNL A   1      32.059  29.742  24.632  1.00  0.00     0.124 C 
BRANCH  18  19
ATOM     19  C   UNL A   1      33.175  29.707  26.067  1.00  0.00     0.002 C 
ATOM     20  C   UNL A   1      33.285  30.625  27.383  1.00  0.00     0.009 C 
ATOM     21  C   UNL A   1      33.405  28.261  26.551  1.00  0.00     0.009 C 
ENDBRANCH  18  19
ENDBRANCH  17  18
BRANCH  17  22
ATOM     22  C   UNL A   1      32.425  27.255  22.482  1.00  0.00     0.087 C 
ATOM     23  C   UNL A   1      33.658  26.560  23.182  1.00  0.00     0.025 C 
ATOM     24  C   UNL A   1      31.925  26.023  21.548  1.00  0.00     0.025 C 
ATOM     25  C   UNL A   1      33.688  25.055  22.798  1.00  0.00     0.002 C 
ATOM     26  C   UNL A   1      32.364  24.709  22.167  1.00  0.00     0.002 C 
ENDBRANCH  17  22
ENDBRANCH  12  17
ENDBRANCH  10  11
ENDBRANCH   9  10
ENDBRANCH   8   9
ENDBRANCH   6   8
ENDBRANCH   5   6
ENDBRANCH   4   5
ENDBRANCH   3   4
ENDBRANCH   2   3
ENDBRANCH   1   2
BRANCH   1  27
ATOM     27  C   UNL A   1      34.994  21.034  25.785  1.00  0.00     0.188 C 
BRANCH  27  28
ATOM     28  O   UNL A   1      35.777  21.097  24.621  1.00  0.00    -0.377 OA
BRANCH  28  29
ATOM     29  C   UNL A   1      35.957  22.335  23.995  1.00  0.00     0.188 C 
BRANCH  29  30
ATOM     30  C   UNL A   1      37.056  23.200  24.619  1.00  0.00     0.188 C 
BRANCH  30  31
ATOM     31  O   UNL A   1      37.892  22.797  25.698  1.00  0.00    -0.376 OA
BRANCH  31  32
ATOM     32  C   UNL A   1      38.792  21.706  25.688  1.00  0.00     0.202 C 
BRANCH  32  33
ATOM     33  C   UNL A   1      39.862  21.539  26.779  1.00  0.00     0.261 C 
BRANCH  33  34
ATOM     34  O   UNL A   1      40.367  20.225  26.987  1.00  0.00    -0.460 OA
BRANCH  34  35
ATOM     35  C   UNL A   1      41.543  19.976  26.356  1.00  0.00     0.338 C 
ATOM     36  O   UNL A   1      41.830  19.025  25.681  1.00  0.00    -0.246 OA
BRANCH  35  37
ATOM     37  C   UNL A   1      42.376  21.188  26.501  1.00  0.00     0.060 A 
ATOM     38  C   UNL A   1      42.682  21.607  27.802  1.00  0.00     0.016 A 
ATOM     39  C   UNL A   1      42.870  21.872  25.387  1.00  0.00     0.016 A 
ATOM     40  C   UNL A   1      43.493  22.713  27.999  1.00  0.00     0.010 A 
ATOM     41  C   UNL A   1      43.611  23.036  25.584  1.00  0.00     0.010 A 
ATOM     42  C   UNL A   1      43.884  23.472  26.892  1.00  0.00    -0.014 A 
BRANCH  42  43
ATOM     43  C   UNL A   1      44.231  24.882  27.142  1.00  0.00     0.031 A 
ATOM     44  C   UNL A   1      45.674  25.260  26.948  1.00  0.00     0.074 A 
ATOM     45  C   UNL A   1      43.293  25.794  27.441  1.00  0.00     0.049 A 
ATOM     46  N   UNL A   1      46.257  26.415  27.109  1.00  0.00    -0.248 NA
ATOM     47  C   UNL A   1      46.580  24.186  26.497  1.00  0.00     0.031 C 
ATOM     48  C   UNL A   1      41.859  25.530  27.559  1.00  0.00     0.029 A 
ATOM     49  N   UNL A   1      43.415  27.132  27.700  1.00  0.00    -0.354 N 
ATOM     50  C   UNL A   1      47.592  26.204  26.780  1.00  0.00     0.074 A 
ATOM     51  C   UNL A   1      47.741  24.813  26.427  1.00  0.00     0.031 C 
ATOM     52  C   UNL A   1      41.235  26.673  27.896  1.00  0.00     0.029 A 
ATOM     53  C   UNL A   1      42.230  27.734  28.047  1.00  0.00     0.049 A 
ATOM     54  H   UNL A   1      44.270  27.617  27.642  1.00  0.00     0.167 HD
ATOM     55  C   UNL A   1      48.602  27.099  26.773  1.00  0.00     0.037 A 
ATOM     56  C   UNL A   1      42.000  28.991  28.471  1.00  0.00     0.037 A 
ATOM     57  C   UNL A   1      48.436  28.473  27.152  1.00  0.00     0.049 A 
ATOM     58  C   UNL A   1      43.165  29.946  28.562  1.00  0.00     0.074 A 
ATOM     59  C   UNL A   1      49.388  29.471  27.209  1.00  0.00     0.029 A 
ATOM     60  N   UNL A   1      47.232  29.037  27.552  1.00  0.00    -0.354 N 
ATOM     61  N   UNL A   1      44.426  29.742  28.252  1.00  0.00    -0.248 NA
ATOM     62  C   UNL A   1      42.882  31.297  29.060  1.00  0.00     0.031 C 
ATOM     63  C   UNL A   1      48.772  30.626  27.701  1.00  0.00     0.029 A 
ATOM     64  C   UNL A   1      47.422  30.365  27.884  1.00  0.00     0.049 A 
ATOM     65  H   UNL A   1      46.371  28.561  27.592  1.00  0.00     0.167 HD
ATOM     66  C   UNL A   1      45.078  30.949  28.488  1.00  0.00     0.074 A 
ATOM     67  C   UNL A   1      44.069  31.878  28.953  1.00  0.00     0.031 C 
ATOM     68  C   UNL A   1      46.389  31.265  28.334  1.00  0.00     0.037 A 
BRANCH  55  69
ATOM     69  C   UNL A   1      49.970  26.604  26.396  1.00  0.00     0.058 A 
ATOM     70  C   UNL A   1      50.441  26.654  25.074  1.00  0.00     0.135 A 
ATOM     71  C   UNL A   1      50.828  26.086  27.378  1.00  0.00     0.135 A 
ATOM     72  F   UNL A   1      49.647  27.106  24.090  1.00  0.00    -0.206 F 
ATOM     73  C   UNL A   1      51.712  26.202  24.739  1.00  0.00     0.059 A 
ATOM     74  C   UNL A   1      52.114  25.654  27.071  1.00  0.00     0.059 A 
ATOM     75  F   UNL A   1      50.418  25.994  28.654  1.00  0.00    -0.206 F 
ATOM     76  C   UNL A   1      52.545  25.711  25.746  1.00  0.00     0.060 A 
BRANCH  76  77
ATOM     77  S   UNL A   1      54.206  25.162  25.301  1.00  0.00     0.124 S 
ATOM     78  O   UNL A   1      54.934  25.394  26.544  1.00  0.00    -0.237 OA
ATOM     79  O   UNL A   1      53.985  23.764  24.948  1.00  0.00    -0.237 OA
ATOM     80  O   UNL A   1      54.568  26.036  24.190  1.00  0.00    -0.744 OA
ENDBRANCH  76  77
ENDBRANCH  55  69
BRANCH  56  81
ATOM     81  C   UNL A   1      40.630  29.410  28.874  1.00  0.00     0.058 A 
ATOM     82  C   UNL A   1      39.621  29.622  27.923  1.00  0.00     0.135 A 
ATOM     83  C   UNL A   1      40.306  29.628  30.224  1.00  0.00     0.135 A 
ATOM     84  F   UNL A   1      39.879  29.437  26.619  1.00  0.00    -0.206 F 
ATOM     85  C   UNL A   1      38.351  30.055  28.290  1.00  0.00     0.059 A 
ATOM     86  C   UNL A   1      39.034  30.031  30.619  1.00  0.00     0.059 A 
ATOM     87  F   UNL A   1      41.230  29.431  31.178  1.00  0.00    -0.206 F 
ATOM     88  C   UNL A   1      38.067  30.256  29.642  1.00  0.00     0.060 A 
BRANCH  88  89
ATOM     89  S   UNL A   1      36.406  30.789  30.108  1.00  0.00     0.124 S 
ATOM     90  O   UNL A   1      35.593  29.685  29.613  1.00  0.00    -0.237 OA
ATOM     91  O   UNL A   1      36.518  30.901  31.559  1.00  0.00    -0.237 OA
ATOM     92  O   UNL A   1      36.249  32.057  29.400  1.00  0.00    -0.744 OA
ENDBRANCH  88  89
ENDBRANCH  56  81
BRANCH  68  93
ATOM     93  C   UNL A   1      46.799  32.681  28.626  1.00  0.00     0.058 A 
ATOM     94  C   UNL A   1      46.771  33.678  27.638  1.00  0.00     0.135 A 
ATOM     95  C   UNL A   1      47.152  33.059  29.932  1.00  0.00     0.135 A 
ATOM     96  F   UNL A   1      46.443  33.369  26.374  1.00  0.00    -0.206 F 
ATOM     97  C   UNL A   1      47.105  34.995  27.931  1.00  0.00     0.059 A 
ATOM     98  C   UNL A   1      47.456  34.376  30.255  1.00  0.00     0.059 A 
ATOM     99  F   UNL A   1      47.177  32.145  30.917  1.00  0.00    -0.206 F 
ATOM    100  C   UNL A   1      47.441  35.335  29.243  1.00  0.00     0.060 A 
BRANCH 100 101
ATOM    101  S   UNL A   1      47.832  37.057  29.615  1.00  0.00     0.124 S 
ATOM    102  O   UNL A   1      47.201  37.749  28.495  1.00  0.00    -0.237 OA
ATOM    103  O   UNL A   1      47.199  37.246  30.916  1.00  0.00    -0.237 OA
ATOM    104  O   UNL A   1      49.292  37.081  29.624  1.00  0.00    -0.744 OA
ENDBRANCH 100 101
ENDBRANCH  68  93
ENDBRANCH  42  43
ENDBRANCH  35  37
ENDBRANCH  34  35
ENDBRANCH  33  34
ENDBRANCH  32  33
ENDBRANCH  31  32
ENDBRANCH  30  31
ENDBRANCH  29  30
ENDBRANCH  28  29
ENDBRANCH  27  28
ENDBRANCH   1  27
TORSDOF 30
ENDMDL
MODEL 3
REMARK VINA RESULT:     -10.5      1.085      8.109
REMARK SMILES CC(C)CN(C(=O)NC(=O)CCCC(=O)OCCOCCOCCOCCOC(=O)c1ccc(-c2c3nc(c(-c4c(F)cc(S(=O)(=O)[O-])cc4F)c4ccc([nH]4)c(-c4c(F)cc(S(=O)(=O)[O-])cc4F)c4nc(c(-c5c(F)cc(S(=O)(=O)[O-])cc5F)c5ccc2[nH]5)C=C4)C=C3)cc1)C1CCCC1
REMARK SMILES IDX 20 1 19 2 18 3 17 4 16 5 14 6 15 7 13 8 12 9 11 10 9 11 6 12
REMARK SMILES IDX 7 13 8 14 10 16 5 17 4 18 2 19 1 20 3 21 97 22 98 23 101 24
REMARK SMILES IDX 99 25 100 26 21 27 22 28 23 29 24 30 25 31 26 32 27 33 28 34
REMARK SMILES IDX 29 35 30 36 31 37 32 38 96 39 33 40 95 41 34 42 35 43 36 44
REMARK SMILES IDX 89 45 37 46 94 47 88 48 90 49 38 50 93 51 87 52 86 53 39 55
REMARK SMILES IDX 73 56 52 57 72 58 53 59 56 60 71 61 91 62 54 63 55 64 70 66
REMARK SMILES IDX 92 67 57 68 40 69 41 70 50 71 42 72 43 73 49 74 51 75 44 76
REMARK SMILES IDX 45 77 46 78 47 79 48 80 74 81 75 82 84 83 76 84 77 85 83 86
REMARK SMILES IDX 85 87 78 88 79 89 80 90 81 91 82 92 58 93 59 94 68 95 60 96
REMARK SMILES IDX 61 97 67 98 69 99 62 100 63 101 64 102 65 103 66 104
REMARK H PARENT 8 15 90 54 56 65
REMARK Flexibility Score: inf
ROOT
ATOM      1  C   UNL A   1      33.452  21.392  26.939  1.00  0.00     0.188 C 
ENDROOT
BRANCH   1   2
ATOM      2  O   UNL A   1      33.192  20.471  25.901  1.00  0.00    -0.376 OA
BRANCH   2   3
ATOM      3  C   UNL A   1      32.255  20.849  24.918  1.00  0.00     0.202 C 
BRANCH   3   4
ATOM      4  C   UNL A   1      31.067  21.735  25.313  1.00  0.00     0.261 C 
BRANCH   4   5
ATOM      5  O   UNL A   1      31.111  23.320  25.936  1.00  0.00    -0.463 OA
BRANCH   5   6
ATOM      6  C   UNL A   1      30.390  24.576  26.392  1.00  0.00     0.305 C 
ATOM      7  O   UNL A   1      29.372  24.375  27.087  1.00  0.00    -0.252 OA
BRANCH   6   8
ATOM      8  C   UNL A   1      30.668  26.275  26.114  1.00  0.00     0.123 C 
BRANCH   8   9
ATOM      9  C   UNL A   1      31.540  27.489  26.733  1.00  0.00     0.022 C 
BRANCH   9  10
ATOM     10  C   UNL A   1      31.545  28.989  26.341  1.00  0.00     0.101 C 
BRANCH  10  11
ATOM     11  C   UNL A   1      32.766  29.660  25.742  1.00  0.00     0.228 C 
ATOM     12  C   UNL A   1      32.877  28.975  23.229  1.00  0.00     0.324 C 
ATOM     13  O   UNL A   1      33.268  29.635  22.262  1.00  0.00    -0.248 OA
ATOM     14  N   UNL A   1      33.225  29.466  24.459  1.00  0.00    -0.278 N 
ATOM     15  H   UNL A   1      34.148  29.804  24.405  1.00  0.00     0.174 HD
ATOM     16  O   UNL A   1      33.450  30.404  26.458  1.00  0.00    -0.275 OA
BRANCH  12  17
ATOM     17  N   UNL A   1      32.077  27.839  23.072  1.00  0.00    -0.321 N 
BRANCH  17  18
ATOM     18  C   UNL A   1      30.322  28.058  23.309  1.00  0.00     0.124 C 
BRANCH  18  19
ATOM     19  C   UNL A   1      29.242  29.505  23.528  1.00  0.00     0.002 C 
ATOM     20  C   UNL A   1      29.544  31.049  23.863  1.00  0.00     0.009 C 
ATOM     21  C   UNL A   1      28.125  29.523  22.465  1.00  0.00     0.009 C 
ENDBRANCH  18  19
ENDBRANCH  17  18
BRANCH  17  22
ATOM     22  C   UNL A   1      33.190  26.453  22.937  1.00  0.00     0.087 C 
ATOM     23  C   UNL A   1      33.758  25.847  24.280  1.00  0.00     0.025 C 
ATOM     24  C   UNL A   1      33.239  25.120  22.008  1.00  0.00     0.025 C 
ATOM     25  C   UNL A   1      33.910  24.309  24.130  1.00  0.00     0.002 C 
ATOM     26  C   UNL A   1      33.166  23.887  22.888  1.00  0.00     0.002 C 
ENDBRANCH  17  22
ENDBRANCH  12  17
ENDBRANCH  10  11
ENDBRANCH   9  10
ENDBRANCH   8   9
ENDBRANCH   6   8
ENDBRANCH   5   6
ENDBRANCH   4   5
ENDBRANCH   3   4
ENDBRANCH   2   3
ENDBRANCH   1   2
BRANCH   1  27
ATOM     27  C   UNL A   1      34.820  22.088  26.884  1.00  0.00     0.188 C 
BRANCH  27  28
ATOM     28  O   UNL A   1      36.012  21.468  26.477  1.00  0.00    -0.377 OA
BRANCH  28  29
ATOM     29  C   UNL A   1      36.427  21.612  25.148  1.00  0.00     0.188 C 
BRANCH  29  30
ATOM     30  C   UNL A   1      37.778  22.314  24.984  1.00  0.00     0.188 C 
BRANCH  30  31
ATOM     31  O   UNL A   1      38.584  22.785  26.059  1.00  0.00    -0.376 OA
BRANCH  31  32
ATOM     32  C   UNL A   1      39.914  22.394  26.332  1.00  0.00     0.202 C 
BRANCH  32  33
ATOM     33  C   UNL A   1      40.843  23.256  27.202  1.00  0.00     0.261 C 
BRANCH  33  34
ATOM     34  O   UNL A   1      41.749  24.115  26.519  1.00  0.00    -0.460 OA
BRANCH  34  35
ATOM     35  C   UNL A   1      41.263  25.361  26.285  1.00  0.00     0.338 C 
ATOM     36  O   UNL A   1      40.766  25.781  25.275  1.00  0.00    -0.246 OA
BRANCH  35  37
ATOM     37  C   UNL A   1      41.291  26.085  27.573  1.00  0.00     0.060 A 
ATOM     38  C   UNL A   1      40.136  26.035  28.365  1.00  0.00     0.016 A 
ATOM     39  C   UNL A   1      42.432  26.765  28.005  1.00  0.00     0.016 A 
ATOM     40  C   UNL A   1      40.118  26.660  29.601  1.00  0.00     0.010 A 
ATOM     41  C   UNL A   1      42.385  27.470  29.206  1.00  0.00     0.010 A 
ATOM     42  C   UNL A   1      41.211  27.445  29.980  1.00  0.00    -0.014 A 
BRANCH  42  43
ATOM     43  C   UNL A   1      40.956  28.510  30.966  1.00  0.00     0.031 A 
ATOM     44  C   UNL A   1      41.822  28.502  32.195  1.00  0.00     0.074 A 
ATOM     45  C   UNL A   1      40.058  29.480  30.736  1.00  0.00     0.049 A 
ATOM     46  N   UNL A   1      41.808  29.304  33.223  1.00  0.00    -0.248 NA
ATOM     47  C   UNL A   1      42.856  27.451  32.266  1.00  0.00     0.031 C 
ATOM     48  C   UNL A   1      39.241  29.612  29.531  1.00  0.00     0.029 A 
ATOM     49  N   UNL A   1      39.688  30.541  31.516  1.00  0.00    -0.354 N 
ATOM     50  C   UNL A   1      42.826  28.855  34.057  1.00  0.00     0.074 A 
ATOM     51  C   UNL A   1      43.428  27.702  33.430  1.00  0.00     0.031 C 
ATOM     52  C   UNL A   1      38.441  30.686  29.666  1.00  0.00     0.029 A 
ATOM     53  C   UNL A   1      38.670  31.289  30.978  1.00  0.00     0.049 A 
ATOM     54  H   UNL A   1      40.110  30.749  32.381  1.00  0.00     0.167 HD
ATOM     55  C   UNL A   1      43.223  29.363  35.243  1.00  0.00     0.037 A 
ATOM     56  C   UNL A   1      37.988  32.321  31.513  1.00  0.00     0.037 A 
ATOM     57  C   UNL A   1      42.592  30.496  35.860  1.00  0.00     0.049 A 
ATOM     58  C   UNL A   1      38.375  32.803  32.889  1.00  0.00     0.074 A 
ATOM     59  C   UNL A   1      42.888  31.090  37.071  1.00  0.00     0.029 A 
ATOM     60  N   UNL A   1      41.527  31.197  35.312  1.00  0.00    -0.354 N 
ATOM     61  N   UNL A   1      39.337  32.373  33.675  1.00  0.00    -0.248 NA
ATOM     62  C   UNL A   1      37.588  33.906  33.454  1.00  0.00     0.031 C 
ATOM     63  C   UNL A   1      41.961  32.115  37.283  1.00  0.00     0.029 A 
ATOM     64  C   UNL A   1      41.134  32.203  36.173  1.00  0.00     0.049 A 
ATOM     65  H   UNL A   1      41.114  31.005  34.439  1.00  0.00     0.167 HD
ATOM     66  C   UNL A   1      39.289  33.175  34.811  1.00  0.00     0.074 A 
ATOM     67  C   UNL A   1      38.213  34.121  34.604  1.00  0.00     0.031 C 
ATOM     68  C   UNL A   1      40.063  33.136  35.927  1.00  0.00     0.037 A 
BRANCH  55  69
ATOM     69  C   UNL A   1      44.344  28.668  35.960  1.00  0.00     0.058 A 
ATOM     70  C   UNL A   1      45.680  29.081  35.830  1.00  0.00     0.135 A 
ATOM     71  C   UNL A   1      44.075  27.581  36.805  1.00  0.00     0.135 A 
ATOM     72  F   UNL A   1      45.997  30.093  35.005  1.00  0.00    -0.206 F 
ATOM     73  C   UNL A   1      46.709  28.436  36.506  1.00  0.00     0.059 A 
ATOM     74  C   UNL A   1      45.085  26.938  37.515  1.00  0.00     0.059 A 
ATOM     75  F   UNL A   1      42.818  27.130  36.948  1.00  0.00    -0.206 F 
ATOM     76  C   UNL A   1      46.400  27.370  37.353  1.00  0.00     0.060 A 
BRANCH  76  77
ATOM     77  S   UNL A   1      47.743  26.567  38.254  1.00  0.00     0.124 S 
ATOM     78  O   UNL A   1      48.380  27.707  38.906  1.00  0.00    -0.237 OA
ATOM     79  O   UNL A   1      47.021  25.656  39.136  1.00  0.00    -0.237 OA
ATOM     80  O   UNL A   1      48.526  25.928  37.202  1.00  0.00    -0.744 OA
ENDBRANCH  76  77
ENDBRANCH  55  69
BRANCH  56  81
ATOM     81  C   UNL A   1      36.855  32.939  30.771  1.00  0.00     0.058 A 
ATOM     82  C   UNL A   1      37.073  33.909  29.782  1.00  0.00     0.135 A 
ATOM     83  C   UNL A   1      35.525  32.586  31.054  1.00  0.00     0.135 A 
ATOM     84  F   UNL A   1      38.323  34.289  29.479  1.00  0.00    -0.206 F 
ATOM     85  C   UNL A   1      36.016  34.522  29.116  1.00  0.00     0.059 A 
ATOM     86  C   UNL A   1      34.453  33.162  30.380  1.00  0.00     0.059 A 
ATOM     87  F   UNL A   1      35.259  31.656  31.985  1.00  0.00    -0.206 F 
ATOM     88  C   UNL A   1      34.708  34.141  29.422  1.00  0.00     0.060 A 
BRANCH  88  89
ATOM     89  S   UNL A   1      33.347  34.922  28.529  1.00  0.00     0.124 S 
ATOM     90  O   UNL A   1      32.788  33.791  27.799  1.00  0.00    -0.237 OA
ATOM     91  O   UNL A   1      32.531  35.447  29.619  1.00  0.00    -0.237 OA
ATOM     92  O   UNL A   1      34.016  35.933  27.715  1.00  0.00    -0.744 OA
ENDBRANCH  88  89
ENDBRANCH  56  81
BRANCH  68  93
ATOM     93  C   UNL A   1      39.805  34.173  36.985  1.00  0.00     0.058 A 
ATOM     94  C   UNL A   1      39.044  33.887  38.129  1.00  0.00     0.135 A 
ATOM     95  C   UNL A   1      40.391  35.445  36.885  1.00  0.00     0.135 A 
ATOM     96  F   UNL A   1      38.460  32.687  38.272  1.00  0.00    -0.206 F 
ATOM     97  C   UNL A   1      38.853  34.838  39.125  1.00  0.00     0.059 A 
ATOM     98  C   UNL A   1      40.242  36.398  37.884  1.00  0.00     0.059 A 
ATOM     99  F   UNL A   1      41.142  35.762  35.817  1.00  0.00    -0.206 F 
ATOM    100  C   UNL A   1      39.460  36.089  38.996  1.00  0.00     0.060 A 
BRANCH 100 101
ATOM    101  S   UNL A   1      39.235  37.297  40.317  1.00  0.00     0.124 S 
ATOM    102  O   UNL A   1      40.618  37.605  40.671  1.00  0.00    -0.237 OA
ATOM    103  O   UNL A   1      38.500  38.362  39.643  1.00  0.00    -0.237 OA
ATOM    104  O   UNL A   1      38.479  36.562  41.327  1.00  0.00    -0.744 OA
ENDBRANCH 100 101
ENDBRANCH  68  93
ENDBRANCH  42  43
ENDBRANCH  35  37
ENDBRANCH  34  35
ENDBRANCH  33  34
ENDBRANCH  32  33
ENDBRANCH  31  32
ENDBRANCH  30  31
ENDBRANCH  29  30
ENDBRANCH  28  29
ENDBRANCH  27  28
ENDBRANCH   1  27
TORSDOF 30
ENDMDL
