MODEL 1
REMARK VINA RESULT:      -9.8      0.000      0.000
REMARK SMILES Cc1ccc(CNC(=O)NC[C@@H]2CC[C@@H](C(=O)OCCOCCOCCOCCOC(=O)c3ccc(-c4c5nc(c(-c6c(F)cc(S(=O)(=O)[O-])cc6F)c6ccc([nH]6)c(-c6c(F)cc(S(=O)(=O)[O-])cc6F)c6nc(c(-c7c(F)cc(S(=O)(=O)[O-])cc7F)c7ccc4[nH]7)C=C6)C=C5)cc3)O2)cn1
REMARK SMILES IDX 23 1 22 2 21 3 20 4 19 5 18 6 16 7 17 8 15 9 12 10 13 11
REMARK SMILES IDX 99 12 14 13 11 14 10 15 7 16 8 17 9 19 6 21 5 22 1 23 2 24
REMARK SMILES IDX 3 25 101 26 4 27 100 28 24 29 25 30 26 31 27 32 28 33 29 34
REMARK SMILES IDX 30 35 31 36 32 37 33 38 34 39 98 40 35 41 97 42 36 43 37 44
REMARK SMILES IDX 38 45 91 46 39 47 96 48 90 49 92 50 40 51 95 52 89 53 88 54
REMARK SMILES IDX 41 56 75 57 54 58 74 59 55 60 58 61 73 62 93 63 56 64 57 65
REMARK SMILES IDX 72 67 94 68 59 69 42 70 43 71 52 72 44 73 45 74 51 75 53 76
REMARK SMILES IDX 46 77 47 78 48 79 49 80 50 81 76 82 77 83 86 84 78 85 79 86
REMARK SMILES IDX 85 87 87 88 80 89 81 90 82 91 83 92 84 93 60 94 61 95 70 96
REMARK SMILES IDX 62 97 63 98 69 99 71 100 64 101 65 102 66 103 67 104 68 105
REMARK H PARENT 7 18 10 20 92 55 58 66
REMARK Flexibility Score: inf
ROOT
ATOM      1  C   UNL A   1      42.319  18.869  26.126  1.00  0.00     0.188 C 
ENDROOT
BRANCH   1   2
ATOM      2  C   UNL A   1      41.882  20.240  26.700  1.00  0.00     0.188 C 
BRANCH   2   3
ATOM      3  O   UNL A   1      41.198  21.082  25.791  1.00  0.00    -0.376 OA
BRANCH   3   4
ATOM      4  C   UNL A   1      39.940  21.630  26.139  1.00  0.00     0.202 C 
BRANCH   4   5
ATOM      5  C   UNL A   1      38.677  21.036  25.505  1.00  0.00     0.261 C 
BRANCH   5   6
ATOM      6  O   UNL A   1      37.804  21.998  24.913  1.00  0.00    -0.461 OA
BRANCH   6   7
ATOM      7  C   UNL A   1      37.387  23.037  25.682  1.00  0.00     0.335 C 
ATOM      8  O   UNL A   1      38.016  24.070  25.874  1.00  0.00    -0.249 OA
BRANCH   7   9
ATOM      9  C   UNL A   1      35.934  22.804  26.107  1.00  0.00     0.228 C 
ATOM     10  C   UNL A   1      33.972  23.978  25.602  1.00  0.00     0.138 C 
ATOM     11  C   UNL A   1      33.744  22.506  25.304  1.00  0.00     0.037 C 
ATOM     12  O   UNL A   1      35.199  24.009  26.345  1.00  0.00    -0.361 OA
ATOM     13  C   UNL A   1      35.146  21.985  25.111  1.00  0.00     0.047 C 
BRANCH  10  14
ATOM     14  C   UNL A   1      32.870  24.667  26.426  1.00  0.00     0.149 C 
BRANCH  14  15
ATOM     15  N   UNL A   1      31.839  23.735  26.855  1.00  0.00    -0.336 N 
ATOM     16  N   UNL A   1      29.746  24.688  26.320  1.00  0.00    -0.334 N 
ATOM     17  C   UNL A   1      30.506  23.713  26.825  1.00  0.00     0.315 C 
ATOM     18  H   UNL A   1      28.786  24.474  26.357  1.00  0.00     0.165 HD
ATOM     19  O   UNL A   1      29.927  22.729  27.287  1.00  0.00    -0.249 OA
ATOM     20  H   UNL A   1      32.217  22.923  27.264  1.00  0.00     0.165 HD
BRANCH  16  21
ATOM     21  C   UNL A   1      30.001  25.978  25.735  1.00  0.00     0.155 C 
BRANCH  21  22
ATOM     22  C   UNL A   1      30.671  25.914  24.396  1.00  0.00    -0.010 A 
ATOM     23  C   UNL A   1      32.586  25.621  20.605  1.00  0.00     0.066 C 
ATOM     24  C   UNL A   1      31.953  25.745  21.957  1.00  0.00     0.037 A 
ATOM     25  C   UNL A   1      32.066  26.916  22.696  1.00  0.00     0.024 A 
ATOM     26  N   UNL A   1      31.264  24.670  22.402  1.00  0.00    -0.261 NA
ATOM     27  C   UNL A   1      31.426  26.994  23.930  1.00  0.00     0.009 A 
ATOM     28  C   UNL A   1      30.646  24.774  23.602  1.00  0.00     0.116 A 
ENDBRANCH  21  22
ENDBRANCH  16  21
ENDBRANCH  14  15
ENDBRANCH  10  14
ENDBRANCH   7   9
ENDBRANCH   6   7
ENDBRANCH   5   6
ENDBRANCH   4   5
ENDBRANCH   3   4
ENDBRANCH   2   3
ENDBRANCH   1   2
BRANCH   1  29
ATOM     29  O   UNL A   1      43.286  18.777  25.091  1.00  0.00    -0.377 OA
BRANCH  29  30
ATOM     30  C   UNL A   1      44.529  19.454  25.216  1.00  0.00     0.188 C 
BRANCH  30  31
ATOM     31  C   UNL A   1      44.800  20.734  24.392  1.00  0.00     0.188 C 
BRANCH  31  32
ATOM     32  O   UNL A   1      45.122  21.873  25.175  1.00  0.00    -0.376 OA
BRANCH  32  33
ATOM     33  C   UNL A   1      44.710  23.137  24.687  1.00  0.00     0.202 C 
BRANCH  33  34
ATOM     34  C   UNL A   1      43.368  23.691  25.189  1.00  0.00     0.261 C 
BRANCH  34  35
ATOM     35  O   UNL A   1      43.424  24.887  25.979  1.00  0.00    -0.460 OA
BRANCH  35  36
ATOM     36  C   UNL A   1      42.425  25.783  25.824  1.00  0.00     0.338 C 
ATOM     37  O   UNL A   1      41.656  25.867  24.879  1.00  0.00    -0.246 OA
BRANCH  36  38
ATOM     38  C   UNL A   1      42.288  26.522  27.096  1.00  0.00     0.060 A 
ATOM     39  C   UNL A   1      41.322  26.115  28.026  1.00  0.00     0.016 A 
ATOM     40  C   UNL A   1      43.128  27.603  27.376  1.00  0.00     0.016 A 
ATOM     41  C   UNL A   1      41.174  26.807  29.229  1.00  0.00     0.010 A 
ATOM     42  C   UNL A   1      42.961  28.310  28.569  1.00  0.00     0.010 A 
ATOM     43  C   UNL A   1      41.962  27.936  29.485  1.00  0.00    -0.014 A 
BRANCH  43  44
ATOM     44  C   UNL A   1      41.607  28.837  30.608  1.00  0.00     0.031 A 
ATOM     45  C   UNL A   1      42.434  28.766  31.864  1.00  0.00     0.074 A 
ATOM     46  C   UNL A   1      40.592  29.716  30.510  1.00  0.00     0.049 A 
ATOM     47  N   UNL A   1      42.302  29.425  32.985  1.00  0.00    -0.248 NA
ATOM     48  C   UNL A   1      43.564  27.821  31.852  1.00  0.00     0.031 C 
ATOM     49  C   UNL A   1      39.747  29.906  29.333  1.00  0.00     0.029 A 
ATOM     50  N   UNL A   1      40.098  30.611  31.427  1.00  0.00    -0.354 N 
ATOM     51  C   UNL A   1      43.319  28.966  33.815  1.00  0.00     0.074 A 
ATOM     52  C   UNL A   1      44.045  27.955  33.078  1.00  0.00     0.031 C 
ATOM     53  C   UNL A   1      38.834  30.855  29.601  1.00  0.00     0.029 A 
ATOM     54  C   UNL A   1      39.005  31.314  30.979  1.00  0.00     0.049 A 
ATOM     55  H   UNL A   1      40.490  30.736  32.322  1.00  0.00     0.167 HD
ATOM     56  C   UNL A   1      43.624  29.358  35.075  1.00  0.00     0.037 A 
ATOM     57  C   UNL A   1      38.223  32.209  31.617  1.00  0.00     0.037 A 
ATOM     58  C   UNL A   1      42.897  30.368  35.799  1.00  0.00     0.049 A 
ATOM     59  C   UNL A   1      38.541  32.575  33.047  1.00  0.00     0.074 A 
ATOM     60  C   UNL A   1      43.144  30.858  37.069  1.00  0.00     0.029 A 
ATOM     61  N   UNL A   1      41.775  31.031  35.326  1.00  0.00    -0.354 N 
ATOM     62  N   UNL A   1      39.528  32.162  33.808  1.00  0.00    -0.248 NA
ATOM     63  C   UNL A   1      37.639  33.532  33.704  1.00  0.00     0.031 C 
ATOM     64  C   UNL A   1      42.134  31.770  37.389  1.00  0.00     0.029 A 
ATOM     65  C   UNL A   1      41.298  31.902  36.292  1.00  0.00     0.049 A 
ATOM     66  H   UNL A   1      41.376  30.904  34.435  1.00  0.00     0.167 HD
ATOM     67  C   UNL A   1      39.384  32.836  35.019  1.00  0.00     0.074 A 
ATOM     68  C   UNL A   1      38.224  33.692  34.883  1.00  0.00     0.031 C 
ATOM     69  C   UNL A   1      40.145  32.756  36.140  1.00  0.00     0.037 A 
BRANCH  56  70
ATOM     70  C   UNL A   1      44.767  28.668  35.767  1.00  0.00     0.058 A 
ATOM     71  C   UNL A   1      46.085  29.150  35.690  1.00  0.00     0.135 A 
ATOM     72  C   UNL A   1      44.533  27.530  36.556  1.00  0.00     0.135 A 
ATOM     73  F   UNL A   1      46.371  30.221  34.932  1.00  0.00    -0.206 F 
ATOM     74  C   UNL A   1      47.130  28.516  36.354  1.00  0.00     0.059 A 
ATOM     75  C   UNL A   1      45.557  26.899  37.254  1.00  0.00     0.059 A 
ATOM     76  F   UNL A   1      43.294  27.023  36.659  1.00  0.00    -0.206 F 
ATOM     77  C   UNL A   1      46.855  27.394  37.139  1.00  0.00     0.060 A 
BRANCH  77  78
ATOM     78  S   UNL A   1      48.219  26.598  38.013  1.00  0.00     0.124 S 
ATOM     79  O   UNL A   1      48.097  25.218  37.549  1.00  0.00    -0.237 OA
ATOM     80  O   UNL A   1      49.377  27.333  37.515  1.00  0.00    -0.237 OA
ATOM     81  O   UNL A   1      47.897  26.815  39.419  1.00  0.00    -0.744 OA
ENDBRANCH  77  78
ENDBRANCH  56  70
BRANCH  57  82
ATOM     82  C   UNL A   1      37.059  32.823  30.922  1.00  0.00     0.058 A 
ATOM     83  C   UNL A   1      37.222  33.919  30.062  1.00  0.00     0.135 A 
ATOM     84  C   UNL A   1      35.754  32.343  31.123  1.00  0.00     0.135 A 
ATOM     85  F   UNL A   1      38.445  34.426  29.847  1.00  0.00    -0.206 F 
ATOM     86  C   UNL A   1      36.137  34.532  29.443  1.00  0.00     0.059 A 
ATOM     87  C   UNL A   1      34.655  32.918  30.491  1.00  0.00     0.059 A 
ATOM     88  F   UNL A   1      35.540  31.292  31.930  1.00  0.00    -0.206 F 
ATOM     89  C   UNL A   1      34.856  34.021  29.661  1.00  0.00     0.060 A 
BRANCH  89  90
ATOM     90  S   UNL A   1      33.460  34.800  28.821  1.00  0.00     0.124 S 
ATOM     91  O   UNL A   1      32.530  35.007  29.925  1.00  0.00    -0.237 OA
ATOM     92  O   UNL A   1      34.073  36.004  28.267  1.00  0.00    -0.237 OA
ATOM     93  O   UNL A   1      33.058  33.801  27.836  1.00  0.00    -0.744 OA
ENDBRANCH  89  90
ENDBRANCH  57  82
BRANCH  69  94
ATOM     94  C   UNL A   1      39.781  33.651  37.297  1.00  0.00     0.058 A 
ATOM     95  C   UNL A   1      38.885  33.244  38.298  1.00  0.00     0.135 A 
ATOM     96  C   UNL A   1      40.378  34.916  37.429  1.00  0.00     0.135 A 
ATOM     97  F   UNL A   1      38.283  32.047  38.222  1.00  0.00    -0.206 F 
ATOM     98  C   UNL A   1      38.569  34.073  39.371  1.00  0.00     0.059 A 
ATOM     99  C   UNL A   1      40.104  35.746  38.512  1.00  0.00     0.059 A 
ATOM    100  F   UNL A   1      41.253  35.351  36.508  1.00  0.00    -0.206 F 
ATOM    101  C   UNL A   1      39.185  35.322  39.470  1.00  0.00     0.060 A 
BRANCH 101 102
ATOM    102  S   UNL A   1      38.785  36.376  40.880  1.00  0.00     0.124 S 
ATOM    103  O   UNL A   1      37.782  35.572  41.572  1.00  0.00    -0.237 OA
ATOM    104  O   UNL A   1      40.074  36.499  41.552  1.00  0.00    -0.237 OA
ATOM    105  O   UNL A   1      38.288  37.600  40.260  1.00  0.00    -0.744 OA
ENDBRANCH 101 102
ENDBRANCH  69  94
ENDBRANCH  43  44
ENDBRANCH  36  38
ENDBRANCH  35  36
ENDBRANCH  34  35
ENDBRANCH  33  34
ENDBRANCH  32  33
ENDBRANCH  31  32
ENDBRANCH  30  31
ENDBRANCH  29  30
ENDBRANCH   1  29
TORSDOF 27
ENDMDL
MODEL 2
REMARK VINA RESULT:      -9.8      1.208      2.215
REMARK SMILES Cc1ccc(CNC(=O)NC[C@@H]2CC[C@@H](C(=O)OCCOCCOCCOCCOC(=O)c3ccc(-c4c5nc(c(-c6c(F)cc(S(=O)(=O)[O-])cc6F)c6ccc([nH]6)c(-c6c(F)cc(S(=O)(=O)[O-])cc6F)c6nc(c(-c7c(F)cc(S(=O)(=O)[O-])cc7F)c7ccc4[nH]7)C=C6)C=C5)cc3)O2)cn1
REMARK SMILES IDX 23 1 22 2 21 3 20 4 19 5 18 6 16 7 17 8 15 9 12 10 13 11
REMARK SMILES IDX 99 12 14 13 11 14 10 15 7 16 8 17 9 19 6 21 5 22 1 23 2 24
REMARK SMILES IDX 3 25 101 26 4 27 100 28 24 29 25 30 26 31 27 32 28 33 29 34
REMARK SMILES IDX 30 35 31 36 32 37 33 38 34 39 98 40 35 41 97 42 36 43 37 44
REMARK SMILES IDX 38 45 91 46 39 47 96 48 90 49 92 50 40 51 95 52 89 53 88 54
REMARK SMILES IDX 41 56 75 57 54 58 74 59 55 60 58 61 73 62 93 63 56 64 57 65
REMARK SMILES IDX 72 67 94 68 59 69 42 70 43 71 52 72 44 73 45 74 51 75 53 76
REMARK SMILES IDX 46 77 47 78 48 79 49 80 50 81 76 82 77 83 86 84 78 85 79 86
REMARK SMILES IDX 85 87 87 88 80 89 81 90 82 91 83 92 84 93 60 94 61 95 70 96
REMARK SMILES IDX 62 97 63 98 69 99 71 100 64 101 65 102 66 103 67 104 68 105
REMARK H PARENT 7 18 10 20 92 55 58 66
REMARK Flexibility Score: inf
ROOT
ATOM      1  C   UNL A   1      42.152  19.075  26.027  1.00  0.00     0.188 C 
ENDROOT
BRANCH   1   2
ATOM      2  C   UNL A   1      41.902  20.462  26.671  1.00  0.00     0.188 C 
BRANCH   2   3
ATOM      3  O   UNL A   1      41.315  21.426  25.816  1.00  0.00    -0.376 OA
BRANCH   3   4
ATOM      4  C   UNL A   1      40.100  22.053  26.181  1.00  0.00     0.202 C 
BRANCH   4   5
ATOM      5  C   UNL A   1      38.781  21.327  25.893  1.00  0.00     0.261 C 
BRANCH   5   6
ATOM      6  O   UNL A   1      37.847  22.082  25.121  1.00  0.00    -0.461 OA
BRANCH   6   7
ATOM      7  C   UNL A   1      37.138  23.053  25.753  1.00  0.00     0.335 C 
ATOM      8  O   UNL A   1      37.607  24.094  26.195  1.00  0.00    -0.249 OA
BRANCH   7   9
ATOM      9  C   UNL A   1      35.642  22.739  25.651  1.00  0.00     0.228 C 
ATOM     10  C   UNL A   1      34.249  22.461  23.789  1.00  0.00     0.138 C 
ATOM     11  C   UNL A   1      34.071  21.265  24.708  1.00  0.00     0.037 C 
ATOM     12  O   UNL A   1      34.980  23.413  24.575  1.00  0.00    -0.361 OA
ATOM     13  C   UNL A   1      35.352  21.263  25.503  1.00  0.00     0.047 C 
BRANCH  10  14
ATOM     14  C   UNL A   1      32.947  23.116  23.294  1.00  0.00     0.149 C 
BRANCH  14  15
ATOM     15  N   UNL A   1      33.155  23.923  22.101  1.00  0.00    -0.336 N 
ATOM     16  N   UNL A   1      32.141  26.023  22.470  1.00  0.00    -0.334 N 
ATOM     17  C   UNL A   1      32.827  25.158  21.719  1.00  0.00     0.315 C 
ATOM     18  H   UNL A   1      32.027  26.896  22.030  1.00  0.00     0.165 HD
ATOM     19  O   UNL A   1      33.180  25.538  20.602  1.00  0.00    -0.249 OA
ATOM     20  H   UNL A   1      33.663  23.440  21.409  1.00  0.00     0.165 HD
BRANCH  16  21
ATOM     21  C   UNL A   1      31.530  25.979  23.773  1.00  0.00     0.155 C 
BRANCH  21  22
ATOM     22  C   UNL A   1      32.185  26.874  24.780  1.00  0.00    -0.010 A 
ATOM     23  C   UNL A   1      33.947  29.464  27.663  1.00  0.00     0.066 C 
ATOM     24  C   UNL A   1      33.348  28.580  26.613  1.00  0.00     0.037 A 
ATOM     25  C   UNL A   1      34.101  28.141  25.532  1.00  0.00     0.024 A 
ATOM     26  N   UNL A   1      32.053  28.228  26.787  1.00  0.00    -0.261 NA
ATOM     27  C   UNL A   1      33.508  27.288  24.604  1.00  0.00     0.009 A 
ATOM     28  C   UNL A   1      31.503  27.394  25.873  1.00  0.00     0.116 A 
ENDBRANCH  21  22
ENDBRANCH  16  21
ENDBRANCH  14  15
ENDBRANCH  10  14
ENDBRANCH   7   9
ENDBRANCH   6   7
ENDBRANCH   5   6
ENDBRANCH   4   5
ENDBRANCH   3   4
ENDBRANCH   2   3
ENDBRANCH   1   2
BRANCH   1  29
ATOM     29  O   UNL A   1      43.098  18.908  24.982  1.00  0.00    -0.377 OA
BRANCH  29  30
ATOM     30  C   UNL A   1      44.399  19.466  25.102  1.00  0.00     0.188 C 
BRANCH  30  31
ATOM     31  C   UNL A   1      44.781  20.722  24.287  1.00  0.00     0.188 C 
BRANCH  31  32
ATOM     32  O   UNL A   1      45.270  21.800  25.070  1.00  0.00    -0.376 OA
BRANCH  32  33
ATOM     33  C   UNL A   1      44.850  23.105  24.718  1.00  0.00     0.202 C 
BRANCH  33  34
ATOM     34  C   UNL A   1      43.607  23.668  25.423  1.00  0.00     0.261 C 
BRANCH  34  35
ATOM     35  O   UNL A   1      43.762  24.932  26.083  1.00  0.00    -0.460 OA
BRANCH  35  36
ATOM     36  C   UNL A   1      42.788  25.851  25.904  1.00  0.00     0.338 C 
ATOM     37  O   UNL A   1      42.033  25.942  24.948  1.00  0.00    -0.246 OA
BRANCH  36  38
ATOM     38  C   UNL A   1      42.656  26.611  27.163  1.00  0.00     0.060 A 
ATOM     39  C   UNL A   1      41.902  26.071  28.215  1.00  0.00     0.016 A 
ATOM     40  C   UNL A   1      43.292  27.846  27.311  1.00  0.00     0.016 A 
ATOM     41  C   UNL A   1      41.761  26.780  29.409  1.00  0.00     0.010 A 
ATOM     42  C   UNL A   1      43.128  28.565  28.497  1.00  0.00     0.010 A 
ATOM     43  C   UNL A   1      42.335  28.050  29.538  1.00  0.00    -0.014 A 
BRANCH  43  44
ATOM     44  C   UNL A   1      41.941  28.921  30.673  1.00  0.00     0.031 A 
ATOM     45  C   UNL A   1      42.757  28.852  31.937  1.00  0.00     0.074 A 
ATOM     46  C   UNL A   1      40.901  29.769  30.580  1.00  0.00     0.049 A 
ATOM     47  N   UNL A   1      42.593  29.486  33.068  1.00  0.00    -0.248 NA
ATOM     48  C   UNL A   1      43.915  27.942  31.920  1.00  0.00     0.031 C 
ATOM     49  C   UNL A   1      40.063  29.955  29.397  1.00  0.00     0.029 A 
ATOM     50  N   UNL A   1      40.370  30.632  31.507  1.00  0.00    -0.354 N 
ATOM     51  C   UNL A   1      43.615  29.043  33.900  1.00  0.00     0.074 A 
ATOM     52  C   UNL A   1      44.379  28.068  33.154  1.00  0.00     0.031 C 
ATOM     53  C   UNL A   1      39.118  30.871  29.672  1.00  0.00     0.029 A 
ATOM     54  C   UNL A   1      39.261  31.310  31.059  1.00  0.00     0.049 A 
ATOM     55  H   UNL A   1      40.749  30.754  32.408  1.00  0.00     0.167 HD
ATOM     56  C   UNL A   1      43.894  29.421  35.170  1.00  0.00     0.037 A 
ATOM     57  C   UNL A   1      38.446  32.169  31.705  1.00  0.00     0.037 A 
ATOM     58  C   UNL A   1      43.129  30.395  35.904  1.00  0.00     0.049 A 
ATOM     59  C   UNL A   1      38.737  32.519  33.145  1.00  0.00     0.074 A 
ATOM     60  C   UNL A   1      43.349  30.869  37.186  1.00  0.00     0.029 A 
ATOM     61  N   UNL A   1      41.993  31.033  35.430  1.00  0.00    -0.354 N 
ATOM     62  N   UNL A   1      39.728  32.122  33.909  1.00  0.00    -0.248 NA
ATOM     63  C   UNL A   1      37.799  33.436  33.809  1.00  0.00     0.031 C 
ATOM     64  C   UNL A   1      42.307  31.745  37.511  1.00  0.00     0.029 A 
ATOM     65  C   UNL A   1      41.479  31.871  36.406  1.00  0.00     0.049 A 
ATOM     66  H   UNL A   1      41.608  30.910  34.533  1.00  0.00     0.167 HD
ATOM     67  C   UNL A   1      39.551  32.770  35.130  1.00  0.00     0.074 A 
ATOM     68  C   UNL A   1      38.368  33.592  34.996  1.00  0.00     0.031 C 
ATOM     69  C   UNL A   1      40.303  32.693  36.257  1.00  0.00     0.037 A 
BRANCH  56  70
ATOM     70  C   UNL A   1      45.051  28.754  35.862  1.00  0.00     0.058 A 
ATOM     71  C   UNL A   1      44.896  27.571  36.603  1.00  0.00     0.135 A 
ATOM     72  C   UNL A   1      46.346  29.287  35.745  1.00  0.00     0.135 A 
ATOM     73  F   UNL A   1      43.677  27.030  36.767  1.00  0.00    -0.206 F 
ATOM     74  C   UNL A   1      45.979  26.952  37.219  1.00  0.00     0.059 A 
ATOM     75  C   UNL A   1      47.447  28.667  36.326  1.00  0.00     0.059 A 
ATOM     76  F   UNL A   1      46.551  30.419  35.054  1.00  0.00    -0.206 F 
ATOM     77  C   UNL A   1      47.253  27.505  37.070  1.00  0.00     0.060 A 
BRANCH  77  78
ATOM     78  S   UNL A   1      48.649  26.676  37.856  1.00  0.00     0.124 S 
ATOM     79  O   UNL A   1      49.620  26.641  36.765  1.00  0.00    -0.237 OA
ATOM     80  O   UNL A   1      48.967  27.579  38.957  1.00  0.00    -0.237 OA
ATOM     81  O   UNL A   1      48.102  25.381  38.247  1.00  0.00    -0.744 OA
ENDBRANCH  77  78
ENDBRANCH  56  70
BRANCH  57  82
ATOM     82  C   UNL A   1      37.270  32.760  31.008  1.00  0.00     0.058 A 
ATOM     83  C   UNL A   1      35.984  32.224  31.172  1.00  0.00     0.135 A 
ATOM     84  C   UNL A   1      37.411  33.858  30.144  1.00  0.00     0.135 A 
ATOM     85  F   UNL A   1      35.796  31.166  31.975  1.00  0.00    -0.206 F 
ATOM     86  C   UNL A   1      34.885  32.738  30.491  1.00  0.00     0.059 A 
ATOM     87  C   UNL A   1      36.322  34.411  29.475  1.00  0.00     0.059 A 
ATOM     88  F   UNL A   1      38.618  34.415  29.955  1.00  0.00    -0.206 F 
ATOM     89  C   UNL A   1      35.064  33.835  29.646  1.00  0.00     0.060 A 
BRANCH  89  90
ATOM     90  S   UNL A   1      33.623  34.517  28.798  1.00  0.00     0.124 S 
ATOM     91  O   UNL A   1      32.685  34.687  29.901  1.00  0.00    -0.237 OA
ATOM     92  O   UNL A   1      34.162  35.745  28.222  1.00  0.00    -0.237 OA
ATOM     93  O   UNL A   1      33.278  33.479  27.831  1.00  0.00    -0.744 OA
ENDBRANCH  89  90
ENDBRANCH  57  82
BRANCH  69  94
ATOM     94  C   UNL A   1      39.899  33.555  37.426  1.00  0.00     0.058 A 
ATOM     95  C   UNL A   1      38.899  33.163  38.329  1.00  0.00     0.135 A 
ATOM     96  C   UNL A   1      40.561  34.770  37.671  1.00  0.00     0.135 A 
ATOM     97  F   UNL A   1      38.232  32.013  38.142  1.00  0.00    -0.206 F 
ATOM     98  C   UNL A   1      38.547  33.960  39.415  1.00  0.00     0.059 A 
ATOM     99  C   UNL A   1      40.249  35.566  38.770  1.00  0.00     0.059 A 
ATOM    100  F   UNL A   1      41.536  35.188  36.848  1.00  0.00    -0.206 F 
ATOM    101  C   UNL A   1      39.229  35.159  39.628  1.00  0.00     0.060 A 
BRANCH 101 102
ATOM    102  S   UNL A   1      38.779  36.171  41.053  1.00  0.00     0.124 S 
ATOM    103  O   UNL A   1      37.593  35.476  41.544  1.00  0.00    -0.237 OA
ATOM    104  O   UNL A   1      39.967  36.070  41.895  1.00  0.00    -0.237 OA
ATOM    105  O   UNL A   1      38.538  37.489  40.474  1.00  0.00    -0.744 OA
ENDBRANCH 101 102
ENDBRANCH  69  94
ENDBRANCH  43  44
ENDBRANCH  36  38
ENDBRANCH  35  36
ENDBRANCH  34  35
ENDBRANCH  33  34
ENDBRANCH  32  33
ENDBRANCH  31  32
ENDBRANCH  30  31
ENDBRANCH  29  30
ENDBRANCH   1  29
TORSDOF 27
ENDMDL
MODEL 3
REMARK VINA RESULT:      -9.1      1.977      2.885
REMARK SMILES Cc1ccc(CNC(=O)NC[C@@H]2CC[C@@H](C(=O)OCCOCCOCCOCCOC(=O)c3ccc(-c4c5nc(c(-c6c(F)cc(S(=O)(=O)[O-])cc6F)c6ccc([nH]6)c(-c6c(F)cc(S(=O)(=O)[O-])cc6F)c6nc(c(-c7c(F)cc(S(=O)(=O)[O-])cc7F)c7ccc4[nH]7)C=C6)C=C5)cc3)O2)cn1
REMARK SMILES IDX 23 1 22 2 21 3 20 4 19 5 18 6 16 7 17 8 15 9 12 10 13 11
REMARK SMILES IDX 99 12 14 13 11 14 10 15 7 16 8 17 9 19 6 21 5 22 1 23 2 24
REMARK SMILES IDX 3 25 101 26 4 27 100 28 24 29 25 30 26 31 27 32 28 33 29 34
REMARK SMILES IDX 30 35 31 36 32 37 33 38 34 39 98 40 35 41 97 42 36 43 37 44
REMARK SMILES IDX 38 45 91 46 39 47 96 48 90 49 92 50 40 51 95 52 89 53 88 54
REMARK SMILES IDX 41 56 75 57 54 58 74 59 55 60 58 61 73 62 93 63 56 64 57 65
REMARK SMILES IDX 72 67 94 68 59 69 42 70 43 71 52 72 44 73 45 74 51 75 53 76
REMARK SMILES IDX 46 77 47 78 48 79 49 80 50 81 76 82 77 83 86 84 78 85 79 86
REMARK SMILES IDX 85 87 87 88 80 89 81 90 82 91 83 92 84 93 60 94 61 95 70 96
REMARK SMILES IDX 62 97 63 98 69 99 71 100 64 101 65 102 66 103 67 104 68 105
REMARK H PARENT 7 18 10 20 92 55 58 66
REMARK Flexibility Score: inf
ROOT
ATOM      1  C   UNL A   1      42.177  19.202  25.924  1.00  0.00     0.188 C 
ENDROOT
BRANCH   1   2
ATOM      2  C   UNL A   1      42.288  20.466  26.812  1.00  0.00     0.188 C 
BRANCH   2   3
ATOM      3  O   UNL A   1      41.950  21.683  26.170  1.00  0.00    -0.376 OA
BRANCH   3   4
ATOM      4  C   UNL A   1      41.074  22.599  26.801  1.00  0.00     0.202 C 
BRANCH   4   5
ATOM      5  C   UNL A   1      39.628  22.168  27.073  1.00  0.00     0.261 C 
BRANCH   5   6
ATOM      6  O   UNL A   1      38.684  22.621  26.103  1.00  0.00    -0.461 OA
BRANCH   6   7
ATOM      7  C   UNL A   1      38.145  23.857  26.270  1.00  0.00     0.335 C 
ATOM      8  O   UNL A   1      38.774  24.870  26.547  1.00  0.00    -0.249 OA
BRANCH   7   9
ATOM      9  C   UNL A   1      36.668  23.826  25.864  1.00  0.00     0.228 C 
ATOM     10  C   UNL A   1      35.559  22.651  24.169  1.00  0.00     0.138 C 
ATOM     11  C   UNL A   1      34.833  22.406  25.481  1.00  0.00     0.037 C 
ATOM     12  O   UNL A   1      36.456  23.734  24.451  1.00  0.00    -0.361 OA
ATOM     13  C   UNL A   1      35.897  22.697  26.509  1.00  0.00     0.047 C 
BRANCH  10  14
ATOM     14  C   UNL A   1      34.665  23.039  22.978  1.00  0.00     0.149 C 
BRANCH  14  15
ATOM     15  N   UNL A   1      33.501  23.809  23.391  1.00  0.00    -0.336 N 
ATOM     16  N   UNL A   1      31.578  22.574  22.797  1.00  0.00    -0.334 N 
ATOM     17  C   UNL A   1      32.180  23.641  23.329  1.00  0.00     0.315 C 
ATOM     18  H   UNL A   1      30.598  22.616  22.876  1.00  0.00     0.165 HD
ATOM     19  O   UNL A   1      31.456  24.521  23.796  1.00  0.00    -0.249 OA
ATOM     20  H   UNL A   1      33.750  24.659  23.821  1.00  0.00     0.165 HD
BRANCH  16  21
ATOM     21  C   UNL A   1      32.027  21.376  22.136  1.00  0.00     0.155 C 
BRANCH  21  22
ATOM     22  C   UNL A   1      32.217  20.210  23.059  1.00  0.00    -0.010 A 
ATOM     23  C   UNL A   1      32.806  16.967  25.752  1.00  0.00     0.066 C 
ATOM     24  C   UNL A   1      32.634  18.089  24.775  1.00  0.00     0.037 A 
ATOM     25  C   UNL A   1      32.583  17.847  23.409  1.00  0.00     0.024 A 
ATOM     26  N   UNL A   1      32.518  19.331  25.298  1.00  0.00    -0.261 NA
ATOM     27  C   UNL A   1      32.382  18.921  22.545  1.00  0.00     0.009 A 
ATOM     28  C   UNL A   1      32.318  20.357  24.437  1.00  0.00     0.116 A 
ENDBRANCH  21  22
ENDBRANCH  16  21
ENDBRANCH  14  15
ENDBRANCH  10  14
ENDBRANCH   7   9
ENDBRANCH   6   7
ENDBRANCH   5   6
ENDBRANCH   4   5
ENDBRANCH   3   4
ENDBRANCH   2   3
ENDBRANCH   1   2
BRANCH   1  29
ATOM     29  O   UNL A   1      43.077  18.973  24.851  1.00  0.00    -0.377 OA
BRANCH  29  30
ATOM     30  C   UNL A   1      44.475  19.131  25.047  1.00  0.00     0.188 C 
BRANCH  30  31
ATOM     31  C   UNL A   1      45.170  20.450  24.639  1.00  0.00     0.188 C 
BRANCH  31  32
ATOM     32  O   UNL A   1      45.845  21.107  25.701  1.00  0.00    -0.376 OA
BRANCH  32  33
ATOM     33  C   UNL A   1      45.910  22.520  25.657  1.00  0.00     0.202 C 
BRANCH  33  34
ATOM     34  C   UNL A   1      44.786  23.307  26.347  1.00  0.00     0.261 C 
BRANCH  34  35
ATOM     35  O   UNL A   1      45.165  24.528  26.997  1.00  0.00    -0.460 OA
BRANCH  35  36
ATOM     36  C   UNL A   1      44.623  25.675  26.532  1.00  0.00     0.338 C 
ATOM     37  O   UNL A   1      44.260  25.903  25.389  1.00  0.00    -0.246 OA
BRANCH  36  38
ATOM     38  C   UNL A   1      44.356  26.546  27.695  1.00  0.00     0.060 A 
ATOM     39  C   UNL A   1      43.524  26.082  28.723  1.00  0.00     0.016 A 
ATOM     40  C   UNL A   1      44.945  27.810  27.777  1.00  0.00     0.016 A 
ATOM     41  C   UNL A   1      43.255  26.895  29.825  1.00  0.00     0.010 A 
ATOM     42  C   UNL A   1      44.654  28.633  28.869  1.00  0.00     0.010 A 
ATOM     43  C   UNL A   1      43.782  28.191  29.880  1.00  0.00    -0.014 A 
BRANCH  43  44
ATOM     44  C   UNL A   1      43.263  29.151  30.886  1.00  0.00     0.031 A 
ATOM     45  C   UNL A   1      44.071  29.375  32.136  1.00  0.00     0.074 A 
ATOM     46  C   UNL A   1      42.117  29.827  30.686  1.00  0.00     0.049 A 
ATOM     47  N   UNL A   1      43.813  30.134  33.168  1.00  0.00    -0.248 NA
ATOM     48  C   UNL A   1      45.345  28.640  32.234  1.00  0.00     0.031 C 
ATOM     49  C   UNL A   1      41.270  29.726  29.499  1.00  0.00     0.029 A 
ATOM     50  N   UNL A   1      41.466  30.731  31.488  1.00  0.00    -0.354 N 
ATOM     51  C   UNL A   1      44.880  29.959  34.042  1.00  0.00     0.074 A 
ATOM     52  C   UNL A   1      45.777  29.002  33.432  1.00  0.00     0.031 C 
ATOM     53  C   UNL A   1      40.206  30.533  29.653  1.00  0.00     0.029 A 
ATOM     54  C   UNL A   1      40.277  31.180  30.962  1.00  0.00     0.049 A 
ATOM     55  H   UNL A   1      41.817  31.030  32.358  1.00  0.00     0.167 HD
ATOM     56  C   UNL A   1      45.095  30.547  35.242  1.00  0.00     0.037 A 
ATOM     57  C   UNL A   1      39.346  32.001  31.490  1.00  0.00     0.037 A 
ATOM     58  C   UNL A   1      44.198  31.501  35.841  1.00  0.00     0.049 A 
ATOM     59  C   UNL A   1      39.575  32.588  32.862  1.00  0.00     0.074 A 
ATOM     60  C   UNL A   1      44.340  32.178  37.040  1.00  0.00     0.029 A 
ATOM     61  N   UNL A   1      42.988  31.903  35.295  1.00  0.00    -0.354 N 
ATOM     62  N   UNL A   1      40.606  32.444  33.663  1.00  0.00    -0.248 NA
ATOM     63  C   UNL A   1      38.515  33.453  33.401  1.00  0.00     0.031 C 
ATOM     64  C   UNL A   1      43.186  32.939  37.250  1.00  0.00     0.029 A 
ATOM     65  C   UNL A   1      42.356  32.792  36.149  1.00  0.00     0.049 A 
ATOM     66  H   UNL A   1      42.630  31.602  34.429  1.00  0.00     0.167 HD
ATOM     67  C   UNL A   1      40.333  33.227  34.782  1.00  0.00     0.074 A 
ATOM     68  C   UNL A   1      39.048  33.852  34.548  1.00  0.00     0.031 C 
ATOM     69  C   UNL A   1      41.079  33.415  35.900  1.00  0.00     0.037 A 
BRANCH  56  70
ATOM     70  C   UNL A   1      46.328  30.151  36.008  1.00  0.00     0.058 A 
ATOM     71  C   UNL A   1      47.543  30.841  35.873  1.00  0.00     0.135 A 
ATOM     72  C   UNL A   1      46.279  29.087  36.924  1.00  0.00     0.135 A 
ATOM     73  F   UNL A   1      47.654  31.852  34.996  1.00  0.00    -0.206 F 
ATOM     74  C   UNL A   1      48.670  30.479  36.605  1.00  0.00     0.059 A 
ATOM     75  C   UNL A   1      47.383  28.728  37.688  1.00  0.00     0.059 A 
ATOM     76  F   UNL A   1      45.144  28.388  37.087  1.00  0.00    -0.206 F 
ATOM     77  C   UNL A   1      48.578  29.423  37.515  1.00  0.00     0.060 A 
BRANCH  77  78
ATOM     78  S   UNL A   1      50.043  28.982  38.473  1.00  0.00     0.124 S 
ATOM     79  O   UNL A   1      50.693  30.280  38.628  1.00  0.00    -0.237 OA
ATOM     80  O   UNL A   1      49.461  28.416  39.686  1.00  0.00    -0.237 OA
ATOM     81  O   UNL A   1      50.740  28.032  37.613  1.00  0.00    -0.744 OA
ENDBRANCH  77  78
ENDBRANCH  56  70
BRANCH  57  82
ATOM     82  C   UNL A   1      38.105  32.320  30.731  1.00  0.00     0.058 A 
ATOM     83  C   UNL A   1      38.102  33.295  29.722  1.00  0.00     0.135 A 
ATOM     84  C   UNL A   1      36.890  31.675  31.016  1.00  0.00     0.135 A 
ATOM     85  F   UNL A   1      39.233  33.951  29.421  1.00  0.00    -0.206 F 
ATOM     86  C   UNL A   1      36.940  33.635  29.038  1.00  0.00     0.059 A 
ATOM     87  C   UNL A   1      35.721  31.975  30.324  1.00  0.00     0.059 A 
ATOM     88  F   UNL A   1      36.837  30.730  31.967  1.00  0.00    -0.206 F 
ATOM     89  C   UNL A   1      35.753  32.967  29.344  1.00  0.00     0.060 A 
BRANCH  89  90
ATOM     90  S   UNL A   1      34.260  33.391  28.421  1.00  0.00     0.124 S 
ATOM     91  O   UNL A   1      33.837  32.085  27.928  1.00  0.00    -0.237 OA
ATOM     92  O   UNL A   1      33.420  33.985  29.457  1.00  0.00    -0.237 OA
ATOM     93  O   UNL A   1      34.743  34.322  27.407  1.00  0.00    -0.744 OA
ENDBRANCH  89  90
ENDBRANCH  57  82
BRANCH  69  94
ATOM     94  C   UNL A   1      40.552  34.370  36.940  1.00  0.00     0.058 A 
ATOM     95  C   UNL A   1      39.574  33.989  37.872  1.00  0.00     0.135 A 
ATOM     96  C   UNL A   1      41.071  35.672  37.033  1.00  0.00     0.135 A 
ATOM     97  F   UNL A   1      39.041  32.758  37.828  1.00  0.00    -0.206 F 
ATOM     98  C   UNL A   1      39.107  34.875  38.839  1.00  0.00     0.059 A 
ATOM     99  C   UNL A   1      40.644  36.563  38.014  1.00  0.00     0.059 A 
ATOM    100  F   UNL A   1      42.018  36.086  36.176  1.00  0.00    -0.206 F 
ATOM    101  C   UNL A   1      39.650  36.160  38.903  1.00  0.00     0.060 A 
BRANCH 101 102
ATOM    102  S   UNL A   1      39.053  37.290  40.177  1.00  0.00     0.124 S 
ATOM    103  O   UNL A   1      38.415  36.368  41.112  1.00  0.00    -0.237 OA
ATOM    104  O   UNL A   1      40.287  37.913  40.644  1.00  0.00    -0.237 OA
ATOM    105  O   UNL A   1      38.146  38.174  39.451  1.00  0.00    -0.744 OA
ENDBRANCH 101 102
ENDBRANCH  69  94
ENDBRANCH  43  44
ENDBRANCH  36  38
ENDBRANCH  35  36
ENDBRANCH  34  35
ENDBRANCH  33  34
ENDBRANCH  32  33
ENDBRANCH  31  32
ENDBRANCH  30  31
ENDBRANCH  29  30
ENDBRANCH   1  29
TORSDOF 27
ENDMDL
