MODEL 1
REMARK VINA RESULT:      -6.6      0.000      0.000
REMARK SMILES CC(C)[C@H](C[NH+](C)C)NC(=O)c1csc(/C=C/C(=O)OCCOCCOCCOCCOC(=O)c2ccc(-c3c4nc(c(-c5c(F)cc(S(=O)(=O)[O-])cc5F)c5ccc([nH]5)c(-c5c(F)cc(S(=O)(=O)[O-])cc5F)c5nc(c(-c6c(F)cc(S(=O)(=O)[O-])cc6F)c6ccc3[nH]6)C=C5)C=C4)cc2)c1
REMARK SMILES IDX 25 1 24 2 23 3 22 4 21 5 20 6 18 7 19 8 17 9 16 10 15 11
REMARK SMILES IDX 12 12 13 13 101 14 14 15 10 16 9 17 11 19 4 20 2 21 1 22
REMARK SMILES IDX 3 23 5 24 6 25 7 26 8 27 26 29 27 30 28 31 29 32 30 33 31 34
REMARK SMILES IDX 32 35 33 36 34 37 35 38 36 39 100 40 37 41 99 42 38 43 39 44
REMARK SMILES IDX 40 45 93 46 41 47 98 48 92 49 94 50 42 51 97 52 91 53 90 54
REMARK SMILES IDX 43 56 77 57 56 58 76 59 57 60 60 61 75 62 95 63 58 64 59 65
REMARK SMILES IDX 74 67 96 68 61 69 44 70 45 71 54 72 46 73 47 74 53 75 55 76
REMARK SMILES IDX 48 77 49 78 50 79 51 80 52 81 78 82 79 83 88 84 80 85 81 86
REMARK SMILES IDX 87 87 89 88 82 89 83 90 84 91 85 92 86 93 62 94 63 95 72 96
REMARK SMILES IDX 64 97 65 98 71 99 73 100 66 101 67 102 68 103 69 104 70 105
REMARK H PARENT 9 18 6 28 94 55 60 66
REMARK Flexibility Score: inf
ROOT
ATOM      1  C   UNL A   1      50.426  20.142  34.885  1.00  0.00     0.188 C 
ENDROOT
BRANCH   1   2
ATOM      2  C   UNL A   1      49.525  20.975  35.812  1.00  0.00     0.188 C 
BRANCH   2   3
ATOM      3  O   UNL A   1      49.347  20.392  37.100  1.00  0.00    -0.376 OA
BRANCH   3   4
ATOM      4  C   UNL A   1      48.194  20.787  37.837  1.00  0.00     0.202 C 
BRANCH   4   5
ATOM      5  C   UNL A   1      46.946  19.898  37.722  1.00  0.00     0.261 C 
BRANCH   5   6
ATOM      6  O   UNL A   1      46.806  19.205  36.473  1.00  0.00    -0.460 OA
BRANCH   6   7
ATOM      7  C   UNL A   1      45.761  19.531  35.689  1.00  0.00     0.330 C 
ATOM      8  O   UNL A   1      45.177  18.794  34.911  1.00  0.00    -0.247 OA
BRANCH   7   9
ATOM      9  C   UNL A   1      45.289  20.901  35.987  1.00  0.00     0.095 C 
ATOM     10  C   UNL A   1      44.830  21.756  35.059  1.00  0.00     0.026 C 
BRANCH  10  11
ATOM     11  C   UNL A   1      44.399  23.078  35.381  1.00  0.00     0.028 A 
ATOM     12  C   UNL A   1      44.072  25.100  36.578  1.00  0.00     0.051 A 
ATOM     13  C   UNL A   1      43.580  25.413  35.326  1.00  0.00     0.079 A 
ATOM     14  C   UNL A   1      44.519  23.731  36.596  1.00  0.00     0.033 A 
ATOM     15  S   UNL A   1      43.583  24.089  34.252  1.00  0.00    -0.144 S 
BRANCH  12  16
ATOM     16  C   UNL A   1      44.267  26.037  37.683  1.00  0.00     0.252 C 
ATOM     17  N   UNL A   1      45.492  26.186  38.273  1.00  0.00    -0.343 N 
ATOM     18  H   UNL A   1      45.462  26.521  39.199  1.00  0.00     0.164 HD
ATOM     19  O   UNL A   1      43.329  26.689  38.136  1.00  0.00    -0.269 OA
BRANCH  17  20
ATOM     20  C   UNL A   1      46.838  25.934  37.766  1.00  0.00     0.139 C 
BRANCH  20  21
ATOM     21  C   UNL A   1      47.407  24.569  38.255  1.00  0.00     0.011 C 
ATOM     22  C   UNL A   1      48.938  24.540  38.377  1.00  0.00     0.010 C 
ATOM     23  C   UNL A   1      46.806  24.207  39.620  1.00  0.00     0.010 C 
ENDBRANCH  20  21
BRANCH  20  24
ATOM     24  C   UNL A   1      47.799  27.133  38.071  1.00  0.00     0.287 C 
BRANCH  24  25
ATOM     25  N   UNL A   1      47.376  28.086  39.129  1.00  0.00    -0.338 N 
ATOM     26  C   UNL A   1      48.116  27.795  40.367  1.00  0.00     0.332 C 
ATOM     27  C   UNL A   1      47.657  29.481  38.759  1.00  0.00     0.332 C 
ATOM     28  H   UNL A   1      46.370  27.974  39.255  1.00  0.00     0.347 HD
ENDBRANCH  24  25
ENDBRANCH  20  24
ENDBRANCH  17  20
ENDBRANCH  12  16
ENDBRANCH  10  11
ENDBRANCH   7   9
ENDBRANCH   6   7
ENDBRANCH   5   6
ENDBRANCH   4   5
ENDBRANCH   3   4
ENDBRANCH   2   3
ENDBRANCH   1   2
BRANCH   1  29
ATOM     29  O   UNL A   1      51.646  19.750  35.490  1.00  0.00    -0.377 OA
BRANCH  29  30
ATOM     30  C   UNL A   1      52.866  20.235  34.929  1.00  0.00     0.188 C 
BRANCH  30  31
ATOM     31  C   UNL A   1      53.336  19.840  33.510  1.00  0.00     0.188 C 
BRANCH  31  32
ATOM     32  O   UNL A   1      52.858  20.693  32.471  1.00  0.00    -0.376 OA
BRANCH  32  33
ATOM     33  C   UNL A   1      52.942  22.091  32.715  1.00  0.00     0.202 C 
BRANCH  33  34
ATOM     34  C   UNL A   1      51.614  22.828  32.505  1.00  0.00     0.261 C 
BRANCH  34  35
ATOM     35  O   UNL A   1      51.562  24.146  33.071  1.00  0.00    -0.460 OA
BRANCH  35  36
ATOM     36  C   UNL A   1      51.035  24.259  34.308  1.00  0.00     0.338 C 
ATOM     37  O   UNL A   1      51.545  23.898  35.361  1.00  0.00    -0.246 OA
BRANCH  36  38
ATOM     38  C   UNL A   1      49.803  25.059  34.214  1.00  0.00     0.060 A 
ATOM     39  C   UNL A   1      48.603  24.510  34.681  1.00  0.00     0.016 A 
ATOM     40  C   UNL A   1      49.829  26.335  33.645  1.00  0.00     0.016 A 
ATOM     41  C   UNL A   1      47.410  25.216  34.526  1.00  0.00     0.010 A 
ATOM     42  C   UNL A   1      48.634  27.035  33.478  1.00  0.00     0.010 A 
ATOM     43  C   UNL A   1      47.416  26.459  33.877  1.00  0.00    -0.014 A 
BRANCH  43  44
ATOM     44  C   UNL A   1      46.140  27.048  33.407  1.00  0.00     0.031 A 
ATOM     45  C   UNL A   1      45.529  26.491  32.149  1.00  0.00     0.074 A 
ATOM     46  C   UNL A   1      45.536  28.044  34.076  1.00  0.00     0.049 A 
ATOM     47  N   UNL A   1      44.449  26.863  31.516  1.00  0.00    -0.248 NA
ATOM     48  C   UNL A   1      46.237  25.362  31.521  1.00  0.00     0.031 C 
ATOM     49  C   UNL A   1      46.016  28.645  35.319  1.00  0.00     0.029 A 
ATOM     50  N   UNL A   1      44.382  28.732  33.792  1.00  0.00    -0.354 N 
ATOM     51  C   UNL A   1      44.349  26.019  30.416  1.00  0.00     0.074 A 
ATOM     52  C   UNL A   1      45.493  25.138  30.449  1.00  0.00     0.031 C 
ATOM     53  C   UNL A   1      45.169  29.624  35.685  1.00  0.00     0.029 A 
ATOM     54  C   UNL A   1      44.102  29.734  34.690  1.00  0.00     0.049 A 
ATOM     55  H   UNL A   1      43.810  28.527  33.018  1.00  0.00     0.167 HD
ATOM     56  C   UNL A   1      43.383  25.974  29.468  1.00  0.00     0.037 A 
ATOM     57  C   UNL A   1      43.108  30.644  34.694  1.00  0.00     0.037 A 
ATOM     58  C   UNL A   1      42.248  26.857  29.434  1.00  0.00     0.049 A 
ATOM     59  C   UNL A   1      42.075  30.614  33.594  1.00  0.00     0.074 A 
ATOM     60  C   UNL A   1      41.209  26.889  28.521  1.00  0.00     0.029 A 
ATOM     61  N   UNL A   1      42.008  27.869  30.353  1.00  0.00    -0.354 N 
ATOM     62  N   UNL A   1      41.977  29.795  32.574  1.00  0.00    -0.248 NA
ATOM     63  C   UNL A   1      41.016  31.632  33.648  1.00  0.00     0.031 C 
ATOM     64  C   UNL A   1      40.361  27.947  28.864  1.00  0.00     0.029 A 
ATOM     65  C   UNL A   1      40.846  28.543  30.017  1.00  0.00     0.049 A 
ATOM     66  H   UNL A   1      42.578  28.076  31.127  1.00  0.00     0.167 HD
ATOM     67  C   UNL A   1      40.830  30.178  31.884  1.00  0.00     0.074 A 
ATOM     68  C   UNL A   1      40.265  31.299  32.607  1.00  0.00     0.031 C 
ATOM     69  C   UNL A   1      40.290  29.649  30.758  1.00  0.00     0.037 A 
BRANCH  56  70
ATOM     70  C   UNL A   1      43.530  24.949  28.380  1.00  0.00     0.058 A 
ATOM     71  C   UNL A   1      44.136  25.259  27.153  1.00  0.00     0.135 A 
ATOM     72  C   UNL A   1      43.074  23.635  28.573  1.00  0.00     0.135 A 
ATOM     73  F   UNL A   1      44.569  26.508  26.908  1.00  0.00    -0.206 F 
ATOM     74  C   UNL A   1      44.262  24.310  26.144  1.00  0.00     0.059 A 
ATOM     75  C   UNL A   1      43.213  22.663  27.588  1.00  0.00     0.059 A 
ATOM     76  F   UNL A   1      42.481  23.289  29.726  1.00  0.00    -0.206 F 
ATOM     77  C   UNL A   1      43.795  23.014  26.371  1.00  0.00     0.060 A 
BRANCH  77  78
ATOM     78  S   UNL A   1      43.966  21.793  25.053  1.00  0.00     0.124 S 
ATOM     79  O   UNL A   1      42.879  20.871  25.369  1.00  0.00    -0.237 OA
ATOM     80  O   UNL A   1      43.781  22.600  23.852  1.00  0.00    -0.237 OA
ATOM     81  O   UNL A   1      45.312  21.265  25.250  1.00  0.00    -0.744 OA
ENDBRANCH  77  78
ENDBRANCH  56  70
BRANCH  57  82
ATOM     82  C   UNL A   1      43.035  31.666  35.771  1.00  0.00     0.058 A 
ATOM     83  C   UNL A   1      42.206  31.485  36.889  1.00  0.00     0.135 A 
ATOM     84  C   UNL A   1      43.783  32.852  35.699  1.00  0.00     0.135 A 
ATOM     85  F   UNL A   1      41.462  30.376  36.998  1.00  0.00    -0.206 F 
ATOM     86  C   UNL A   1      42.108  32.450  37.886  1.00  0.00     0.059 A 
ATOM     87  C   UNL A   1      43.721  33.820  36.696  1.00  0.00     0.059 A 
ATOM     88  F   UNL A   1      44.598  33.069  34.654  1.00  0.00    -0.206 F 
ATOM     89  C   UNL A   1      42.870  33.614  37.782  1.00  0.00     0.060 A 
BRANCH  89  90
ATOM     90  S   UNL A   1      42.767  34.841  39.103  1.00  0.00     0.124 S 
ATOM     91  O   UNL A   1      41.593  34.384  39.837  1.00  0.00    -0.237 OA
ATOM     92  O   UNL A   1      44.049  34.672  39.780  1.00  0.00    -0.237 OA
ATOM     93  O   UNL A   1      42.610  36.100  38.380  1.00  0.00    -0.744 OA
ENDBRANCH  89  90
ENDBRANCH  57  82
BRANCH  69  94
ATOM     94  C   UNL A   1      39.002  30.241  30.256  1.00  0.00     0.058 A 
ATOM     95  C   UNL A   1      38.960  31.489  29.618  1.00  0.00     0.135 A 
ATOM     96  C   UNL A   1      37.803  29.516  30.360  1.00  0.00     0.135 A 
ATOM     97  F   UNL A   1      40.078  32.223  29.497  1.00  0.00    -0.206 F 
ATOM     98  C   UNL A   1      37.771  32.010  29.117  1.00  0.00     0.059 A 
ATOM     99  C   UNL A   1      36.607  30.005  29.842  1.00  0.00     0.059 A 
ATOM    100  F   UNL A   1      37.790  28.310  30.948  1.00  0.00    -0.206 F 
ATOM    101  C   UNL A   1      36.599  31.259  29.232  1.00  0.00     0.060 A 
BRANCH 101 102
ATOM    102  S   UNL A   1      35.069  31.927  28.545  1.00  0.00     0.124 S 
ATOM    103  O   UNL A   1      34.496  30.748  27.905  1.00  0.00    -0.237 OA
ATOM    104  O   UNL A   1      34.373  32.406  29.735  1.00  0.00    -0.237 OA
ATOM    105  O   UNL A   1      35.533  32.972  27.635  1.00  0.00    -0.744 OA
ENDBRANCH 101 102
ENDBRANCH  69  94
ENDBRANCH  43  44
ENDBRANCH  36  38
ENDBRANCH  35  36
ENDBRANCH  34  35
ENDBRANCH  33  34
ENDBRANCH  32  33
ENDBRANCH  31  32
ENDBRANCH  30  31
ENDBRANCH  29  30
ENDBRANCH   1  29
TORSDOF 29
ENDMDL
MODEL 2
REMARK VINA RESULT:      -6.4      3.856     10.358
REMARK SMILES CC(C)[C@H](C[NH+](C)C)NC(=O)c1csc(/C=C/C(=O)OCCOCCOCCOCCOC(=O)c2ccc(-c3c4nc(c(-c5c(F)cc(S(=O)(=O)[O-])cc5F)c5ccc([nH]5)c(-c5c(F)cc(S(=O)(=O)[O-])cc5F)c5nc(c(-c6c(F)cc(S(=O)(=O)[O-])cc6F)c6ccc3[nH]6)C=C5)C=C4)cc2)c1
REMARK SMILES IDX 25 1 24 2 23 3 22 4 21 5 20 6 18 7 19 8 17 9 16 10 15 11
REMARK SMILES IDX 12 12 13 13 101 14 14 15 10 16 9 17 11 19 4 20 2 21 1 22
REMARK SMILES IDX 3 23 5 24 6 25 7 26 8 27 26 29 27 30 28 31 29 32 30 33 31 34
REMARK SMILES IDX 32 35 33 36 34 37 35 38 36 39 100 40 37 41 99 42 38 43 39 44
REMARK SMILES IDX 40 45 93 46 41 47 98 48 92 49 94 50 42 51 97 52 91 53 90 54
REMARK SMILES IDX 43 56 77 57 56 58 76 59 57 60 60 61 75 62 95 63 58 64 59 65
REMARK SMILES IDX 74 67 96 68 61 69 44 70 45 71 54 72 46 73 47 74 53 75 55 76
REMARK SMILES IDX 48 77 49 78 50 79 51 80 52 81 78 82 79 83 88 84 80 85 81 86
REMARK SMILES IDX 87 87 89 88 82 89 83 90 84 91 85 92 86 93 62 94 63 95 72 96
REMARK SMILES IDX 64 97 65 98 71 99 73 100 66 101 67 102 68 103 69 104 70 105
REMARK H PARENT 9 18 6 28 94 55 60 66
REMARK Flexibility Score: inf
ROOT
ATOM      1  C   UNL A   1      45.554  18.511  25.234  1.00  0.00     0.188 C 
ENDROOT
BRANCH   1   2
ATOM      2  C   UNL A   1      46.138  19.932  25.179  1.00  0.00     0.188 C 
BRANCH   2   3
ATOM      3  O   UNL A   1      45.363  20.830  24.389  1.00  0.00    -0.376 OA
BRANCH   3   4
ATOM      4  C   UNL A   1      45.235  22.167  24.865  1.00  0.00     0.202 C 
BRANCH   4   5
ATOM      5  C   UNL A   1      45.571  22.423  26.342  1.00  0.00     0.261 C 
BRANCH   5   6
ATOM      6  O   UNL A   1      46.348  23.603  26.593  1.00  0.00    -0.460 OA
BRANCH   6   7
ATOM      7  C   UNL A   1      45.745  24.629  27.223  1.00  0.00     0.330 C 
ATOM      8  O   UNL A   1      44.557  24.726  27.481  1.00  0.00    -0.247 OA
BRANCH   7   9
ATOM      9  C   UNL A   1      46.745  25.604  27.713  1.00  0.00     0.095 C 
ATOM     10  C   UNL A   1      46.870  26.854  27.239  1.00  0.00     0.026 C 
BRANCH  10  11
ATOM     11  C   UNL A   1      47.859  27.762  27.724  1.00  0.00     0.028 A 
ATOM     12  C   UNL A   1      49.221  29.007  29.215  1.00  0.00     0.051 A 
ATOM     13  C   UNL A   1      49.799  29.275  27.990  1.00  0.00     0.079 A 
ATOM     14  C   UNL A   1      48.080  28.146  29.036  1.00  0.00     0.033 A 
ATOM     15  S   UNL A   1      48.951  28.587  26.681  1.00  0.00    -0.144 S 
BRANCH  12  16
ATOM     16  C   UNL A   1      49.755  29.392  30.520  1.00  0.00     0.252 C 
ATOM     17  N   UNL A   1      50.496  28.517  31.265  1.00  0.00    -0.343 N 
ATOM     18  H   UNL A   1      50.491  28.698  32.233  1.00  0.00     0.164 HD
ATOM     19  O   UNL A   1      49.522  30.500  30.999  1.00  0.00    -0.269 OA
BRANCH  17  20
ATOM     20  C   UNL A   1      51.294  27.360  30.871  1.00  0.00     0.139 C 
BRANCH  20  21
ATOM     21  C   UNL A   1      51.667  26.458  32.086  1.00  0.00     0.011 C 
ATOM     22  C   UNL A   1      51.716  24.958  31.758  1.00  0.00     0.010 C 
ATOM     23  C   UNL A   1      53.032  26.874  32.651  1.00  0.00     0.010 C 
ENDBRANCH  20  21
BRANCH  20  24
ATOM     24  C   UNL A   1      52.545  27.786  30.030  1.00  0.00     0.287 C 
BRANCH  24  25
ATOM     25  N   UNL A   1      53.116  26.772  29.107  1.00  0.00    -0.338 N 
ATOM     26  C   UNL A   1      52.086  26.362  28.140  1.00  0.00     0.332 C 
ATOM     27  C   UNL A   1      54.258  27.301  28.345  1.00  0.00     0.332 C 
ATOM     28  H   UNL A   1      53.435  25.988  29.676  1.00  0.00     0.347 HD
ENDBRANCH  24  25
ENDBRANCH  20  24
ENDBRANCH  17  20
ENDBRANCH  12  16
ENDBRANCH  10  11
ENDBRANCH   7   9
ENDBRANCH   6   7
ENDBRANCH   5   6
ENDBRANCH   4   5
ENDBRANCH   3   4
ENDBRANCH   2   3
ENDBRANCH   1   2
BRANCH   1  29
ATOM     29  O   UNL A   1      44.153  18.470  25.032  1.00  0.00    -0.377 OA
BRANCH  29  30
ATOM     30  C   UNL A   1      43.301  18.570  26.174  1.00  0.00     0.188 C 
BRANCH  30  31
ATOM     31  C   UNL A   1      42.012  19.424  26.170  1.00  0.00     0.188 C 
BRANCH  31  32
ATOM     32  O   UNL A   1      41.644  19.942  27.448  1.00  0.00    -0.376 OA
BRANCH  32  33
ATOM     33  C   UNL A   1      41.728  21.353  27.603  1.00  0.00     0.202 C 
BRANCH  33  34
ATOM     34  C   UNL A   1      41.903  22.104  26.278  1.00  0.00     0.261 C 
BRANCH  34  35
ATOM     35  O   UNL A   1      41.639  23.513  26.346  1.00  0.00    -0.460 OA
BRANCH  35  36
ATOM     36  C   UNL A   1      40.353  23.886  26.513  1.00  0.00     0.338 C 
ATOM     37  O   UNL A   1      39.356  23.260  26.177  1.00  0.00    -0.246 OA
BRANCH  36  38
ATOM     38  C   UNL A   1      40.329  25.106  27.336  1.00  0.00     0.060 A 
ATOM     39  C   UNL A   1      41.253  26.123  27.065  1.00  0.00     0.016 A 
ATOM     40  C   UNL A   1      39.416  25.233  28.386  1.00  0.00     0.016 A 
ATOM     41  C   UNL A   1      41.303  27.250  27.885  1.00  0.00     0.010 A 
ATOM     42  C   UNL A   1      39.475  26.355  29.213  1.00  0.00     0.010 A 
ATOM     43  C   UNL A   1      40.448  27.344  28.992  1.00  0.00    -0.014 A 
BRANCH  43  44
ATOM     44  C   UNL A   1      40.721  28.349  30.047  1.00  0.00     0.031 A 
ATOM     45  C   UNL A   1      39.774  29.513  30.171  1.00  0.00     0.074 A 
ATOM     46  C   UNL A   1      41.773  28.234  30.874  1.00  0.00     0.049 A 
ATOM     47  N   UNL A   1      39.821  30.539  30.979  1.00  0.00    -0.248 NA
ATOM     48  C   UNL A   1      38.619  29.519  29.256  1.00  0.00     0.031 C 
ATOM     49  C   UNL A   1      42.741  27.140  30.869  1.00  0.00     0.029 A 
ATOM     50  N   UNL A   1      42.205  29.063  31.880  1.00  0.00    -0.354 N 
ATOM     51  C   UNL A   1      38.708  31.312  30.669  1.00  0.00     0.074 A 
ATOM     52  C   UNL A   1      38.023  30.656  29.579  1.00  0.00     0.031 C 
ATOM     53  C   UNL A   1      43.664  27.370  31.820  1.00  0.00     0.029 A 
ATOM     54  C   UNL A   1      43.366  28.640  32.483  1.00  0.00     0.049 A 
ATOM     55  H   UNL A   1      41.728  29.882  32.146  1.00  0.00     0.167 HD
ATOM     56  C   UNL A   1      38.287  32.461  31.248  1.00  0.00     0.037 A 
ATOM     57  C   UNL A   1      44.107  29.222  33.445  1.00  0.00     0.037 A 
ATOM     58  C   UNL A   1      38.974  33.115  32.329  1.00  0.00     0.049 A 
ATOM     59  C   UNL A   1      43.652  30.535  34.036  1.00  0.00     0.074 A 
ATOM     60  C   UNL A   1      38.627  34.279  32.991  1.00  0.00     0.029 A 
ATOM     61  N   UNL A   1      40.155  32.664  32.901  1.00  0.00    -0.354 N 
ATOM     62  N   UNL A   1      42.585  31.243  33.752  1.00  0.00    -0.248 NA
ATOM     63  C   UNL A   1      44.502  31.126  35.079  1.00  0.00     0.031 C 
ATOM     64  C   UNL A   1      39.620  34.555  33.937  1.00  0.00     0.029 A 
ATOM     65  C   UNL A   1      40.560  33.537  33.897  1.00  0.00     0.049 A 
ATOM     66  H   UNL A   1      40.634  31.845  32.638  1.00  0.00     0.167 HD
ATOM     67  C   UNL A   1      42.618  32.344  34.603  1.00  0.00     0.074 A 
ATOM     68  C   UNL A   1      43.808  32.205  35.416  1.00  0.00     0.031 C 
ATOM     69  C   UNL A   1      41.742  33.374  34.706  1.00  0.00     0.037 A 
BRANCH  56  70
ATOM     70  C   UNL A   1      37.036  33.091  30.704  1.00  0.00     0.058 A 
ATOM     71  C   UNL A   1      37.042  33.830  29.512  1.00  0.00     0.135 A 
ATOM     72  C   UNL A   1      35.813  32.940  31.377  1.00  0.00     0.135 A 
ATOM     73  F   UNL A   1      38.191  34.024  28.842  1.00  0.00    -0.206 F 
ATOM     74  C   UNL A   1      35.884  34.420  29.017  1.00  0.00     0.059 A 
ATOM     75  C   UNL A   1      34.637  33.500  30.886  1.00  0.00     0.059 A 
ATOM     76  F   UNL A   1      35.754  32.249  32.525  1.00  0.00    -0.206 F 
ATOM     77  C   UNL A   1      34.686  34.251  29.713  1.00  0.00     0.060 A 
BRANCH  77  78
ATOM     78  S   UNL A   1      33.192  35.021  29.058  1.00  0.00     0.124 S 
ATOM     79  O   UNL A   1      32.693  33.976  28.168  1.00  0.00    -0.237 OA
ATOM     80  O   UNL A   1      32.404  35.253  30.265  1.00  0.00    -0.237 OA
ATOM     81  O   UNL A   1      33.689  36.222  28.396  1.00  0.00    -0.744 OA
ENDBRANCH  77  78
ENDBRANCH  56  70
BRANCH  57  82
ATOM     82  C   UNL A   1      45.362  28.578  33.915  1.00  0.00     0.058 A 
ATOM     83  C   UNL A   1      45.387  27.807  35.087  1.00  0.00     0.135 A 
ATOM     84  C   UNL A   1      46.566  28.731  33.208  1.00  0.00     0.135 A 
ATOM     85  F   UNL A   1      44.267  27.642  35.804  1.00  0.00    -0.206 F 
ATOM     86  C   UNL A   1      46.563  27.226  35.551  1.00  0.00     0.059 A 
ATOM     87  C   UNL A   1      47.749  28.138  33.639  1.00  0.00     0.059 A 
ATOM     88  F   UNL A   1      46.593  29.452  32.076  1.00  0.00    -0.206 F 
ATOM     89  C   UNL A   1      47.739  27.396  34.819  1.00  0.00     0.060 A 
BRANCH  89  90
ATOM     90  S   UNL A   1      49.250  26.602  35.409  1.00  0.00     0.124 S 
ATOM     91  O   UNL A   1      48.860  26.188  36.751  1.00  0.00    -0.237 OA
ATOM     92  O   UNL A   1      49.432  25.528  34.437  1.00  0.00    -0.237 OA
ATOM     93  O   UNL A   1      50.240  27.674  35.340  1.00  0.00    -0.744 OA
ENDBRANCH  89  90
ENDBRANCH  57  82
BRANCH  69  94
ATOM     94  C   UNL A   1      42.007  34.413  35.761  1.00  0.00     0.058 A 
ATOM     95  C   UNL A   1      41.655  34.212  37.104  1.00  0.00     0.135 A 
ATOM     96  C   UNL A   1      42.684  35.599  35.431  1.00  0.00     0.135 A 
ATOM     97  F   UNL A   1      41.004  33.096  37.471  1.00  0.00    -0.206 F 
ATOM     98  C   UNL A   1      41.944  35.159  38.081  1.00  0.00     0.059 A 
ATOM     99  C   UNL A   1      43.007  36.548  36.396  1.00  0.00     0.059 A 
ATOM    100  F   UNL A   1      43.057  35.835  34.163  1.00  0.00    -0.206 F 
ATOM    101  C   UNL A   1      42.623  36.325  37.717  1.00  0.00     0.060 A 
BRANCH 101 102
ATOM    102  S   UNL A   1      43.027  37.530  38.999  1.00  0.00     0.124 S 
ATOM    103  O   UNL A   1      43.441  36.662  40.097  1.00  0.00    -0.237 OA
ATOM    104  O   UNL A   1      44.087  38.312  38.372  1.00  0.00    -0.237 OA
ATOM    105  O   UNL A   1      41.768  38.243  39.204  1.00  0.00    -0.744 OA
ENDBRANCH 101 102
ENDBRANCH  69  94
ENDBRANCH  43  44
ENDBRANCH  36  38
ENDBRANCH  35  36
ENDBRANCH  34  35
ENDBRANCH  33  34
ENDBRANCH  32  33
ENDBRANCH  31  32
ENDBRANCH  30  31
ENDBRANCH  29  30
ENDBRANCH   1  29
TORSDOF 29
ENDMDL
MODEL 3
REMARK VINA RESULT:      -6.2      9.473     16.097
REMARK SMILES CC(C)[C@H](C[NH+](C)C)NC(=O)c1csc(/C=C/C(=O)OCCOCCOCCOCCOC(=O)c2ccc(-c3c4nc(c(-c5c(F)cc(S(=O)(=O)[O-])cc5F)c5ccc([nH]5)c(-c5c(F)cc(S(=O)(=O)[O-])cc5F)c5nc(c(-c6c(F)cc(S(=O)(=O)[O-])cc6F)c6ccc3[nH]6)C=C5)C=C4)cc2)c1
REMARK SMILES IDX 25 1 24 2 23 3 22 4 21 5 20 6 18 7 19 8 17 9 16 10 15 11
REMARK SMILES IDX 12 12 13 13 101 14 14 15 10 16 9 17 11 19 4 20 2 21 1 22
REMARK SMILES IDX 3 23 5 24 6 25 7 26 8 27 26 29 27 30 28 31 29 32 30 33 31 34
REMARK SMILES IDX 32 35 33 36 34 37 35 38 36 39 100 40 37 41 99 42 38 43 39 44
REMARK SMILES IDX 40 45 93 46 41 47 98 48 92 49 94 50 42 51 97 52 91 53 90 54
REMARK SMILES IDX 43 56 77 57 56 58 76 59 57 60 60 61 75 62 95 63 58 64 59 65
REMARK SMILES IDX 74 67 96 68 61 69 44 70 45 71 54 72 46 73 47 74 53 75 55 76
REMARK SMILES IDX 48 77 49 78 50 79 51 80 52 81 78 82 79 83 88 84 80 85 81 86
REMARK SMILES IDX 87 87 89 88 82 89 83 90 84 91 85 92 86 93 62 94 63 95 72 96
REMARK SMILES IDX 64 97 65 98 71 99 73 100 66 101 67 102 68 103 69 104 70 105
REMARK H PARENT 9 18 6 28 94 55 60 66
REMARK Flexibility Score: inf
ROOT
ATOM      1  C   UNL A   1      39.394  30.557  30.397  1.00  0.00     0.188 C 
ENDROOT
BRANCH   1   2
ATOM      2  C   UNL A   1      38.814  29.269  29.790  1.00  0.00     0.188 C 
BRANCH   2   3
ATOM      3  O   UNL A   1      38.380  29.426  28.442  1.00  0.00    -0.376 OA
BRANCH   3   4
ATOM      4  C   UNL A   1      37.001  29.194  28.173  1.00  0.00     0.202 C 
BRANCH   4   5
ATOM      5  C   UNL A   1      36.205  30.343  27.537  1.00  0.00     0.261 C 
BRANCH   5   6
ATOM      6  O   UNL A   1      35.158  30.884  28.356  1.00  0.00    -0.460 OA
BRANCH   6   7
ATOM      7  C   UNL A   1      34.036  31.305  27.743  1.00  0.00     0.330 C 
ATOM      8  O   UNL A   1      33.592  32.442  27.739  1.00  0.00    -0.247 OA
BRANCH   7   9
ATOM      9  C   UNL A   1      33.448  30.223  26.922  1.00  0.00     0.095 C 
ATOM     10  C   UNL A   1      32.312  29.577  27.233  1.00  0.00     0.026 C 
BRANCH  10  11
ATOM     11  C   UNL A   1      31.785  28.525  26.426  1.00  0.00     0.028 A 
ATOM     12  C   UNL A   1      30.809  26.456  25.798  1.00  0.00     0.051 A 
ATOM     13  C   UNL A   1      30.829  27.150  24.604  1.00  0.00     0.079 A 
ATOM     14  C   UNL A   1      31.392  27.263  26.839  1.00  0.00     0.033 A 
ATOM     15  S   UNL A   1      31.593  28.669  24.722  1.00  0.00    -0.144 S 
BRANCH  12  16
ATOM     16  C   UNL A   1      30.160  25.167  26.032  1.00  0.00     0.252 C 
ATOM     17  N   UNL A   1      30.587  24.035  25.393  1.00  0.00    -0.343 N 
ATOM     18  H   UNL A   1      29.904  23.332  25.307  1.00  0.00     0.164 HD
ATOM     19  O   UNL A   1      29.189  25.072  26.780  1.00  0.00    -0.269 OA
BRANCH  17  20
ATOM     20  C   UNL A   1      31.884  23.692  24.818  1.00  0.00     0.139 C 
BRANCH  20  21
ATOM     21  C   UNL A   1      31.818  23.527  23.270  1.00  0.00     0.011 C 
ATOM     22  C   UNL A   1      31.810  24.856  22.500  1.00  0.00     0.010 C 
ATOM     23  C   UNL A   1      33.007  22.690  22.778  1.00  0.00     0.010 C 
ENDBRANCH  20  21
BRANCH  20  24
ATOM     24  C   UNL A   1      32.516  22.449  25.530  1.00  0.00     0.287 C 
BRANCH  24  25
ATOM     25  N   UNL A   1      33.617  22.708  26.492  1.00  0.00    -0.338 N 
ATOM     26  C   UNL A   1      33.179  22.327  27.845  1.00  0.00     0.332 C 
ATOM     27  C   UNL A   1      34.822  21.925  26.177  1.00  0.00     0.332 C 
ATOM     28  H   UNL A   1      33.845  23.701  26.435  1.00  0.00     0.347 HD
ENDBRANCH  24  25
ENDBRANCH  20  24
ENDBRANCH  17  20
ENDBRANCH  12  16
ENDBRANCH  10  11
ENDBRANCH   7   9
ENDBRANCH   6   7
ENDBRANCH   5   6
ENDBRANCH   4   5
ENDBRANCH   3   4
ENDBRANCH   2   3
ENDBRANCH   1   2
BRANCH   1  29
ATOM     29  O   UNL A   1      38.405  31.510  30.745  1.00  0.00    -0.377 OA
BRANCH  29  30
ATOM     30  C   UNL A   1      38.197  32.618  29.869  1.00  0.00     0.188 C 
BRANCH  30  31
ATOM     31  C   UNL A   1      38.011  34.061  30.393  1.00  0.00     0.188 C 
BRANCH  31  32
ATOM     32  O   UNL A   1      36.887  34.748  29.845  1.00  0.00    -0.376 OA
BRANCH  32  33
ATOM     33  C   UNL A   1      35.698  33.983  29.686  1.00  0.00     0.202 C 
BRANCH  33  34
ATOM     34  C   UNL A   1      34.462  34.639  30.312  1.00  0.00     0.261 C 
BRANCH  34  35
ATOM     35  O   UNL A   1      34.191  34.245  31.665  1.00  0.00    -0.460 OA
BRANCH  35  36
ATOM     36  C   UNL A   1      34.542  32.992  32.018  1.00  0.00     0.338 C 
ATOM     37  O   UNL A   1      34.283  31.958  31.416  1.00  0.00    -0.246 OA
BRANCH  36  38
ATOM     38  C   UNL A   1      35.454  33.074  33.171  1.00  0.00     0.060 A 
ATOM     39  C   UNL A   1      35.379  34.190  34.014  1.00  0.00     0.016 A 
ATOM     40  C   UNL A   1      36.394  32.067  33.403  1.00  0.00     0.016 A 
ATOM     41  C   UNL A   1      36.288  34.329  35.062  1.00  0.00     0.010 A 
ATOM     42  C   UNL A   1      37.311  32.213  34.444  1.00  0.00     0.010 A 
ATOM     43  C   UNL A   1      37.290  33.366  35.247  1.00  0.00    -0.014 A 
BRANCH  43  44
ATOM     44  C   UNL A   1      38.448  33.670  36.121  1.00  0.00     0.031 A 
ATOM     45  C   UNL A   1      38.318  33.372  37.591  1.00  0.00     0.074 A 
ATOM     46  C   UNL A   1      39.585  34.189  35.628  1.00  0.00     0.049 A 
ATOM     47  N   UNL A   1      39.167  33.587  38.560  1.00  0.00    -0.248 NA
ATOM     48  C   UNL A   1      37.055  32.751  38.024  1.00  0.00     0.031 C 
ATOM     49  C   UNL A   1      39.839  34.492  34.221  1.00  0.00     0.029 A 
ATOM     50  N   UNL A   1      40.741  34.561  36.268  1.00  0.00    -0.354 N 
ATOM     51  C   UNL A   1      38.543  33.131  39.715  1.00  0.00     0.074 A 
ATOM     52  C   UNL A   1      37.232  32.658  39.333  1.00  0.00     0.031 C 
ATOM     53  C   UNL A   1      41.073  35.018  34.105  1.00  0.00     0.029 A 
ATOM     54  C   UNL A   1      41.683  35.110  35.431  1.00  0.00     0.049 A 
ATOM     55  H   UNL A   1      40.883  34.445  37.235  1.00  0.00     0.167 HD
ATOM     56  C   UNL A   1      39.023  33.099  40.980  1.00  0.00     0.037 A 
ATOM     57  C   UNL A   1      42.890  35.641  35.711  1.00  0.00     0.037 A 
ATOM     58  C   UNL A   1      40.325  33.575  41.359  1.00  0.00     0.049 A 
ATOM     59  C   UNL A   1      43.381  35.650  37.138  1.00  0.00     0.074 A 
ATOM     60  C   UNL A   1      40.910  33.580  42.613  1.00  0.00     0.029 A 
ATOM     61  N   UNL A   1      41.244  34.139  40.485  1.00  0.00    -0.354 N 
ATOM     62  N   UNL A   1      42.791  35.193  38.218  1.00  0.00    -0.248 NA
ATOM     63  C   UNL A   1      44.702  36.245  37.384  1.00  0.00     0.031 C 
ATOM     64  C   UNL A   1      42.167  34.185  42.505  1.00  0.00     0.029 A 
ATOM     65  C   UNL A   1      42.384  34.512  41.176  1.00  0.00     0.049 A 
ATOM     66  H   UNL A   1      41.105  34.256  39.518  1.00  0.00     0.167 HD
ATOM     67  C   UNL A   1      43.682  35.415  39.263  1.00  0.00     0.074 A 
ATOM     68  C   UNL A   1      44.853  36.042  38.686  1.00  0.00     0.031 C 
ATOM     69  C   UNL A   1      43.547  35.123  40.581  1.00  0.00     0.037 A 
BRANCH  56  70
ATOM     70  C   UNL A   1      38.120  32.548  42.047  1.00  0.00     0.058 A 
ATOM     71  C   UNL A   1      37.135  33.338  42.659  1.00  0.00     0.135 A 
ATOM     72  C   UNL A   1      38.231  31.207  42.451  1.00  0.00     0.135 A 
ATOM     73  F   UNL A   1      37.002  34.632  42.325  1.00  0.00    -0.206 F 
ATOM     74  C   UNL A   1      36.307  32.826  43.653  1.00  0.00     0.059 A 
ATOM     75  C   UNL A   1      37.397  30.668  43.426  1.00  0.00     0.059 A 
ATOM     76  F   UNL A   1      39.161  30.411  41.903  1.00  0.00    -0.206 F 
ATOM     77  C   UNL A   1      36.447  31.490  44.031  1.00  0.00     0.060 A 
BRANCH  77  78
ATOM     78  S   UNL A   1      35.367  30.841  45.322  1.00  0.00     0.124 S 
ATOM     79  O   UNL A   1      36.050  29.600  45.676  1.00  0.00    -0.237 OA
ATOM     80  O   UNL A   1      35.411  31.896  46.328  1.00  0.00    -0.237 OA
ATOM     81  O   UNL A   1      34.085  30.678  44.643  1.00  0.00    -0.744 OA
ENDBRANCH  77  78
ENDBRANCH  56  70
BRANCH  57  82
ATOM     82  C   UNL A   1      43.724  36.216  34.622  1.00  0.00     0.058 A 
ATOM     83  C   UNL A   1      44.766  35.478  34.041  1.00  0.00     0.135 A 
ATOM     84  C   UNL A   1      43.504  37.519  34.149  1.00  0.00     0.135 A 
ATOM     85  F   UNL A   1      45.025  34.233  34.467  1.00  0.00    -0.206 F 
ATOM     86  C   UNL A   1      45.572  36.017  33.043  1.00  0.00     0.059 A 
ATOM     87  C   UNL A   1      44.280  38.071  33.134  1.00  0.00     0.059 A 
ATOM     88  F   UNL A   1      42.514  38.263  34.666  1.00  0.00    -0.206 F 
ATOM     89  C   UNL A   1      45.320  37.315  32.595  1.00  0.00     0.060 A 
BRANCH  89  90
ATOM     90  S   UNL A   1      46.346  37.990  31.271  1.00  0.00     0.124 S 
ATOM     91  O   UNL A   1      47.539  37.158  31.370  1.00  0.00    -0.237 OA
ATOM     92  O   UNL A   1      45.510  37.771  30.094  1.00  0.00    -0.237 OA
ATOM     93  O   UNL A   1      46.516  39.388  31.658  1.00  0.00    -0.744 OA
ENDBRANCH  89  90
ENDBRANCH  57  82
BRANCH  69  94
ATOM     94  C   UNL A   1      44.706  35.436  41.488  1.00  0.00     0.058 A 
ATOM     95  C   UNL A   1      45.739  34.515  41.713  1.00  0.00     0.135 A 
ATOM     96  C   UNL A   1      44.813  36.702  42.086  1.00  0.00     0.135 A 
ATOM     97  F   UNL A   1      45.683  33.290  41.166  1.00  0.00    -0.206 F 
ATOM     98  C   UNL A   1      46.830  34.829  42.518  1.00  0.00     0.059 A 
ATOM     99  C   UNL A   1      45.907  37.047  42.874  1.00  0.00     0.059 A 
ATOM    100  F   UNL A   1      43.859  37.625  41.892  1.00  0.00    -0.206 F 
ATOM    101  C   UNL A   1      46.906  36.099  43.093  1.00  0.00     0.060 A 
BRANCH 101 102
ATOM    102  S   UNL A   1      48.344  36.509  44.105  1.00  0.00     0.124 S 
ATOM    103  O   UNL A   1      49.355  35.613  43.553  1.00  0.00    -0.237 OA
ATOM    104  O   UNL A   1      48.531  37.929  43.823  1.00  0.00    -0.237 OA
ATOM    105  O   UNL A   1      47.904  36.199  45.462  1.00  0.00    -0.744 OA
ENDBRANCH 101 102
ENDBRANCH  69  94
ENDBRANCH  43  44
ENDBRANCH  36  38
ENDBRANCH  35  36
ENDBRANCH  34  35
ENDBRANCH  33  34
ENDBRANCH  32  33
ENDBRANCH  31  32
ENDBRANCH  30  31
ENDBRANCH  29  30
ENDBRANCH   1  29
TORSDOF 29
ENDMDL
