MODEL 1
REMARK VINA RESULT:      -9.6      0.000      0.000
REMARK SMILES Cc1cc(=O)cc(C)n1C[C@H]1CCCC[C@@H]1C(=O)OCCOCCOCCOCCOC(=O)c1ccc(-c2c3nc(c(-c4c(F)cc(S(=O)(=O)[O-])cc4F)c4ccc([nH]4)c(-c4c(F)cc(S(=O)(=O)[O-])cc4F)c4nc(c(-c5c(F)cc(S(=O)(=O)[O-])cc5F)c5ccc2[nH]5)C=C4)C=C3)cc1
REMARK SMILES IDX 26 1 25 2 24 3 23 4 22 5 21 6 20 7 19 8 17 9 18 10 16 11
REMARK SMILES IDX 11 12 12 13 13 14 15 15 14 16 10 17 9 18 1 19 2 20 3 21 4 22
REMARK SMILES IDX 7 23 5 24 6 25 8 26 27 27 28 28 29 29 30 30 31 31 32 32
REMARK SMILES IDX 33 33 34 34 35 35 99 36 36 37 98 38 37 39 38 40 39 41 92 42
REMARK SMILES IDX 40 43 97 44 91 45 93 46 41 47 96 48 90 49 89 50 42 52 76 53
REMARK SMILES IDX 55 54 75 55 56 56 59 57 74 58 94 59 57 60 58 61 73 63 95 64
REMARK SMILES IDX 60 65 43 66 44 67 53 68 45 69 46 70 52 71 54 72 47 73 48 74
REMARK SMILES IDX 49 75 50 76 51 77 77 78 78 79 87 80 79 81 80 82 86 83 88 84
REMARK SMILES IDX 81 85 82 86 83 87 84 88 85 89 61 90 62 91 71 92 63 93 64 94
REMARK SMILES IDX 70 95 72 96 65 97 66 98 67 99 68 100 69 101
REMARK H PARENT 93 51 59 62
REMARK Flexibility Score: inf
ROOT
ATOM      1  C   UNL A   1      34.183  34.486  30.863  1.00  0.00     0.188 C 
ENDROOT
BRANCH   1   2
ATOM      2  O   UNL A   1      34.651  34.771  29.553  1.00  0.00    -0.377 OA
BRANCH   2   3
ATOM      3  C   UNL A   1      35.095  33.749  28.694  1.00  0.00     0.188 C 
BRANCH   3   4
ATOM      4  C   UNL A   1      34.335  32.435  28.788  1.00  0.00     0.188 C 
BRANCH   4   5
ATOM      5  O   UNL A   1      34.784  31.391  27.948  1.00  0.00    -0.376 OA
BRANCH   5   6
ATOM      6  C   UNL A   1      33.805  30.490  27.422  1.00  0.00     0.202 C 
BRANCH   6   7
ATOM      7  C   UNL A   1      34.220  29.290  26.542  1.00  0.00     0.261 C 
BRANCH   7   8
ATOM      8  O   UNL A   1      33.149  28.657  25.787  1.00  0.00    -0.463 OA
BRANCH   8   9
ATOM      9  C   UNL A   1      33.460  27.525  25.105  1.00  0.00     0.309 C 
ATOM     10  O   UNL A   1      33.978  27.533  23.989  1.00  0.00    -0.252 OA
BRANCH   9  11
ATOM     11  C   UNL A   1      33.147  26.181  25.806  1.00  0.00     0.104 C 
ATOM     12  C   UNL A   1      33.424  24.840  25.075  1.00  0.00     0.023 C 
ATOM     13  C   UNL A   1      32.355  24.659  24.012  1.00  0.00     0.006 C 
ATOM     14  C   UNL A   1      30.948  24.572  24.594  1.00  0.00     0.000 C 
ATOM     15  C   UNL A   1      31.743  26.237  26.438  1.00  0.00     0.016 C 
ATOM     16  C   UNL A   1      30.594  25.590  25.668  1.00  0.00     0.001 C 
BRANCH  12  17
ATOM     17  C   UNL A   1      33.432  23.613  26.045  1.00  0.00     0.126 C 
BRANCH  17  18
ATOM     18  N   UNL A   1      34.347  22.504  25.616  1.00  0.00    -0.349 N 
ATOM     19  C   UNL A   1      32.313  21.116  24.959  1.00  0.00     0.064 C 
ATOM     20  C   UNL A   1      33.798  21.259  25.196  1.00  0.00     0.018 A 
ATOM     21  C   UNL A   1      34.557  20.177  24.938  1.00  0.00     0.073 A 
ATOM     22  C   UNL A   1      36.016  20.254  25.077  1.00  0.00     0.182 A 
ATOM     23  C   UNL A   1      35.771  22.622  25.608  1.00  0.00     0.018 A 
ATOM     24  O   UNL A   1      36.739  19.293  24.847  1.00  0.00    -0.290 OA
ATOM     25  C   UNL A   1      36.582  21.567  25.406  1.00  0.00     0.073 A 
ATOM     26  C   UNL A   1      36.490  23.945  25.706  1.00  0.00     0.064 C 
ENDBRANCH  17  18
ENDBRANCH  12  17
ENDBRANCH   9  11
ENDBRANCH   8   9
ENDBRANCH   7   8
ENDBRANCH   6   7
ENDBRANCH   5   6
ENDBRANCH   4   5
ENDBRANCH   3   4
ENDBRANCH   2   3
ENDBRANCH   1   2
BRANCH   1  27
ATOM     27  C   UNL A   1      35.011  34.939  32.065  1.00  0.00     0.188 C 
BRANCH  27  28
ATOM     28  O   UNL A   1      35.116  34.064  33.189  1.00  0.00    -0.376 OA
BRANCH  28  29
ATOM     29  C   UNL A   1      36.237  33.192  33.275  1.00  0.00     0.202 C 
BRANCH  29  30
ATOM     30  C   UNL A   1      36.046  31.788  32.701  1.00  0.00     0.261 C 
BRANCH  30  31
ATOM     31  O   UNL A   1      36.568  31.672  31.367  1.00  0.00    -0.460 OA
BRANCH  31  32
ATOM     32  C   UNL A   1      36.849  30.415  30.961  1.00  0.00     0.338 C 
ATOM     33  O   UNL A   1      36.074  29.473  30.877  1.00  0.00    -0.246 OA
BRANCH  32  34
ATOM     34  C   UNL A   1      38.232  30.367  30.459  1.00  0.00     0.060 A 
ATOM     35  C   UNL A   1      38.429  30.301  29.075  1.00  0.00     0.016 A 
ATOM     36  C   UNL A   1      39.316  30.309  31.339  1.00  0.00     0.016 A 
ATOM     37  C   UNL A   1      39.711  30.129  28.563  1.00  0.00     0.010 A 
ATOM     38  C   UNL A   1      40.602  30.119  30.825  1.00  0.00     0.010 A 
ATOM     39  C   UNL A   1      40.795  29.984  29.439  1.00  0.00    -0.014 A 
BRANCH  39  40
ATOM     40  C   UNL A   1      42.075  29.460  28.909  1.00  0.00     0.031 A 
ATOM     41  C   UNL A   1      43.241  30.407  28.814  1.00  0.00     0.074 A 
ATOM     42  C   UNL A   1      42.214  28.163  28.583  1.00  0.00     0.049 A 
ATOM     43  N   UNL A   1      44.458  30.183  28.395  1.00  0.00    -0.248 NA
ATOM     44  C   UNL A   1      43.001  31.792  29.255  1.00  0.00     0.031 C 
ATOM     45  C   UNL A   1      41.166  27.149  28.687  1.00  0.00     0.029 A 
ATOM     46  N   UNL A   1      43.301  27.477  28.105  1.00  0.00    -0.354 N 
ATOM     47  C   UNL A   1      45.128  31.393  28.528  1.00  0.00     0.074 A 
ATOM     48  C   UNL A   1      44.174  32.360  29.022  1.00  0.00     0.031 C 
ATOM     49  C   UNL A   1      41.663  25.967  28.283  1.00  0.00     0.029 A 
ATOM     50  C   UNL A   1      43.052  26.147  27.864  1.00  0.00     0.049 A 
ATOM     51  H   UNL A   1      44.177  27.898  27.946  1.00  0.00     0.167 HD
ATOM     52  C   UNL A   1      46.430  31.668  28.281  1.00  0.00     0.037 A 
ATOM     53  C   UNL A   1      43.856  25.191  27.353  1.00  0.00     0.037 A 
ATOM     54  C   UNL A   1      47.371  30.698  27.789  1.00  0.00     0.049 A 
ATOM     55  C   UNL A   1      45.274  25.548  26.981  1.00  0.00     0.074 A 
ATOM     56  C   UNL A   1      48.714  30.870  27.511  1.00  0.00     0.029 A 
ATOM     57  N   UNL A   1      47.064  29.378  27.492  1.00  0.00    -0.354 N 
ATOM     58  N   UNL A   1      45.907  26.686  27.143  1.00  0.00    -0.248 NA
ATOM     59  C   UNL A   1      46.085  24.496  26.354  1.00  0.00     0.031 C 
ATOM     60  C   UNL A   1      49.206  29.669  26.993  1.00  0.00     0.029 A 
ATOM     61  C   UNL A   1      48.183  28.733  26.998  1.00  0.00     0.049 A 
ATOM     62  H   UNL A   1      46.180  28.962  27.616  1.00  0.00     0.167 HD
ATOM     63  C   UNL A   1      47.192  26.484  26.648  1.00  0.00     0.074 A 
ATOM     64  C   UNL A   1      47.253  25.106  26.204  1.00  0.00     0.031 C 
ATOM     65  C   UNL A   1      48.224  27.358  26.562  1.00  0.00     0.037 A 
BRANCH  52  66
ATOM     66  C   UNL A   1      46.910  33.070  28.528  1.00  0.00     0.058 A 
ATOM     67  C   UNL A   1      47.488  33.444  29.752  1.00  0.00     0.135 A 
ATOM     68  C   UNL A   1      46.832  34.042  27.517  1.00  0.00     0.135 A 
ATOM     69  F   UNL A   1      47.567  32.561  30.760  1.00  0.00    -0.206 F 
ATOM     70  C   UNL A   1      47.956  34.735  29.971  1.00  0.00     0.059 A 
ATOM     71  C   UNL A   1      47.319  35.331  27.704  1.00  0.00     0.059 A 
ATOM     72  F   UNL A   1      46.282  33.739  26.331  1.00  0.00    -0.206 F 
ATOM     73  C   UNL A   1      47.872  35.670  28.938  1.00  0.00     0.060 A 
BRANCH  73  74
ATOM     74  S   UNL A   1      48.502  37.336  29.238  1.00  0.00     0.124 S 
ATOM     75  O   UNL A   1      47.364  37.963  29.904  1.00  0.00    -0.237 OA
ATOM     76  O   UNL A   1      49.666  37.078  30.079  1.00  0.00    -0.237 OA
ATOM     77  O   UNL A   1      48.795  37.836  27.899  1.00  0.00    -0.744 OA
ENDBRANCH  73  74
ENDBRANCH  52  66
BRANCH  53  78
ATOM     78  C   UNL A   1      43.338  23.809  27.157  1.00  0.00     0.058 A 
ATOM     79  C   UNL A   1      43.265  22.907  28.228  1.00  0.00     0.135 A 
ATOM     80  C   UNL A   1      42.896  23.365  25.900  1.00  0.00     0.135 A 
ATOM     81  F   UNL A   1      43.688  23.277  29.447  1.00  0.00    -0.206 F 
ATOM     82  C   UNL A   1      42.775  21.615  28.062  1.00  0.00     0.059 A 
ATOM     83  C   UNL A   1      42.377  22.086  25.714  1.00  0.00     0.059 A 
ATOM     84  F   UNL A   1      42.940  24.189  24.841  1.00  0.00    -0.206 F 
ATOM     85  C   UNL A   1      42.324  21.217  26.801  1.00  0.00     0.060 A 
BRANCH  85  86
ATOM     86  S   UNL A   1      41.633  19.558  26.617  1.00  0.00     0.124 S 
ATOM     87  O   UNL A   1      40.878  19.413  27.856  1.00  0.00    -0.237 OA
ATOM     88  O   UNL A   1      40.841  19.695  25.399  1.00  0.00    -0.237 OA
ATOM     89  O   UNL A   1      42.814  18.711  26.495  1.00  0.00    -0.744 OA
ENDBRANCH  85  86
ENDBRANCH  53  78
BRANCH  65  90
ATOM     90  C   UNL A   1      49.514  26.874  25.959  1.00  0.00     0.058 A 
ATOM     91  C   UNL A   1      49.789  27.049  24.594  1.00  0.00     0.135 A 
ATOM     92  C   UNL A   1      50.532  26.345  26.770  1.00  0.00     0.135 A 
ATOM     93  F   UNL A   1      48.848  27.544  23.774  1.00  0.00    -0.206 F 
ATOM     94  C   UNL A   1      51.026  26.721  24.054  1.00  0.00     0.059 A 
ATOM     95  C   UNL A   1      51.789  26.036  26.258  1.00  0.00     0.059 A 
ATOM     96  F   UNL A   1      50.325  26.168  28.085  1.00  0.00    -0.206 F 
ATOM     97  C   UNL A   1      52.026  26.229  24.897  1.00  0.00     0.060 A 
BRANCH  97  98
ATOM     98  S   UNL A   1      53.651  25.885  24.192  1.00  0.00     0.124 S 
ATOM     99  O   UNL A   1      53.388  26.019  22.762  1.00  0.00    -0.237 OA
ATOM    100  O   UNL A   1      54.474  26.935  24.786  1.00  0.00    -0.237 OA
ATOM    101  O   UNL A   1      53.944  24.531  24.650  1.00  0.00    -0.744 OA
ENDBRANCH  97  98
ENDBRANCH  65  90
ENDBRANCH  39  40
ENDBRANCH  32  34
ENDBRANCH  31  32
ENDBRANCH  30  31
ENDBRANCH  29  30
ENDBRANCH  28  29
ENDBRANCH  27  28
ENDBRANCH   1  27
TORSDOF 25
ENDMDL
MODEL 2
REMARK VINA RESULT:      -9.4      6.271     12.173
REMARK SMILES Cc1cc(=O)cc(C)n1C[C@H]1CCCC[C@@H]1C(=O)OCCOCCOCCOCCOC(=O)c1ccc(-c2c3nc(c(-c4c(F)cc(S(=O)(=O)[O-])cc4F)c4ccc([nH]4)c(-c4c(F)cc(S(=O)(=O)[O-])cc4F)c4nc(c(-c5c(F)cc(S(=O)(=O)[O-])cc5F)c5ccc2[nH]5)C=C4)C=C3)cc1
REMARK SMILES IDX 26 1 25 2 24 3 23 4 22 5 21 6 20 7 19 8 17 9 18 10 16 11
REMARK SMILES IDX 11 12 12 13 13 14 15 15 14 16 10 17 9 18 1 19 2 20 3 21 4 22
REMARK SMILES IDX 7 23 5 24 6 25 8 26 27 27 28 28 29 29 30 30 31 31 32 32
REMARK SMILES IDX 33 33 34 34 35 35 99 36 36 37 98 38 37 39 38 40 39 41 92 42
REMARK SMILES IDX 40 43 97 44 91 45 93 46 41 47 96 48 90 49 89 50 42 52 76 53
REMARK SMILES IDX 55 54 75 55 56 56 59 57 74 58 94 59 57 60 58 61 73 63 95 64
REMARK SMILES IDX 60 65 43 66 44 67 53 68 45 69 46 70 52 71 54 72 47 73 48 74
REMARK SMILES IDX 49 75 50 76 51 77 77 78 78 79 87 80 79 81 80 82 86 83 88 84
REMARK SMILES IDX 81 85 82 86 83 87 84 88 85 89 61 90 62 91 71 92 63 93 64 94
REMARK SMILES IDX 70 95 72 96 65 97 66 98 67 99 68 100 69 101
REMARK H PARENT 93 51 59 62
REMARK Flexibility Score: inf
ROOT
ATOM      1  C   UNL A   1      37.434  22.250  24.602  1.00  0.00     0.188 C 
ENDROOT
BRANCH   1   2
ATOM      2  O   UNL A   1      36.034  22.033  24.509  1.00  0.00    -0.377 OA
BRANCH   2   3
ATOM      3  C   UNL A   1      35.432  20.886  25.055  1.00  0.00     0.188 C 
BRANCH   3   4
ATOM      4  C   UNL A   1      33.921  20.799  24.904  1.00  0.00     0.188 C 
BRANCH   4   5
ATOM      5  O   UNL A   1      33.202  20.366  26.041  1.00  0.00    -0.376 OA
BRANCH   5   6
ATOM      6  C   UNL A   1      33.531  20.954  27.303  1.00  0.00     0.202 C 
BRANCH   6   7
ATOM      7  C   UNL A   1      33.494  22.485  27.500  1.00  0.00     0.261 C 
BRANCH   7   8
ATOM      8  O   UNL A   1      32.188  23.055  27.799  1.00  0.00    -0.463 OA
BRANCH   8   9
ATOM      9  C   UNL A   1      31.381  23.334  26.744  1.00  0.00     0.309 C 
ATOM     10  O   UNL A   1      30.245  22.875  26.625  1.00  0.00    -0.252 OA
BRANCH   9  11
ATOM     11  C   UNL A   1      31.948  24.290  25.667  1.00  0.00     0.104 C 
ATOM     12  C   UNL A   1      31.310  25.690  25.456  1.00  0.00     0.023 C 
ATOM     13  C   UNL A   1      29.985  25.494  24.740  1.00  0.00     0.006 C 
ATOM     14  C   UNL A   1      30.144  24.860  23.362  1.00  0.00     0.000 C 
ATOM     15  C   UNL A   1      32.158  23.525  24.346  1.00  0.00     0.016 C 
ATOM     16  C   UNL A   1      31.086  23.668  23.268  1.00  0.00     0.001 C 
BRANCH  12  17
ATOM     17  C   UNL A   1      32.227  26.656  24.637  1.00  0.00     0.126 C 
BRANCH  17  18
ATOM     18  N   UNL A   1      31.946  28.111  24.875  1.00  0.00    -0.349 N 
ATOM     19  C   UNL A   1      33.780  28.148  26.644  1.00  0.00     0.064 C 
ATOM     20  C   UNL A   1      32.623  28.798  25.923  1.00  0.00     0.018 A 
ATOM     21  C   UNL A   1      32.316  30.057  26.287  1.00  0.00     0.073 A 
ATOM     22  C   UNL A   1      31.250  30.784  25.587  1.00  0.00     0.182 A 
ATOM     23  C   UNL A   1      31.013  28.866  24.100  1.00  0.00     0.018 A 
ATOM     24  O   UNL A   1      30.945  31.932  25.887  1.00  0.00    -0.290 OA
ATOM     25  C   UNL A   1      30.630  30.110  24.441  1.00  0.00     0.073 A 
ATOM     26  C   UNL A   1      30.466  28.392  22.776  1.00  0.00     0.064 C 
ENDBRANCH  17  18
ENDBRANCH  12  17
ENDBRANCH   9  11
ENDBRANCH   8   9
ENDBRANCH   7   8
ENDBRANCH   6   7
ENDBRANCH   5   6
ENDBRANCH   4   5
ENDBRANCH   3   4
ENDBRANCH   2   3
ENDBRANCH   1   2
BRANCH   1  27
ATOM     27  C   UNL A   1      38.099  22.244  25.978  1.00  0.00     0.188 C 
BRANCH  27  28
ATOM     28  O   UNL A   1      39.496  21.955  26.059  1.00  0.00    -0.376 OA
BRANCH  28  29
ATOM     29  C   UNL A   1      40.366  22.929  26.624  1.00  0.00     0.202 C 
BRANCH  29  30
ATOM     30  C   UNL A   1      41.539  23.373  25.750  1.00  0.00     0.261 C 
BRANCH  30  31
ATOM     31  O   UNL A   1      42.290  24.439  26.352  1.00  0.00    -0.460 OA
BRANCH  31  32
ATOM     32  C   UNL A   1      41.706  25.657  26.311  1.00  0.00     0.338 C 
ATOM     33  O   UNL A   1      41.048  26.131  25.395  1.00  0.00    -0.246 OA
BRANCH  32  34
ATOM     34  C   UNL A   1      41.835  26.300  27.628  1.00  0.00     0.060 A 
ATOM     35  C   UNL A   1      40.858  26.029  28.593  1.00  0.00     0.016 A 
ATOM     36  C   UNL A   1      42.858  27.218  27.884  1.00  0.00     0.016 A 
ATOM     37  C   UNL A   1      40.872  26.710  29.805  1.00  0.00     0.010 A 
ATOM     38  C   UNL A   1      42.861  27.914  29.096  1.00  0.00     0.010 A 
ATOM     39  C   UNL A   1      41.842  27.693  30.040  1.00  0.00    -0.014 A 
BRANCH  39  40
ATOM     40  C   UNL A   1      41.643  28.640  31.161  1.00  0.00     0.031 A 
ATOM     41  C   UNL A   1      40.524  29.641  31.050  1.00  0.00     0.074 A 
ATOM     42  C   UNL A   1      42.394  28.570  32.274  1.00  0.00     0.049 A 
ATOM     43  N   UNL A   1      40.146  30.560  31.898  1.00  0.00    -0.248 NA
ATOM     44  C   UNL A   1      39.719  29.593  29.816  1.00  0.00     0.031 C 
ATOM     45  C   UNL A   1      43.468  27.606  32.507  1.00  0.00     0.029 A 
ATOM     46  N   UNL A   1      42.360  29.323  33.419  1.00  0.00    -0.354 N 
ATOM     47  C   UNL A   1      39.062  31.195  31.305  1.00  0.00     0.074 A 
ATOM     48  C   UNL A   1      38.867  30.589  30.008  1.00  0.00     0.031 C 
ATOM     49  C   UNL A   1      43.993  27.827  33.726  1.00  0.00     0.029 A 
ATOM     50  C   UNL A   1      43.313  28.965  34.343  1.00  0.00     0.049 A 
ATOM     51  H   UNL A   1      41.716  30.053  33.566  1.00  0.00     0.167 HD
ATOM     52  C   UNL A   1      38.283  32.180  31.809  1.00  0.00     0.037 A 
ATOM     53  C   UNL A   1      43.606  29.506  35.544  1.00  0.00     0.037 A 
ATOM     54  C   UNL A   1      38.486  32.777  33.101  1.00  0.00     0.049 A 
ATOM     55  C   UNL A   1      42.792  30.677  36.037  1.00  0.00     0.074 A 
ATOM     56  C   UNL A   1      37.751  33.777  33.710  1.00  0.00     0.029 A 
ATOM     57  N   UNL A   1      39.504  32.433  33.979  1.00  0.00    -0.354 N 
ATOM     58  N   UNL A   1      41.747  31.246  35.484  1.00  0.00    -0.248 NA
ATOM     59  C   UNL A   1      43.200  31.283  37.313  1.00  0.00     0.031 C 
ATOM     60  C   UNL A   1      38.358  34.078  34.931  1.00  0.00     0.029 A 
ATOM     61  C   UNL A   1      39.441  33.229  35.109  1.00  0.00     0.049 A 
ATOM     62  H   UNL A   1      40.173  31.728  33.821  1.00  0.00     0.167 HD
ATOM     63  C   UNL A   1      41.366  32.269  36.349  1.00  0.00     0.074 A 
ATOM     64  C   UNL A   1      42.278  32.224  37.473  1.00  0.00     0.031 C 
ATOM     65  C   UNL A   1      40.358  33.167  36.220  1.00  0.00     0.037 A 
BRANCH  52  66
ATOM     66  C   UNL A   1      37.149  32.680  30.959  1.00  0.00     0.058 A 
ATOM     67  C   UNL A   1      35.833  32.231  31.151  1.00  0.00     0.135 A 
ATOM     68  C   UNL A   1      37.372  33.653  29.970  1.00  0.00     0.135 A 
ATOM     69  F   UNL A   1      35.568  31.287  32.067  1.00  0.00    -0.206 F 
ATOM     70  C   UNL A   1      34.780  32.715  30.382  1.00  0.00     0.059 A 
ATOM     71  C   UNL A   1      36.329  34.171  29.208  1.00  0.00     0.059 A 
ATOM     72  F   UNL A   1      38.612  34.111  29.740  1.00  0.00    -0.206 F 
ATOM     73  C   UNL A   1      35.038  33.689  29.416  1.00  0.00     0.060 A 
BRANCH  73  74
ATOM     74  S   UNL A   1      33.654  34.316  28.441  1.00  0.00     0.124 S 
ATOM     75  O   UNL A   1      32.741  34.769  29.488  1.00  0.00    -0.237 OA
ATOM     76  O   UNL A   1      34.284  35.369  27.652  1.00  0.00    -0.237 OA
ATOM     77  O   UNL A   1      33.210  33.148  27.687  1.00  0.00    -0.744 OA
ENDBRANCH  73  74
ENDBRANCH  52  66
BRANCH  53  78
ATOM     78  C   UNL A   1      44.721  28.951  36.359  1.00  0.00     0.058 A 
ATOM     79  C   UNL A   1      44.512  27.871  37.229  1.00  0.00     0.135 A 
ATOM     80  C   UNL A   1      46.020  29.480  36.279  1.00  0.00     0.135 A 
ATOM     81  F   UNL A   1      43.286  27.338  37.354  1.00  0.00    -0.206 F 
ATOM     82  C   UNL A   1      45.546  27.336  37.991  1.00  0.00     0.059 A 
ATOM     83  C   UNL A   1      47.076  28.945  37.011  1.00  0.00     0.059 A 
ATOM     84  F   UNL A   1      46.276  30.511  35.460  1.00  0.00    -0.206 F 
ATOM     85  C   UNL A   1      46.828  27.874  37.867  1.00  0.00     0.060 A 
BRANCH  85  86
ATOM     86  S   UNL A   1      48.172  27.127  38.815  1.00  0.00     0.124 S 
ATOM     87  O   UNL A   1      49.003  26.564  37.757  1.00  0.00    -0.237 OA
ATOM     88  O   UNL A   1      48.725  28.282  39.516  1.00  0.00    -0.237 OA
ATOM     89  O   UNL A   1      47.489  26.157  39.664  1.00  0.00    -0.744 OA
ENDBRANCH  85  86
ENDBRANCH  53  78
BRANCH  65  90
ATOM     90  C   UNL A   1      40.179  34.190  37.309  1.00  0.00     0.058 A 
ATOM     91  C   UNL A   1      40.705  35.485  37.182  1.00  0.00     0.135 A 
ATOM     92  C   UNL A   1      39.374  33.915  38.426  1.00  0.00     0.135 A 
ATOM     93  F   UNL A   1      41.486  35.797  36.136  1.00  0.00    -0.206 F 
ATOM     94  C   UNL A   1      40.436  36.472  38.122  1.00  0.00     0.059 A 
ATOM     95  C   UNL A   1      39.067  34.896  39.365  1.00  0.00     0.059 A 
ATOM     96  F   UNL A   1      38.837  32.695  38.590  1.00  0.00    -0.206 F 
ATOM     97  C   UNL A   1      39.604  36.173  39.203  1.00  0.00     0.060 A 
BRANCH  97  98
ATOM     98  S   UNL A   1      39.202  37.491  40.369  1.00  0.00     0.124 S 
ATOM     99  O   UNL A   1      38.262  38.295  39.594  1.00  0.00    -0.237 OA
ATOM    100  O   UNL A   1      38.629  36.749  41.488  1.00  0.00    -0.237 OA
ATOM    101  O   UNL A   1      40.493  38.118  40.634  1.00  0.00    -0.744 OA
ENDBRANCH  97  98
ENDBRANCH  65  90
ENDBRANCH  39  40
ENDBRANCH  32  34
ENDBRANCH  31  32
ENDBRANCH  30  31
ENDBRANCH  29  30
ENDBRANCH  28  29
ENDBRANCH  27  28
ENDBRANCH   1  27
TORSDOF 25
ENDMDL
MODEL 3
REMARK VINA RESULT:      -9.4      1.268      8.213
REMARK SMILES Cc1cc(=O)cc(C)n1C[C@H]1CCCC[C@@H]1C(=O)OCCOCCOCCOCCOC(=O)c1ccc(-c2c3nc(c(-c4c(F)cc(S(=O)(=O)[O-])cc4F)c4ccc([nH]4)c(-c4c(F)cc(S(=O)(=O)[O-])cc4F)c4nc(c(-c5c(F)cc(S(=O)(=O)[O-])cc5F)c5ccc2[nH]5)C=C4)C=C3)cc1
REMARK SMILES IDX 26 1 25 2 24 3 23 4 22 5 21 6 20 7 19 8 17 9 18 10 16 11
REMARK SMILES IDX 11 12 12 13 13 14 15 15 14 16 10 17 9 18 1 19 2 20 3 21 4 22
REMARK SMILES IDX 7 23 5 24 6 25 8 26 27 27 28 28 29 29 30 30 31 31 32 32
REMARK SMILES IDX 33 33 34 34 35 35 99 36 36 37 98 38 37 39 38 40 39 41 92 42
REMARK SMILES IDX 40 43 97 44 91 45 93 46 41 47 96 48 90 49 89 50 42 52 76 53
REMARK SMILES IDX 55 54 75 55 56 56 59 57 74 58 94 59 57 60 58 61 73 63 95 64
REMARK SMILES IDX 60 65 43 66 44 67 53 68 45 69 46 70 52 71 54 72 47 73 48 74
REMARK SMILES IDX 49 75 50 76 51 77 77 78 78 79 87 80 79 81 80 82 86 83 88 84
REMARK SMILES IDX 81 85 82 86 83 87 84 88 85 89 61 90 62 91 71 92 63 93 64 94
REMARK SMILES IDX 70 95 72 96 65 97 66 98 67 99 68 100 69 101
REMARK H PARENT 93 51 59 62
REMARK Flexibility Score: inf
ROOT
ATOM      1  C   UNL A   1      33.554  32.159  27.904  1.00  0.00     0.188 C 
ENDROOT
BRANCH   1   2
ATOM      2  O   UNL A   1      33.324  31.207  26.875  1.00  0.00    -0.377 OA
BRANCH   2   3
ATOM      3  C   UNL A   1      33.183  29.838  27.163  1.00  0.00     0.188 C 
BRANCH   3   4
ATOM      4  C   UNL A   1      31.765  29.293  27.085  1.00  0.00     0.188 C 
BRANCH   4   5
ATOM      5  O   UNL A   1      31.435  28.569  25.916  1.00  0.00    -0.376 OA
BRANCH   5   6
ATOM      6  C   UNL A   1      31.303  29.302  24.694  1.00  0.00     0.202 C 
BRANCH   6   7
ATOM      7  C   UNL A   1      30.446  28.758  23.530  1.00  0.00     0.261 C 
BRANCH   7   8
ATOM      8  O   UNL A   1      31.051  27.696  22.739  1.00  0.00    -0.463 OA
BRANCH   8   9
ATOM      9  C   UNL A   1      30.929  26.429  23.210  1.00  0.00     0.309 C 
ATOM     10  O   UNL A   1      29.846  25.916  23.488  1.00  0.00    -0.252 OA
BRANCH   9  11
ATOM     11  C   UNL A   1      32.238  25.620  23.379  1.00  0.00     0.104 C 
ATOM     12  C   UNL A   1      32.366  24.579  24.524  1.00  0.00     0.023 C 
ATOM     13  C   UNL A   1      32.540  25.339  25.827  1.00  0.00     0.006 C 
ATOM     14  C   UNL A   1      33.804  26.193  25.851  1.00  0.00     0.000 C 
ATOM     15  C   UNL A   1      33.451  26.565  23.293  1.00  0.00     0.016 C 
ATOM     16  C   UNL A   1      34.089  27.018  24.605  1.00  0.00     0.001 C 
BRANCH  12  17
ATOM     17  C   UNL A   1      33.561  23.592  24.313  1.00  0.00     0.126 C 
BRANCH  17  18
ATOM     18  N   UNL A   1      33.229  22.160  24.620  1.00  0.00    -0.349 N 
ATOM     19  C   UNL A   1      33.922  22.548  27.041  1.00  0.00     0.064 C 
ATOM     20  C   UNL A   1      33.510  21.633  25.913  1.00  0.00     0.018 A 
ATOM     21  C   UNL A   1      33.375  20.328  26.213  1.00  0.00     0.073 A 
ATOM     22  C   UNL A   1      32.911  19.384  25.189  1.00  0.00     0.182 A 
ATOM     23  C   UNL A   1      32.639  21.272  23.670  1.00  0.00     0.018 A 
ATOM     24  O   UNL A   1      32.773  18.190  25.426  1.00  0.00    -0.290 OA
ATOM     25  C   UNL A   1      32.523  19.949  23.893  1.00  0.00     0.073 A 
ATOM     26  C   UNL A   1      31.990  21.742  22.391  1.00  0.00     0.064 C 
ENDBRANCH  17  18
ENDBRANCH  12  17
ENDBRANCH   9  11
ENDBRANCH   8   9
ENDBRANCH   7   8
ENDBRANCH   6   7
ENDBRANCH   5   6
ENDBRANCH   4   5
ENDBRANCH   3   4
ENDBRANCH   2   3
ENDBRANCH   1   2
BRANCH   1  27
ATOM     27  C   UNL A   1      34.922  32.206  28.584  1.00  0.00     0.188 C 
BRANCH  27  28
ATOM     28  O   UNL A   1      35.075  33.013  29.753  1.00  0.00    -0.376 OA
BRANCH  28  29
ATOM     29  C   UNL A   1      36.369  33.507  30.080  1.00  0.00     0.202 C 
BRANCH  29  30
ATOM     30  C   UNL A   1      36.715  33.559  31.568  1.00  0.00     0.261 C 
BRANCH  30  31
ATOM     31  O   UNL A   1      37.776  32.653  31.910  1.00  0.00    -0.460 OA
BRANCH  31  32
ATOM     32  C   UNL A   1      37.469  31.340  31.823  1.00  0.00     0.338 C 
ATOM     33  O   UNL A   1      36.413  30.805  32.132  1.00  0.00    -0.246 OA
BRANCH  32  34
ATOM     34  C   UNL A   1      38.557  30.634  31.130  1.00  0.00     0.060 A 
ATOM     35  C   UNL A   1      39.577  30.070  31.905  1.00  0.00     0.016 A 
ATOM     36  C   UNL A   1      38.616  30.594  29.734  1.00  0.00     0.016 A 
ATOM     37  C   UNL A   1      40.687  29.503  31.287  1.00  0.00     0.010 A 
ATOM     38  C   UNL A   1      39.739  30.039  29.114  1.00  0.00     0.010 A 
ATOM     39  C   UNL A   1      40.796  29.533  29.891  1.00  0.00    -0.014 A 
BRANCH  39  40
ATOM     40  C   UNL A   1      42.112  29.252  29.272  1.00  0.00     0.031 A 
ATOM     41  C   UNL A   1      42.365  27.863  28.749  1.00  0.00     0.074 A 
ATOM     42  C   UNL A   1      43.031  30.221  29.121  1.00  0.00     0.049 A 
ATOM     43  N   UNL A   1      43.426  27.379  28.161  1.00  0.00    -0.248 NA
ATOM     44  C   UNL A   1      41.269  26.891  28.908  1.00  0.00     0.031 C 
ATOM     45  C   UNL A   1      42.869  31.611  29.543  1.00  0.00     0.029 A 
ATOM     46  N   UNL A   1      44.283  30.181  28.562  1.00  0.00    -0.354 N 
ATOM     47  C   UNL A   1      43.125  26.054  27.875  1.00  0.00     0.074 A 
ATOM     48  C   UNL A   1      41.801  25.794  28.393  1.00  0.00     0.031 C 
ATOM     49  C   UNL A   1      43.984  32.294  29.227  1.00  0.00     0.029 A 
ATOM     50  C   UNL A   1      44.947  31.384  28.609  1.00  0.00     0.049 A 
ATOM     51  H   UNL A   1      44.671  29.367  28.167  1.00  0.00     0.167 HD
ATOM     52  C   UNL A   1      43.877  25.140  27.218  1.00  0.00     0.037 A 
ATOM     53  C   UNL A   1      46.195  31.704  28.209  1.00  0.00     0.037 A 
ATOM     54  C   UNL A   1      45.194  25.410  26.707  1.00  0.00     0.049 A 
ATOM     55  C   UNL A   1      47.057  30.639  27.578  1.00  0.00     0.074 A 
ATOM     56  C   UNL A   1      46.039  24.558  26.021  1.00  0.00     0.029 A 
ATOM     57  N   UNL A   1      45.859  26.621  26.836  1.00  0.00    -0.354 N 
ATOM     58  N   UNL A   1      46.750  29.398  27.281  1.00  0.00    -0.248 NA
ATOM     59  C   UNL A   1      48.436  31.014  27.232  1.00  0.00     0.031 C 
ATOM     60  C   UNL A   1      47.238  25.235  25.784  1.00  0.00     0.029 A 
ATOM     61  C   UNL A   1      47.121  26.527  26.275  1.00  0.00     0.049 A 
ATOM     62  H   UNL A   1      45.488  27.427  27.262  1.00  0.00     0.167 HD
ATOM     63  C   UNL A   1      47.891  28.848  26.705  1.00  0.00     0.074 A 
ATOM     64  C   UNL A   1      48.888  29.899  26.672  1.00  0.00     0.031 C 
ATOM     65  C   UNL A   1      48.099  27.587  26.251  1.00  0.00     0.037 A 
BRANCH  52  66
ATOM     66  C   UNL A   1      43.301  23.766  27.024  1.00  0.00     0.058 A 
ATOM     67  C   UNL A   1      43.261  22.832  28.071  1.00  0.00     0.135 A 
ATOM     68  C   UNL A   1      42.742  23.393  25.791  1.00  0.00     0.135 A 
ATOM     69  F   UNL A   1      43.801  23.129  29.264  1.00  0.00    -0.206 F 
ATOM     70  C   UNL A   1      42.703  21.570  27.898  1.00  0.00     0.059 A 
ATOM     71  C   UNL A   1      42.153  22.146  25.604  1.00  0.00     0.059 A 
ATOM     72  F   UNL A   1      42.760  24.245  24.755  1.00  0.00    -0.206 F 
ATOM     73  C   UNL A   1      42.147  21.238  26.662  1.00  0.00     0.060 A 
BRANCH  73  74
ATOM     74  S   UNL A   1      41.411  19.601  26.465  1.00  0.00     0.124 S 
ATOM     75  O   UNL A   1      40.028  19.939  26.139  1.00  0.00    -0.237 OA
ATOM     76  O   UNL A   1      42.200  19.038  25.375  1.00  0.00    -0.237 OA
ATOM     77  O   UNL A   1      41.611  18.978  27.770  1.00  0.00    -0.744 OA
ENDBRANCH  73  74
ENDBRANCH  52  66
BRANCH  53  78
ATOM     78  C   UNL A   1      46.705  33.090  28.397  1.00  0.00     0.058 A 
ATOM     79  C   UNL A   1      46.566  34.054  27.389  1.00  0.00     0.135 A 
ATOM     80  C   UNL A   1      47.332  33.482  29.591  1.00  0.00     0.135 A 
ATOM     81  F   UNL A   1      45.987  33.726  26.223  1.00  0.00    -0.206 F 
ATOM     82  C   UNL A   1      47.030  35.356  27.554  1.00  0.00     0.059 A 
ATOM     83  C   UNL A   1      47.782  34.785  29.790  1.00  0.00     0.059 A 
ATOM     84  F   UNL A   1      47.489  32.600  30.591  1.00  0.00    -0.206 F 
ATOM     85  C   UNL A   1      47.629  35.714  28.763  1.00  0.00     0.060 A 
BRANCH  85  86
ATOM     86  S   UNL A   1      48.168  37.424  28.985  1.00  0.00     0.124 S 
ATOM     87  O   UNL A   1      47.742  37.694  30.353  1.00  0.00    -0.237 OA
ATOM     88  O   UNL A   1      49.609  37.316  28.774  1.00  0.00    -0.237 OA
ATOM     89  O   UNL A   1      47.443  38.145  27.945  1.00  0.00    -0.744 OA
ENDBRANCH  85  86
ENDBRANCH  53  78
BRANCH  65  90
ATOM     90  C   UNL A   1      49.452  27.253  25.685  1.00  0.00     0.058 A 
ATOM     91  C   UNL A   1      49.727  27.415  24.318  1.00  0.00     0.135 A 
ATOM     92  C   UNL A   1      50.513  26.887  26.529  1.00  0.00     0.135 A 
ATOM     93  F   UNL A   1      48.747  27.756  23.467  1.00  0.00    -0.206 F 
ATOM     94  C   UNL A   1      51.007  27.230  23.809  1.00  0.00     0.059 A 
ATOM     95  C   UNL A   1      51.808  26.726  26.047  1.00  0.00     0.059 A 
ATOM     96  F   UNL A   1      50.305  26.730  27.847  1.00  0.00    -0.206 F 
ATOM     97  C   UNL A   1      52.045  26.901  24.684  1.00  0.00     0.060 A 
BRANCH  97  98
ATOM     98  S   UNL A   1      53.715  26.745  24.016  1.00  0.00     0.124 S 
ATOM     99  O   UNL A   1      54.079  28.142  23.801  1.00  0.00    -0.237 OA
ATOM    100  O   UNL A   1      54.419  26.066  25.099  1.00  0.00    -0.237 OA
ATOM    101  O   UNL A   1      53.526  25.954  22.804  1.00  0.00    -0.744 OA
ENDBRANCH  97  98
ENDBRANCH  65  90
ENDBRANCH  39  40
ENDBRANCH  32  34
ENDBRANCH  31  32
ENDBRANCH  30  31
ENDBRANCH  29  30
ENDBRANCH  28  29
ENDBRANCH  27  28
ENDBRANCH   1  27
TORSDOF 25
ENDMDL
