MODEL 1
REMARK VINA RESULT:      -6.9      0.000      0.000
REMARK SMILES C[C@@H](C(=O)OCCOCCOCCOCCOC(=O)c1ccc(-c2c3nc(c(-c4c(F)cc(S(=O)(=O)[O-])cc4F)c4ccc([nH]4)c(-c4c(F)cc(S(=O)(=O)[O-])cc4F)c4nc(c(-c5c(F)cc(S(=O)(=O)[O-])cc5F)c5ccc2[nH]5)C=C4)C=C3)cc1)c1ccc(C[C@H]2CCC[C@@H]2O)cc1F
REMARK SMILES IDX 10 1 9 2 8 3 7 4 6 5 5 6 3 7 4 8 2 9 1 10 86 11 87 12 98 13
REMARK SMILES IDX 88 14 97 15 99 16 89 17 90 18 91 19 92 20 95 21 93 22 94 23
REMARK SMILES IDX 96 24 11 26 12 27 13 28 14 29 15 30 16 31 17 32 18 33 19 34
REMARK SMILES IDX 20 35 21 36 85 37 22 38 84 39 23 40 24 41 25 42 78 43 26 44
REMARK SMILES IDX 83 45 77 46 79 47 27 48 82 49 76 50 75 51 28 53 62 54 41 55
REMARK SMILES IDX 61 56 42 57 45 58 60 59 80 60 43 61 44 62 59 64 81 65 46 66
REMARK SMILES IDX 29 67 30 68 39 69 31 70 32 71 38 72 40 73 33 74 34 75 35 76
REMARK SMILES IDX 36 77 37 78 63 79 64 80 73 81 65 82 66 83 72 84 74 85 67 86
REMARK SMILES IDX 68 87 69 88 70 89 71 90 47 91 48 92 57 93 49 94 50 95 56 96
REMARK SMILES IDX 58 97 51 98 52 99 53 100 54 101 55 102
REMARK H PARENT 96 25 79 52 45 63
REMARK Flexibility Score: inf
ROOT
ATOM      1  C   UNL A   1      32.521  36.036  30.856  1.00  0.00     0.188 C 
ENDROOT
BRANCH   1   2
ATOM      2  C   UNL A   1      32.992  36.085  29.389  1.00  0.00     0.188 C 
BRANCH   2   3
ATOM      3  O   UNL A   1      33.579  34.940  28.784  1.00  0.00    -0.376 OA
BRANCH   3   4
ATOM      4  C   UNL A   1      34.659  34.277  29.426  1.00  0.00     0.202 C 
BRANCH   4   5
ATOM      5  C   UNL A   1      34.414  33.183  30.487  1.00  0.00     0.261 C 
BRANCH   5   6
ATOM      6  O   UNL A   1      34.719  31.823  30.121  1.00  0.00    -0.463 OA
BRANCH   6   7
ATOM      7  C   UNL A   1      35.968  31.384  30.411  1.00  0.00     0.313 C 
ATOM      8  O   UNL A   1      36.357  31.146  31.553  1.00  0.00    -0.252 OA
BRANCH   7   9
ATOM      9  C   UNL A   1      36.889  31.206  29.187  1.00  0.00     0.129 C 
ATOM     10  C   UNL A   1      37.349  29.801  28.775  1.00  0.00     0.025 C 
BRANCH   9  11
ATOM     11  C   UNL A   1      38.016  32.235  29.235  1.00  0.00     0.002 A 
ATOM     12  C   UNL A   1      37.688  33.594  29.129  1.00  0.00     0.008 A 
ATOM     13  C   UNL A   1      39.354  31.915  29.496  1.00  0.00     0.127 A 
ATOM     14  C   UNL A   1      38.670  34.579  29.249  1.00  0.00     0.004 A 
ATOM     15  C   UNL A   1      40.332  32.892  29.648  1.00  0.00     0.043 A 
ATOM     16  F   UNL A   1      39.761  30.645  29.592  1.00  0.00    -0.207 F 
ATOM     17  C   UNL A   1      40.007  34.235  29.473  1.00  0.00    -0.045 A 
BRANCH  17  18
ATOM     18  C   UNL A   1      41.096  35.277  29.413  1.00  0.00     0.041 C 
BRANCH  18  19
ATOM     19  C   UNL A   1      41.918  35.237  28.112  1.00  0.00     0.022 C 
ATOM     20  C   UNL A   1      41.920  36.523  27.264  1.00  0.00     0.007 C 
ATOM     21  C   UNL A   1      43.403  34.910  28.304  1.00  0.00     0.117 C 
ATOM     22  C   UNL A   1      43.340  36.662  26.705  1.00  0.00     0.003 C 
ATOM     23  C   UNL A   1      44.018  35.330  26.979  1.00  0.00     0.032 C 
BRANCH  21  24
ATOM     24  O   UNL A   1      43.591  33.532  28.566  1.00  0.00    -0.393 OA
ATOM     25  H   UNL A   1      44.397  33.410  29.091  1.00  0.00     0.210 HD
ENDBRANCH  21  24
ENDBRANCH  18  19
ENDBRANCH  17  18
ENDBRANCH   9  11
ENDBRANCH   7   9
ENDBRANCH   6   7
ENDBRANCH   5   6
ENDBRANCH   4   5
ENDBRANCH   3   4
ENDBRANCH   2   3
ENDBRANCH   1   2
BRANCH   1  26
ATOM     26  O   UNL A   1      32.564  37.272  31.534  1.00  0.00    -0.377 OA
BRANCH  26  27
ATOM     27  C   UNL A   1      33.758  37.556  32.238  1.00  0.00     0.188 C 
BRANCH  27  28
ATOM     28  C   UNL A   1      34.059  36.725  33.501  1.00  0.00     0.188 C 
BRANCH  28  29
ATOM     29  O   UNL A   1      35.054  35.723  33.319  1.00  0.00    -0.376 OA
BRANCH  29  30
ATOM     30  C   UNL A   1      34.919  34.487  34.004  1.00  0.00     0.202 C 
BRANCH  30  31
ATOM     31  C   UNL A   1      35.888  34.208  35.165  1.00  0.00     0.261 C 
BRANCH  31  32
ATOM     32  O   UNL A   1      36.328  32.853  35.326  1.00  0.00    -0.460 OA
BRANCH  32  33
ATOM     33  C   UNL A   1      37.425  32.626  36.080  1.00  0.00     0.338 C 
ATOM     34  O   UNL A   1      37.453  32.349  37.267  1.00  0.00    -0.246 OA
BRANCH  33  35
ATOM     35  C   UNL A   1      38.587  32.559  35.168  1.00  0.00     0.060 A 
ATOM     36  C   UNL A   1      39.877  32.595  35.714  1.00  0.00     0.016 A 
ATOM     37  C   UNL A   1      38.408  32.419  33.790  1.00  0.00     0.016 A 
ATOM     38  C   UNL A   1      40.993  32.522  34.881  1.00  0.00     0.010 A 
ATOM     39  C   UNL A   1      39.526  32.377  32.952  1.00  0.00     0.010 A 
ATOM     40  C   UNL A   1      40.823  32.461  33.492  1.00  0.00    -0.014 A 
BRANCH  40  41
ATOM     41  C   UNL A   1      41.980  32.719  32.602  1.00  0.00     0.031 A 
ATOM     42  C   UNL A   1      42.550  31.555  31.838  1.00  0.00     0.074 A 
ATOM     43  C   UNL A   1      42.499  33.951  32.454  1.00  0.00     0.049 A 
ATOM     44  N   UNL A   1      43.583  31.509  31.038  1.00  0.00    -0.248 NA
ATOM     45  C   UNL A   1      41.859  30.264  32.002  1.00  0.00     0.031 C 
ATOM     46  C   UNL A   1      42.002  35.163  33.102  1.00  0.00     0.029 A 
ATOM     47  N   UNL A   1      43.571  34.381  31.712  1.00  0.00    -0.354 N 
ATOM     48  C   UNL A   1      43.674  30.188  30.615  1.00  0.00     0.074 A 
ATOM     49  C   UNL A   1      42.609  29.459  31.266  1.00  0.00     0.031 C 
ATOM     50  C   UNL A   1      42.776  36.200  32.736  1.00  0.00     0.029 A 
ATOM     51  C   UNL A   1      43.844  35.720  31.859  1.00  0.00     0.049 A 
ATOM     52  H   UNL A   1      44.095  33.786  31.128  1.00  0.00     0.167 HD
ATOM     53  C   UNL A   1      44.561  29.635  29.756  1.00  0.00     0.037 A 
ATOM     54  C   UNL A   1      44.854  36.463  31.360  1.00  0.00     0.037 A 
ATOM     55  C   UNL A   1      45.619  30.369  29.114  1.00  0.00     0.049 A 
ATOM     56  C   UNL A   1      45.878  35.808  30.466  1.00  0.00     0.074 A 
ATOM     57  C   UNL A   1      46.560  29.907  28.211  1.00  0.00     0.029 A 
ATOM     58  N   UNL A   1      45.884  31.716  29.316  1.00  0.00    -0.354 N 
ATOM     59  N   UNL A   1      45.940  34.563  30.052  1.00  0.00    -0.248 NA
ATOM     60  C   UNL A   1      46.970  36.657  29.968  1.00  0.00     0.031 C 
ATOM     61  C   UNL A   1      47.432  30.959  27.915  1.00  0.00     0.029 A 
ATOM     62  C   UNL A   1      46.994  32.094  28.578  1.00  0.00     0.049 A 
ATOM     63  H   UNL A   1      45.361  32.314  29.896  1.00  0.00     0.167 HD
ATOM     64  C   UNL A   1      47.053  34.490  29.220  1.00  0.00     0.074 A 
ATOM     65  C   UNL A   1      47.630  35.818  29.182  1.00  0.00     0.031 C 
ATOM     66  C   UNL A   1      47.551  33.425  28.543  1.00  0.00     0.037 A 
BRANCH  53  67
ATOM     67  C   UNL A   1      44.450  28.158  29.493  1.00  0.00     0.058 A 
ATOM     68  C   UNL A   1      45.146  27.210  30.260  1.00  0.00     0.135 A 
ATOM     69  C   UNL A   1      43.609  27.683  28.473  1.00  0.00     0.135 A 
ATOM     70  F   UNL A   1      45.982  27.609  31.232  1.00  0.00    -0.206 F 
ATOM     71  C   UNL A   1      45.033  25.846  30.010  1.00  0.00     0.059 A 
ATOM     72  C   UNL A   1      43.456  26.323  28.225  1.00  0.00     0.059 A 
ATOM     73  F   UNL A   1      42.925  28.546  27.705  1.00  0.00    -0.206 F 
ATOM     74  C   UNL A   1      44.182  25.412  28.990  1.00  0.00     0.060 A 
BRANCH  74  75
ATOM     75  S   UNL A   1      44.038  23.639  28.685  1.00  0.00     0.124 S 
ATOM     76  O   UNL A   1      45.274  23.367  27.960  1.00  0.00    -0.237 OA
ATOM     77  O   UNL A   1      43.964  23.097  30.038  1.00  0.00    -0.237 OA
ATOM     78  O   UNL A   1      42.813  23.527  27.900  1.00  0.00    -0.744 OA
ENDBRANCH  74  75
ENDBRANCH  53  67
BRANCH  54  79
ATOM     79  C   UNL A   1      44.959  37.908  31.701  1.00  0.00     0.058 A 
ATOM     80  C   UNL A   1      45.701  38.342  32.811  1.00  0.00     0.135 A 
ATOM     81  C   UNL A   1      44.310  38.887  30.931  1.00  0.00     0.135 A 
ATOM     82  F   UNL A   1      46.328  37.445  33.589  1.00  0.00    -0.206 F 
ATOM     83  C   UNL A   1      45.785  39.688  33.154  1.00  0.00     0.059 A 
ATOM     84  C   UNL A   1      44.403  40.241  31.236  1.00  0.00     0.059 A 
ATOM     85  F   UNL A   1      43.590  38.530  29.856  1.00  0.00    -0.206 F 
ATOM     86  C   UNL A   1      45.135  40.631  32.356  1.00  0.00     0.060 A 
BRANCH  86  87
ATOM     87  S   UNL A   1      45.292  42.380  32.783  1.00  0.00     0.124 S 
ATOM     88  O   UNL A   1      46.131  42.318  33.974  1.00  0.00    -0.237 OA
ATOM     89  O   UNL A   1      45.922  42.929  31.586  1.00  0.00    -0.237 OA
ATOM     90  O   UNL A   1      43.911  42.797  33.003  1.00  0.00    -0.744 OA
ENDBRANCH  86  87
ENDBRANCH  54  79
BRANCH  66  91
ATOM     91  C   UNL A   1      48.754  33.651  27.665  1.00  0.00     0.058 A 
ATOM     92  C   UNL A   1      50.060  33.399  28.113  1.00  0.00     0.135 A 
ATOM     93  C   UNL A   1      48.589  34.066  26.334  1.00  0.00     0.135 A 
ATOM     94  F   UNL A   1      50.277  33.004  29.378  1.00  0.00    -0.206 F 
ATOM     95  C   UNL A   1      51.160  33.576  27.280  1.00  0.00     0.059 A 
ATOM     96  C   UNL A   1      49.671  34.218  25.473  1.00  0.00     0.059 A 
ATOM     97  F   UNL A   1      47.360  34.309  25.847  1.00  0.00    -0.206 F 
ATOM     98  C   UNL A   1      50.956  33.983  25.960  1.00  0.00     0.060 A 
BRANCH  98  99
ATOM     99  S   UNL A   1      52.390  34.174  24.880  1.00  0.00     0.124 S 
ATOM    100  O   UNL A   1      53.473  33.721  25.746  1.00  0.00    -0.237 OA
ATOM    101  O   UNL A   1      52.060  33.294  23.765  1.00  0.00    -0.237 OA
ATOM    102  O   UNL A   1      52.393  35.600  24.566  1.00  0.00    -0.744 OA
ENDBRANCH  98  99
ENDBRANCH  66  91
ENDBRANCH  40  41
ENDBRANCH  33  35
ENDBRANCH  32  33
ENDBRANCH  31  32
ENDBRANCH  30  31
ENDBRANCH  29  30
ENDBRANCH  28  29
ENDBRANCH  27  28
ENDBRANCH  26  27
ENDBRANCH   1  26
TORSDOF 27
ENDMDL
MODEL 2
REMARK VINA RESULT:      -6.0      6.374      8.974
REMARK SMILES C[C@@H](C(=O)OCCOCCOCCOCCOC(=O)c1ccc(-c2c3nc(c(-c4c(F)cc(S(=O)(=O)[O-])cc4F)c4ccc([nH]4)c(-c4c(F)cc(S(=O)(=O)[O-])cc4F)c4nc(c(-c5c(F)cc(S(=O)(=O)[O-])cc5F)c5ccc2[nH]5)C=C4)C=C3)cc1)c1ccc(C[C@H]2CCC[C@@H]2O)cc1F
REMARK SMILES IDX 10 1 9 2 8 3 7 4 6 5 5 6 3 7 4 8 2 9 1 10 86 11 87 12 98 13
REMARK SMILES IDX 88 14 97 15 99 16 89 17 90 18 91 19 92 20 95 21 93 22 94 23
REMARK SMILES IDX 96 24 11 26 12 27 13 28 14 29 15 30 16 31 17 32 18 33 19 34
REMARK SMILES IDX 20 35 21 36 85 37 22 38 84 39 23 40 24 41 25 42 78 43 26 44
REMARK SMILES IDX 83 45 77 46 79 47 27 48 82 49 76 50 75 51 28 53 62 54 41 55
REMARK SMILES IDX 61 56 42 57 45 58 60 59 80 60 43 61 44 62 59 64 81 65 46 66
REMARK SMILES IDX 29 67 30 68 39 69 31 70 32 71 38 72 40 73 33 74 34 75 35 76
REMARK SMILES IDX 36 77 37 78 63 79 64 80 73 81 65 82 66 83 72 84 74 85 67 86
REMARK SMILES IDX 68 87 69 88 70 89 71 90 47 91 48 92 57 93 49 94 50 95 56 96
REMARK SMILES IDX 58 97 51 98 52 99 53 100 54 101 55 102
REMARK H PARENT 96 25 79 52 45 63
REMARK Flexibility Score: inf
ROOT
ATOM      1  C   UNL A   1      34.245  37.085  32.676  1.00  0.00     0.188 C 
ENDROOT
BRANCH   1   2
ATOM      2  C   UNL A   1      32.936  37.126  31.862  1.00  0.00     0.188 C 
BRANCH   2   3
ATOM      3  O   UNL A   1      32.944  37.568  30.511  1.00  0.00    -0.376 OA
BRANCH   3   4
ATOM      4  C   UNL A   1      33.176  36.637  29.464  1.00  0.00     0.202 C 
BRANCH   4   5
ATOM      5  C   UNL A   1      33.289  35.124  29.746  1.00  0.00     0.261 C 
BRANCH   5   6
ATOM      6  O   UNL A   1      34.319  34.393  29.050  1.00  0.00    -0.463 OA
BRANCH   6   7
ATOM      7  C   UNL A   1      34.414  33.070  29.326  1.00  0.00     0.313 C 
ATOM      8  O   UNL A   1      34.322  32.604  30.460  1.00  0.00    -0.252 OA
BRANCH   7   9
ATOM      9  C   UNL A   1      34.656  32.170  28.096  1.00  0.00     0.129 C 
ATOM     10  C   UNL A   1      33.495  31.363  27.501  1.00  0.00     0.025 C 
BRANCH   9  11
ATOM     11  C   UNL A   1      35.934  31.360  28.294  1.00  0.00     0.002 A 
ATOM     12  C   UNL A   1      35.969  30.039  27.827  1.00  0.00     0.008 A 
ATOM     13  C   UNL A   1      37.123  31.890  28.810  1.00  0.00     0.127 A 
ATOM     14  C   UNL A   1      37.138  29.280  27.908  1.00  0.00     0.004 A 
ATOM     15  C   UNL A   1      38.299  31.152  28.866  1.00  0.00     0.043 A 
ATOM     16  F   UNL A   1      37.176  33.134  29.297  1.00  0.00    -0.207 F 
ATOM     17  C   UNL A   1      38.305  29.819  28.463  1.00  0.00    -0.045 A 
BRANCH  17  18
ATOM     18  C   UNL A   1      39.509  28.951  28.727  1.00  0.00     0.041 C 
BRANCH  18  19
ATOM     19  C   UNL A   1      39.941  28.108  27.513  1.00  0.00     0.022 C 
ATOM     20  C   UNL A   1      41.016  28.728  26.599  1.00  0.00     0.007 C 
ATOM     21  C   UNL A   1      40.496  26.724  27.861  1.00  0.00     0.117 C 
ATOM     22  C   UNL A   1      41.925  27.573  26.168  1.00  0.00     0.003 C 
ATOM     23  C   UNL A   1      41.195  26.304  26.578  1.00  0.00     0.032 C 
BRANCH  21  24
ATOM     24  O   UNL A   1      39.455  25.833  28.217  1.00  0.00    -0.393 OA
ATOM     25  H   UNL A   1      39.834  25.041  28.628  1.00  0.00     0.210 HD
ENDBRANCH  21  24
ENDBRANCH  18  19
ENDBRANCH  17  18
ENDBRANCH   9  11
ENDBRANCH   7   9
ENDBRANCH   6   7
ENDBRANCH   5   6
ENDBRANCH   4   5
ENDBRANCH   3   4
ENDBRANCH   2   3
ENDBRANCH   1   2
BRANCH   1  26
ATOM     26  O   UNL A   1      34.205  36.263  33.821  1.00  0.00    -0.377 OA
BRANCH  26  27
ATOM     27  C   UNL A   1      34.419  34.881  33.606  1.00  0.00     0.188 C 
BRANCH  27  28
ATOM     28  C   UNL A   1      35.850  34.342  33.788  1.00  0.00     0.188 C 
BRANCH  28  29
ATOM     29  O   UNL A   1      36.039  33.572  34.971  1.00  0.00    -0.376 OA
BRANCH  29  30
ATOM     30  C   UNL A   1      37.200  33.794  35.758  1.00  0.00     0.202 C 
BRANCH  30  31
ATOM     31  C   UNL A   1      38.566  33.542  35.097  1.00  0.00     0.261 C 
BRANCH  31  32
ATOM     32  O   UNL A   1      39.239  32.327  35.455  1.00  0.00    -0.460 OA
BRANCH  32  33
ATOM     33  C   UNL A   1      39.071  31.249  34.659  1.00  0.00     0.338 C 
ATOM     34  O   UNL A   1      38.059  30.939  34.051  1.00  0.00    -0.246 OA
BRANCH  33  35
ATOM     35  C   UNL A   1      40.395  30.618  34.476  1.00  0.00     0.060 A 
ATOM     36  C   UNL A   1      40.487  29.220  34.511  1.00  0.00     0.016 A 
ATOM     37  C   UNL A   1      41.530  31.394  34.229  1.00  0.00     0.016 A 
ATOM     38  C   UNL A   1      41.720  28.594  34.330  1.00  0.00     0.010 A 
ATOM     39  C   UNL A   1      42.770  30.768  34.079  1.00  0.00     0.010 A 
ATOM     40  C   UNL A   1      42.876  29.368  34.162  1.00  0.00    -0.014 A 
BRANCH  40  41
ATOM     41  C   UNL A   1      44.207  28.732  34.304  1.00  0.00     0.031 A 
ATOM     42  C   UNL A   1      44.835  28.135  33.074  1.00  0.00     0.074 A 
ATOM     43  C   UNL A   1      44.856  28.704  35.482  1.00  0.00     0.049 A 
ATOM     44  N   UNL A   1      45.961  27.485  32.946  1.00  0.00    -0.248 NA
ATOM     45  C   UNL A   1      44.084  28.292  31.816  1.00  0.00     0.031 C 
ATOM     46  C   UNL A   1      44.373  29.292  36.731  1.00  0.00     0.029 A 
ATOM     47  N   UNL A   1      46.065  28.146  35.819  1.00  0.00    -0.354 N 
ATOM     48  C   UNL A   1      46.049  27.145  31.601  1.00  0.00     0.074 A 
ATOM     49  C   UNL A   1      44.851  27.637  30.959  1.00  0.00     0.031 C 
ATOM     50  C   UNL A   1      45.273  29.052  37.701  1.00  0.00     0.029 A 
ATOM     51  C   UNL A   1      46.376  28.265  37.152  1.00  0.00     0.049 A 
ATOM     52  H   UNL A   1      46.653  27.702  35.166  1.00  0.00     0.167 HD
ATOM     53  C   UNL A   1      47.043  26.489  30.958  1.00  0.00     0.037 A 
ATOM     54  C   UNL A   1      47.422  27.773  37.849  1.00  0.00     0.037 A 
ATOM     55  C   UNL A   1      48.232  26.002  31.607  1.00  0.00     0.049 A 
ATOM     56  C   UNL A   1      48.480  26.977  37.125  1.00  0.00     0.074 A 
ATOM     57  C   UNL A   1      49.309  25.341  31.042  1.00  0.00     0.029 A 
ATOM     58  N   UNL A   1      48.495  26.112  32.964  1.00  0.00    -0.354 N 
ATOM     59  N   UNL A   1      48.567  26.682  35.849  1.00  0.00    -0.248 NA
ATOM     60  C   UNL A   1      49.586  26.444  37.936  1.00  0.00     0.031 C 
ATOM     61  C   UNL A   1      50.193  24.996  32.069  1.00  0.00     0.029 A 
ATOM     62  C   UNL A   1      49.703  25.502  33.262  1.00  0.00     0.049 A 
ATOM     63  H   UNL A   1      47.911  26.556  33.619  1.00  0.00     0.167 HD
ATOM     64  C   UNL A   1      49.749  25.964  35.699  1.00  0.00     0.074 A 
ATOM     65  C   UNL A   1      50.349  25.875  37.014  1.00  0.00     0.031 C 
ATOM     66  C   UNL A   1      50.293  25.430  34.576  1.00  0.00     0.037 A 
BRANCH  53  67
ATOM     67  C   UNL A   1      46.867  26.224  29.488  1.00  0.00     0.058 A 
ATOM     68  C   UNL A   1      47.538  26.976  28.510  1.00  0.00     0.135 A 
ATOM     69  C   UNL A   1      46.035  25.180  29.052  1.00  0.00     0.135 A 
ATOM     70  F   UNL A   1      48.327  28.002  28.868  1.00  0.00    -0.206 F 
ATOM     71  C   UNL A   1      47.369  26.720  27.153  1.00  0.00     0.059 A 
ATOM     72  C   UNL A   1      45.876  24.885  27.703  1.00  0.00     0.059 A 
ATOM     73  F   UNL A   1      45.365  24.433  29.945  1.00  0.00    -0.206 F 
ATOM     74  C   UNL A   1      46.538  25.669  26.759  1.00  0.00     0.060 A 
BRANCH  74  75
ATOM     75  S   UNL A   1      46.339  25.342  24.995  1.00  0.00     0.124 S 
ATOM     76  O   UNL A   1      44.903  25.099  24.904  1.00  0.00    -0.237 OA
ATOM     77  O   UNL A   1      46.810  26.586  24.394  1.00  0.00    -0.237 OA
ATOM     78  O   UNL A   1      47.188  24.177  24.767  1.00  0.00    -0.744 OA
ENDBRANCH  74  75
ENDBRANCH  53  67
BRANCH  54  79
ATOM     79  C   UNL A   1      47.520  28.006  39.316  1.00  0.00     0.058 A 
ATOM     80  C   UNL A   1      48.193  29.124  39.832  1.00  0.00     0.135 A 
ATOM     81  C   UNL A   1      46.952  27.109  40.236  1.00  0.00     0.135 A 
ATOM     82  F   UNL A   1      48.767  30.004  38.996  1.00  0.00    -0.206 F 
ATOM     83  C   UNL A   1      48.314  29.338  41.201  1.00  0.00     0.059 A 
ATOM     84  C   UNL A   1      47.034  27.316  41.609  1.00  0.00     0.059 A 
ATOM     85  F   UNL A   1      46.293  26.025  39.799  1.00  0.00    -0.206 F 
ATOM     86  C   UNL A   1      47.726  28.429  42.082  1.00  0.00     0.060 A 
BRANCH  86  87
ATOM     87  S   UNL A   1      47.846  28.744  43.858  1.00  0.00     0.124 S 
ATOM     88  O   UNL A   1      46.468  29.089  44.189  1.00  0.00    -0.237 OA
ATOM     89  O   UNL A   1      48.322  27.460  44.363  1.00  0.00    -0.237 OA
ATOM     90  O   UNL A   1      48.809  29.838  43.940  1.00  0.00    -0.744 OA
ENDBRANCH  86  87
ENDBRANCH  54  79
BRANCH  66  91
ATOM     91  C   UNL A   1      51.626  24.741  34.702  1.00  0.00     0.058 A 
ATOM     92  C   UNL A   1      52.831  25.384  34.376  1.00  0.00     0.135 A 
ATOM     93  C   UNL A   1      51.701  23.437  35.220  1.00  0.00     0.135 A 
ATOM     94  F   UNL A   1      52.818  26.629  33.873  1.00  0.00    -0.206 F 
ATOM     95  C   UNL A   1      54.059  24.748  34.533  1.00  0.00     0.059 A 
ATOM     96  C   UNL A   1      52.919  22.795  35.416  1.00  0.00     0.059 A 
ATOM     97  F   UNL A   1      50.581  22.779  35.562  1.00  0.00    -0.206 F 
ATOM     98  C   UNL A   1      54.094  23.455  35.057  1.00  0.00     0.060 A 
BRANCH  98  99
ATOM     99  S   UNL A   1      55.697  22.656  35.288  1.00  0.00     0.124 S 
ATOM    100  O   UNL A   1      56.095  23.169  36.594  1.00  0.00    -0.237 OA
ATOM    101  O   UNL A   1      55.348  21.240  35.242  1.00  0.00    -0.237 OA
ATOM    102  O   UNL A   1      56.484  23.139  34.157  1.00  0.00    -0.744 OA
ENDBRANCH  98  99
ENDBRANCH  66  91
ENDBRANCH  40  41
ENDBRANCH  33  35
ENDBRANCH  32  33
ENDBRANCH  31  32
ENDBRANCH  30  31
ENDBRANCH  29  30
ENDBRANCH  28  29
ENDBRANCH  27  28
ENDBRANCH  26  27
ENDBRANCH   1  26
TORSDOF 27
ENDMDL
MODEL 3
REMARK VINA RESULT:      -5.9      5.980     14.153
REMARK SMILES C[C@@H](C(=O)OCCOCCOCCOCCOC(=O)c1ccc(-c2c3nc(c(-c4c(F)cc(S(=O)(=O)[O-])cc4F)c4ccc([nH]4)c(-c4c(F)cc(S(=O)(=O)[O-])cc4F)c4nc(c(-c5c(F)cc(S(=O)(=O)[O-])cc5F)c5ccc2[nH]5)C=C4)C=C3)cc1)c1ccc(C[C@H]2CCC[C@@H]2O)cc1F
REMARK SMILES IDX 10 1 9 2 8 3 7 4 6 5 5 6 3 7 4 8 2 9 1 10 86 11 87 12 98 13
REMARK SMILES IDX 88 14 97 15 99 16 89 17 90 18 91 19 92 20 95 21 93 22 94 23
REMARK SMILES IDX 96 24 11 26 12 27 13 28 14 29 15 30 16 31 17 32 18 33 19 34
REMARK SMILES IDX 20 35 21 36 85 37 22 38 84 39 23 40 24 41 25 42 78 43 26 44
REMARK SMILES IDX 83 45 77 46 79 47 27 48 82 49 76 50 75 51 28 53 62 54 41 55
REMARK SMILES IDX 61 56 42 57 45 58 60 59 80 60 43 61 44 62 59 64 81 65 46 66
REMARK SMILES IDX 29 67 30 68 39 69 31 70 32 71 38 72 40 73 33 74 34 75 35 76
REMARK SMILES IDX 36 77 37 78 63 79 64 80 73 81 65 82 66 83 72 84 74 85 67 86
REMARK SMILES IDX 68 87 69 88 70 89 71 90 47 91 48 92 57 93 49 94 50 95 56 96
REMARK SMILES IDX 58 97 51 98 52 99 53 100 54 101 55 102
REMARK H PARENT 96 25 79 52 45 63
REMARK Flexibility Score: inf
ROOT
ATOM      1  C   UNL A   1      49.658  20.551  36.725  1.00  0.00     0.188 C 
ENDROOT
BRANCH   1   2
ATOM      2  C   UNL A   1      48.513  19.803  37.436  1.00  0.00     0.188 C 
BRANCH   2   3
ATOM      3  O   UNL A   1      47.243  20.421  37.599  1.00  0.00    -0.376 OA
BRANCH   3   4
ATOM      4  C   UNL A   1      46.210  20.171  36.658  1.00  0.00     0.202 C 
BRANCH   4   5
ATOM      5  C   UNL A   1      46.146  20.928  35.315  1.00  0.00     0.261 C 
BRANCH   5   6
ATOM      6  O   UNL A   1      46.250  22.366  35.356  1.00  0.00    -0.463 OA
BRANCH   6   7
ATOM      7  C   UNL A   1      45.281  23.061  34.714  1.00  0.00     0.313 C 
ATOM      8  O   UNL A   1      45.353  23.394  33.532  1.00  0.00    -0.252 OA
BRANCH   7   9
ATOM      9  C   UNL A   1      44.058  23.418  35.584  1.00  0.00     0.129 C 
ATOM     10  C   UNL A   1      42.664  23.493  34.948  1.00  0.00     0.025 C 
BRANCH   9  11
ATOM     11  C   UNL A   1      44.393  24.608  36.480  1.00  0.00     0.002 A 
ATOM     12  C   UNL A   1      44.766  24.364  37.808  1.00  0.00     0.008 A 
ATOM     13  C   UNL A   1      44.465  25.931  36.025  1.00  0.00     0.127 A 
ATOM     14  C   UNL A   1      45.160  25.408  38.647  1.00  0.00     0.004 A 
ATOM     15  C   UNL A   1      44.887  26.972  36.845  1.00  0.00     0.043 A 
ATOM     16  F   UNL A   1      44.109  26.260  34.780  1.00  0.00    -0.207 F 
ATOM     17  C   UNL A   1      45.189  26.728  38.182  1.00  0.00    -0.045 A 
BRANCH  17  18
ATOM     18  C   UNL A   1      45.428  27.877  39.128  1.00  0.00     0.041 C 
BRANCH  18  19
ATOM     19  C   UNL A   1      46.916  28.239  39.295  1.00  0.00     0.022 C 
ATOM     20  C   UNL A   1      47.915  27.439  38.437  1.00  0.00     0.007 C 
ATOM     21  C   UNL A   1      47.254  29.704  38.999  1.00  0.00     0.117 C 
ATOM     22  C   UNL A   1      48.992  28.436  37.998  1.00  0.00     0.003 C 
ATOM     23  C   UNL A   1      48.765  29.679  38.843  1.00  0.00     0.032 C 
BRANCH  21  24
ATOM     24  O   UNL A   1      46.841  30.545  40.059  1.00  0.00    -0.393 OA
ATOM     25  H   UNL A   1      47.171  31.445  39.905  1.00  0.00     0.210 HD
ENDBRANCH  21  24
ENDBRANCH  18  19
ENDBRANCH  17  18
ENDBRANCH   9  11
ENDBRANCH   7   9
ENDBRANCH   6   7
ENDBRANCH   5   6
ENDBRANCH   4   5
ENDBRANCH   3   4
ENDBRANCH   2   3
ENDBRANCH   1   2
BRANCH   1  26
ATOM     26  O   UNL A   1      49.611  20.506  35.316  1.00  0.00    -0.377 OA
BRANCH  26  27
ATOM     27  C   UNL A   1      50.853  20.617  34.647  1.00  0.00     0.188 C 
BRANCH  27  28
ATOM     28  C   UNL A   1      51.910  21.561  35.252  1.00  0.00     0.188 C 
BRANCH  28  29
ATOM     29  O   UNL A   1      52.097  22.771  34.525  1.00  0.00    -0.376 OA
BRANCH  29  30
ATOM     30  C   UNL A   1      53.000  23.744  35.031  1.00  0.00     0.202 C 
BRANCH  30  31
ATOM     31  C   UNL A   1      52.958  25.148  34.404  1.00  0.00     0.261 C 
BRANCH  31  32
ATOM     32  O   UNL A   1      52.686  26.241  35.291  1.00  0.00    -0.460 OA
BRANCH  32  33
ATOM     33  C   UNL A   1      51.638  26.129  36.135  1.00  0.00     0.338 C 
ATOM     34  O   UNL A   1      51.685  26.003  37.348  1.00  0.00    -0.246 OA
BRANCH  33  35
ATOM     35  C   UNL A   1      50.409  26.403  35.360  1.00  0.00     0.060 A 
ATOM     36  C   UNL A   1      50.410  27.466  34.446  1.00  0.00     0.016 A 
ATOM     37  C   UNL A   1      49.280  25.594  35.500  1.00  0.00     0.016 A 
ATOM     38  C   UNL A   1      49.271  27.742  33.692  1.00  0.00     0.010 A 
ATOM     39  C   UNL A   1      48.128  25.890  34.766  1.00  0.00     0.010 A 
ATOM     40  C   UNL A   1      48.108  26.985  33.883  1.00  0.00    -0.014 A 
BRANCH  40  41
ATOM     41  C   UNL A   1      46.818  27.476  33.341  1.00  0.00     0.031 A 
ATOM     42  C   UNL A   1      46.162  28.639  34.036  1.00  0.00     0.074 A 
ATOM     43  C   UNL A   1      46.254  26.928  32.251  1.00  0.00     0.049 A 
ATOM     44  N   UNL A   1      45.018  29.218  33.789  1.00  0.00    -0.248 NA
ATOM     45  C   UNL A   1      46.901  29.224  35.168  1.00  0.00     0.031 C 
ATOM     46  C   UNL A   1      46.818  25.832  31.464  1.00  0.00     0.029 A 
ATOM     47  N   UNL A   1      45.068  27.217  31.622  1.00  0.00    -0.354 N 
ATOM     48  C   UNL A   1      44.892  30.226  34.738  1.00  0.00     0.074 A 
ATOM     49  C   UNL A   1      46.063  30.162  35.583  1.00  0.00     0.031 C 
ATOM     50  C   UNL A   1      45.971  25.535  30.463  1.00  0.00     0.029 A 
ATOM     51  C   UNL A   1      44.790  26.392  30.559  1.00  0.00     0.049 A 
ATOM     52  H   UNL A   1      44.473  27.948  31.906  1.00  0.00     0.167 HD
ATOM     53  C   UNL A   1      43.894  31.127  34.888  1.00  0.00     0.037 A 
ATOM     54  C   UNL A   1      43.697  26.325  29.771  1.00  0.00     0.037 A 
ATOM     55  C   UNL A   1      42.731  31.181  34.042  1.00  0.00     0.049 A 
ATOM     56  C   UNL A   1      42.560  27.290  30.005  1.00  0.00     0.074 A 
ATOM     57  C   UNL A   1      41.670  32.068  34.097  1.00  0.00     0.029 A 
ATOM     58  N   UNL A   1      42.469  30.307  32.997  1.00  0.00    -0.354 N 
ATOM     59  N   UNL A   1      42.463  28.255  30.890  1.00  0.00    -0.248 NA
ATOM     60  C   UNL A   1      41.383  27.159  29.133  1.00  0.00     0.031 C 
ATOM     61  C   UNL A   1      40.737  31.691  33.126  1.00  0.00     0.029 A 
ATOM     62  C   UNL A   1      41.248  30.613  32.420  1.00  0.00     0.049 A 
ATOM     63  H   UNL A   1      43.063  29.577  32.709  1.00  0.00     0.167 HD
ATOM     64  C   UNL A   1      41.234  28.866  30.658  1.00  0.00     0.074 A 
ATOM     65  C   UNL A   1      40.627  28.167  29.544  1.00  0.00     0.031 C 
ATOM     66  C   UNL A   1      40.660  29.914  31.303  1.00  0.00     0.037 A 
BRANCH  53  67
ATOM     67  C   UNL A   1      43.997  32.099  36.031  1.00  0.00     0.058 A 
ATOM     68  C   UNL A   1      43.590  31.765  37.333  1.00  0.00     0.135 A 
ATOM     69  C   UNL A   1      44.539  33.379  35.824  1.00  0.00     0.135 A 
ATOM     70  F   UNL A   1      43.043  30.564  37.583  1.00  0.00    -0.206 F 
ATOM     71  C   UNL A   1      43.693  32.671  38.383  1.00  0.00     0.059 A 
ATOM     72  C   UNL A   1      44.680  34.290  36.864  1.00  0.00     0.059 A 
ATOM     73  F   UNL A   1      44.937  33.753  34.598  1.00  0.00    -0.206 F 
ATOM     74  C   UNL A   1      44.243  33.932  38.139  1.00  0.00     0.060 A 
BRANCH  74  75
ATOM     75  S   UNL A   1      44.380  35.093  39.514  1.00  0.00     0.124 S 
ATOM     76  O   UNL A   1      45.660  35.733  39.229  1.00  0.00    -0.237 OA
ATOM     77  O   UNL A   1      43.199  35.931  39.331  1.00  0.00    -0.237 OA
ATOM     78  O   UNL A   1      44.358  34.231  40.691  1.00  0.00    -0.744 OA
ENDBRANCH  74  75
ENDBRANCH  53  67
BRANCH  54  79
ATOM     79  C   UNL A   1      43.613  25.302  28.692  1.00  0.00     0.058 A 
ATOM     80  C   UNL A   1      43.947  25.615  27.365  1.00  0.00     0.135 A 
ATOM     81  C   UNL A   1      43.184  23.992  28.962  1.00  0.00     0.135 A 
ATOM     82  F   UNL A   1      44.347  26.857  27.051  1.00  0.00    -0.206 F 
ATOM     83  C   UNL A   1      43.846  24.675  26.345  1.00  0.00     0.059 A 
ATOM     84  C   UNL A   1      43.103  23.026  27.965  1.00  0.00     0.059 A 
ATOM     85  F   UNL A   1      42.856  23.637  30.214  1.00  0.00    -0.206 F 
ATOM     86  C   UNL A   1      43.427  23.380  26.657  1.00  0.00     0.060 A 
BRANCH  86  87
ATOM     87  S   UNL A   1      43.349  22.154  25.332  1.00  0.00     0.124 S 
ATOM     88  O   UNL A   1      42.122  21.438  25.665  1.00  0.00    -0.237 OA
ATOM     89  O   UNL A   1      43.293  22.996  24.141  1.00  0.00    -0.237 OA
ATOM     90  O   UNL A   1      44.587  21.399  25.500  1.00  0.00    -0.744 OA
ENDBRANCH  86  87
ENDBRANCH  54  79
BRANCH  66  91
ATOM     91  C   UNL A   1      39.329  30.404  30.798  1.00  0.00     0.058 A 
ATOM     92  C   UNL A   1      38.122  29.787  31.161  1.00  0.00     0.135 A 
ATOM     93  C   UNL A   1      39.259  31.551  29.989  1.00  0.00     0.135 A 
ATOM     94  F   UNL A   1      38.130  28.686  31.929  1.00  0.00    -0.206 F 
ATOM     95  C   UNL A   1      36.896  30.273  30.718  1.00  0.00     0.059 A 
ATOM     96  C   UNL A   1      38.043  32.073  29.562  1.00  0.00     0.059 A 
ATOM     97  F   UNL A   1      40.383  32.190  29.622  1.00  0.00    -0.206 F 
ATOM     98  C   UNL A   1      36.866  31.419  29.921  1.00  0.00     0.060 A 
BRANCH  98  99
ATOM     99  S   UNL A   1      35.265  32.059  29.383  1.00  0.00     0.124 S 
ATOM    100  O   UNL A   1      34.773  30.961  28.558  1.00  0.00    -0.237 OA
ATOM    101  O   UNL A   1      34.569  32.261  30.649  1.00  0.00    -0.237 OA
ATOM    102  O   UNL A   1      35.611  33.280  28.662  1.00  0.00    -0.744 OA
ENDBRANCH  98  99
ENDBRANCH  66  91
ENDBRANCH  40  41
ENDBRANCH  33  35
ENDBRANCH  32  33
ENDBRANCH  31  32
ENDBRANCH  30  31
ENDBRANCH  29  30
ENDBRANCH  28  29
ENDBRANCH  27  28
ENDBRANCH  26  27
ENDBRANCH   1  26
TORSDOF 27
ENDMDL
