MODEL 1
REMARK VINA RESULT:      -8.6      0.000      0.000
REMARK SMILES Cc1c(Cl)ccc2c(OCC(=O)OCCOCCOCCOCCOC(=O)c3ccc(-c4c5nc(c(-c6c(F)cc(S(=O)(=O)[O-])cc6F)c6ccc([nH]6)c(-c6c(F)cc(S(=O)(=O)[O-])cc6F)c6nc(c(-c7c(F)cc(S(=O)(=O)[O-])cc7F)c7ccc4[nH]7)C=C6)C=C5)cc3)ccnc12
REMARK SMILES IDX 20 1 19 2 18 3 17 4 16 5 15 6 14 7 13 8 11 9 12 10 10 11
REMARK SMILES IDX 9 12 8 13 1 14 2 15 3 16 97 17 4 18 5 19 7 20 96 21 6 22
REMARK SMILES IDX 95 23 94 24 21 25 22 26 23 27 24 28 25 29 26 30 27 31 28 32
REMARK SMILES IDX 29 33 93 34 30 35 92 36 31 37 32 38 33 39 86 40 34 41 91 42
REMARK SMILES IDX 85 43 87 44 35 45 90 46 84 47 83 48 36 50 70 51 49 52 69 53
REMARK SMILES IDX 50 54 53 55 68 56 88 57 51 58 52 59 67 61 89 62 54 63 37 64
REMARK SMILES IDX 38 65 47 66 39 67 40 68 46 69 48 70 41 71 42 72 43 73 44 74
REMARK SMILES IDX 45 75 71 76 72 77 81 78 73 79 74 80 80 81 82 82 75 83 76 84
REMARK SMILES IDX 77 85 78 86 79 87 55 88 56 89 65 90 57 91 58 92 64 93 66 94
REMARK SMILES IDX 59 95 60 96 61 97 62 98 63 99
REMARK H PARENT 87 49 53 60
REMARK Flexibility Score: inf
ROOT
ATOM      1  C   UNL A   1      32.844  35.571  28.777  1.00  0.00     0.188 C 
ENDROOT
BRANCH   1   2
ATOM      2  O   UNL A   1      32.929  36.730  29.581  1.00  0.00    -0.377 OA
BRANCH   2   3
ATOM      3  C   UNL A   1      32.854  36.495  30.973  1.00  0.00     0.188 C 
BRANCH   3   4
ATOM      4  C   UNL A   1      33.491  37.606  31.842  1.00  0.00     0.188 C 
BRANCH   4   5
ATOM      5  O   UNL A   1      34.339  37.303  32.945  1.00  0.00    -0.376 OA
BRANCH   5   6
ATOM      6  C   UNL A   1      34.169  36.076  33.630  1.00  0.00     0.202 C 
BRANCH   6   7
ATOM      7  C   UNL A   1      34.867  34.816  33.075  1.00  0.00     0.261 C 
BRANCH   7   8
ATOM      8  O   UNL A   1      36.075  35.012  32.302  1.00  0.00    -0.461 OA
BRANCH   8   9
ATOM      9  C   UNL A   1      37.021  34.042  32.372  1.00  0.00     0.344 C 
ATOM     10  O   UNL A   1      38.211  34.220  32.123  1.00  0.00    -0.248 OA
BRANCH   9  11
ATOM     11  C   UNL A   1      36.473  32.641  32.768  1.00  0.00     0.352 C 
BRANCH  11  12
ATOM     12  O   UNL A   1      36.611  32.021  34.039  1.00  0.00    -0.481 OA
BRANCH  12  13
ATOM     13  C   UNL A   1      37.820  31.561  34.517  1.00  0.00     0.131 A 
ATOM     14  C   UNL A   1      41.719  32.582  37.402  1.00  0.00     0.048 C 
ATOM     15  C   UNL A   1      40.231  32.680  37.147  1.00  0.00    -0.006 A 
ATOM     16  C   UNL A   1      39.415  33.526  37.915  1.00  0.00     0.046 A 
ATOM     17  C   UNL A   1      39.679  31.977  36.055  1.00  0.00     0.078 A 
ATOM     18  Cl  UNL A   1      40.006  34.394  39.291  1.00  0.00    -0.084 Cl
ATOM     19  C   UNL A   1      38.073  33.696  37.593  1.00  0.00     0.022 A 
ATOM     20  C   UNL A   1      38.329  32.205  35.680  1.00  0.00     0.043 A 
ATOM     21  N   UNL A   1      40.443  31.108  35.367  1.00  0.00    -0.256 NA
ATOM     22  C   UNL A   1      37.543  33.067  36.470  1.00  0.00     0.016 A 
ATOM     23  C   UNL A   1      39.895  30.427  34.339  1.00  0.00     0.115 A 
ATOM     24  C   UNL A   1      38.603  30.608  33.884  1.00  0.00     0.067 A 
ENDBRANCH  12  13
ENDBRANCH  11  12
ENDBRANCH   9  11
ENDBRANCH   8   9
ENDBRANCH   7   8
ENDBRANCH   6   7
ENDBRANCH   5   6
ENDBRANCH   4   5
ENDBRANCH   3   4
ENDBRANCH   2   3
ENDBRANCH   1   2
BRANCH   1  25
ATOM     25  C   UNL A   1      34.156  34.791  28.589  1.00  0.00     0.188 C 
BRANCH  25  26
ATOM     26  O   UNL A   1      34.426  33.873  29.644  1.00  0.00    -0.376 OA
BRANCH  26  27
ATOM     27  C   UNL A   1      34.621  32.507  29.312  1.00  0.00     0.202 C 
BRANCH  27  28
ATOM     28  C   UNL A   1      33.764  31.960  28.164  1.00  0.00     0.261 C 
BRANCH  28  29
ATOM     29  O   UNL A   1      34.401  31.014  27.298  1.00  0.00    -0.460 OA
BRANCH  29  30
ATOM     30  C   UNL A   1      34.563  29.759  27.765  1.00  0.00     0.338 C 
ATOM     31  O   UNL A   1      33.776  28.833  27.673  1.00  0.00    -0.246 OA
BRANCH  30  32
ATOM     32  C   UNL A   1      35.966  29.651  28.209  1.00  0.00     0.060 A 
ATOM     33  C   UNL A   1      36.980  29.985  27.302  1.00  0.00     0.016 A 
ATOM     34  C   UNL A   1      36.277  29.301  29.527  1.00  0.00     0.016 A 
ATOM     35  C   UNL A   1      38.310  29.981  27.712  1.00  0.00     0.010 A 
ATOM     36  C   UNL A   1      37.616  29.233  29.919  1.00  0.00     0.010 A 
ATOM     37  C   UNL A   1      38.635  29.547  29.004  1.00  0.00    -0.014 A 
BRANCH  37  38
ATOM     38  C   UNL A   1      40.030  29.127  29.265  1.00  0.00     0.031 A 
ATOM     39  C   UNL A   1      40.913  30.119  29.972  1.00  0.00     0.074 A 
ATOM     40  C   UNL A   1      40.483  27.902  28.943  1.00  0.00     0.049 A 
ATOM     41  N   UNL A   1      42.158  30.004  30.345  1.00  0.00    -0.248 NA
ATOM     42  C   UNL A   1      40.298  31.414  30.320  1.00  0.00     0.031 C 
ATOM     43  C   UNL A   1      39.695  26.844  28.313  1.00  0.00     0.029 A 
ATOM     44  N   UNL A   1      41.724  27.343  29.114  1.00  0.00    -0.354 N 
ATOM     45  C   UNL A   1      42.466  31.197  30.986  1.00  0.00     0.074 A 
ATOM     46  C   UNL A   1      41.294  32.037  30.927  1.00  0.00     0.031 C 
ATOM     47  C   UNL A   1      40.481  25.765  28.137  1.00  0.00     0.029 A 
ATOM     48  C   UNL A   1      41.828  26.064  28.620  1.00  0.00     0.049 A 
ATOM     49  H   UNL A   1      42.471  27.814  29.549  1.00  0.00     0.167 HD
ATOM     50  C   UNL A   1      43.624  31.557  31.582  1.00  0.00     0.037 A 
ATOM     51  C   UNL A   1      42.898  25.243  28.557  1.00  0.00     0.037 A 
ATOM     52  C   UNL A   1      44.796  30.728  31.609  1.00  0.00     0.049 A 
ATOM     53  C   UNL A   1      44.216  25.716  29.127  1.00  0.00     0.074 A 
ATOM     54  C   UNL A   1      46.029  31.005  32.167  1.00  0.00     0.029 A 
ATOM     55  N   UNL A   1      44.882  29.467  31.039  1.00  0.00    -0.354 N 
ATOM     56  N   UNL A   1      44.491  26.840  29.748  1.00  0.00    -0.248 NA
ATOM     57  C   UNL A   1      45.367  24.813  28.987  1.00  0.00     0.031 C 
ATOM     58  C   UNL A   1      46.880  29.933  31.887  1.00  0.00     0.029 A 
ATOM     59  C   UNL A   1      46.159  28.963  31.208  1.00  0.00     0.049 A 
ATOM     60  H   UNL A   1      44.146  29.000  30.582  1.00  0.00     0.167 HD
ATOM     61  C   UNL A   1      45.837  26.765  30.097  1.00  0.00     0.074 A 
ATOM     62  C   UNL A   1      46.316  25.481  29.630  1.00  0.00     0.031 C 
ATOM     63  C   UNL A   1      46.609  27.674  30.743  1.00  0.00     0.037 A 
BRANCH  50  64
ATOM     64  C   UNL A   1      43.686  32.907  32.235  1.00  0.00     0.058 A 
ATOM     65  C   UNL A   1      43.929  34.071  31.491  1.00  0.00     0.135 A 
ATOM     66  C   UNL A   1      43.441  33.044  33.611  1.00  0.00     0.135 A 
ATOM     67  F   UNL A   1      44.202  33.991  30.178  1.00  0.00    -0.206 F 
ATOM     68  C   UNL A   1      43.923  35.327  32.087  1.00  0.00     0.059 A 
ATOM     69  C   UNL A   1      43.406  34.292  34.224  1.00  0.00     0.059 A 
ATOM     70  F   UNL A   1      43.223  31.958  34.370  1.00  0.00    -0.206 F 
ATOM     71  C   UNL A   1      43.648  35.428  33.452  1.00  0.00     0.060 A 
BRANCH  71  72
ATOM     72  S   UNL A   1      43.591  37.071  34.196  1.00  0.00     0.124 S 
ATOM     73  O   UNL A   1      44.659  36.983  35.186  1.00  0.00    -0.237 OA
ATOM     74  O   UNL A   1      43.859  37.935  33.050  1.00  0.00    -0.237 OA
ATOM     75  O   UNL A   1      42.239  37.154  34.739  1.00  0.00    -0.744 OA
ENDBRANCH  71  72
ENDBRANCH  50  64
BRANCH  51  76
ATOM     76  C   UNL A   1      42.783  23.901  27.922  1.00  0.00     0.058 A 
ATOM     77  C   UNL A   1      42.820  23.751  26.527  1.00  0.00     0.135 A 
ATOM     78  C   UNL A   1      42.609  22.742  28.695  1.00  0.00     0.135 A 
ATOM     79  F   UNL A   1      42.967  24.827  25.741  1.00  0.00    -0.206 F 
ATOM     80  C   UNL A   1      42.674  22.506  25.922  1.00  0.00     0.059 A 
ATOM     81  C   UNL A   1      42.489  21.482  28.115  1.00  0.00     0.059 A 
ATOM     82  F   UNL A   1      42.569  22.826  30.034  1.00  0.00    -0.206 F 
ATOM     83  C   UNL A   1      42.513  21.375  26.726  1.00  0.00     0.060 A 
BRANCH  83  84
ATOM     84  S   UNL A   1      42.358  19.762  25.929  1.00  0.00     0.124 S 
ATOM     85  O   UNL A   1      43.398  19.834  24.909  1.00  0.00    -0.237 OA
ATOM     86  O   UNL A   1      42.615  18.850  27.040  1.00  0.00    -0.237 OA
ATOM     87  O   UNL A   1      40.986  19.761  25.431  1.00  0.00    -0.744 OA
ENDBRANCH  83  84
ENDBRANCH  51  76
BRANCH  63  88
ATOM     88  C   UNL A   1      48.046  27.316  31.012  1.00  0.00     0.058 A 
ATOM     89  C   UNL A   1      48.420  26.589  32.152  1.00  0.00     0.135 A 
ATOM     90  C   UNL A   1      49.042  27.617  30.069  1.00  0.00     0.135 A 
ATOM     91  F   UNL A   1      47.507  26.275  33.085  1.00  0.00    -0.206 F 
ATOM     92  C   UNL A   1      49.736  26.187  32.355  1.00  0.00     0.059 A 
ATOM     93  C   UNL A   1      50.357  27.199  30.236  1.00  0.00     0.059 A 
ATOM     94  F   UNL A   1      48.733  28.297  28.952  1.00  0.00    -0.206 F 
ATOM     95  C   UNL A   1      50.696  26.490  31.387  1.00  0.00     0.060 A 
BRANCH  95  96
ATOM     96  S   UNL A   1      52.388  25.920  31.646  1.00  0.00     0.124 S 
ATOM     97  O   UNL A   1      52.914  26.951  32.536  1.00  0.00    -0.237 OA
ATOM     98  O   UNL A   1      52.184  24.606  32.248  1.00  0.00    -0.237 OA
ATOM     99  O   UNL A   1      52.954  25.906  30.300  1.00  0.00    -0.744 OA
ENDBRANCH  95  96
ENDBRANCH  63  88
ENDBRANCH  37  38
ENDBRANCH  30  32
ENDBRANCH  29  30
ENDBRANCH  28  29
ENDBRANCH  27  28
ENDBRANCH  26  27
ENDBRANCH  25  26
ENDBRANCH   1  25
TORSDOF 25
ENDMDL
MODEL 2
REMARK VINA RESULT:      -7.8      4.090      7.512
REMARK SMILES Cc1c(Cl)ccc2c(OCC(=O)OCCOCCOCCOCCOC(=O)c3ccc(-c4c5nc(c(-c6c(F)cc(S(=O)(=O)[O-])cc6F)c6ccc([nH]6)c(-c6c(F)cc(S(=O)(=O)[O-])cc6F)c6nc(c(-c7c(F)cc(S(=O)(=O)[O-])cc7F)c7ccc4[nH]7)C=C6)C=C5)cc3)ccnc12
REMARK SMILES IDX 20 1 19 2 18 3 17 4 16 5 15 6 14 7 13 8 11 9 12 10 10 11
REMARK SMILES IDX 9 12 8 13 1 14 2 15 3 16 97 17 4 18 5 19 7 20 96 21 6 22
REMARK SMILES IDX 95 23 94 24 21 25 22 26 23 27 24 28 25 29 26 30 27 31 28 32
REMARK SMILES IDX 29 33 93 34 30 35 92 36 31 37 32 38 33 39 86 40 34 41 91 42
REMARK SMILES IDX 85 43 87 44 35 45 90 46 84 47 83 48 36 50 70 51 49 52 69 53
REMARK SMILES IDX 50 54 53 55 68 56 88 57 51 58 52 59 67 61 89 62 54 63 37 64
REMARK SMILES IDX 38 65 47 66 39 67 40 68 46 69 48 70 41 71 42 72 43 73 44 74
REMARK SMILES IDX 45 75 71 76 72 77 81 78 73 79 74 80 80 81 82 82 75 83 76 84
REMARK SMILES IDX 77 85 78 86 79 87 55 88 56 89 65 90 57 91 58 92 64 93 66 94
REMARK SMILES IDX 59 95 60 96 61 97 62 98 63 99
REMARK H PARENT 87 49 53 60
REMARK Flexibility Score: inf
ROOT
ATOM      1  C   UNL A   1      31.753  30.315  26.173  1.00  0.00     0.188 C 
ENDROOT
BRANCH   1   2
ATOM      2  O   UNL A   1      32.343  29.523  27.184  1.00  0.00    -0.377 OA
BRANCH   2   3
ATOM      3  C   UNL A   1      31.562  28.427  27.613  1.00  0.00     0.188 C 
BRANCH   3   4
ATOM      4  C   UNL A   1      31.525  27.242  26.617  1.00  0.00     0.188 C 
BRANCH   4   5
ATOM      5  O   UNL A   1      30.671  26.121  26.816  1.00  0.00    -0.376 OA
BRANCH   5   6
ATOM      6  C   UNL A   1      29.989  25.566  25.705  1.00  0.00     0.202 C 
BRANCH   6   7
ATOM      7  C   UNL A   1      30.237  26.173  24.308  1.00  0.00     0.261 C 
BRANCH   7   8
ATOM      8  O   UNL A   1      30.709  25.280  23.270  1.00  0.00    -0.461 OA
BRANCH   8   9
ATOM      9  C   UNL A   1      31.797  25.673  22.561  1.00  0.00     0.344 C 
ATOM     10  O   UNL A   1      31.741  26.272  21.490  1.00  0.00    -0.248 OA
BRANCH   9  11
ATOM     11  C   UNL A   1      33.157  25.274  23.201  1.00  0.00     0.352 C 
BRANCH  11  12
ATOM     12  O   UNL A   1      33.335  24.694  24.486  1.00  0.00    -0.481 OA
BRANCH  12  13
ATOM     13  C   UNL A   1      33.623  23.358  24.669  1.00  0.00     0.131 A 
ATOM     14  C   UNL A   1      37.228  19.972  24.997  1.00  0.00     0.048 C 
ATOM     15  C   UNL A   1      36.734  21.374  25.275  1.00  0.00    -0.006 A 
ATOM     16  C   UNL A   1      37.608  22.379  25.722  1.00  0.00     0.046 A 
ATOM     17  C   UNL A   1      35.390  21.694  24.988  1.00  0.00     0.078 A 
ATOM     18  Cl  UNL A   1      39.260  22.063  26.129  1.00  0.00    -0.084 Cl
ATOM     19  C   UNL A   1      37.166  23.691  25.858  1.00  0.00     0.022 A 
ATOM     20  C   UNL A   1      34.956  23.044  25.057  1.00  0.00     0.043 A 
ATOM     21  N   UNL A   1      34.535  20.717  24.635  1.00  0.00    -0.256 NA
ATOM     22  C   UNL A   1      35.863  24.025  25.501  1.00  0.00     0.016 A 
ATOM     23  C   UNL A   1      33.247  21.034  24.385  1.00  0.00     0.115 A 
ATOM     24  C   UNL A   1      32.744  22.321  24.395  1.00  0.00     0.067 A 
ENDBRANCH  12  13
ENDBRANCH  11  12
ENDBRANCH   9  11
ENDBRANCH   8   9
ENDBRANCH   7   8
ENDBRANCH   6   7
ENDBRANCH   5   6
ENDBRANCH   4   5
ENDBRANCH   3   4
ENDBRANCH   2   3
ENDBRANCH   1   2
BRANCH   1  25
ATOM     25  C   UNL A   1      31.599  31.810  26.500  1.00  0.00     0.188 C 
BRANCH  25  26
ATOM     26  O   UNL A   1      32.279  32.205  27.687  1.00  0.00    -0.376 OA
BRANCH  26  27
ATOM     27  C   UNL A   1      33.129  33.339  27.629  1.00  0.00     0.202 C 
BRANCH  27  28
ATOM     28  C   UNL A   1      34.574  33.128  28.095  1.00  0.00     0.261 C 
BRANCH  28  29
ATOM     29  O   UNL A   1      34.823  31.944  28.860  1.00  0.00    -0.460 OA
BRANCH  29  30
ATOM     30  C   UNL A   1      35.355  30.887  28.211  1.00  0.00     0.338 C 
ATOM     31  O   UNL A   1      35.005  30.431  27.138  1.00  0.00    -0.246 OA
BRANCH  30  32
ATOM     32  C   UNL A   1      36.590  30.525  28.936  1.00  0.00     0.060 A 
ATOM     33  C   UNL A   1      37.752  31.265  28.683  1.00  0.00     0.016 A 
ATOM     34  C   UNL A   1      36.582  29.521  29.908  1.00  0.00     0.016 A 
ATOM     35  C   UNL A   1      38.910  31.010  29.410  1.00  0.00     0.010 A 
ATOM     36  C   UNL A   1      37.764  29.222  30.592  1.00  0.00     0.010 A 
ATOM     37  C   UNL A   1      38.936  29.948  30.324  1.00  0.00    -0.014 A 
BRANCH  37  38
ATOM     38  C   UNL A   1      40.255  29.420  30.738  1.00  0.00     0.031 A 
ATOM     39  C   UNL A   1      40.902  30.075  31.927  1.00  0.00     0.074 A 
ATOM     40  C   UNL A   1      40.830  28.369  30.127  1.00  0.00     0.049 A 
ATOM     41  N   UNL A   1      42.035  29.799  32.514  1.00  0.00    -0.248 NA
ATOM     42  C   UNL A   1      40.159  31.189  32.549  1.00  0.00     0.031 C 
ATOM     43  C   UNL A   1      40.262  27.621  29.007  1.00  0.00     0.029 A 
ATOM     44  N   UNL A   1      42.027  27.746  30.375  1.00  0.00    -0.354 N 
ATOM     45  C   UNL A   1      42.128  30.685  33.580  1.00  0.00     0.074 A 
ATOM     46  C   UNL A   1      40.959  31.530  33.546  1.00  0.00     0.031 C 
ATOM     47  C   UNL A   1      41.120  26.646  28.656  1.00  0.00     0.029 A 
ATOM     48  C   UNL A   1      42.306  26.715  29.509  1.00  0.00     0.049 A 
ATOM     49  H   UNL A   1      42.631  28.012  31.106  1.00  0.00     0.167 HD
ATOM     50  C   UNL A   1      43.100  30.778  34.513  1.00  0.00     0.037 A 
ATOM     51  C   UNL A   1      43.402  25.934  29.415  1.00  0.00     0.037 A 
ATOM     52  C   UNL A   1      44.276  29.954  34.521  1.00  0.00     0.049 A 
ATOM     53  C   UNL A   1      44.530  26.137  30.400  1.00  0.00     0.074 A 
ATOM     54  C   UNL A   1      45.335  29.980  35.409  1.00  0.00     0.029 A 
ATOM     55  N   UNL A   1      44.554  28.968  33.588  1.00  0.00    -0.354 N 
ATOM     56  N   UNL A   1      44.600  26.966  31.416  1.00  0.00    -0.248 NA
ATOM     57  C   UNL A   1      45.728  25.303  30.227  1.00  0.00     0.031 C 
ATOM     58  C   UNL A   1      46.281  29.046  34.980  1.00  0.00     0.029 A 
ATOM     59  C   UNL A   1      45.783  28.395  33.862  1.00  0.00     0.049 A 
ATOM     60  H   UNL A   1      43.965  28.712  32.841  1.00  0.00     0.167 HD
ATOM     61  C   UNL A   1      45.834  26.732  32.018  1.00  0.00     0.074 A 
ATOM     62  C   UNL A   1      46.470  25.675  31.261  1.00  0.00     0.031 C 
ATOM     63  C   UNL A   1      46.392  27.335  33.098  1.00  0.00     0.037 A 
BRANCH  50  64
ATOM     64  C   UNL A   1      42.943  31.815  35.587  1.00  0.00     0.058 A 
ATOM     65  C   UNL A   1      42.310  31.520  36.803  1.00  0.00     0.135 A 
ATOM     66  C   UNL A   1      43.484  33.100  35.421  1.00  0.00     0.135 A 
ATOM     67  F   UNL A   1      41.746  30.316  36.999  1.00  0.00    -0.206 F 
ATOM     68  C   UNL A   1      42.221  32.462  37.822  1.00  0.00     0.059 A 
ATOM     69  C   UNL A   1      43.429  34.050  36.435  1.00  0.00     0.059 A 
ATOM     70  F   UNL A   1      44.083  33.437  34.267  1.00  0.00    -0.206 F 
ATOM     71  C   UNL A   1      42.796  33.721  37.632  1.00  0.00     0.060 A 
BRANCH  71  72
ATOM     72  S   UNL A   1      42.719  34.910  38.987  1.00  0.00     0.124 S 
ATOM     73  O   UNL A   1      44.080  35.436  38.993  1.00  0.00    -0.237 OA
ATOM     74  O   UNL A   1      41.686  35.833  38.525  1.00  0.00    -0.237 OA
ATOM     75  O   UNL A   1      42.358  34.093  40.141  1.00  0.00    -0.744 OA
ENDBRANCH  71  72
ENDBRANCH  50  64
BRANCH  51  76
ATOM     76  C   UNL A   1      43.503  24.900  28.348  1.00  0.00     0.058 A 
ATOM     77  C   UNL A   1      43.118  23.571  28.585  1.00  0.00     0.135 A 
ATOM     78  C   UNL A   1      44.009  25.213  27.076  1.00  0.00     0.135 A 
ATOM     79  F   UNL A   1      42.645  23.214  29.787  1.00  0.00    -0.206 F 
ATOM     80  C   UNL A   1      43.245  22.588  27.607  1.00  0.00     0.059 A 
ATOM     81  C   UNL A   1      44.119  24.254  26.073  1.00  0.00     0.059 A 
ATOM     82  F   UNL A   1      44.389  26.468  26.793  1.00  0.00    -0.206 F 
ATOM     83  C   UNL A   1      43.743  22.941  26.351  1.00  0.00     0.060 A 
BRANCH  83  84
ATOM     84  S   UNL A   1      43.870  21.664  25.080  1.00  0.00     0.124 S 
ATOM     85  O   UNL A   1      45.174  21.081  25.376  1.00  0.00    -0.237 OA
ATOM     86  O   UNL A   1      42.713  20.825  25.377  1.00  0.00    -0.237 OA
ATOM     87  O   UNL A   1      43.785  22.418  23.834  1.00  0.00    -0.744 OA
ENDBRANCH  83  84
ENDBRANCH  51  76
BRANCH  63  88
ATOM     88  C   UNL A   1      47.746  26.859  33.550  1.00  0.00     0.058 A 
ATOM     89  C   UNL A   1      47.888  25.771  34.424  1.00  0.00     0.135 A 
ATOM     90  C   UNL A   1      48.914  27.436  33.024  1.00  0.00     0.135 A 
ATOM     91  F   UNL A   1      46.804  25.184  34.956  1.00  0.00    -0.206 F 
ATOM     92  C   UNL A   1      49.142  25.282  34.773  1.00  0.00     0.059 A 
ATOM     93  C   UNL A   1      50.176  26.943  33.334  1.00  0.00     0.059 A 
ATOM     94  F   UNL A   1      48.832  28.469  32.169  1.00  0.00    -0.206 F 
ATOM     95  C   UNL A   1      50.281  25.870  34.217  1.00  0.00     0.060 A 
BRANCH  95  96
ATOM     96  S   UNL A   1      51.897  25.192  34.646  1.00  0.00     0.124 S 
ATOM     97  O   UNL A   1      52.608  26.385  35.095  1.00  0.00    -0.237 OA
ATOM     98  O   UNL A   1      51.560  24.225  35.687  1.00  0.00    -0.237 OA
ATOM     99  O   UNL A   1      52.370  24.616  33.391  1.00  0.00    -0.744 OA
ENDBRANCH  95  96
ENDBRANCH  63  88
ENDBRANCH  37  38
ENDBRANCH  30  32
ENDBRANCH  29  30
ENDBRANCH  28  29
ENDBRANCH  27  28
ENDBRANCH  26  27
ENDBRANCH  25  26
ENDBRANCH   1  25
TORSDOF 25
ENDMDL
MODEL 3
REMARK VINA RESULT:      -7.6      5.096      8.559
REMARK SMILES Cc1c(Cl)ccc2c(OCC(=O)OCCOCCOCCOCCOC(=O)c3ccc(-c4c5nc(c(-c6c(F)cc(S(=O)(=O)[O-])cc6F)c6ccc([nH]6)c(-c6c(F)cc(S(=O)(=O)[O-])cc6F)c6nc(c(-c7c(F)cc(S(=O)(=O)[O-])cc7F)c7ccc4[nH]7)C=C6)C=C5)cc3)ccnc12
REMARK SMILES IDX 20 1 19 2 18 3 17 4 16 5 15 6 14 7 13 8 11 9 12 10 10 11
REMARK SMILES IDX 9 12 8 13 1 14 2 15 3 16 97 17 4 18 5 19 7 20 96 21 6 22
REMARK SMILES IDX 95 23 94 24 21 25 22 26 23 27 24 28 25 29 26 30 27 31 28 32
REMARK SMILES IDX 29 33 93 34 30 35 92 36 31 37 32 38 33 39 86 40 34 41 91 42
REMARK SMILES IDX 85 43 87 44 35 45 90 46 84 47 83 48 36 50 70 51 49 52 69 53
REMARK SMILES IDX 50 54 53 55 68 56 88 57 51 58 52 59 67 61 89 62 54 63 37 64
REMARK SMILES IDX 38 65 47 66 39 67 40 68 46 69 48 70 41 71 42 72 43 73 44 74
REMARK SMILES IDX 45 75 71 76 72 77 81 78 73 79 74 80 80 81 82 82 75 83 76 84
REMARK SMILES IDX 77 85 78 86 79 87 55 88 56 89 65 90 57 91 58 92 64 93 66 94
REMARK SMILES IDX 59 95 60 96 61 97 62 98 63 99
REMARK H PARENT 87 49 53 60
REMARK Flexibility Score: inf
ROOT
ATOM      1  C   UNL A   1      33.625  28.781  26.422  1.00  0.00     0.188 C 
ENDROOT
BRANCH   1   2
ATOM      2  O   UNL A   1      34.516  28.469  25.369  1.00  0.00    -0.377 OA
BRANCH   2   3
ATOM      3  C   UNL A   1      33.908  27.912  24.222  1.00  0.00     0.188 C 
BRANCH   3   4
ATOM      4  C   UNL A   1      34.042  26.373  24.113  1.00  0.00     0.188 C 
BRANCH   4   5
ATOM      5  O   UNL A   1      34.590  25.591  25.169  1.00  0.00    -0.376 OA
BRANCH   5   6
ATOM      6  C   UNL A   1      35.320  24.419  24.853  1.00  0.00     0.202 C 
BRANCH   6   7
ATOM      7  C   UNL A   1      35.615  23.407  25.981  1.00  0.00     0.261 C 
BRANCH   7   8
ATOM      8  O   UNL A   1      34.624  22.382  26.230  1.00  0.00    -0.461 OA
BRANCH   8   9
ATOM      9  C   UNL A   1      33.851  22.521  27.336  1.00  0.00     0.344 C 
ATOM     10  O   UNL A   1      34.290  22.773  28.455  1.00  0.00    -0.248 OA
BRANCH   9  11
ATOM     11  C   UNL A   1      32.332  22.303  27.087  1.00  0.00     0.352 C 
BRANCH  11  12
ATOM     12  O   UNL A   1      31.671  22.394  25.832  1.00  0.00    -0.481 OA
BRANCH  12  13
ATOM     13  C   UNL A   1      30.986  23.521  25.429  1.00  0.00     0.131 A 
ATOM     14  C   UNL A   1      30.909  27.330  22.258  1.00  0.00     0.048 C 
ATOM     15  C   UNL A   1      31.224  25.877  22.535  1.00  0.00    -0.006 A 
ATOM     16  C   UNL A   1      31.964  25.106  21.623  1.00  0.00     0.046 A 
ATOM     17  C   UNL A   1      30.845  25.320  23.775  1.00  0.00     0.078 A 
ATOM     18  Cl  UNL A   1      32.436  25.700  20.068  1.00  0.00    -0.084 Cl
ATOM     19  C   UNL A   1      32.348  23.808  21.945  1.00  0.00     0.022 A 
ATOM     20  C   UNL A   1      31.298  24.024  24.134  1.00  0.00     0.043 A 
ATOM     21  N   UNL A   1      30.071  26.032  24.615  1.00  0.00    -0.256 NA
ATOM     22  C   UNL A   1      32.045  23.284  23.197  1.00  0.00     0.016 A 
ATOM     23  C   UNL A   1      29.698  25.480  25.788  1.00  0.00     0.115 A 
ATOM     24  C   UNL A   1      30.116  24.240  26.234  1.00  0.00     0.067 A 
ENDBRANCH  12  13
ENDBRANCH  11  12
ENDBRANCH   9  11
ENDBRANCH   8   9
ENDBRANCH   7   8
ENDBRANCH   6   7
ENDBRANCH   5   6
ENDBRANCH   4   5
ENDBRANCH   3   4
ENDBRANCH   2   3
ENDBRANCH   1   2
BRANCH   1  25
ATOM     25  C   UNL A   1      34.214  29.624  27.566  1.00  0.00     0.188 C 
BRANCH  25  26
ATOM     26  O   UNL A   1      34.303  31.012  27.261  1.00  0.00    -0.376 OA
BRANCH  26  27
ATOM     27  C   UNL A   1      35.169  31.817  28.045  1.00  0.00     0.202 C 
BRANCH  27  28
ATOM     28  C   UNL A   1      35.207  31.509  29.546  1.00  0.00     0.261 C 
BRANCH  28  29
ATOM     29  O   UNL A   1      36.021  30.400  29.942  1.00  0.00    -0.460 OA
BRANCH  29  30
ATOM     30  C   UNL A   1      36.827  30.573  31.010  1.00  0.00     0.338 C 
ATOM     31  O   UNL A   1      36.490  30.699  32.174  1.00  0.00    -0.246 OA
BRANCH  30  32
ATOM     32  C   UNL A   1      38.208  30.355  30.536  1.00  0.00     0.060 A 
ATOM     33  C   UNL A   1      38.453  30.392  29.157  1.00  0.00     0.016 A 
ATOM     34  C   UNL A   1      39.261  30.195  31.442  1.00  0.00     0.016 A 
ATOM     35  C   UNL A   1      39.755  30.279  28.679  1.00  0.00     0.010 A 
ATOM     36  C   UNL A   1      40.559  30.016  30.958  1.00  0.00     0.010 A 
ATOM     37  C   UNL A   1      40.803  30.031  29.575  1.00  0.00    -0.014 A 
BRANCH  37  38
ATOM     38  C   UNL A   1      42.065  29.478  29.031  1.00  0.00     0.031 A 
ATOM     39  C   UNL A   1      43.230  30.425  28.934  1.00  0.00     0.074 A 
ATOM     40  C   UNL A   1      42.193  28.183  28.694  1.00  0.00     0.049 A 
ATOM     41  N   UNL A   1      44.448  30.203  28.522  1.00  0.00    -0.248 NA
ATOM     42  C   UNL A   1      42.988  31.812  29.377  1.00  0.00     0.031 C 
ATOM     43  C   UNL A   1      41.148  27.167  28.807  1.00  0.00     0.029 A 
ATOM     44  N   UNL A   1      43.272  27.502  28.189  1.00  0.00    -0.354 N 
ATOM     45  C   UNL A   1      45.119  31.409  28.676  1.00  0.00     0.074 A 
ATOM     46  C   UNL A   1      44.172  32.371  29.188  1.00  0.00     0.031 C 
ATOM     47  C   UNL A   1      41.636  25.992  28.369  1.00  0.00     0.029 A 
ATOM     48  C   UNL A   1      43.017  26.177  27.925  1.00  0.00     0.049 A 
ATOM     49  H   UNL A   1      44.148  27.923  28.031  1.00  0.00     0.167 HD
ATOM     50  C   UNL A   1      46.416  31.688  28.423  1.00  0.00     0.037 A 
ATOM     51  C   UNL A   1      43.810  25.235  27.372  1.00  0.00     0.037 A 
ATOM     52  C   UNL A   1      47.345  30.734  27.885  1.00  0.00     0.049 A 
ATOM     53  C   UNL A   1      45.224  25.604  26.988  1.00  0.00     0.074 A 
ATOM     54  C   UNL A   1      48.678  30.918  27.570  1.00  0.00     0.029 A 
ATOM     55  N   UNL A   1      47.030  29.422  27.567  1.00  0.00    -0.354 N 
ATOM     56  N   UNL A   1      45.855  26.744  27.156  1.00  0.00    -0.248 NA
ATOM     57  C   UNL A   1      46.034  24.563  26.340  1.00  0.00     0.031 C 
ATOM     58  C   UNL A   1      49.156  29.732  27.009  1.00  0.00     0.029 A 
ATOM     59  C   UNL A   1      48.139  28.790  27.033  1.00  0.00     0.049 A 
ATOM     60  H   UNL A   1      46.150  29.001  27.702  1.00  0.00     0.167 HD
ATOM     61  C   UNL A   1      47.141  26.546  26.661  1.00  0.00     0.074 A 
ATOM     62  C   UNL A   1      47.203  25.175  26.200  1.00  0.00     0.031 C 
ATOM     63  C   UNL A   1      48.178  27.418  26.591  1.00  0.00     0.037 A 
BRANCH  50  64
ATOM     64  C   UNL A   1      46.903  33.080  28.708  1.00  0.00     0.058 A 
ATOM     65  C   UNL A   1      47.514  33.408  29.927  1.00  0.00     0.135 A 
ATOM     66  C   UNL A   1      46.808  34.081  27.728  1.00  0.00     0.135 A 
ATOM     67  F   UNL A   1      47.599  32.495  30.909  1.00  0.00    -0.206 F 
ATOM     68  C   UNL A   1      48.021  34.680  30.165  1.00  0.00     0.059 A 
ATOM     69  C   UNL A   1      47.329  35.353  27.934  1.00  0.00     0.059 A 
ATOM     70  F   UNL A   1      46.213  33.822  26.552  1.00  0.00    -0.206 F 
ATOM     71  C   UNL A   1      47.935  35.643  29.157  1.00  0.00     0.060 A 
BRANCH  71  72
ATOM     72  S   UNL A   1      48.647  37.272  29.464  1.00  0.00     0.124 S 
ATOM     73  O   UNL A   1      47.544  38.150  29.088  1.00  0.00    -0.237 OA
ATOM     74  O   UNL A   1      48.950  37.209  30.891  1.00  0.00    -0.237 OA
ATOM     75  O   UNL A   1      49.808  37.310  28.580  1.00  0.00    -0.744 OA
ENDBRANCH  71  72
ENDBRANCH  50  64
BRANCH  51  76
ATOM     76  C   UNL A   1      43.292  23.859  27.133  1.00  0.00     0.058 A 
ATOM     77  C   UNL A   1      43.300  22.892  28.150  1.00  0.00     0.135 A 
ATOM     78  C   UNL A   1      42.801  23.474  25.875  1.00  0.00     0.135 A 
ATOM     79  F   UNL A   1      43.774  23.201  29.365  1.00  0.00    -0.206 F 
ATOM     80  C   UNL A   1      42.855  21.592  27.925  1.00  0.00     0.059 A 
ATOM     81  C   UNL A   1      42.325  22.189  25.633  1.00  0.00     0.059 A 
ATOM     82  F   UNL A   1      42.768  24.359  24.867  1.00  0.00    -0.206 F 
ATOM     83  C   UNL A   1      42.365  21.251  26.663  1.00  0.00     0.060 A 
BRANCH  83  84
ATOM     84  S   UNL A   1      41.759  19.570  26.395  1.00  0.00     0.124 S 
ATOM     85  O   UNL A   1      40.326  19.793  26.240  1.00  0.00    -0.237 OA
ATOM     86  O   UNL A   1      42.479  19.178  25.187  1.00  0.00    -0.237 OA
ATOM     87  O   UNL A   1      42.159  18.870  27.611  1.00  0.00    -0.744 OA
ENDBRANCH  83  84
ENDBRANCH  51  76
BRANCH  63  88
ATOM     88  C   UNL A   1      49.480  26.922  26.021  1.00  0.00     0.058 A 
ATOM     89  C   UNL A   1      49.812  27.116  24.673  1.00  0.00     0.135 A 
ATOM     90  C   UNL A   1      50.444  26.336  26.858  1.00  0.00     0.135 A 
ATOM     91  F   UNL A   1      48.927  27.671  23.830  1.00  0.00    -0.206 F 
ATOM     92  C   UNL A   1      51.050  26.730  24.170  1.00  0.00     0.059 A 
ATOM     93  C   UNL A   1      51.699  25.972  26.384  1.00  0.00     0.059 A 
ATOM     94  F   UNL A   1      50.182  26.144  28.162  1.00  0.00    -0.206 F 
ATOM     95  C   UNL A   1      51.990  26.166  25.035  1.00  0.00     0.060 A 
BRANCH  95  96
ATOM     96  S   UNL A   1      53.608  25.716  24.374  1.00  0.00     0.124 S 
ATOM     97  O   UNL A   1      54.480  26.667  25.057  1.00  0.00    -0.237 OA
ATOM     98  O   UNL A   1      53.737  24.324  24.792  1.00  0.00    -0.237 OA
ATOM     99  O   UNL A   1      53.459  25.923  22.937  1.00  0.00    -0.744 OA
ENDBRANCH  95  96
ENDBRANCH  63  88
ENDBRANCH  37  38
ENDBRANCH  30  32
ENDBRANCH  29  30
ENDBRANCH  28  29
ENDBRANCH  27  28
ENDBRANCH  26  27
ENDBRANCH  25  26
ENDBRANCH   1  25
TORSDOF 25
ENDMDL
