MODEL 1
REMARK VINA RESULT:      -9.1      0.000      0.000
REMARK SMILES Cc1cc(C)c2c(c1)C=C(C(=O)OCCOCCOCCOCCOC(=O)c1ccc(-c3c4nc(c(-c5c(F)cc(S(=O)(=O)[O-])cc5F)c5ccc([nH]5)c(-c5c(F)cc(S(=O)(=O)[O-])cc5F)c5nc(c(-c6c(F)cc(S(=O)(=O)[O-])cc6F)c6ccc3[nH]6)C=C5)C=C4)cc1)[C@@H](C(F)(F)F)O2
REMARK SMILES IDX 20 1 19 2 18 3 17 4 16 5 15 6 14 7 13 8 11 9 12 10 10 11
REMARK SMILES IDX 1 12 2 13 3 14 8 15 4 16 7 17 5 18 6 19 9 20 99 21 94 22
REMARK SMILES IDX 95 23 96 24 97 25 98 26 21 27 22 28 23 29 24 30 25 31 26 32
REMARK SMILES IDX 27 33 28 34 29 35 93 36 30 37 92 38 31 39 32 40 33 41 86 42
REMARK SMILES IDX 34 43 91 44 85 45 87 46 35 47 90 48 84 49 83 50 36 52 70 53
REMARK SMILES IDX 49 54 69 55 50 56 53 57 68 58 88 59 51 60 52 61 67 63 89 64
REMARK SMILES IDX 54 65 37 66 38 67 47 68 39 69 40 70 46 71 48 72 41 73 42 74
REMARK SMILES IDX 43 75 44 76 45 77 71 78 72 79 81 80 73 81 74 82 80 83 82 84
REMARK SMILES IDX 75 85 76 86 77 87 78 88 79 89 55 90 56 91 65 92 57 93 58 94
REMARK SMILES IDX 64 95 66 96 59 97 60 98 61 99 62 100 63 101
REMARK H PARENT 87 51 53 62
REMARK Flexibility Score: inf
ROOT
ATOM      1  C   UNL A   1      43.334  41.634  25.550  1.00  0.00     0.188 C 
ENDROOT
BRANCH   1   2
ATOM      2  O   UNL A   1      44.477  41.485  24.708  1.00  0.00    -0.377 OA
BRANCH   2   3
ATOM      3  C   UNL A   1      45.756  41.658  25.294  1.00  0.00     0.188 C 
BRANCH   3   4
ATOM      4  C   UNL A   1      46.831  40.737  24.683  1.00  0.00     0.188 C 
BRANCH   4   5
ATOM      5  O   UNL A   1      46.689  40.476  23.302  1.00  0.00    -0.376 OA
BRANCH   5   6
ATOM      6  C   UNL A   1      47.114  41.384  22.297  1.00  0.00     0.202 C 
BRANCH   6   7
ATOM      7  C   UNL A   1      46.292  41.878  21.090  1.00  0.00     0.261 C 
BRANCH   7   8
ATOM      8  O   UNL A   1      46.259  43.278  20.829  1.00  0.00    -0.460 OA
BRANCH   8   9
ATOM      9  C   UNL A   1      45.168  43.952  21.231  1.00  0.00     0.338 C 
ATOM     10  O   UNL A   1      44.819  44.171  22.378  1.00  0.00    -0.246 OA
BRANCH   9  11
ATOM     11  C   UNL A   1      44.553  44.554  20.030  1.00  0.00     0.087 C 
ATOM     12  C   UNL A   1      44.093  49.934  17.117  1.00  0.00     0.044 C 
ATOM     13  C   UNL A   1      43.855  48.469  17.327  1.00  0.00    -0.050 A 
ATOM     14  C   UNL A   1      42.885  47.776  16.592  1.00  0.00     0.010 A 
ATOM     15  C   UNL A   1      44.561  47.793  18.327  1.00  0.00     0.015 A 
ATOM     16  C   UNL A   1      42.632  46.416  16.833  1.00  0.00    -0.008 A 
ATOM     17  C   UNL A   1      44.288  46.450  18.604  1.00  0.00     0.018 A 
ATOM     18  C   UNL A   1      41.565  45.698  16.055  1.00  0.00     0.048 C 
ATOM     19  C   UNL A   1      43.354  45.752  17.835  1.00  0.00     0.130 A 
ATOM     20  C   UNL A   1      44.904  45.815  19.753  1.00  0.00     0.027 C 
ATOM     21  O   UNL A   1      43.080  44.425  18.018  1.00  0.00    -0.475 OA
ATOM     22  C   UNL A   1      43.643  43.725  19.162  1.00  0.00     0.316 C 
BRANCH  22  23
ATOM     23  C   UNL A   1      42.485  43.113  19.960  1.00  0.00     0.430 C 
ATOM     24  F   UNL A   1      42.826  41.910  20.479  1.00  0.00    -0.167 F 
ATOM     25  F   UNL A   1      42.113  43.899  20.996  1.00  0.00    -0.167 F 
ATOM     26  F   UNL A   1      41.392  42.924  19.183  1.00  0.00    -0.167 F 
ENDBRANCH  22  23
ENDBRANCH   9  11
ENDBRANCH   8   9
ENDBRANCH   7   8
ENDBRANCH   6   7
ENDBRANCH   5   6
ENDBRANCH   4   5
ENDBRANCH   3   4
ENDBRANCH   2   3
ENDBRANCH   1   2
BRANCH   1  27
ATOM     27  C   UNL A   1      43.260  40.939  26.932  1.00  0.00     0.188 C 
BRANCH  27  28
ATOM     28  O   UNL A   1      41.938  40.742  27.420  1.00  0.00    -0.376 OA
BRANCH  28  29
ATOM     29  C   UNL A   1      41.622  39.507  28.037  1.00  0.00     0.202 C 
BRANCH  29  30
ATOM     30  C   UNL A   1      42.347  38.268  27.492  1.00  0.00     0.261 C 
BRANCH  30  31
ATOM     31  O   UNL A   1      41.510  37.157  27.146  1.00  0.00    -0.460 OA
BRANCH  31  32
ATOM     32  C   UNL A   1      41.689  36.009  27.833  1.00  0.00     0.338 C 
ATOM     33  O   UNL A   1      40.857  35.413  28.497  1.00  0.00    -0.246 OA
BRANCH  32  34
ATOM     34  C   UNL A   1      43.025  35.487  27.486  1.00  0.00     0.060 A 
ATOM     35  C   UNL A   1      43.302  35.149  26.155  1.00  0.00     0.016 A 
ATOM     36  C   UNL A   1      44.003  35.345  28.474  1.00  0.00     0.016 A 
ATOM     37  C   UNL A   1      44.551  34.632  25.813  1.00  0.00     0.010 A 
ATOM     38  C   UNL A   1      45.244  34.803  28.135  1.00  0.00     0.010 A 
ATOM     39  C   UNL A   1      45.510  34.413  26.811  1.00  0.00    -0.014 A 
BRANCH  39  40
ATOM     40  C   UNL A   1      46.699  33.576  26.522  1.00  0.00     0.031 A 
ATOM     41  C   UNL A   1      46.531  32.081  26.550  1.00  0.00     0.074 A 
ATOM     42  C   UNL A   1      47.893  34.124  26.234  1.00  0.00     0.049 A 
ATOM     43  N   UNL A   1      47.429  31.142  26.424  1.00  0.00    -0.248 NA
ATOM     44  C   UNL A   1      45.159  31.581  26.746  1.00  0.00     0.031 C 
ATOM     45  C   UNL A   1      48.162  35.556  26.118  1.00  0.00     0.029 A 
ATOM     46  N   UNL A   1      49.107  33.531  25.995  1.00  0.00    -0.354 N 
ATOM     47  C   UNL A   1      46.737  29.942  26.530  1.00  0.00     0.074 A 
ATOM     48  C   UNL A   1      45.348  30.270  26.760  1.00  0.00     0.031 C 
ATOM     49  C   UNL A   1      49.468  35.731  25.843  1.00  0.00     0.029 A 
ATOM     50  C   UNL A   1      50.131  34.429  25.803  1.00  0.00     0.049 A 
ATOM     51  H   UNL A   1      49.234  32.555  25.963  1.00  0.00     0.167 HD
ATOM     52  C   UNL A   1      47.217  28.680  26.437  1.00  0.00     0.037 A 
ATOM     53  C   UNL A   1      51.454  34.219  25.644  1.00  0.00     0.037 A 
ATOM     54  C   UNL A   1      48.602  28.364  26.215  1.00  0.00     0.049 A 
ATOM     55  C   UNL A   1      51.980  32.805  25.637  1.00  0.00     0.074 A 
ATOM     56  C   UNL A   1      49.191  27.117  26.109  1.00  0.00     0.029 A 
ATOM     57  N   UNL A   1      49.616  29.300  26.070  1.00  0.00    -0.354 N 
ATOM     58  N   UNL A   1      51.318  31.676  25.746  1.00  0.00    -0.248 NA
ATOM     59  C   UNL A   1      53.432  32.634  25.489  1.00  0.00     0.031 C 
ATOM     60  C   UNL A   1      50.569  27.297  25.956  1.00  0.00     0.029 A 
ATOM     61  C   UNL A   1      50.830  28.658  25.901  1.00  0.00     0.049 A 
ATOM     62  H   UNL A   1      49.490  30.276  26.086  1.00  0.00     0.167 HD
ATOM     63  C   UNL A   1      52.269  30.664  25.651  1.00  0.00     0.074 A 
ATOM     64  C   UNL A   1      53.549  31.313  25.463  1.00  0.00     0.031 C 
ATOM     65  C   UNL A   1      52.098  29.320  25.712  1.00  0.00     0.037 A 
BRANCH  52  66
ATOM     66  C   UNL A   1      46.243  27.546  26.597  1.00  0.00     0.058 A 
ATOM     67  C   UNL A   1      45.587  26.976  25.496  1.00  0.00     0.135 A 
ATOM     68  C   UNL A   1      46.006  26.986  27.864  1.00  0.00     0.135 A 
ATOM     69  F   UNL A   1      45.757  27.488  24.266  1.00  0.00    -0.206 F 
ATOM     70  C   UNL A   1      44.724  25.894  25.644  1.00  0.00     0.059 A 
ATOM     71  C   UNL A   1      45.170  25.887  28.032  1.00  0.00     0.059 A 
ATOM     72  F   UNL A   1      46.600  27.502  28.952  1.00  0.00    -0.206 F 
ATOM     73  C   UNL A   1      44.529  25.352  26.916  1.00  0.00     0.060 A 
BRANCH  73  74
ATOM     74  S   UNL A   1      43.433  23.927  27.083  1.00  0.00     0.124 S 
ATOM     75  O   UNL A   1      42.928  23.786  25.720  1.00  0.00    -0.237 OA
ATOM     76  O   UNL A   1      44.350  22.884  27.531  1.00  0.00    -0.237 OA
ATOM     77  O   UNL A   1      42.452  24.365  28.071  1.00  0.00    -0.744 OA
ENDBRANCH  73  74
ENDBRANCH  52  66
BRANCH  53  78
ATOM     78  C   UNL A   1      52.378  35.376  25.487  1.00  0.00     0.058 A 
ATOM     79  C   UNL A   1      53.009  35.953  26.598  1.00  0.00     0.135 A 
ATOM     80  C   UNL A   1      52.653  35.924  24.224  1.00  0.00     0.135 A 
ATOM     81  F   UNL A   1      52.768  35.477  27.830  1.00  0.00    -0.206 F 
ATOM     82  C   UNL A   1      53.874  37.036  26.466  1.00  0.00     0.059 A 
ATOM     83  C   UNL A   1      53.536  36.989  24.063  1.00  0.00     0.059 A 
ATOM     84  F   UNL A   1      52.078  35.408  23.127  1.00  0.00    -0.206 F 
ATOM     85  C   UNL A   1      54.138  37.541  25.193  1.00  0.00     0.060 A 
BRANCH  85  86
ATOM     86  S   UNL A   1      55.306  38.909  25.032  1.00  0.00     0.124 S 
ATOM     87  O   UNL A   1      55.880  38.966  26.371  1.00  0.00    -0.237 OA
ATOM     88  O   UNL A   1      56.190  38.427  23.977  1.00  0.00    -0.237 OA
ATOM     89  O   UNL A   1      54.455  40.037  24.663  1.00  0.00    -0.744 OA
ENDBRANCH  85  86
ENDBRANCH  53  78
BRANCH  65  90
ATOM     90  C   UNL A   1      53.316  28.449  25.544  1.00  0.00     0.058 A 
ATOM     91  C   UNL A   1      54.117  28.078  26.635  1.00  0.00     0.135 A 
ATOM     92  C   UNL A   1      53.646  27.924  24.283  1.00  0.00     0.135 A 
ATOM     93  F   UNL A   1      53.846  28.551  27.862  1.00  0.00    -0.206 F 
ATOM     94  C   UNL A   1      55.216  27.240  26.479  1.00  0.00     0.059 A 
ATOM     95  C   UNL A   1      54.722  27.058  24.108  1.00  0.00     0.059 A 
ATOM     96  F   UNL A   1      52.905  28.234  23.206  1.00  0.00    -0.206 F 
ATOM     97  C   UNL A   1      55.509  26.732  25.211  1.00  0.00     0.060 A 
BRANCH  97  98
ATOM     98  S   UNL A   1      56.923  25.627  25.030  1.00  0.00     0.124 S 
ATOM     99  O   UNL A   1      56.290  24.316  25.150  1.00  0.00    -0.237 OA
ATOM    100  O   UNL A   1      57.417  25.972  23.701  1.00  0.00    -0.237 OA
ATOM    101  O   UNL A   1      57.797  26.004  26.135  1.00  0.00    -0.744 OA
ENDBRANCH  97  98
ENDBRANCH  65  90
ENDBRANCH  39  40
ENDBRANCH  32  34
ENDBRANCH  31  32
ENDBRANCH  30  31
ENDBRANCH  29  30
ENDBRANCH  28  29
ENDBRANCH  27  28
ENDBRANCH   1  27
TORSDOF 24
ENDMDL
MODEL 2
REMARK VINA RESULT:      -9.0     11.902     22.695
REMARK SMILES Cc1cc(C)c2c(c1)C=C(C(=O)OCCOCCOCCOCCOC(=O)c1ccc(-c3c4nc(c(-c5c(F)cc(S(=O)(=O)[O-])cc5F)c5ccc([nH]5)c(-c5c(F)cc(S(=O)(=O)[O-])cc5F)c5nc(c(-c6c(F)cc(S(=O)(=O)[O-])cc6F)c6ccc3[nH]6)C=C5)C=C4)cc1)[C@@H](C(F)(F)F)O2
REMARK SMILES IDX 20 1 19 2 18 3 17 4 16 5 15 6 14 7 13 8 11 9 12 10 10 11
REMARK SMILES IDX 1 12 2 13 3 14 8 15 4 16 7 17 5 18 6 19 9 20 99 21 94 22
REMARK SMILES IDX 95 23 96 24 97 25 98 26 21 27 22 28 23 29 24 30 25 31 26 32
REMARK SMILES IDX 27 33 28 34 29 35 93 36 30 37 92 38 31 39 32 40 33 41 86 42
REMARK SMILES IDX 34 43 91 44 85 45 87 46 35 47 90 48 84 49 83 50 36 52 70 53
REMARK SMILES IDX 49 54 69 55 50 56 53 57 68 58 88 59 51 60 52 61 67 63 89 64
REMARK SMILES IDX 54 65 37 66 38 67 47 68 39 69 40 70 46 71 48 72 41 73 42 74
REMARK SMILES IDX 43 75 44 76 45 77 71 78 72 79 81 80 73 81 74 82 80 83 82 84
REMARK SMILES IDX 75 85 76 86 77 87 78 88 79 89 55 90 56 91 65 92 57 93 58 94
REMARK SMILES IDX 64 95 66 96 59 97 60 98 61 99 62 100 63 101
REMARK H PARENT 87 51 53 62
REMARK Flexibility Score: inf
ROOT
ATOM      1  C   UNL A   1      47.987  22.904  39.588  1.00  0.00     0.188 C 
ENDROOT
BRANCH   1   2
ATOM      2  O   UNL A   1      46.893  22.619  38.716  1.00  0.00    -0.377 OA
BRANCH   2   3
ATOM      3  C   UNL A   1      46.502  21.265  38.569  1.00  0.00     0.188 C 
BRANCH   3   4
ATOM      4  C   UNL A   1      47.687  20.319  38.290  1.00  0.00     0.188 C 
BRANCH   4   5
ATOM      5  O   UNL A   1      47.561  19.017  38.824  1.00  0.00    -0.376 OA
BRANCH   5   6
ATOM      6  C   UNL A   1      46.332  18.308  38.846  1.00  0.00     0.202 C 
BRANCH   6   7
ATOM      7  C   UNL A   1      45.996  17.066  39.697  1.00  0.00     0.261 C 
BRANCH   7   8
ATOM      8  O   UNL A   1      45.873  17.234  41.106  1.00  0.00    -0.460 OA
BRANCH   8   9
ATOM      9  C   UNL A   1      44.652  17.525  41.586  1.00  0.00     0.338 C 
ATOM     10  O   UNL A   1      44.013  18.546  41.402  1.00  0.00    -0.246 OA
BRANCH   9  11
ATOM     11  C   UNL A   1      44.125  16.302  42.227  1.00  0.00     0.087 C 
ATOM     12  C   UNL A   1      45.818  11.867  46.113  1.00  0.00     0.044 C 
ATOM     13  C   UNL A   1      44.882  12.600  45.200  1.00  0.00    -0.050 A 
ATOM     14  C   UNL A   1      43.687  12.017  44.762  1.00  0.00     0.010 A 
ATOM     15  C   UNL A   1      45.241  13.861  44.714  1.00  0.00     0.015 A 
ATOM     16  C   UNL A   1      42.841  12.690  43.865  1.00  0.00    -0.008 A 
ATOM     17  C   UNL A   1      44.428  14.522  43.788  1.00  0.00     0.018 A 
ATOM     18  C   UNL A   1      41.578  12.034  43.382  1.00  0.00     0.048 C 
ATOM     19  C   UNL A   1      43.214  13.957  43.393  1.00  0.00     0.130 A 
ATOM     20  C   UNL A   1      44.897  15.746  43.167  1.00  0.00     0.027 C 
ATOM     21  O   UNL A   1      42.348  14.575  42.534  1.00  0.00    -0.475 OA
ATOM     22  C   UNL A   1      42.757  15.794  41.854  1.00  0.00     0.316 C 
BRANCH  22  23
ATOM     23  C   UNL A   1      42.618  15.565  40.344  1.00  0.00     0.430 C 
ATOM     24  F   UNL A   1      41.612  14.703  40.066  1.00  0.00    -0.167 F 
ATOM     25  F   UNL A   1      42.348  16.713  39.681  1.00  0.00    -0.167 F 
ATOM     26  F   UNL A   1      43.753  15.049  39.815  1.00  0.00    -0.167 F 
ENDBRANCH  22  23
ENDBRANCH   9  11
ENDBRANCH   8   9
ENDBRANCH   7   8
ENDBRANCH   6   7
ENDBRANCH   5   6
ENDBRANCH   4   5
ENDBRANCH   3   4
ENDBRANCH   2   3
ENDBRANCH   1   2
BRANCH   1  27
ATOM     27  C   UNL A   1      48.988  24.042  39.274  1.00  0.00     0.188 C 
BRANCH  27  28
ATOM     28  O   UNL A   1      48.767  25.239  40.010  1.00  0.00    -0.376 OA
BRANCH  28  29
ATOM     29  C   UNL A   1      48.422  26.415  39.301  1.00  0.00     0.202 C 
BRANCH  29  30
ATOM     30  C   UNL A   1      49.479  26.963  38.333  1.00  0.00     0.261 C 
BRANCH  30  31
ATOM     31  O   UNL A   1      48.977  27.717  37.221  1.00  0.00    -0.460 OA
BRANCH  31  32
ATOM     32  C   UNL A   1      48.298  27.041  36.270  1.00  0.00     0.338 C 
ATOM     33  O   UNL A   1      48.549  25.927  35.841  1.00  0.00    -0.246 OA
BRANCH  32  34
ATOM     34  C   UNL A   1      47.075  27.808  35.967  1.00  0.00     0.060 A 
ATOM     35  C   UNL A   1      45.844  27.356  36.463  1.00  0.00     0.016 A 
ATOM     36  C   UNL A   1      47.147  28.977  35.204  1.00  0.00     0.016 A 
ATOM     37  C   UNL A   1      44.675  28.056  36.166  1.00  0.00     0.010 A 
ATOM     38  C   UNL A   1      45.972  29.660  34.886  1.00  0.00     0.010 A 
ATOM     39  C   UNL A   1      44.730  29.183  35.337  1.00  0.00    -0.014 A 
BRANCH  39  40
ATOM     40  C   UNL A   1      43.482  29.734  34.756  1.00  0.00     0.031 A 
ATOM     41  C   UNL A   1      43.027  29.196  33.427  1.00  0.00     0.074 A 
ATOM     42  C   UNL A   1      42.767  30.679  35.391  1.00  0.00     0.049 A 
ATOM     43  N   UNL A   1      42.030  29.576  32.674  1.00  0.00    -0.248 NA
ATOM     44  C   UNL A   1      43.807  28.074  32.874  1.00  0.00     0.031 C 
ATOM     45  C   UNL A   1      43.075  31.232  36.708  1.00  0.00     0.029 A 
ATOM     46  N   UNL A   1      41.633  31.346  35.001  1.00  0.00    -0.354 N 
ATOM     47  C   UNL A   1      42.063  28.747  31.559  1.00  0.00     0.074 A 
ATOM     48  C   UNL A   1      43.195  27.862  31.719  1.00  0.00     0.031 C 
ATOM     49  C   UNL A   1      42.157  32.168  37.012  1.00  0.00     0.029 A 
ATOM     50  C   UNL A   1      41.223  32.306  35.896  1.00  0.00     0.049 A 
ATOM     51  H   UNL A   1      41.157  31.155  34.161  1.00  0.00     0.167 HD
ATOM     52  C   UNL A   1      41.220  28.723  30.502  1.00  0.00     0.037 A 
ATOM     53  C   UNL A   1      40.226  33.210  35.806  1.00  0.00     0.037 A 
ATOM     54  C   UNL A   1      40.100  29.612  30.349  1.00  0.00     0.049 A 
ATOM     55  C   UNL A   1      39.355  33.227  34.574  1.00  0.00     0.074 A 
ATOM     56  C   UNL A   1      39.186  29.672  29.312  1.00  0.00     0.029 A 
ATOM     57  N   UNL A   1      39.743  30.601  31.254  1.00  0.00    -0.354 N 
ATOM     58  N   UNL A   1      39.398  32.443  33.521  1.00  0.00    -0.248 NA
ATOM     59  C   UNL A   1      38.302  34.250  34.514  1.00  0.00     0.031 C 
ATOM     60  C   UNL A   1      38.310  30.732  29.562  1.00  0.00     0.029 A 
ATOM     61  C   UNL A   1      38.638  31.292  30.787  1.00  0.00     0.049 A 
ATOM     62  H   UNL A   1      40.207  30.784  32.103  1.00  0.00     0.167 HD
ATOM     63  C   UNL A   1      38.362  32.861  32.690  1.00  0.00     0.074 A 
ATOM     64  C   UNL A   1      37.703  33.958  33.367  1.00  0.00     0.031 C 
ATOM     65  C   UNL A   1      37.990  32.381  31.477  1.00  0.00     0.037 A 
BRANCH  52  66
ATOM     66  C   UNL A   1      41.486  27.718  29.415  1.00  0.00     0.058 A 
ATOM     67  C   UNL A   1      42.633  27.789  28.609  1.00  0.00     0.135 A 
ATOM     68  C   UNL A   1      40.611  26.638  29.216  1.00  0.00     0.135 A 
ATOM     69  F   UNL A   1      43.490  28.814  28.740  1.00  0.00    -0.206 F 
ATOM     70  C   UNL A   1      42.899  26.829  27.639  1.00  0.00     0.059 A 
ATOM     71  C   UNL A   1      40.871  25.651  28.271  1.00  0.00     0.059 A 
ATOM     72  F   UNL A   1      39.493  26.529  29.953  1.00  0.00    -0.206 F 
ATOM     73  C   UNL A   1      42.016  25.758  27.483  1.00  0.00     0.060 A 
BRANCH  73  74
ATOM     74  S   UNL A   1      42.397  24.505  26.242  1.00  0.00     0.124 S 
ATOM     75  O   UNL A   1      42.322  25.282  25.008  1.00  0.00    -0.237 OA
ATOM     76  O   UNL A   1      43.733  24.074  26.639  1.00  0.00    -0.237 OA
ATOM     77  O   UNL A   1      41.341  23.514  26.422  1.00  0.00    -0.744 OA
ENDBRANCH  73  74
ENDBRANCH  52  66
BRANCH  53  78
ATOM     78  C   UNL A   1      40.000  34.184  36.910  1.00  0.00     0.058 A 
ATOM     79  C   UNL A   1      40.645  35.429  36.919  1.00  0.00     0.135 A 
ATOM     80  C   UNL A   1      39.132  33.891  37.974  1.00  0.00     0.135 A 
ATOM     81  F   UNL A   1      41.497  35.751  35.933  1.00  0.00    -0.206 F 
ATOM     82  C   UNL A   1      40.445  36.348  37.946  1.00  0.00     0.059 A 
ATOM     83  C   UNL A   1      38.894  34.805  38.999  1.00  0.00     0.059 A 
ATOM     84  F   UNL A   1      38.487  32.716  38.013  1.00  0.00    -0.206 F 
ATOM     85  C   UNL A   1      39.560  36.029  38.977  1.00  0.00     0.060 A 
BRANCH  85  86
ATOM     86  S   UNL A   1      39.268  37.254  40.272  1.00  0.00     0.124 S 
ATOM     87  O   UNL A   1      38.396  38.203  39.589  1.00  0.00    -0.237 OA
ATOM     88  O   UNL A   1      38.643  36.446  41.314  1.00  0.00    -0.237 OA
ATOM     89  O   UNL A   1      40.609  37.741  40.583  1.00  0.00    -0.744 OA
ENDBRANCH  85  86
ENDBRANCH  53  78
BRANCH  65  90
ATOM     90  C   UNL A   1      36.796  33.011  30.809  1.00  0.00     0.058 A 
ATOM     91  C   UNL A   1      35.491  32.815  31.288  1.00  0.00     0.135 A 
ATOM     92  C   UNL A   1      36.967  33.878  29.716  1.00  0.00     0.135 A 
ATOM     93  F   UNL A   1      35.270  31.997  32.329  1.00  0.00    -0.206 F 
ATOM     94  C   UNL A   1      34.397  33.434  30.692  1.00  0.00     0.059 A 
ATOM     95  C   UNL A   1      35.892  34.533  29.124  1.00  0.00     0.059 A 
ATOM     96  F   UNL A   1      38.196  34.113  29.226  1.00  0.00    -0.206 F 
ATOM     97  C   UNL A   1      34.608  34.294  29.612  1.00  0.00     0.060 A 
BRANCH  97  98
ATOM     98  S   UNL A   1      33.181  35.108  28.866  1.00  0.00     0.124 S 
ATOM     99  O   UNL A   1      32.283  35.236  30.009  1.00  0.00    -0.237 OA
ATOM    100  O   UNL A   1      33.759  36.355  28.372  1.00  0.00    -0.237 OA
ATOM    101  O   UNL A   1      32.752  34.171  27.833  1.00  0.00    -0.744 OA
ENDBRANCH  97  98
ENDBRANCH  65  90
ENDBRANCH  39  40
ENDBRANCH  32  34
ENDBRANCH  31  32
ENDBRANCH  30  31
ENDBRANCH  29  30
ENDBRANCH  28  29
ENDBRANCH  27  28
ENDBRANCH   1  27
TORSDOF 24
ENDMDL
MODEL 3
REMARK VINA RESULT:      -9.0      8.748     16.436
REMARK SMILES Cc1cc(C)c2c(c1)C=C(C(=O)OCCOCCOCCOCCOC(=O)c1ccc(-c3c4nc(c(-c5c(F)cc(S(=O)(=O)[O-])cc5F)c5ccc([nH]5)c(-c5c(F)cc(S(=O)(=O)[O-])cc5F)c5nc(c(-c6c(F)cc(S(=O)(=O)[O-])cc6F)c6ccc3[nH]6)C=C5)C=C4)cc1)[C@@H](C(F)(F)F)O2
REMARK SMILES IDX 20 1 19 2 18 3 17 4 16 5 15 6 14 7 13 8 11 9 12 10 10 11
REMARK SMILES IDX 1 12 2 13 3 14 8 15 4 16 7 17 5 18 6 19 9 20 99 21 94 22
REMARK SMILES IDX 95 23 96 24 97 25 98 26 21 27 22 28 23 29 24 30 25 31 26 32
REMARK SMILES IDX 27 33 28 34 29 35 93 36 30 37 92 38 31 39 32 40 33 41 86 42
REMARK SMILES IDX 34 43 91 44 85 45 87 46 35 47 90 48 84 49 83 50 36 52 70 53
REMARK SMILES IDX 49 54 69 55 50 56 53 57 68 58 88 59 51 60 52 61 67 63 89 64
REMARK SMILES IDX 54 65 37 66 38 67 47 68 39 69 40 70 46 71 48 72 41 73 42 74
REMARK SMILES IDX 43 75 44 76 45 77 71 78 72 79 81 80 73 81 74 82 80 83 82 84
REMARK SMILES IDX 75 85 76 86 77 87 78 88 79 89 55 90 56 91 65 92 57 93 58 94
REMARK SMILES IDX 64 95 66 96 59 97 60 98 61 99 62 100 63 101
REMARK H PARENT 87 51 53 62
REMARK Flexibility Score: inf
ROOT
ATOM      1  C   UNL A   1      41.505  19.894  26.179  1.00  0.00     0.188 C 
ENDROOT
BRANCH   1   2
ATOM      2  O   UNL A   1      41.226  20.307  27.515  1.00  0.00    -0.377 OA
BRANCH   2   3
ATOM      3  C   UNL A   1      40.800  21.644  27.717  1.00  0.00     0.188 C 
BRANCH   3   4
ATOM      4  C   UNL A   1      39.739  22.102  26.697  1.00  0.00     0.188 C 
BRANCH   4   5
ATOM      5  O   UNL A   1      39.619  23.501  26.536  1.00  0.00    -0.376 OA
BRANCH   5   6
ATOM      6  C   UNL A   1      39.571  24.402  27.631  1.00  0.00     0.202 C 
BRANCH   6   7
ATOM      7  C   UNL A   1      40.650  25.430  28.029  1.00  0.00     0.261 C 
BRANCH   7   8
ATOM      8  O   UNL A   1      40.220  26.692  28.530  1.00  0.00    -0.460 OA
BRANCH   8   9
ATOM      9  C   UNL A   1      41.085  27.716  28.441  1.00  0.00     0.338 C 
ATOM     10  O   UNL A   1      41.676  28.095  27.445  1.00  0.00    -0.246 OA
BRANCH   9  11
ATOM     11  C   UNL A   1      41.056  28.435  29.732  1.00  0.00     0.087 C 
ATOM     12  C   UNL A   1      41.643  27.417  35.753  1.00  0.00     0.044 C 
ATOM     13  C   UNL A   1      41.431  28.245  34.521  1.00  0.00    -0.050 A 
ATOM     14  C   UNL A   1      40.957  29.560  34.600  1.00  0.00     0.010 A 
ATOM     15  C   UNL A   1      41.638  27.672  33.262  1.00  0.00     0.015 A 
ATOM     16  C   UNL A   1      40.710  30.310  33.438  1.00  0.00    -0.008 A 
ATOM     17  C   UNL A   1      41.356  28.395  32.099  1.00  0.00     0.018 A 
ATOM     18  C   UNL A   1      40.172  31.709  33.544  1.00  0.00     0.048 C 
ATOM     19  C   UNL A   1      40.930  29.721  32.184  1.00  0.00     0.130 A 
ATOM     20  C   UNL A   1      41.412  27.730  30.811  1.00  0.00     0.027 C 
ATOM     21  O   UNL A   1      40.690  30.499  31.086  1.00  0.00    -0.475 OA
ATOM     22  C   UNL A   1      40.705  29.899  29.762  1.00  0.00     0.316 C 
BRANCH  22  23
ATOM     23  C   UNL A   1      39.352  30.182  29.097  1.00  0.00     0.430 C 
ATOM     24  F   UNL A   1      38.930  31.442  29.354  1.00  0.00    -0.167 F 
ATOM     25  F   UNL A   1      39.413  30.053  27.751  1.00  0.00    -0.167 F 
ATOM     26  F   UNL A   1      38.394  29.335  29.541  1.00  0.00    -0.167 F 
ENDBRANCH  22  23
ENDBRANCH   9  11
ENDBRANCH   8   9
ENDBRANCH   7   8
ENDBRANCH   6   7
ENDBRANCH   5   6
ENDBRANCH   4   5
ENDBRANCH   3   4
ENDBRANCH   2   3
ENDBRANCH   1   2
BRANCH   1  27
ATOM     27  C   UNL A   1      42.957  19.629  25.708  1.00  0.00     0.188 C 
BRANCH  27  28
ATOM     28  O   UNL A   1      43.810  20.766  25.767  1.00  0.00    -0.376 OA
BRANCH  28  29
ATOM     29  C   UNL A   1      44.609  21.072  24.639  1.00  0.00     0.202 C 
BRANCH  29  30
ATOM     30  C   UNL A   1      45.714  22.115  24.849  1.00  0.00     0.261 C 
BRANCH  30  31
ATOM     31  O   UNL A   1      45.316  23.485  24.703  1.00  0.00    -0.460 OA
BRANCH  31  32
ATOM     32  C   UNL A   1      46.280  24.425  24.802  1.00  0.00     0.338 C 
ATOM     33  O   UNL A   1      47.191  24.627  24.017  1.00  0.00    -0.246 OA
BRANCH  32  34
ATOM     34  C   UNL A   1      45.931  25.301  25.937  1.00  0.00     0.060 A 
ATOM     35  C   UNL A   1      46.913  26.142  26.478  1.00  0.00     0.016 A 
ATOM     36  C   UNL A   1      44.633  25.299  26.455  1.00  0.00     0.016 A 
ATOM     37  C   UNL A   1      46.607  26.960  27.565  1.00  0.00     0.010 A 
ATOM     38  C   UNL A   1      44.337  26.099  27.560  1.00  0.00     0.010 A 
ATOM     39  C   UNL A   1      45.331  26.905  28.140  1.00  0.00    -0.014 A 
BRANCH  39  40
ATOM     40  C   UNL A   1      45.095  27.511  29.472  1.00  0.00     0.031 A 
ATOM     41  C   UNL A   1      44.764  28.978  29.528  1.00  0.00     0.074 A 
ATOM     42  C   UNL A   1      45.163  26.783  30.600  1.00  0.00     0.049 A 
ATOM     43  N   UNL A   1      44.607  29.755  30.566  1.00  0.00    -0.248 NA
ATOM     44  C   UNL A   1      44.585  29.658  28.233  1.00  0.00     0.031 C 
ATOM     45  C   UNL A   1      45.414  25.345  30.666  1.00  0.00     0.029 A 
ATOM     46  N   UNL A   1      45.032  27.164  31.912  1.00  0.00    -0.354 N 
ATOM     47  C   UNL A   1      44.317  31.014  30.053  1.00  0.00     0.074 A 
ATOM     48  C   UNL A   1      44.347  30.905  28.612  1.00  0.00     0.031 C 
ATOM     49  C   UNL A   1      45.435  24.966  31.957  1.00  0.00     0.029 A 
ATOM     50  C   UNL A   1      45.236  26.140  32.807  1.00  0.00     0.049 A 
ATOM     51  H   UNL A   1      44.812  28.084  32.188  1.00  0.00     0.167 HD
ATOM     52  C   UNL A   1      44.042  32.155  30.726  1.00  0.00     0.037 A 
ATOM     53  C   UNL A   1      45.286  26.159  34.154  1.00  0.00     0.037 A 
ATOM     54  C   UNL A   1      44.021  32.255  32.160  1.00  0.00     0.049 A 
ATOM     55  C   UNL A   1      45.070  27.463  34.881  1.00  0.00     0.074 A 
ATOM     56  C   UNL A   1      43.757  33.367  32.939  1.00  0.00     0.029 A 
ATOM     57  N   UNL A   1      44.276  31.207  33.032  1.00  0.00    -0.354 N 
ATOM     58  N   UNL A   1      44.804  28.650  34.387  1.00  0.00    -0.248 NA
ATOM     59  C   UNL A   1      45.163  27.433  36.348  1.00  0.00     0.031 C 
ATOM     60  C   UNL A   1      43.909  33.006  34.281  1.00  0.00     0.029 A 
ATOM     61  C   UNL A   1      44.202  31.652  34.341  1.00  0.00     0.049 A 
ATOM     62  H   UNL A   1      44.480  30.283  32.760  1.00  0.00     0.167 HD
ATOM     63  C   UNL A   1      44.670  29.499  35.483  1.00  0.00     0.074 A 
ATOM     64  C   UNL A   1      44.873  28.688  36.664  1.00  0.00     0.031 C 
ATOM     65  C   UNL A   1      44.403  30.829  35.508  1.00  0.00     0.037 A 
BRANCH  52  66
ATOM     66  C   UNL A   1      43.765  33.394  29.920  1.00  0.00     0.058 A 
ATOM     67  C   UNL A   1      42.457  33.848  29.690  1.00  0.00     0.135 A 
ATOM     68  C   UNL A   1      44.825  34.168  29.419  1.00  0.00     0.135 A 
ATOM     69  F   UNL A   1      41.407  33.134  30.124  1.00  0.00    -0.206 F 
ATOM     70  C   UNL A   1      42.209  35.022  28.986  1.00  0.00     0.059 A 
ATOM     71  C   UNL A   1      44.602  35.359  28.738  1.00  0.00     0.059 A 
ATOM     72  F   UNL A   1      46.095  33.772  29.602  1.00  0.00    -0.206 F 
ATOM     73  C   UNL A   1      43.289  35.775  28.520  1.00  0.00     0.060 A 
BRANCH  73  74
ATOM     74  S   UNL A   1      42.947  37.313  27.640  1.00  0.00     0.124 S 
ATOM     75  O   UNL A   1      42.486  36.813  26.348  1.00  0.00    -0.237 OA
ATOM     76  O   UNL A   1      41.927  37.930  28.481  1.00  0.00    -0.237 OA
ATOM     77  O   UNL A   1      44.239  37.992  27.623  1.00  0.00    -0.744 OA
ENDBRANCH  73  74
ENDBRANCH  52  66
BRANCH  53  78
ATOM     78  C   UNL A   1      45.562  24.904  34.908  1.00  0.00     0.058 A 
ATOM     79  C   UNL A   1      46.866  24.567  35.298  1.00  0.00     0.135 A 
ATOM     80  C   UNL A   1      44.528  24.021  35.257  1.00  0.00     0.135 A 
ATOM     81  F   UNL A   1      47.892  25.370  34.975  1.00  0.00    -0.206 F 
ATOM     82  C   UNL A   1      47.139  23.396  36.001  1.00  0.00     0.059 A 
ATOM     83  C   UNL A   1      44.771  22.858  35.983  1.00  0.00     0.059 A 
ATOM     84  F   UNL A   1      43.262  24.297  34.911  1.00  0.00    -0.206 F 
ATOM     85  C   UNL A   1      46.082  22.553  36.346  1.00  0.00     0.060 A 
BRANCH  85  86
ATOM     86  S   UNL A   1      46.445  21.067  37.308  1.00  0.00     0.124 S 
ATOM     87  O   UNL A   1      45.866  21.404  38.603  1.00  0.00    -0.237 OA
ATOM     88  O   UNL A   1      45.748  20.038  36.544  1.00  0.00    -0.237 OA
ATOM     89  O   UNL A   1      47.902  20.989  37.270  1.00  0.00    -0.744 OA
ENDBRANCH  85  86
ENDBRANCH  53  78
BRANCH  65  90
ATOM     90  C   UNL A   1      44.281  31.494  36.854  1.00  0.00     0.058 A 
ATOM     91  C   UNL A   1      45.376  32.113  37.476  1.00  0.00     0.135 A 
ATOM     92  C   UNL A   1      43.034  31.572  37.499  1.00  0.00     0.135 A 
ATOM     93  F   UNL A   1      46.590  32.070  36.904  1.00  0.00    -0.206 F 
ATOM     94  C   UNL A   1      45.247  32.762  38.699  1.00  0.00     0.059 A 
ATOM     95  C   UNL A   1      42.874  32.244  38.707  1.00  0.00     0.059 A 
ATOM     96  F   UNL A   1      41.949  31.010  36.941  1.00  0.00    -0.206 F 
ATOM     97  C   UNL A   1      43.990  32.825  39.306  1.00  0.00     0.060 A 
BRANCH  97  98
ATOM     98  S   UNL A   1      43.834  33.692  40.881  1.00  0.00     0.124 S 
ATOM     99  O   UNL A   1      44.826  33.000  41.698  1.00  0.00    -0.237 OA
ATOM    100  O   UNL A   1      44.164  35.066  40.512  1.00  0.00    -0.237 OA
ATOM    101  O   UNL A   1      42.443  33.467  41.260  1.00  0.00    -0.744 OA
ENDBRANCH  97  98
ENDBRANCH  65  90
ENDBRANCH  39  40
ENDBRANCH  32  34
ENDBRANCH  31  32
ENDBRANCH  30  31
ENDBRANCH  29  30
ENDBRANCH  28  29
ENDBRANCH  27  28
ENDBRANCH   1  27
TORSDOF 24
ENDMDL
