MODEL 1
REMARK VINA RESULT:      -8.7      0.000      0.000
REMARK SMILES O=C(OCCOCCOCCOCCOC(=O)c1ccc(-c2c3nc(c(-c4c(F)cc(S(=O)(=O)[O-])cc4F)c4ccc([nH]4)c(-c4c(F)cc(S(=O)(=O)[O-])cc4F)c4nc(c(-c5c(F)cc(S(=O)(=O)[O-])cc5F)c5ccc2[nH]5)C=C4)C=C3)cc1)c1ccc(NC(=O)[C@@H]2CC=CC[C@H]2C(=O)Nc2cccc([N+](=O)[O-])c2)cc1
REMARK SMILES IDX 8 1 7 2 6 3 5 4 4 5 3 6 2 7 1 8 84 9 85 10 110 11 86 12
REMARK SMILES IDX 109 13 87 14 88 15 89 16 90 18 91 19 92 20 96 21 93 22 95 23
REMARK SMILES IDX 94 24 97 25 98 26 99 27 100 29 101 30 108 31 102 32 104 33
REMARK SMILES IDX 103 34 105 35 106 36 107 37 9 38 10 39 11 40 12 41 13 42
REMARK SMILES IDX 14 43 15 44 16 45 17 46 18 47 19 48 83 49 20 50 82 51 21 52
REMARK SMILES IDX 22 53 23 54 76 55 24 56 81 57 75 58 77 59 25 60 80 61 74 62
REMARK SMILES IDX 73 63 26 65 60 66 39 67 59 68 40 69 43 70 58 71 78 72 41 73
REMARK SMILES IDX 42 74 57 76 79 77 44 78 27 79 28 80 37 81 29 82 30 83 36 84
REMARK SMILES IDX 38 85 31 86 32 87 33 88 34 89 35 90 61 91 62 92 71 93 63 94
REMARK SMILES IDX 64 95 70 96 72 97 65 98 66 99 67 100 68 101 69 102 45 103
REMARK SMILES IDX 46 104 55 105 47 106 48 107 54 108 56 109 49 110 50 111
REMARK SMILES IDX 51 112 52 113 53 114
REMARK H PARENT 88 17 99 28 77 64 43 75
REMARK Flexibility Score: inf
ROOT
ATOM      1  C   UNL A   1      42.034  27.685  27.379  1.00  0.00     0.188 C 
ENDROOT
BRANCH   1   2
ATOM      2  C   UNL A   1      40.857  28.352  28.088  1.00  0.00     0.188 C 
BRANCH   2   3
ATOM      3  O   UNL A   1      39.852  28.812  27.182  1.00  0.00    -0.376 OA
BRANCH   3   4
ATOM      4  C   UNL A   1      38.717  29.483  27.725  1.00  0.00     0.202 C 
BRANCH   4   5
ATOM      5  C   UNL A   1      37.708  28.690  28.554  1.00  0.00     0.261 C 
BRANCH   5   6
ATOM      6  O   UNL A   1      36.369  29.225  28.643  1.00  0.00    -0.460 OA
BRANCH   6   7
ATOM      7  C   UNL A   1      35.708  30.156  27.930  1.00  0.00     0.338 C 
ATOM      8  O   UNL A   1      36.134  31.306  27.873  1.00  0.00    -0.246 OA
BRANCH   7   9
ATOM      9  C   UNL A   1      34.481  29.848  27.172  1.00  0.00     0.060 A 
ATOM     10  C   UNL A   1      33.357  30.654  27.236  1.00  0.00     0.018 A 
ATOM     11  C   UNL A   1      34.542  28.899  26.145  1.00  0.00     0.018 A 
ATOM     12  C   UNL A   1      32.265  30.417  26.404  1.00  0.00     0.027 A 
ATOM     13  C   UNL A   1      33.443  28.689  25.287  1.00  0.00     0.027 A 
ATOM     14  C   UNL A   1      32.257  29.410  25.454  1.00  0.00     0.041 A 
BRANCH  14  15
ATOM     15  N   UNL A   1      31.171  29.182  24.583  1.00  0.00    -0.326 N 
ATOM     16  C   UNL A   1      30.600  28.039  24.061  1.00  0.00     0.228 C 
ATOM     17  H   UNL A   1      30.729  30.009  24.285  1.00  0.00     0.169 HD
ATOM     18  O   UNL A   1      29.500  28.151  23.509  1.00  0.00    -0.274 OA
BRANCH  16  19
ATOM     19  C   UNL A   1      31.363  26.709  24.012  1.00  0.00     0.095 C 
ATOM     20  C   UNL A   1      32.021  26.572  22.623  1.00  0.00     0.041 C 
ATOM     21  C   UNL A   1      30.504  25.485  24.397  1.00  0.00     0.095 C 
ATOM     22  C   UNL A   1      32.574  25.203  22.356  1.00  0.00    -0.030 C 
ATOM     23  C   UNL A   1      30.695  24.182  23.591  1.00  0.00     0.041 C 
ATOM     24  C   UNL A   1      31.961  24.104  22.805  1.00  0.00    -0.030 C 
BRANCH  21  25
ATOM     25  C   UNL A   1      30.551  25.108  25.876  1.00  0.00     0.228 C 
ATOM     26  O   UNL A   1      29.589  25.419  26.591  1.00  0.00    -0.274 OA
ATOM     27  N   UNL A   1      31.532  24.376  26.479  1.00  0.00    -0.326 N 
ATOM     28  H   UNL A   1      31.232  24.021  27.347  1.00  0.00     0.169 HD
BRANCH  27  29
ATOM     29  C   UNL A   1      32.854  23.992  26.196  1.00  0.00     0.048 A 
ATOM     30  C   UNL A   1      33.766  25.023  25.939  1.00  0.00     0.026 A 
ATOM     31  C   UNL A   1      33.280  22.688  25.978  1.00  0.00     0.111 A 
ATOM     32  C   UNL A   1      35.078  24.753  25.525  1.00  0.00     0.009 A 
ATOM     33  C   UNL A   1      34.591  22.412  25.558  1.00  0.00     0.271 A 
ATOM     34  C   UNL A   1      35.500  23.442  25.333  1.00  0.00     0.086 A 
BRANCH  33  35
ATOM     35  N   UNL A   1      34.965  21.024  25.267  1.00  0.00     0.062 N 
ATOM     36  O   UNL A   1      34.058  20.184  25.211  1.00  0.00    -0.258 OA
ATOM     37  O   UNL A   1      36.171  20.770  25.127  1.00  0.00    -0.258 OA
ENDBRANCH  33  35
ENDBRANCH  27  29
ENDBRANCH  21  25
ENDBRANCH  16  19
ENDBRANCH  14  15
ENDBRANCH   7   9
ENDBRANCH   6   7
ENDBRANCH   5   6
ENDBRANCH   4   5
ENDBRANCH   3   4
ENDBRANCH   2   3
ENDBRANCH   1   2
BRANCH   1  38
ATOM     38  O   UNL A   1      42.054  27.918  25.970  1.00  0.00    -0.377 OA
BRANCH  38  39
ATOM     39  C   UNL A   1      43.203  27.412  25.294  1.00  0.00     0.188 C 
BRANCH  39  40
ATOM     40  C   UNL A   1      44.506  27.609  26.063  1.00  0.00     0.188 C 
BRANCH  40  41
ATOM     41  O   UNL A   1      45.490  26.587  25.958  1.00  0.00    -0.376 OA
BRANCH  41  42
ATOM     42  C   UNL A   1      46.818  26.954  26.355  1.00  0.00     0.202 C 
BRANCH  42  43
ATOM     43  C   UNL A   1      47.365  26.324  27.653  1.00  0.00     0.261 C 
BRANCH  43  44
ATOM     44  O   UNL A   1      46.745  26.779  28.881  1.00  0.00    -0.460 OA
BRANCH  44  45
ATOM     45  C   UNL A   1      45.657  26.103  29.339  1.00  0.00     0.338 C 
ATOM     46  O   UNL A   1      45.355  24.968  29.059  1.00  0.00    -0.246 OA
BRANCH  45  47
ATOM     47  C   UNL A   1      45.069  26.870  30.490  1.00  0.00     0.060 A 
ATOM     48  C   UNL A   1      45.198  28.266  30.471  1.00  0.00     0.016 A 
ATOM     49  C   UNL A   1      44.274  26.273  31.478  1.00  0.00     0.016 A 
ATOM     50  C   UNL A   1      44.572  29.056  31.443  1.00  0.00     0.010 A 
ATOM     51  C   UNL A   1      43.651  27.063  32.455  1.00  0.00     0.010 A 
ATOM     52  C   UNL A   1      43.825  28.458  32.465  1.00  0.00    -0.014 A 
BRANCH  52  53
ATOM     53  C   UNL A   1      43.455  29.256  33.665  1.00  0.00     0.031 A 
ATOM     54  C   UNL A   1      42.212  30.106  33.580  1.00  0.00     0.074 A 
ATOM     55  C   UNL A   1      44.150  29.206  34.820  1.00  0.00     0.049 A 
ATOM     56  N   UNL A   1      41.672  30.886  34.479  1.00  0.00    -0.248 NA
ATOM     57  C   UNL A   1      41.479  30.064  32.303  1.00  0.00     0.031 C 
ATOM     58  C   UNL A   1      45.347  28.403  35.062  1.00  0.00     0.029 A 
ATOM     59  N   UNL A   1      43.937  29.855  36.014  1.00  0.00    -0.354 N 
ATOM     60  C   UNL A   1      40.537  31.420  33.881  1.00  0.00     0.074 A 
ATOM     61  C   UNL A   1      40.485  30.907  32.531  1.00  0.00     0.031 C 
ATOM     62  C   UNL A   1      45.769  28.616  36.323  1.00  0.00     0.029 A 
ATOM     63  C   UNL A   1      44.889  29.587  36.973  1.00  0.00     0.049 A 
ATOM     64  H   UNL A   1      43.174  30.458  36.169  1.00  0.00     0.167 HD
ATOM     65  C   UNL A   1      39.607  32.249  34.409  1.00  0.00     0.037 A 
ATOM     66  C   UNL A   1      45.039  30.083  38.220  1.00  0.00     0.037 A 
ATOM     67  C   UNL A   1      39.652  32.774  35.748  1.00  0.00     0.049 A 
ATOM     68  C   UNL A   1      44.034  31.077  38.757  1.00  0.00     0.074 A 
ATOM     69  C   UNL A   1      38.752  33.623  36.366  1.00  0.00     0.029 A 
ATOM     70  N   UNL A   1      40.651  32.509  36.670  1.00  0.00    -0.354 N 
ATOM     71  N   UNL A   1      42.950  31.550  38.188  1.00  0.00    -0.248 NA
ATOM     72  C   UNL A   1      44.271  31.602  40.112  1.00  0.00     0.031 C 
ATOM     73  C   UNL A   1      39.233  33.911  37.647  1.00  0.00     0.029 A 
ATOM     74  C   UNL A   1      40.402  33.197  37.845  1.00  0.00     0.049 A 
ATOM     75  H   UNL A   1      41.424  31.919  36.512  1.00  0.00     0.167 HD
ATOM     76  C   UNL A   1      42.365  32.400  39.125  1.00  0.00     0.074 A 
ATOM     77  C   UNL A   1      43.204  32.364  40.303  1.00  0.00     0.031 C 
ATOM     78  C   UNL A   1      41.236  33.146  39.019  1.00  0.00     0.037 A 
BRANCH  65  79
ATOM     79  C   UNL A   1      38.464  32.659  33.524  1.00  0.00     0.058 A 
ATOM     80  C   UNL A   1      38.484  33.868  32.811  1.00  0.00     0.135 A 
ATOM     81  C   UNL A   1      37.357  31.812  33.356  1.00  0.00     0.135 A 
ATOM     82  F   UNL A   1      39.506  34.725  32.959  1.00  0.00    -0.206 F 
ATOM     83  C   UNL A   1      37.437  34.230  31.970  1.00  0.00     0.059 A 
ATOM     84  C   UNL A   1      36.312  32.141  32.498  1.00  0.00     0.059 A 
ATOM     85  F   UNL A   1      37.286  30.650  34.024  1.00  0.00    -0.206 F 
ATOM     86  C   UNL A   1      36.358  33.356  31.817  1.00  0.00     0.060 A 
BRANCH  86  87
ATOM     87  S   UNL A   1      35.023  33.830  30.700  1.00  0.00     0.124 S 
ATOM     88  O   UNL A   1      34.265  32.586  30.608  1.00  0.00    -0.237 OA
ATOM     89  O   UNL A   1      34.375  34.914  31.431  1.00  0.00    -0.237 OA
ATOM     90  O   UNL A   1      35.722  34.229  29.482  1.00  0.00    -0.744 OA
ENDBRANCH  86  87
ENDBRANCH  65  79
BRANCH  66  91
ATOM     91  C   UNL A   1      46.204  29.679  39.062  1.00  0.00     0.058 A 
ATOM     92  C   UNL A   1      47.427  30.365  38.996  1.00  0.00     0.135 A 
ATOM     93  C   UNL A   1      46.132  28.557  39.902  1.00  0.00     0.135 A 
ATOM     94  F   UNL A   1      47.555  31.432  38.193  1.00  0.00    -0.206 F 
ATOM     95  C   UNL A   1      48.544  29.938  39.711  1.00  0.00     0.059 A 
ATOM     96  C   UNL A   1      47.226  28.129  40.649  1.00  0.00     0.059 A 
ATOM     97  F   UNL A   1      44.986  27.866  40.005  1.00  0.00    -0.206 F 
ATOM     98  C   UNL A   1      48.432  28.818  40.534  1.00  0.00     0.060 A 
BRANCH  98  99
ATOM     99  S   UNL A   1      49.879  28.287  41.478  1.00  0.00     0.124 S 
ATOM    100  O   UNL A   1      49.645  26.853  41.595  1.00  0.00    -0.237 OA
ATOM    101  O   UNL A   1      50.977  28.687  40.604  1.00  0.00    -0.237 OA
ATOM    102  O   UNL A   1      49.766  29.049  42.718  1.00  0.00    -0.744 OA
ENDBRANCH  98  99
ENDBRANCH  66  91
BRANCH  78 103
ATOM    103  C   UNL A   1      40.813  33.954  40.218  1.00  0.00     0.058 A 
ATOM    104  C   UNL A   1      40.055  33.395  41.259  1.00  0.00     0.135 A 
ATOM    105  C   UNL A   1      41.212  35.295  40.351  1.00  0.00     0.135 A 
ATOM    106  F   UNL A   1      39.646  32.118  41.186  1.00  0.00    -0.206 F 
ATOM    107  C   UNL A   1      39.678  34.145  42.370  1.00  0.00     0.059 A 
ATOM    108  C   UNL A   1      40.873  36.055  41.467  1.00  0.00     0.059 A 
ATOM    109  F   UNL A   1      41.952  35.877  39.394  1.00  0.00    -0.206 F 
ATOM    110  C   UNL A   1      40.091  35.474  42.464  1.00  0.00     0.060 A 
BRANCH 110 111
ATOM    111  S   UNL A   1      39.608  36.433  43.917  1.00  0.00     0.124 S 
ATOM    112  O   UNL A   1      38.276  35.903  44.188  1.00  0.00    -0.237 OA
ATOM    113  O   UNL A   1      40.641  36.076  44.884  1.00  0.00    -0.237 OA
ATOM    114  O   UNL A   1      39.652  37.813  43.444  1.00  0.00    -0.744 OA
ENDBRANCH 110 111
ENDBRANCH  78 103
ENDBRANCH  52  53
ENDBRANCH  45  47
ENDBRANCH  44  45
ENDBRANCH  43  44
ENDBRANCH  42  43
ENDBRANCH  41  42
ENDBRANCH  40  41
ENDBRANCH  39  40
ENDBRANCH  38  39
ENDBRANCH   1  38
TORSDOF 28
ENDMDL
MODEL 2
REMARK VINA RESULT:      -8.4     10.264     15.515
REMARK SMILES O=C(OCCOCCOCCOCCOC(=O)c1ccc(-c2c3nc(c(-c4c(F)cc(S(=O)(=O)[O-])cc4F)c4ccc([nH]4)c(-c4c(F)cc(S(=O)(=O)[O-])cc4F)c4nc(c(-c5c(F)cc(S(=O)(=O)[O-])cc5F)c5ccc2[nH]5)C=C4)C=C3)cc1)c1ccc(NC(=O)[C@@H]2CC=CC[C@H]2C(=O)Nc2cccc([N+](=O)[O-])c2)cc1
REMARK SMILES IDX 8 1 7 2 6 3 5 4 4 5 3 6 2 7 1 8 84 9 85 10 110 11 86 12
REMARK SMILES IDX 109 13 87 14 88 15 89 16 90 18 91 19 92 20 96 21 93 22 95 23
REMARK SMILES IDX 94 24 97 25 98 26 99 27 100 29 101 30 108 31 102 32 104 33
REMARK SMILES IDX 103 34 105 35 106 36 107 37 9 38 10 39 11 40 12 41 13 42
REMARK SMILES IDX 14 43 15 44 16 45 17 46 18 47 19 48 83 49 20 50 82 51 21 52
REMARK SMILES IDX 22 53 23 54 76 55 24 56 81 57 75 58 77 59 25 60 80 61 74 62
REMARK SMILES IDX 73 63 26 65 60 66 39 67 59 68 40 69 43 70 58 71 78 72 41 73
REMARK SMILES IDX 42 74 57 76 79 77 44 78 27 79 28 80 37 81 29 82 30 83 36 84
REMARK SMILES IDX 38 85 31 86 32 87 33 88 34 89 35 90 61 91 62 92 71 93 63 94
REMARK SMILES IDX 64 95 70 96 72 97 65 98 66 99 67 100 68 101 69 102 45 103
REMARK SMILES IDX 46 104 55 105 47 106 48 107 54 108 56 109 49 110 50 111
REMARK SMILES IDX 51 112 52 113 53 114
REMARK H PARENT 88 17 99 28 77 64 43 75
REMARK Flexibility Score: inf
ROOT
ATOM      1  C   UNL A   1      47.978  37.362  28.838  1.00  0.00     0.188 C 
ENDROOT
BRANCH   1   2
ATOM      2  C   UNL A   1      47.592  37.496  27.366  1.00  0.00     0.188 C 
BRANCH   2   3
ATOM      3  O   UNL A   1      46.181  37.411  27.153  1.00  0.00    -0.376 OA
BRANCH   3   4
ATOM      4  C   UNL A   1      45.495  38.589  26.735  1.00  0.00     0.202 C 
BRANCH   4   5
ATOM      5  C   UNL A   1      43.971  38.641  26.838  1.00  0.00     0.261 C 
BRANCH   5   6
ATOM      6  O   UNL A   1      43.386  39.890  27.271  1.00  0.00    -0.460 OA
BRANCH   6   7
ATOM      7  C   UNL A   1      43.913  41.096  27.552  1.00  0.00     0.338 C 
ATOM      8  O   UNL A   1      44.178  41.397  28.713  1.00  0.00    -0.246 OA
BRANCH   7   9
ATOM      9  C   UNL A   1      44.219  42.089  26.506  1.00  0.00     0.060 A 
ATOM     10  C   UNL A   1      43.555  42.103  25.291  1.00  0.00     0.018 A 
ATOM     11  C   UNL A   1      44.977  43.215  26.845  1.00  0.00     0.018 A 
ATOM     12  C   UNL A   1      43.765  43.135  24.379  1.00  0.00     0.027 A 
ATOM     13  C   UNL A   1      45.157  44.270  25.927  1.00  0.00     0.027 A 
ATOM     14  C   UNL A   1      44.600  44.206  24.646  1.00  0.00     0.041 A 
BRANCH  14  15
ATOM     15  N   UNL A   1      44.795  45.274  23.745  1.00  0.00    -0.326 N 
ATOM     16  C   UNL A   1      45.532  45.413  22.587  1.00  0.00     0.228 C 
ATOM     17  H   UNL A   1      44.304  46.090  23.994  1.00  0.00     0.169 HD
ATOM     18  O   UNL A   1      45.312  46.406  21.885  1.00  0.00    -0.274 OA
BRANCH  16  19
ATOM     19  C   UNL A   1      46.697  44.470  22.256  1.00  0.00     0.095 C 
ATOM     20  C   UNL A   1      47.998  45.085  22.813  1.00  0.00     0.041 C 
ATOM     21  C   UNL A   1      46.794  44.102  20.761  1.00  0.00     0.095 C 
ATOM     22  C   UNL A   1      49.239  44.395  22.329  1.00  0.00    -0.030 C 
ATOM     23  C   UNL A   1      48.197  44.025  20.122  1.00  0.00     0.041 C 
ATOM     24  C   UNL A   1      49.327  43.906  21.089  1.00  0.00    -0.030 C 
BRANCH  21  25
ATOM     25  C   UNL A   1      46.050  42.828  20.364  1.00  0.00     0.228 C 
ATOM     26  O   UNL A   1      46.637  41.744  20.485  1.00  0.00    -0.274 OA
ATOM     27  N   UNL A   1      44.749  42.762  19.959  1.00  0.00    -0.326 N 
ATOM     28  H   UNL A   1      44.401  41.844  20.022  1.00  0.00     0.169 HD
BRANCH  27  29
ATOM     29  C   UNL A   1      43.773  43.650  19.475  1.00  0.00     0.048 A 
ATOM     30  C   UNL A   1      42.479  43.137  19.321  1.00  0.00     0.026 A 
ATOM     31  C   UNL A   1      44.024  44.922  18.976  1.00  0.00     0.111 A 
ATOM     32  C   UNL A   1      41.457  43.894  18.731  1.00  0.00     0.009 A 
ATOM     33  C   UNL A   1      43.006  45.682  18.379  1.00  0.00     0.271 A 
ATOM     34  C   UNL A   1      41.714  45.176  18.256  1.00  0.00     0.086 A 
BRANCH  33  35
ATOM     35  N   UNL A   1      43.342  46.987  17.799  1.00  0.00     0.062 N 
ATOM     36  O   UNL A   1      44.535  47.221  17.563  1.00  0.00    -0.258 OA
ATOM     37  O   UNL A   1      42.415  47.789  17.609  1.00  0.00    -0.258 OA
ENDBRANCH  33  35
ENDBRANCH  27  29
ENDBRANCH  21  25
ENDBRANCH  16  19
ENDBRANCH  14  15
ENDBRANCH   7   9
ENDBRANCH   6   7
ENDBRANCH   5   6
ENDBRANCH   4   5
ENDBRANCH   3   4
ENDBRANCH   2   3
ENDBRANCH   1   2
BRANCH   1  38
ATOM     38  O   UNL A   1      47.837  38.578  29.574  1.00  0.00    -0.377 OA
BRANCH  38  39
ATOM     39  C   UNL A   1      49.007  38.996  30.274  1.00  0.00     0.188 C 
BRANCH  39  40
ATOM     40  C   UNL A   1      49.243  40.503  30.234  1.00  0.00     0.188 C 
BRANCH  40  41
ATOM     41  O   UNL A   1      49.187  41.208  31.468  1.00  0.00    -0.376 OA
BRANCH  41  42
ATOM     42  C   UNL A   1      48.395  40.603  32.499  1.00  0.00     0.202 C 
BRANCH  42  43
ATOM     43  C   UNL A   1      46.892  40.954  32.530  1.00  0.00     0.261 C 
BRANCH  43  44
ATOM     44  O   UNL A   1      46.032  40.096  31.742  1.00  0.00    -0.460 OA
BRANCH  44  45
ATOM     45  C   UNL A   1      44.931  39.566  32.341  1.00  0.00     0.338 C 
ATOM     46  O   UNL A   1      44.061  40.185  32.905  1.00  0.00    -0.246 OA
BRANCH  45  47
ATOM     47  C   UNL A   1      44.801  38.131  31.916  1.00  0.00     0.060 A 
ATOM     48  C   UNL A   1      44.514  37.878  30.568  1.00  0.00     0.016 A 
ATOM     49  C   UNL A   1      45.106  37.054  32.762  1.00  0.00     0.016 A 
ATOM     50  C   UNL A   1      44.497  36.569  30.072  1.00  0.00     0.010 A 
ATOM     51  C   UNL A   1      45.085  35.742  32.268  1.00  0.00     0.010 A 
ATOM     52  C   UNL A   1      44.746  35.487  30.927  1.00  0.00    -0.014 A 
BRANCH  52  53
ATOM     53  C   UNL A   1      44.397  34.109  30.486  1.00  0.00     0.031 A 
ATOM     54  C   UNL A   1      42.947  33.701  30.563  1.00  0.00     0.074 A 
ATOM     55  C   UNL A   1      45.305  33.250  29.982  1.00  0.00     0.049 A 
ATOM     56  N   UNL A   1      42.382  32.568  30.238  1.00  0.00    -0.248 NA
ATOM     57  C   UNL A   1      42.008  34.715  31.073  1.00  0.00     0.031 C 
ATOM     58  C   UNL A   1      46.732  33.518  29.814  1.00  0.00     0.029 A 
ATOM     59  N   UNL A   1      45.150  31.964  29.517  1.00  0.00    -0.354 N 
ATOM     60  C   UNL A   1      41.027  32.735  30.498  1.00  0.00     0.074 A 
ATOM     61  C   UNL A   1      40.858  34.063  31.043  1.00  0.00     0.031 C 
ATOM     62  C   UNL A   1      47.323  32.426  29.292  1.00  0.00     0.029 A 
ATOM     63  C   UNL A   1      46.325  31.372  29.111  1.00  0.00     0.049 A 
ATOM     64  H   UNL A   1      44.278  31.509  29.478  1.00  0.00     0.167 HD
ATOM     65  C   UNL A   1      40.007  31.871  30.288  1.00  0.00     0.037 A 
ATOM     66  C   UNL A   1      46.566  30.120  28.665  1.00  0.00     0.037 A 
ATOM     67  C   UNL A   1      40.163  30.544  29.755  1.00  0.00     0.049 A 
ATOM     68  C   UNL A   1      45.420  29.143  28.520  1.00  0.00     0.074 A 
ATOM     69  C   UNL A   1      39.182  29.598  29.510  1.00  0.00     0.029 A 
ATOM     70  N   UNL A   1      41.371  29.971  29.395  1.00  0.00    -0.354 N 
ATOM     71  N   UNL A   1      44.141  29.327  28.743  1.00  0.00    -0.248 NA
ATOM     72  C   UNL A   1      45.754  27.786  28.057  1.00  0.00     0.031 C 
ATOM     73  C   UNL A   1      39.805  28.435  29.047  1.00  0.00     0.029 A 
ATOM     74  C   UNL A   1      41.165  28.676  28.951  1.00  0.00     0.049 A 
ATOM     75  H   UNL A   1      42.247  30.419  29.447  1.00  0.00     0.167 HD
ATOM     76  C   UNL A   1      43.518  28.123  28.420  1.00  0.00     0.074 A 
ATOM     77  C   UNL A   1      44.558  27.223  27.969  1.00  0.00     0.031 C 
ATOM     78  C   UNL A   1      42.204  27.790  28.492  1.00  0.00     0.037 A 
BRANCH  65  79
ATOM     79  C   UNL A   1      38.624  32.331  30.655  1.00  0.00     0.058 A 
ATOM     80  C   UNL A   1      38.075  32.070  31.920  1.00  0.00     0.135 A 
ATOM     81  C   UNL A   1      37.859  33.077  29.745  1.00  0.00     0.135 A 
ATOM     82  F   UNL A   1      38.754  31.337  32.815  1.00  0.00    -0.206 F 
ATOM     83  C   UNL A   1      36.807  32.523  32.266  1.00  0.00     0.059 A 
ATOM     84  C   UNL A   1      36.600  33.564  30.080  1.00  0.00     0.059 A 
ATOM     85  F   UNL A   1      38.335  33.344  28.519  1.00  0.00    -0.206 F 
ATOM     86  C   UNL A   1      36.079  33.274  31.340  1.00  0.00     0.060 A 
BRANCH  86  87
ATOM     87  S   UNL A   1      34.447  33.877  31.817  1.00  0.00     0.124 S 
ATOM     88  O   UNL A   1      33.900  32.716  32.512  1.00  0.00    -0.237 OA
ATOM     89  O   UNL A   1      34.773  35.023  32.659  1.00  0.00    -0.237 OA
ATOM     90  O   UNL A   1      33.816  34.199  30.541  1.00  0.00    -0.744 OA
ENDBRANCH  86  87
ENDBRANCH  65  79
BRANCH  66  91
ATOM     91  C   UNL A   1      47.956  29.685  28.338  1.00  0.00     0.058 A 
ATOM     92  C   UNL A   1      48.889  29.398  29.347  1.00  0.00     0.135 A 
ATOM     93  C   UNL A   1      48.395  29.612  27.007  1.00  0.00     0.135 A 
ATOM     94  F   UNL A   1      48.526  29.473  30.637  1.00  0.00    -0.206 F 
ATOM     95  C   UNL A   1      50.211  29.080  29.051  1.00  0.00     0.059 A 
ATOM     96  C   UNL A   1      49.706  29.267  26.685  1.00  0.00     0.059 A 
ATOM     97  F   UNL A   1      47.545  29.874  26.002  1.00  0.00    -0.206 F 
ATOM     98  C   UNL A   1      50.610  29.018  27.715  1.00  0.00     0.060 A 
BRANCH  98  99
ATOM     99  S   UNL A   1      52.322  28.578  27.339  1.00  0.00     0.124 S 
ATOM    100  O   UNL A   1      52.277  27.124  27.417  1.00  0.00    -0.237 OA
ATOM    101  O   UNL A   1      52.496  29.143  26.005  1.00  0.00    -0.237 OA
ATOM    102  O   UNL A   1      53.077  29.245  28.396  1.00  0.00    -0.744 OA
ENDBRANCH  98  99
ENDBRANCH  66  91
BRANCH  78 103
ATOM    103  C   UNL A   1      41.803  26.411  28.036  1.00  0.00     0.058 A 
ATOM    104  C   UNL A   1      42.103  25.264  28.787  1.00  0.00     0.135 A 
ATOM    105  C   UNL A   1      41.063  26.241  26.852  1.00  0.00     0.135 A 
ATOM    106  F   UNL A   1      42.806  25.368  29.926  1.00  0.00    -0.206 F 
ATOM    107  C   UNL A   1      41.717  23.995  28.363  1.00  0.00     0.059 A 
ATOM    108  C   UNL A   1      40.641  24.985  26.426  1.00  0.00     0.059 A 
ATOM    109  F   UNL A   1      40.733  27.304  26.102  1.00  0.00    -0.206 F 
ATOM    110  C   UNL A   1      40.988  23.866  27.181  1.00  0.00     0.060 A 
BRANCH 110 111
ATOM    111  S   UNL A   1      40.480  22.215  26.651  1.00  0.00     0.124 S 
ATOM    112  O   UNL A   1      40.561  21.468  27.901  1.00  0.00    -0.237 OA
ATOM    113  O   UNL A   1      39.134  22.451  26.140  1.00  0.00    -0.237 OA
ATOM    114  O   UNL A   1      41.474  21.862  25.642  1.00  0.00    -0.744 OA
ENDBRANCH 110 111
ENDBRANCH  78 103
ENDBRANCH  52  53
ENDBRANCH  45  47
ENDBRANCH  44  45
ENDBRANCH  43  44
ENDBRANCH  42  43
ENDBRANCH  41  42
ENDBRANCH  40  41
ENDBRANCH  39  40
ENDBRANCH  38  39
ENDBRANCH   1  38
TORSDOF 28
ENDMDL
MODEL 3
REMARK VINA RESULT:      -8.1      4.721      6.737
REMARK SMILES O=C(OCCOCCOCCOCCOC(=O)c1ccc(-c2c3nc(c(-c4c(F)cc(S(=O)(=O)[O-])cc4F)c4ccc([nH]4)c(-c4c(F)cc(S(=O)(=O)[O-])cc4F)c4nc(c(-c5c(F)cc(S(=O)(=O)[O-])cc5F)c5ccc2[nH]5)C=C4)C=C3)cc1)c1ccc(NC(=O)[C@@H]2CC=CC[C@H]2C(=O)Nc2cccc([N+](=O)[O-])c2)cc1
REMARK SMILES IDX 8 1 7 2 6 3 5 4 4 5 3 6 2 7 1 8 84 9 85 10 110 11 86 12
REMARK SMILES IDX 109 13 87 14 88 15 89 16 90 18 91 19 92 20 96 21 93 22 95 23
REMARK SMILES IDX 94 24 97 25 98 26 99 27 100 29 101 30 108 31 102 32 104 33
REMARK SMILES IDX 103 34 105 35 106 36 107 37 9 38 10 39 11 40 12 41 13 42
REMARK SMILES IDX 14 43 15 44 16 45 17 46 18 47 19 48 83 49 20 50 82 51 21 52
REMARK SMILES IDX 22 53 23 54 76 55 24 56 81 57 75 58 77 59 25 60 80 61 74 62
REMARK SMILES IDX 73 63 26 65 60 66 39 67 59 68 40 69 43 70 58 71 78 72 41 73
REMARK SMILES IDX 42 74 57 76 79 77 44 78 27 79 28 80 37 81 29 82 30 83 36 84
REMARK SMILES IDX 38 85 31 86 32 87 33 88 34 89 35 90 61 91 62 92 71 93 63 94
REMARK SMILES IDX 64 95 70 96 72 97 65 98 66 99 67 100 68 101 69 102 45 103
REMARK SMILES IDX 46 104 55 105 47 106 48 107 54 108 56 109 49 110 50 111
REMARK SMILES IDX 51 112 52 113 53 114
REMARK H PARENT 88 17 99 28 77 64 43 75
REMARK Flexibility Score: inf
ROOT
ATOM      1  C   UNL A   1      43.574  25.847  28.524  1.00  0.00     0.188 C 
ENDROOT
BRANCH   1   2
ATOM      2  C   UNL A   1      42.206  25.210  28.755  1.00  0.00     0.188 C 
BRANCH   2   3
ATOM      3  O   UNL A   1      41.147  26.169  28.794  1.00  0.00    -0.376 OA
BRANCH   3   4
ATOM      4  C   UNL A   1      39.871  25.778  28.291  1.00  0.00     0.202 C 
BRANCH   4   5
ATOM      5  C   UNL A   1      39.607  25.853  26.788  1.00  0.00     0.261 C 
BRANCH   5   6
ATOM      6  O   UNL A   1      39.487  24.598  26.081  1.00  0.00    -0.460 OA
BRANCH   6   7
ATOM      7  C   UNL A   1      39.183  23.350  26.480  1.00  0.00     0.338 C 
ATOM      8  O   UNL A   1      39.904  22.769  27.287  1.00  0.00    -0.246 OA
BRANCH   7   9
ATOM      9  C   UNL A   1      37.982  22.637  26.005  1.00  0.00     0.060 A 
ATOM     10  C   UNL A   1      38.066  21.450  25.298  1.00  0.00     0.018 A 
ATOM     11  C   UNL A   1      36.734  22.999  26.523  1.00  0.00     0.018 A 
ATOM     12  C   UNL A   1      36.916  20.728  24.985  1.00  0.00     0.027 A 
ATOM     13  C   UNL A   1      35.581  22.243  26.227  1.00  0.00     0.027 A 
ATOM     14  C   UNL A   1      35.654  21.125  25.390  1.00  0.00     0.041 A 
BRANCH  14  15
ATOM     15  N   UNL A   1      34.486  20.385  25.108  1.00  0.00    -0.326 N 
ATOM     16  C   UNL A   1      33.293  20.699  24.492  1.00  0.00     0.228 C 
ATOM     17  H   UNL A   1      34.532  19.451  25.415  1.00  0.00     0.169 HD
ATOM     18  O   UNL A   1      32.547  19.765  24.179  1.00  0.00    -0.274 OA
BRANCH  16  19
ATOM     19  C   UNL A   1      32.820  22.152  24.345  1.00  0.00     0.095 C 
ATOM     20  C   UNL A   1      31.291  22.194  24.552  1.00  0.00     0.041 C 
ATOM     21  C   UNL A   1      33.270  22.824  23.031  1.00  0.00     0.095 C 
ATOM     22  C   UNL A   1      30.673  23.508  24.176  1.00  0.00    -0.030 C 
ATOM     23  C   UNL A   1      32.266  23.744  22.305  1.00  0.00     0.041 C 
ATOM     24  C   UNL A   1      31.126  24.221  23.141  1.00  0.00    -0.030 C 
BRANCH  21  25
ATOM     25  C   UNL A   1      34.593  23.583  23.119  1.00  0.00     0.228 C 
ATOM     26  O   UNL A   1      35.609  23.045  22.656  1.00  0.00    -0.274 OA
ATOM     27  N   UNL A   1      34.750  24.852  23.591  1.00  0.00    -0.326 N 
ATOM     28  H   UNL A   1      35.610  25.238  23.305  1.00  0.00     0.169 HD
BRANCH  27  29
ATOM     29  C   UNL A   1      34.018  25.759  24.377  1.00  0.00     0.048 A 
ATOM     30  C   UNL A   1      33.693  25.345  25.675  1.00  0.00     0.026 A 
ATOM     31  C   UNL A   1      33.446  26.938  23.917  1.00  0.00     0.111 A 
ATOM     32  C   UNL A   1      32.863  26.114  26.502  1.00  0.00     0.009 A 
ATOM     33  C   UNL A   1      32.608  27.709  24.738  1.00  0.00     0.271 A 
ATOM     34  C   UNL A   1      32.315  27.305  26.038  1.00  0.00     0.086 A 
BRANCH  33  35
ATOM     35  N   UNL A   1      31.969  28.903  24.177  1.00  0.00     0.062 N 
ATOM     36  O   UNL A   1      31.802  28.944  22.951  1.00  0.00    -0.258 OA
ATOM     37  O   UNL A   1      31.662  29.814  24.961  1.00  0.00    -0.258 OA
ENDBRANCH  33  35
ENDBRANCH  27  29
ENDBRANCH  21  25
ENDBRANCH  16  19
ENDBRANCH  14  15
ENDBRANCH   7   9
ENDBRANCH   6   7
ENDBRANCH   5   6
ENDBRANCH   4   5
ENDBRANCH   3   4
ENDBRANCH   2   3
ENDBRANCH   1   2
BRANCH   1  38
ATOM     38  O   UNL A   1      44.449  25.043  27.732  1.00  0.00    -0.377 OA
BRANCH  38  39
ATOM     39  C   UNL A   1      44.001  24.799  26.401  1.00  0.00     0.188 C 
BRANCH  39  40
ATOM     40  C   UNL A   1      44.913  23.869  25.605  1.00  0.00     0.188 C 
BRANCH  40  41
ATOM     41  O   UNL A   1      45.696  24.448  24.568  1.00  0.00    -0.376 OA
BRANCH  41  42
ATOM     42  C   UNL A   1      47.051  24.766  24.912  1.00  0.00     0.202 C 
BRANCH  42  43
ATOM     43  C   UNL A   1      47.421  26.261  25.010  1.00  0.00     0.261 C 
BRANCH  43  44
ATOM     44  O   UNL A   1      46.317  27.166  25.254  1.00  0.00    -0.460 OA
BRANCH  44  45
ATOM     45  C   UNL A   1      46.496  28.486  24.980  1.00  0.00     0.338 C 
ATOM     46  O   UNL A   1      46.777  28.957  23.904  1.00  0.00    -0.246 OA
BRANCH  45  47
ATOM     47  C   UNL A   1      45.976  29.289  26.139  1.00  0.00     0.060 A 
ATOM     48  C   UNL A   1      46.915  29.957  26.937  1.00  0.00     0.016 A 
ATOM     49  C   UNL A   1      44.610  29.520  26.356  1.00  0.00     0.016 A 
ATOM     50  C   UNL A   1      46.502  30.820  27.958  1.00  0.00     0.010 A 
ATOM     51  C   UNL A   1      44.195  30.380  27.383  1.00  0.00     0.010 A 
ATOM     52  C   UNL A   1      45.138  31.009  28.214  1.00  0.00    -0.014 A 
BRANCH  52  53
ATOM     53  C   UNL A   1      44.713  31.643  29.492  1.00  0.00     0.031 A 
ATOM     54  C   UNL A   1      44.664  33.150  29.538  1.00  0.00     0.074 A 
ATOM     55  C   UNL A   1      44.328  30.931  30.570  1.00  0.00     0.049 A 
ATOM     56  N   UNL A   1      44.326  33.943  30.521  1.00  0.00    -0.248 NA
ATOM     57  C   UNL A   1      45.047  33.854  28.303  1.00  0.00     0.031 C 
ATOM     58  C   UNL A   1      44.288  29.473  30.660  1.00  0.00     0.029 A 
ATOM     59  N   UNL A   1      43.895  31.353  31.806  1.00  0.00    -0.354 N 
ATOM     60  C   UNL A   1      44.449  35.234  30.021  1.00  0.00     0.074 A 
ATOM     61  C   UNL A   1      44.929  35.122  28.662  1.00  0.00     0.031 C 
ATOM     62  C   UNL A   1      43.864  29.122  31.888  1.00  0.00     0.029 A 
ATOM     63  C   UNL A   1      43.624  30.327  32.683  1.00  0.00     0.049 A 
ATOM     64  H   UNL A   1      43.788  32.303  32.042  1.00  0.00     0.167 HD
ATOM     65  C   UNL A   1      44.172  36.412  30.628  1.00  0.00     0.037 A 
ATOM     66  C   UNL A   1      43.246  30.359  33.980  1.00  0.00     0.037 A 
ATOM     67  C   UNL A   1      43.703  36.538  31.981  1.00  0.00     0.049 A 
ATOM     68  C   UNL A   1      43.026  31.691  34.662  1.00  0.00     0.074 A 
ATOM     69  C   UNL A   1      43.397  37.693  32.679  1.00  0.00     0.029 A 
ATOM     70  N   UNL A   1      43.480  35.478  32.845  1.00  0.00    -0.354 N 
ATOM     71  N   UNL A   1      43.119  32.902  34.166  1.00  0.00    -0.248 NA
ATOM     72  C   UNL A   1      42.644  31.658  36.083  1.00  0.00     0.031 C 
ATOM     73  C   UNL A   1      43.037  37.335  33.981  1.00  0.00     0.029 A 
ATOM     74  C   UNL A   1      43.063  35.954  34.077  1.00  0.00     0.049 A 
ATOM     75  H   UNL A   1      43.600  34.528  32.617  1.00  0.00     0.167 HD
ATOM     76  C   UNL A   1      42.779  33.768  35.204  1.00  0.00     0.074 A 
ATOM     77  C   UNL A   1      42.461  32.943  36.349  1.00  0.00     0.031 C 
ATOM     78  C   UNL A   1      42.737  35.125  35.210  1.00  0.00     0.037 A 
BRANCH  65  79
ATOM     79  C   UNL A   1      44.388  37.668  29.832  1.00  0.00     0.058 A 
ATOM     80  C   UNL A   1      43.410  38.158  28.953  1.00  0.00     0.135 A 
ATOM     81  C   UNL A   1      45.570  38.411  29.984  1.00  0.00     0.135 A 
ATOM     82  F   UNL A   1      42.275  37.471  28.752  1.00  0.00    -0.206 F 
ATOM     83  C   UNL A   1      43.601  39.338  28.241  1.00  0.00     0.059 A 
ATOM     84  C   UNL A   1      45.771  39.606  29.302  1.00  0.00     0.059 A 
ATOM     85  F   UNL A   1      46.540  37.978  30.804  1.00  0.00    -0.206 F 
ATOM     86  C   UNL A   1      44.784  40.057  28.427  1.00  0.00     0.060 A 
BRANCH  86  87
ATOM     87  S   UNL A   1      45.003  41.598  27.515  1.00  0.00     0.124 S 
ATOM     88  O   UNL A   1      45.212  42.551  28.601  1.00  0.00    -0.237 OA
ATOM     89  O   UNL A   1      46.172  41.309  26.692  1.00  0.00    -0.237 OA
ATOM     90  O   UNL A   1      43.746  41.744  26.787  1.00  0.00    -0.744 OA
ENDBRANCH  86  87
ENDBRANCH  65  79
BRANCH  66  91
ATOM     91  C   UNL A   1      43.069  29.094  34.750  1.00  0.00     0.058 A 
ATOM     92  C   UNL A   1      44.161  28.437  35.339  1.00  0.00     0.135 A 
ATOM     93  C   UNL A   1      41.810  28.483  34.857  1.00  0.00     0.135 A 
ATOM     94  F   UNL A   1      45.391  28.967  35.249  1.00  0.00    -0.206 F 
ATOM     95  C   UNL A   1      44.018  27.210  35.982  1.00  0.00     0.059 A 
ATOM     96  C   UNL A   1      41.636  27.272  35.521  1.00  0.00     0.059 A 
ATOM     97  F   UNL A   1      40.730  29.068  34.315  1.00  0.00    -0.206 F 
ATOM     98  C   UNL A   1      42.749  26.635  36.067  1.00  0.00     0.060 A 
BRANCH  98  99
ATOM     99  S   UNL A   1      42.567  25.056  36.926  1.00  0.00     0.124 S 
ATOM    100  O   UNL A   1      43.091  24.121  35.937  1.00  0.00    -0.237 OA
ATOM    101  O   UNL A   1      43.390  25.259  38.114  1.00  0.00    -0.237 OA
ATOM    102  O   UNL A   1      41.130  24.975  37.174  1.00  0.00    -0.744 OA
ENDBRANCH  98  99
ENDBRANCH  66  91
BRANCH  78 103
ATOM    103  C   UNL A   1      42.291  35.809  36.476  1.00  0.00     0.058 A 
ATOM    104  C   UNL A   1      43.206  36.214  37.462  1.00  0.00     0.135 A 
ATOM    105  C   UNL A   1      40.934  36.106  36.685  1.00  0.00     0.135 A 
ATOM    106  F   UNL A   1      44.515  35.957  37.314  1.00  0.00    -0.206 F 
ATOM    107  C   UNL A   1      42.787  36.856  38.623  1.00  0.00     0.059 A 
ATOM    108  C   UNL A   1      40.497  36.775  37.825  1.00  0.00     0.059 A 
ATOM    109  F   UNL A   1      40.017  35.757  35.769  1.00  0.00    -0.206 F 
ATOM    110  C   UNL A   1      41.430  37.131  38.796  1.00  0.00     0.060 A 
BRANCH 110 111
ATOM    111  S   UNL A   1      40.901  37.978  40.301  1.00  0.00     0.124 S 
ATOM    112  O   UNL A   1      41.494  37.137  41.336  1.00  0.00    -0.237 OA
ATOM    113  O   UNL A   1      41.497  39.301  40.142  1.00  0.00    -0.237 OA
ATOM    114  O   UNL A   1      39.444  37.940  40.219  1.00  0.00    -0.744 OA
ENDBRANCH 110 111
ENDBRANCH  78 103
ENDBRANCH  52  53
ENDBRANCH  45  47
ENDBRANCH  44  45
ENDBRANCH  43  44
ENDBRANCH  42  43
ENDBRANCH  41  42
ENDBRANCH  40  41
ENDBRANCH  39  40
ENDBRANCH  38  39
ENDBRANCH   1  38
TORSDOF 28
ENDMDL
