MODEL 1
REMARK VINA RESULT:      -8.4      0.000      0.000
REMARK SMILES Cc1ccc(OCCn2ccnc2)c(/C=C/C(=O)OCCOCCOCCOCCOC(=O)c2ccc(-c3c4nc(c(-c5c(F)cc(S(=O)(=O)[O-])cc5F)c5ccc([nH]5)c(-c5c(F)cc(S(=O)(=O)[O-])cc5F)c5nc(c(-c6c(F)cc(S(=O)(=O)[O-])cc6F)c6ccc3[nH]6)C=C5)C=C4)cc2)n1
REMARK SMILES IDX 24 1 23 2 22 3 21 4 20 5 19 6 17 7 18 8 16 9 15 10 14 11
REMARK SMILES IDX 1 12 2 13 3 14 100 15 4 16 5 17 6 18 7 19 8 20 9 21 10 22
REMARK SMILES IDX 13 23 11 24 12 25 25 26 26 27 27 28 28 29 29 30 30 31 31 32
REMARK SMILES IDX 32 33 33 34 34 35 35 36 99 37 36 38 98 39 37 40 38 41 39 42
REMARK SMILES IDX 92 43 40 44 97 45 91 46 93 47 41 48 96 49 90 50 89 51 42 53
REMARK SMILES IDX 76 54 55 55 75 56 56 57 59 58 74 59 94 60 57 61 58 62 73 64
REMARK SMILES IDX 95 65 60 66 43 67 44 68 53 69 45 70 46 71 52 72 54 73 47 74
REMARK SMILES IDX 48 75 49 76 50 77 51 78 77 79 78 80 87 81 79 82 80 83 86 84
REMARK SMILES IDX 88 85 81 86 82 87 83 88 84 89 85 90 61 91 62 92 71 93 63 94
REMARK SMILES IDX 64 95 70 96 72 97 65 98 66 99 67 100 68 101 69 102
REMARK H PARENT 93 52 59 63
REMARK Flexibility Score: inf
ROOT
ATOM      1  C   UNL A   1      32.587  30.378  27.267  1.00  0.00     0.188 C 
ENDROOT
BRANCH   1   2
ATOM      2  C   UNL A   1      31.962  28.949  27.074  1.00  0.00     0.188 C 
BRANCH   2   3
ATOM      3  O   UNL A   1      31.183  28.446  25.996  1.00  0.00    -0.376 OA
BRANCH   3   4
ATOM      4  C   UNL A   1      31.694  28.401  24.670  1.00  0.00     0.202 C 
BRANCH   4   5
ATOM      5  C   UNL A   1      33.086  27.776  24.315  1.00  0.00     0.261 C 
BRANCH   5   6
ATOM      6  O   UNL A   1      33.322  27.155  23.018  1.00  0.00    -0.460 OA
BRANCH   6   7
ATOM      7  C   UNL A   1      33.009  25.812  22.899  1.00  0.00     0.330 C 
ATOM      8  O   UNL A   1      32.175  25.360  22.175  1.00  0.00    -0.247 OA
BRANCH   7   9
ATOM      9  C   UNL A   1      34.108  24.943  23.462  1.00  0.00     0.096 C 
ATOM     10  C   UNL A   1      34.334  24.663  24.750  1.00  0.00     0.040 C 
BRANCH  10  11
ATOM     11  C   UNL A   1      35.398  23.742  25.221  1.00  0.00     0.105 A 
ATOM     12  C   UNL A   1      38.928  24.138  26.271  1.00  0.00     0.067 C 
ATOM     13  C   UNL A   1      37.597  23.504  25.978  1.00  0.00     0.038 A 
ATOM     14  C   UNL A   1      37.487  22.122  25.959  1.00  0.00     0.027 A 
ATOM     15  N   UNL A   1      36.548  24.318  25.684  1.00  0.00    -0.250 NA
ATOM     16  C   UNL A   1      36.296  21.543  25.521  1.00  0.00     0.050 A 
ATOM     17  C   UNL A   1      35.269  22.355  25.042  1.00  0.00     0.145 A 
BRANCH  17  18
ATOM     18  O   UNL A   1      34.232  21.911  24.259  1.00  0.00    -0.489 OA
BRANCH  18  19
ATOM     19  C   UNL A   1      33.462  20.783  24.688  1.00  0.00     0.251 C 
BRANCH  19  20
ATOM     20  C   UNL A   1      31.988  21.063  25.056  1.00  0.00     0.164 C 
BRANCH  20  21
ATOM     21  N   UNL A   1      31.692  22.362  25.626  1.00  0.00    -0.334 N 
ATOM     22  C   UNL A   1      30.988  23.370  25.021  1.00  0.00     0.107 A 
ATOM     23  C   UNL A   1      32.011  22.792  26.885  1.00  0.00     0.199 A 
ATOM     24  C   UNL A   1      30.751  24.284  26.024  1.00  0.00     0.130 A 
ATOM     25  N   UNL A   1      31.413  23.929  27.169  1.00  0.00    -0.245 NA
ENDBRANCH  20  21
ENDBRANCH  19  20
ENDBRANCH  18  19
ENDBRANCH  17  18
ENDBRANCH  10  11
ENDBRANCH   7   9
ENDBRANCH   6   7
ENDBRANCH   5   6
ENDBRANCH   4   5
ENDBRANCH   3   4
ENDBRANCH   2   3
ENDBRANCH   1   2
BRANCH   1  26
ATOM     26  O   UNL A   1      33.922  30.571  27.646  1.00  0.00    -0.377 OA
BRANCH  26  27
ATOM     27  C   UNL A   1      34.309  31.909  27.795  1.00  0.00     0.188 C 
BRANCH  27  28
ATOM     28  C   UNL A   1      34.641  32.540  29.189  1.00  0.00     0.188 C 
BRANCH  28  29
ATOM     29  O   UNL A   1      35.588  32.136  30.171  1.00  0.00    -0.376 OA
BRANCH  29  30
ATOM     30  C   UNL A   1      35.300  32.184  31.561  1.00  0.00     0.202 C 
BRANCH  30  31
ATOM     31  C   UNL A   1      35.970  31.230  32.583  1.00  0.00     0.261 C 
BRANCH  31  32
ATOM     32  O   UNL A   1      37.287  31.520  33.077  1.00  0.00    -0.460 OA
BRANCH  32  33
ATOM     33  C   UNL A   1      38.347  31.199  32.285  1.00  0.00     0.338 C 
ATOM     34  O   UNL A   1      38.761  31.850  31.315  1.00  0.00    -0.246 OA
BRANCH  33  35
ATOM     35  C   UNL A   1      39.030  29.998  32.790  1.00  0.00     0.060 A 
ATOM     36  C   UNL A   1      39.997  30.101  33.800  1.00  0.00     0.016 A 
ATOM     37  C   UNL A   1      39.300  29.168  31.729  1.00  0.00     0.016 A 
ATOM     38  C   UNL A   1      41.371  29.842  33.423  1.00  0.00     0.010 A 
ATOM     39  C   UNL A   1      40.619  28.787  31.567  1.00  0.00     0.010 A 
ATOM     40  C   UNL A   1      41.716  29.531  32.030  1.00  0.00    -0.014 A 
BRANCH  40  41
ATOM     41  C   UNL A   1      43.123  28.899  31.294  1.00  0.00     0.031 A 
ATOM     42  C   UNL A   1      43.233  30.388  30.276  1.00  0.00     0.074 A 
ATOM     43  C   UNL A   1      44.020  27.585  31.512  1.00  0.00     0.049 A 
ATOM     44  N   UNL A   1      42.672  30.549  29.095  1.00  0.00    -0.248 NA
ATOM     45  C   UNL A   1      43.398  31.936  30.710  1.00  0.00     0.031 C 
ATOM     46  C   UNL A   1      44.121  26.227  32.489  1.00  0.00     0.029 A 
ATOM     47  N   UNL A   1      45.216  27.024  30.828  1.00  0.00    -0.354 N 
ATOM     48  C   UNL A   1      43.314  31.701  28.567  1.00  0.00     0.074 A 
ATOM     49  C   UNL A   1      43.415  32.649  29.578  1.00  0.00     0.031 C 
ATOM     50  C   UNL A   1      45.407  25.644  32.597  1.00  0.00     0.029 A 
ATOM     51  C   UNL A   1      46.254  26.159  31.560  1.00  0.00     0.049 A 
ATOM     52  H   UNL A   1      45.347  27.214  29.871  1.00  0.00     0.167 HD
ATOM     53  C   UNL A   1      44.299  31.534  27.661  1.00  0.00     0.037 A 
ATOM     54  C   UNL A   1      47.614  25.788  31.264  1.00  0.00     0.037 A 
ATOM     55  C   UNL A   1      44.122  30.215  27.143  1.00  0.00     0.049 A 
ATOM     56  C   UNL A   1      47.816  26.416  29.936  1.00  0.00     0.074 A 
ATOM     57  C   UNL A   1      43.035  29.564  26.591  1.00  0.00     0.029 A 
ATOM     58  N   UNL A   1      44.818  29.292  27.858  1.00  0.00    -0.354 N 
ATOM     59  N   UNL A   1      47.185  25.984  28.877  1.00  0.00    -0.248 NA
ATOM     60  C   UNL A   1      47.985  27.860  30.122  1.00  0.00     0.031 C 
ATOM     61  C   UNL A   1      43.103  28.217  27.032  1.00  0.00     0.029 A 
ATOM     62  C   UNL A   1      44.319  28.049  27.678  1.00  0.00     0.049 A 
ATOM     63  H   UNL A   1      45.589  29.504  28.433  1.00  0.00     0.167 HD
ATOM     64  C   UNL A   1      46.388  27.064  28.536  1.00  0.00     0.074 A 
ATOM     65  C   UNL A   1      46.963  28.226  29.333  1.00  0.00     0.031 C 
ATOM     66  C   UNL A   1      45.099  26.908  28.053  1.00  0.00     0.037 A 
BRANCH  53  67
ATOM     67  C   UNL A   1      45.639  32.243  27.672  1.00  0.00     0.058 A 
ATOM     68  C   UNL A   1      45.893  32.974  26.509  1.00  0.00     0.135 A 
ATOM     69  C   UNL A   1      46.731  32.127  28.583  1.00  0.00     0.135 A 
ATOM     70  F   UNL A   1      44.912  33.171  25.614  1.00  0.00    -0.206 F 
ATOM     71  C   UNL A   1      47.132  33.519  26.230  1.00  0.00     0.059 A 
ATOM     72  C   UNL A   1      47.967  32.737  28.357  1.00  0.00     0.059 A 
ATOM     73  F   UNL A   1      46.677  31.412  29.716  1.00  0.00    -0.206 F 
ATOM     74  C   UNL A   1      48.152  33.426  27.171  1.00  0.00     0.060 A 
BRANCH  74  75
ATOM     75  S   UNL A   1      49.667  34.332  26.844  1.00  0.00     0.124 S 
ATOM     76  O   UNL A   1      49.569  35.431  27.810  1.00  0.00    -0.237 OA
ATOM     77  O   UNL A   1      50.671  33.318  27.135  1.00  0.00    -0.237 OA
ATOM     78  O   UNL A   1      49.546  34.708  25.444  1.00  0.00    -0.744 OA
ENDBRANCH  74  75
ENDBRANCH  53  67
BRANCH  54  79
ATOM     79  C   UNL A   1      48.913  25.572  32.212  1.00  0.00     0.058 A 
ATOM     80  C   UNL A   1      49.130  25.566  33.652  1.00  0.00     0.135 A 
ATOM     81  C   UNL A   1      49.990  24.988  31.537  1.00  0.00     0.135 A 
ATOM     82  F   UNL A   1      48.221  26.071  34.509  1.00  0.00    -0.206 F 
ATOM     83  C   UNL A   1      50.308  25.001  34.292  1.00  0.00     0.059 A 
ATOM     84  C   UNL A   1      51.120  24.403  32.137  1.00  0.00     0.059 A 
ATOM     85  F   UNL A   1      49.931  24.873  30.209  1.00  0.00    -0.206 F 
ATOM     86  C   UNL A   1      51.279  24.377  33.513  1.00  0.00     0.060 A 
BRANCH  86  87
ATOM     87  S   UNL A   1      52.664  23.409  34.232  1.00  0.00     0.124 S 
ATOM     88  O   UNL A   1      53.789  24.334  34.148  1.00  0.00    -0.237 OA
ATOM     89  O   UNL A   1      52.184  23.118  35.579  1.00  0.00    -0.237 OA
ATOM     90  O   UNL A   1      52.758  22.247  33.351  1.00  0.00    -0.744 OA
ENDBRANCH  86  87
ENDBRANCH  54  79
BRANCH  66  91
ATOM     91  C   UNL A   1      44.480  25.555  27.703  1.00  0.00     0.058 A 
ATOM     92  C   UNL A   1      43.455  24.823  28.364  1.00  0.00     0.135 A 
ATOM     93  C   UNL A   1      44.833  25.077  26.440  1.00  0.00     0.135 A 
ATOM     94  F   UNL A   1      42.837  25.315  29.450  1.00  0.00    -0.206 F 
ATOM     95  C   UNL A   1      42.960  23.599  27.867  1.00  0.00     0.059 A 
ATOM     96  C   UNL A   1      44.314  23.908  25.899  1.00  0.00     0.059 A 
ATOM     97  F   UNL A   1      45.636  25.813  25.657  1.00  0.00    -0.206 F 
ATOM     98  C   UNL A   1      43.412  23.145  26.631  1.00  0.00     0.060 A 
BRANCH  98  99
ATOM     99  S   UNL A   1      42.785  21.602  25.923  1.00  0.00     0.124 S 
ATOM    100  O   UNL A   1      43.749  21.347  24.843  1.00  0.00    -0.237 OA
ATOM    101  O   UNL A   1      42.864  20.683  27.057  1.00  0.00    -0.237 OA
ATOM    102  O   UNL A   1      41.445  21.940  25.490  1.00  0.00    -0.744 OA
ENDBRANCH  98  99
ENDBRANCH  66  91
ENDBRANCH  40  41
ENDBRANCH  33  35
ENDBRANCH  32  33
ENDBRANCH  31  32
ENDBRANCH  30  31
ENDBRANCH  29  30
ENDBRANCH  28  29
ENDBRANCH  27  28
ENDBRANCH  26  27
ENDBRANCH   1  26
TORSDOF 28
ENDMDL
MODEL 2
REMARK VINA RESULT:      -8.3      1.252      2.705
REMARK SMILES Cc1ccc(OCCn2ccnc2)c(/C=C/C(=O)OCCOCCOCCOCCOC(=O)c2ccc(-c3c4nc(c(-c5c(F)cc(S(=O)(=O)[O-])cc5F)c5ccc([nH]5)c(-c5c(F)cc(S(=O)(=O)[O-])cc5F)c5nc(c(-c6c(F)cc(S(=O)(=O)[O-])cc6F)c6ccc3[nH]6)C=C5)C=C4)cc2)n1
REMARK SMILES IDX 24 1 23 2 22 3 21 4 20 5 19 6 17 7 18 8 16 9 15 10 14 11
REMARK SMILES IDX 1 12 2 13 3 14 100 15 4 16 5 17 6 18 7 19 8 20 9 21 10 22
REMARK SMILES IDX 13 23 11 24 12 25 25 26 26 27 27 28 28 29 29 30 30 31 31 32
REMARK SMILES IDX 32 33 33 34 34 35 35 36 99 37 36 38 98 39 37 40 38 41 39 42
REMARK SMILES IDX 92 43 40 44 97 45 91 46 93 47 41 48 96 49 90 50 89 51 42 53
REMARK SMILES IDX 76 54 55 55 75 56 56 57 59 58 74 59 94 60 57 61 58 62 73 64
REMARK SMILES IDX 95 65 60 66 43 67 44 68 53 69 45 70 46 71 52 72 54 73 47 74
REMARK SMILES IDX 48 75 49 76 50 77 51 78 77 79 78 80 87 81 79 82 80 83 86 84
REMARK SMILES IDX 88 85 81 86 82 87 83 88 84 89 85 90 61 91 62 92 71 93 63 94
REMARK SMILES IDX 64 95 70 96 72 97 65 98 66 99 67 100 68 101 69 102
REMARK H PARENT 93 52 59 63
REMARK Flexibility Score: inf
ROOT
ATOM      1  C   UNL A   1      32.623  30.171  27.237  1.00  0.00     0.188 C 
ENDROOT
BRANCH   1   2
ATOM      2  C   UNL A   1      32.163  28.676  27.079  1.00  0.00     0.188 C 
BRANCH   2   3
ATOM      3  O   UNL A   1      31.414  28.071  26.034  1.00  0.00    -0.376 OA
BRANCH   3   4
ATOM      4  C   UNL A   1      31.976  27.862  24.745  1.00  0.00     0.202 C 
BRANCH   4   5
ATOM      5  C   UNL A   1      33.392  27.228  24.525  1.00  0.00     0.261 C 
BRANCH   5   6
ATOM      6  O   UNL A   1      33.825  26.796  23.204  1.00  0.00    -0.460 OA
BRANCH   6   7
ATOM      7  C   UNL A   1      33.103  25.775  22.609  1.00  0.00     0.330 C 
ATOM      8  O   UNL A   1      32.362  25.904  21.683  1.00  0.00    -0.247 OA
BRANCH   7   9
ATOM      9  C   UNL A   1      33.664  24.423  22.977  1.00  0.00     0.096 C 
ATOM     10  C   UNL A   1      33.392  23.708  24.074  1.00  0.00     0.040 C 
BRANCH  10  11
ATOM     11  C   UNL A   1      33.934  22.351  24.333  1.00  0.00     0.105 A 
ATOM     12  C   UNL A   1      32.522  18.927  24.362  1.00  0.00     0.067 C 
ATOM     13  C   UNL A   1      33.514  20.055  24.441  1.00  0.00     0.038 A 
ATOM     14  C   UNL A   1      34.787  19.813  24.936  1.00  0.00     0.027 A 
ATOM     15  N   UNL A   1      33.105  21.297  24.071  1.00  0.00    -0.250 NA
ATOM     16  C   UNL A   1      35.640  20.891  25.165  1.00  0.00     0.050 A 
ATOM     17  C   UNL A   1      35.179  22.192  24.964  1.00  0.00     0.145 A 
BRANCH  17  18
ATOM     18  O   UNL A   1      35.770  23.313  25.492  1.00  0.00    -0.489 OA
BRANCH  18  19
ATOM     19  C   UNL A   1      37.138  23.598  25.180  1.00  0.00     0.251 C 
BRANCH  19  20
ATOM     20  C   UNL A   1      38.067  23.884  26.382  1.00  0.00     0.164 C 
BRANCH  20  21
ATOM     21  N   UNL A   1      39.166  22.962  26.590  1.00  0.00    -0.334 N 
ATOM     22  C   UNL A   1      40.234  23.153  27.428  1.00  0.00     0.107 A 
ATOM     23  C   UNL A   1      39.304  21.720  26.037  1.00  0.00     0.199 A 
ATOM     24  C   UNL A   1      40.861  21.928  27.482  1.00  0.00     0.130 A 
ATOM     25  N   UNL A   1      40.292  21.053  26.595  1.00  0.00    -0.245 NA
ENDBRANCH  20  21
ENDBRANCH  19  20
ENDBRANCH  18  19
ENDBRANCH  17  18
ENDBRANCH  10  11
ENDBRANCH   7   9
ENDBRANCH   6   7
ENDBRANCH   5   6
ENDBRANCH   4   5
ENDBRANCH   3   4
ENDBRANCH   2   3
ENDBRANCH   1   2
BRANCH   1  26
ATOM     26  O   UNL A   1      33.968  30.533  27.382  1.00  0.00    -0.377 OA
BRANCH  26  27
ATOM     27  C   UNL A   1      34.187  31.853  27.796  1.00  0.00     0.188 C 
BRANCH  27  28
ATOM     28  C   UNL A   1      34.550  32.225  29.273  1.00  0.00     0.188 C 
BRANCH  28  29
ATOM     29  O   UNL A   1      35.609  31.753  30.097  1.00  0.00    -0.376 OA
BRANCH  29  30
ATOM     30  C   UNL A   1      35.593  31.911  31.508  1.00  0.00     0.202 C 
BRANCH  30  31
ATOM     31  C   UNL A   1      36.294  30.913  32.466  1.00  0.00     0.261 C 
BRANCH  31  32
ATOM     32  O   UNL A   1      37.701  31.040  32.729  1.00  0.00    -0.460 OA
BRANCH  32  33
ATOM     33  C   UNL A   1      38.568  30.629  31.763  1.00  0.00     0.338 C 
ATOM     34  O   UNL A   1      38.793  31.203  30.688  1.00  0.00    -0.246 OA
BRANCH  33  35
ATOM     35  C   UNL A   1      39.305  29.434  32.199  1.00  0.00     0.060 A 
ATOM     36  C   UNL A   1      40.165  29.493  33.306  1.00  0.00     0.016 A 
ATOM     37  C   UNL A   1      39.742  28.757  31.086  1.00  0.00     0.016 A 
ATOM     38  C   UNL A   1      41.585  29.387  33.040  1.00  0.00     0.010 A 
ATOM     39  C   UNL A   1      41.099  28.501  31.015  1.00  0.00     0.010 A 
ATOM     40  C   UNL A   1      42.080  29.269  31.663  1.00  0.00    -0.014 A 
BRANCH  40  41
ATOM     41  C   UNL A   1      43.597  28.838  31.006  1.00  0.00     0.031 A 
ATOM     42  C   UNL A   1      43.664  30.438  30.169  1.00  0.00     0.074 A 
ATOM     43  C   UNL A   1      44.585  27.582  31.169  1.00  0.00     0.049 A 
ATOM     44  N   UNL A   1      43.200  30.690  28.963  1.00  0.00    -0.248 NA
ATOM     45  C   UNL A   1      43.653  31.933  30.781  1.00  0.00     0.031 C 
ATOM     46  C   UNL A   1      44.718  26.132  32.000  1.00  0.00     0.029 A 
ATOM     47  N   UNL A   1      45.882  27.198  30.550  1.00  0.00    -0.354 N 
ATOM     48  C   UNL A   1      43.782  31.942  28.627  1.00  0.00     0.074 A 
ATOM     49  C   UNL A   1      43.707  32.772  29.739  1.00  0.00     0.031 C 
ATOM     50  C   UNL A   1      46.036  25.644  32.171  1.00  0.00     0.029 A 
ATOM     51  C   UNL A   1      46.923  26.339  31.284  1.00  0.00     0.049 A 
ATOM     52  H   UNL A   1      46.081  27.507  29.636  1.00  0.00     0.167 HD
ATOM     53  C   UNL A   1      44.855  31.957  27.810  1.00  0.00     0.037 A 
ATOM     54  C   UNL A   1      48.332  26.112  31.085  1.00  0.00     0.037 A 
ATOM     55  C   UNL A   1      44.842  30.697  27.139  1.00  0.00     0.049 A 
ATOM     56  C   UNL A   1      48.595  26.902  29.859  1.00  0.00     0.074 A 
ATOM     57  C   UNL A   1      43.870  30.031  26.416  1.00  0.00     0.029 A 
ATOM     58  N   UNL A   1      45.550  29.756  27.815  1.00  0.00    -0.354 N 
ATOM     59  N   UNL A   1      48.102  26.547  28.702  1.00  0.00    -0.248 NA
ATOM     60  C   UNL A   1      48.618  28.325  30.214  1.00  0.00     0.031 C 
ATOM     61  C   UNL A   1      44.019  28.651  26.714  1.00  0.00     0.029 A 
ATOM     62  C   UNL A   1      45.182  28.506  27.455  1.00  0.00     0.049 A 
ATOM     63  H   UNL A   1      46.245  29.959  28.483  1.00  0.00     0.167 HD
ATOM     64  C   UNL A   1      47.246  27.594  28.403  1.00  0.00     0.074 A 
ATOM     65  C   UNL A   1      47.642  28.697  29.372  1.00  0.00     0.031 C 
ATOM     66  C   UNL A   1      46.023  27.394  27.781  1.00  0.00     0.037 A 
BRANCH  53  67
ATOM     67  C   UNL A   1      46.119  32.763  28.029  1.00  0.00     0.058 A 
ATOM     68  C   UNL A   1      46.447  33.590  26.953  1.00  0.00     0.135 A 
ATOM     69  C   UNL A   1      47.102  32.667  29.060  1.00  0.00     0.135 A 
ATOM     70  F   UNL A   1      45.567  33.774  25.957  1.00  0.00    -0.206 F 
ATOM     71  C   UNL A   1      47.661  34.246  26.862  1.00  0.00     0.059 A 
ATOM     72  C   UNL A   1      48.300  33.383  29.026  1.00  0.00     0.059 A 
ATOM     73  F   UNL A   1      46.974  31.873  30.132  1.00  0.00    -0.206 F 
ATOM     74  C   UNL A   1      48.566  34.165  27.914  1.00  0.00     0.060 A 
BRANCH  74  75
ATOM     75  S   UNL A   1      50.028  35.203  27.832  1.00  0.00     0.124 S 
ATOM     76  O   UNL A   1      49.631  36.195  26.826  1.00  0.00    -0.237 OA
ATOM     77  O   UNL A   1      50.109  35.688  29.203  1.00  0.00    -0.237 OA
ATOM     78  O   UNL A   1      51.081  34.283  27.432  1.00  0.00    -0.744 OA
ENDBRANCH  74  75
ENDBRANCH  53  67
BRANCH  54  79
ATOM     79  C   UNL A   1      49.555  25.891  32.128  1.00  0.00     0.058 A 
ATOM     80  C   UNL A   1      49.795  26.283  33.510  1.00  0.00     0.135 A 
ATOM     81  C   UNL A   1      50.435  24.879  31.730  1.00  0.00     0.135 A 
ATOM     82  F   UNL A   1      49.062  27.237  34.115  1.00  0.00    -0.206 F 
ATOM     83  C   UNL A   1      50.807  25.674  34.361  1.00  0.00     0.059 A 
ATOM     84  C   UNL A   1      51.394  24.251  32.546  1.00  0.00     0.059 A 
ATOM     85  F   UNL A   1      50.319  24.373  30.501  1.00  0.00    -0.206 F 
ATOM     86  C   UNL A   1      51.571  24.619  33.870  1.00  0.00     0.060 A 
BRANCH  86  87
ATOM     87  S   UNL A   1      52.683  23.615  34.932  1.00  0.00     0.124 S 
ATOM     88  O   UNL A   1      53.990  24.222  34.705  1.00  0.00    -0.237 OA
ATOM     89  O   UNL A   1      52.117  23.811  36.263  1.00  0.00    -0.237 OA
ATOM     90  O   UNL A   1      52.533  22.264  34.396  1.00  0.00    -0.744 OA
ENDBRANCH  86  87
ENDBRANCH  54  79
BRANCH  66  91
ATOM     91  C   UNL A   1      45.561  26.046  27.228  1.00  0.00     0.058 A 
ATOM     92  C   UNL A   1      44.541  25.172  27.694  1.00  0.00     0.135 A 
ATOM     93  C   UNL A   1      46.080  25.738  25.970  1.00  0.00     0.135 A 
ATOM     94  F   UNL A   1      43.776  25.493  28.750  1.00  0.00    -0.206 F 
ATOM     95  C   UNL A   1      44.205  23.977  27.023  1.00  0.00     0.059 A 
ATOM     96  C   UNL A   1      45.720  24.601  25.258  1.00  0.00     0.059 A 
ATOM     97  F   UNL A   1      46.893  26.614  25.359  1.00  0.00    -0.206 F 
ATOM     98  C   UNL A   1      44.817  23.697  25.804  1.00  0.00     0.060 A 
BRANCH  98  99
ATOM     99  S   UNL A   1      44.399  22.200  24.878  1.00  0.00     0.124 S 
ATOM    100  O   UNL A   1      43.358  22.687  23.963  1.00  0.00    -0.237 OA
ATOM    101  O   UNL A   1      45.672  21.857  24.247  1.00  0.00    -0.237 OA
ATOM    102  O   UNL A   1      43.944  21.278  25.899  1.00  0.00    -0.744 OA
ENDBRANCH  98  99
ENDBRANCH  66  91
ENDBRANCH  40  41
ENDBRANCH  33  35
ENDBRANCH  32  33
ENDBRANCH  31  32
ENDBRANCH  30  31
ENDBRANCH  29  30
ENDBRANCH  28  29
ENDBRANCH  27  28
ENDBRANCH  26  27
ENDBRANCH   1  26
TORSDOF 28
ENDMDL
MODEL 3
REMARK VINA RESULT:      -8.1      4.560      8.266
REMARK SMILES Cc1ccc(OCCn2ccnc2)c(/C=C/C(=O)OCCOCCOCCOCCOC(=O)c2ccc(-c3c4nc(c(-c5c(F)cc(S(=O)(=O)[O-])cc5F)c5ccc([nH]5)c(-c5c(F)cc(S(=O)(=O)[O-])cc5F)c5nc(c(-c6c(F)cc(S(=O)(=O)[O-])cc6F)c6ccc3[nH]6)C=C5)C=C4)cc2)n1
REMARK SMILES IDX 24 1 23 2 22 3 21 4 20 5 19 6 17 7 18 8 16 9 15 10 14 11
REMARK SMILES IDX 1 12 2 13 3 14 100 15 4 16 5 17 6 18 7 19 8 20 9 21 10 22
REMARK SMILES IDX 13 23 11 24 12 25 25 26 26 27 27 28 28 29 29 30 30 31 31 32
REMARK SMILES IDX 32 33 33 34 34 35 35 36 99 37 36 38 98 39 37 40 38 41 39 42
REMARK SMILES IDX 92 43 40 44 97 45 91 46 93 47 41 48 96 49 90 50 89 51 42 53
REMARK SMILES IDX 76 54 55 55 75 56 56 57 59 58 74 59 94 60 57 61 58 62 73 64
REMARK SMILES IDX 95 65 60 66 43 67 44 68 53 69 45 70 46 71 52 72 54 73 47 74
REMARK SMILES IDX 48 75 49 76 50 77 51 78 77 79 78 80 87 81 79 82 80 83 86 84
REMARK SMILES IDX 88 85 81 86 82 87 83 88 84 89 85 90 61 91 62 92 71 93 63 94
REMARK SMILES IDX 64 95 70 96 72 97 65 98 66 99 67 100 68 101 69 102
REMARK H PARENT 93 52 59 63
REMARK Flexibility Score: inf
ROOT
ATOM      1  C   UNL A   1      32.041  29.298  27.035  1.00  0.00     0.188 C 
ENDROOT
BRANCH   1   2
ATOM      2  C   UNL A   1      32.897  28.115  26.454  1.00  0.00     0.188 C 
BRANCH   2   3
ATOM      3  O   UNL A   1      33.409  27.935  25.140  1.00  0.00    -0.376 OA
BRANCH   3   4
ATOM      4  C   UNL A   1      32.839  26.989  24.246  1.00  0.00     0.202 C 
BRANCH   4   5
ATOM      5  C   UNL A   1      31.535  26.184  24.576  1.00  0.00     0.261 C 
BRANCH   5   6
ATOM      6  O   UNL A   1      31.598  24.790  24.992  1.00  0.00    -0.460 OA
BRANCH   6   7
ATOM      7  C   UNL A   1      31.984  24.541  26.298  1.00  0.00     0.330 C 
ATOM      8  O   UNL A   1      31.271  24.604  27.252  1.00  0.00    -0.247 OA
BRANCH   7   9
ATOM      9  C   UNL A   1      33.286  23.777  26.345  1.00  0.00     0.096 C 
ATOM     10  C   UNL A   1      34.277  23.816  25.448  1.00  0.00     0.040 C 
BRANCH  10  11
ATOM     11  C   UNL A   1      35.559  23.085  25.600  1.00  0.00     0.105 A 
ATOM     12  C   UNL A   1      39.073  24.064  26.246  1.00  0.00     0.067 C 
ATOM     13  C   UNL A   1      37.857  23.211  26.012  1.00  0.00     0.038 A 
ATOM     14  C   UNL A   1      38.009  21.858  25.751  1.00  0.00     0.027 A 
ATOM     15  N   UNL A   1      36.639  23.815  26.011  1.00  0.00    -0.250 NA
ATOM     16  C   UNL A   1      36.896  21.112  25.368  1.00  0.00     0.050 A 
ATOM     17  C   UNL A   1      35.669  21.748  25.184  1.00  0.00     0.145 A 
BRANCH  17  18
ATOM     18  O   UNL A   1      34.622  21.219  24.471  1.00  0.00    -0.489 OA
BRANCH  18  19
ATOM     19  C   UNL A   1      33.729  20.302  25.113  1.00  0.00     0.251 C 
BRANCH  19  20
ATOM     20  C   UNL A   1      33.065  19.244  24.202  1.00  0.00     0.164 C 
BRANCH  20  21
ATOM     21  N   UNL A   1      33.374  17.856  24.480  1.00  0.00    -0.334 N 
ATOM     22  C   UNL A   1      32.700  17.035  25.346  1.00  0.00     0.107 A 
ATOM     23  C   UNL A   1      34.351  17.104  23.889  1.00  0.00     0.199 A 
ATOM     24  C   UNL A   1      33.187  15.774  25.085  1.00  0.00     0.130 A 
ATOM     25  N   UNL A   1      34.229  15.831  24.198  1.00  0.00    -0.245 NA
ENDBRANCH  20  21
ENDBRANCH  19  20
ENDBRANCH  18  19
ENDBRANCH  17  18
ENDBRANCH  10  11
ENDBRANCH   7   9
ENDBRANCH   6   7
ENDBRANCH   5   6
ENDBRANCH   4   5
ENDBRANCH   3   4
ENDBRANCH   2   3
ENDBRANCH   1   2
BRANCH   1  26
ATOM     26  O   UNL A   1      32.489  30.626  27.028  1.00  0.00    -0.377 OA
BRANCH  26  27
ATOM     27  C   UNL A   1      31.558  31.564  26.566  1.00  0.00     0.188 C 
BRANCH  27  28
ATOM     28  C   UNL A   1      31.709  33.101  26.826  1.00  0.00     0.188 C 
BRANCH  28  29
ATOM     29  O   UNL A   1      32.765  33.820  27.451  1.00  0.00    -0.376 OA
BRANCH  29  30
ATOM     30  C   UNL A   1      33.031  33.709  28.842  1.00  0.00     0.202 C 
BRANCH  30  31
ATOM     31  C   UNL A   1      34.289  34.332  29.501  1.00  0.00     0.261 C 
BRANCH  31  32
ATOM     32  O   UNL A   1      35.465  33.531  29.699  1.00  0.00    -0.460 OA
BRANCH  32  33
ATOM     33  C   UNL A   1      35.932  32.814  28.641  1.00  0.00     0.338 C 
ATOM     34  O   UNL A   1      36.012  33.207  27.468  1.00  0.00    -0.246 OA
BRANCH  33  35
ATOM     35  C   UNL A   1      36.440  31.506  29.081  1.00  0.00     0.060 A 
ATOM     36  C   UNL A   1      35.931  30.898  30.238  1.00  0.00     0.016 A 
ATOM     37  C   UNL A   1      37.800  31.477  28.890  1.00  0.00     0.016 A 
ATOM     38  C   UNL A   1      36.816  30.818  31.382  1.00  0.00     0.010 A 
ATOM     39  C   UNL A   1      38.570  31.173  29.997  1.00  0.00     0.010 A 
ATOM     40  C   UNL A   1      38.165  31.394  31.323  1.00  0.00    -0.014 A 
BRANCH  40  41
ATOM     41  C   UNL A   1      39.542  31.235  32.323  1.00  0.00     0.031 A 
ATOM     42  C   UNL A   1      38.844  32.472  33.441  1.00  0.00     0.074 A 
ATOM     43  C   UNL A   1      40.842  30.294  32.315  1.00  0.00     0.049 A 
ATOM     44  N   UNL A   1      39.038  33.772  33.360  1.00  0.00    -0.248 NA
ATOM     45  C   UNL A   1      37.461  32.456  34.277  1.00  0.00     0.031 C 
ATOM     46  C   UNL A   1      41.532  29.036  31.447  1.00  0.00     0.029 A 
ATOM     47  N   UNL A   1      42.058  30.202  33.167  1.00  0.00    -0.354 N 
ATOM     48  C   UNL A   1      38.591  34.263  34.616  1.00  0.00     0.074 A 
ATOM     49  C   UNL A   1      37.406  33.616  34.943  1.00  0.00     0.031 C 
ATOM     50  C   UNL A   1      42.440  28.222  32.166  1.00  0.00     0.029 A 
ATOM     51  C   UNL A   1      42.816  28.882  33.382  1.00  0.00     0.049 A 
ATOM     52  H   UNL A   1      42.389  31.016  33.610  1.00  0.00     0.167 HD
ATOM     53  C   UNL A   1      39.511  34.562  35.556  1.00  0.00     0.037 A 
ATOM     54  C   UNL A   1      43.765  28.440  34.372  1.00  0.00     0.037 A 
ATOM     55  C   UNL A   1      40.742  34.718  34.851  1.00  0.00     0.049 A 
ATOM     56  C   UNL A   1      43.938  29.662  35.193  1.00  0.00     0.074 A 
ATOM     57  C   UNL A   1      41.107  35.484  33.760  1.00  0.00     0.029 A 
ATOM     58  N   UNL A   1      41.426  33.547  34.761  1.00  0.00    -0.354 N 
ATOM     59  N   UNL A   1      44.528  30.725  34.714  1.00  0.00    -0.248 NA
ATOM     60  C   UNL A   1      42.752  29.830  36.039  1.00  0.00     0.031 C 
ATOM     61  C   UNL A   1      42.019  34.704  33.004  1.00  0.00     0.029 A 
ATOM     62  C   UNL A   1      42.321  33.573  33.748  1.00  0.00     0.049 A 
ATOM     63  H   UNL A   1      41.286  32.776  35.358  1.00  0.00     0.167 HD
ATOM     64  C   UNL A   1      43.509  31.663  34.711  1.00  0.00     0.074 A 
ATOM     65  C   UNL A   1      42.429  31.052  35.590  1.00  0.00     0.031 C 
ATOM     66  C   UNL A   1      43.366  32.596  33.697  1.00  0.00     0.037 A 
BRANCH  53  67
ATOM     67  C   UNL A   1      39.441  34.165  37.018  1.00  0.00     0.058 A 
ATOM     68  C   UNL A   1      39.448  35.253  37.893  1.00  0.00     0.135 A 
ATOM     69  C   UNL A   1      39.557  32.879  37.626  1.00  0.00     0.135 A 
ATOM     70  F   UNL A   1      39.301  36.499  37.414  1.00  0.00    -0.206 F 
ATOM     71  C   UNL A   1      39.599  35.107  39.259  1.00  0.00     0.059 A 
ATOM     72  C   UNL A   1      39.631  32.705  39.009  1.00  0.00     0.059 A 
ATOM     73  F   UNL A   1      39.627  31.735  36.929  1.00  0.00    -0.206 F 
ATOM     74  C   UNL A   1      39.656  33.833  39.812  1.00  0.00     0.060 A 
BRANCH  74  75
ATOM     75  S   UNL A   1      39.641  33.704  41.602  1.00  0.00     0.124 S 
ATOM     76  O   UNL A   1      39.971  32.288  41.800  1.00  0.00    -0.237 OA
ATOM     77  O   UNL A   1      40.683  34.654  41.964  1.00  0.00    -0.237 OA
ATOM     78  O   UNL A   1      38.286  34.094  41.962  1.00  0.00    -0.744 OA
ENDBRANCH  74  75
ENDBRANCH  53  67
BRANCH  54  79
ATOM     79  C   UNL A   1      44.000  27.001  35.085  1.00  0.00     0.058 A 
ATOM     80  C   UNL A   1      43.116  25.988  35.644  1.00  0.00     0.135 A 
ATOM     81  C   UNL A   1      45.283  26.488  34.867  1.00  0.00     0.135 A 
ATOM     82  F   UNL A   1      41.827  26.250  35.931  1.00  0.00    -0.206 F 
ATOM     83  C   UNL A   1      43.524  24.617  35.913  1.00  0.00     0.059 A 
ATOM     84  C   UNL A   1      45.687  25.158  35.084  1.00  0.00     0.059 A 
ATOM     85  F   UNL A   1      46.207  27.278  34.316  1.00  0.00    -0.206 F 
ATOM     86  C   UNL A   1      44.811  24.206  35.580  1.00  0.00     0.060 A 
BRANCH  86  87
ATOM     87  S   UNL A   1      45.343  22.449  35.632  1.00  0.00     0.124 S 
ATOM     88  O   UNL A   1      44.338  21.778  34.814  1.00  0.00    -0.237 OA
ATOM     89  O   UNL A   1      46.686  22.505  35.065  1.00  0.00    -0.237 OA
ATOM     90  O   UNL A   1      45.292  22.123  37.056  1.00  0.00    -0.744 OA
ENDBRANCH  86  87
ENDBRANCH  54  79
BRANCH  66  91
ATOM     91  C   UNL A   1      44.383  32.791  32.572  1.00  0.00     0.058 A 
ATOM     92  C   UNL A   1      44.296  32.444  31.195  1.00  0.00     0.135 A 
ATOM     93  C   UNL A   1      45.458  33.613  32.912  1.00  0.00     0.135 A 
ATOM     94  F   UNL A   1      43.185  31.890  30.685  1.00  0.00    -0.206 F 
ATOM     95  C   UNL A   1      45.319  32.750  30.273  1.00  0.00     0.059 A 
ATOM     96  C   UNL A   1      46.447  33.982  32.008  1.00  0.00     0.059 A 
ATOM     97  F   UNL A   1      45.510  34.159  34.137  1.00  0.00    -0.206 F 
ATOM     98  C   UNL A   1      46.402  33.514  30.701  1.00  0.00     0.060 A 
BRANCH  98  99
ATOM     99  S   UNL A   1      47.725  33.971  29.555  1.00  0.00     0.124 S 
ATOM    100  O   UNL A   1      48.563  34.844  30.389  1.00  0.00    -0.237 OA
ATOM    101  O   UNL A   1      48.314  32.675  29.223  1.00  0.00    -0.237 OA
ATOM    102  O   UNL A   1      47.030  34.633  28.470  1.00  0.00    -0.744 OA
ENDBRANCH  98  99
ENDBRANCH  66  91
ENDBRANCH  40  41
ENDBRANCH  33  35
ENDBRANCH  32  33
ENDBRANCH  31  32
ENDBRANCH  30  31
ENDBRANCH  29  30
ENDBRANCH  28  29
ENDBRANCH  27  28
ENDBRANCH  26  27
ENDBRANCH   1  26
TORSDOF 28
ENDMDL
