MODEL 1
REMARK VINA RESULT:      -7.8      0.000      0.000
REMARK SMILES CC[C@@H](C(=O)OCCOCCOCCOCCOC(=O)c1ccc(-c2c3nc(c(-c4c(F)cc(S(=O)(=O)[O-])cc4F)c4ccc([nH]4)c(-c4c(F)cc(S(=O)(=O)[O-])cc4F)c4nc(c(-c5c(F)cc(S(=O)(=O)[O-])cc5F)c5ccc2[nH]5)C=C4)C=C3)cc1)n1c(SCc2cccc(C(F)(F)F)c2)nc2ccncc21
REMARK SMILES IDX 11 1 10 2 9 3 8 4 7 5 6 6 4 7 5 8 3 9 2 10 1 11 87 12 88 13
REMARK SMILES IDX 107 14 101 15 102 16 106 17 103 18 105 19 104 20 89 21 90 22
REMARK SMILES IDX 91 23 92 24 100 25 93 26 95 27 94 28 96 29 97 30 98 31 99 32
REMARK SMILES IDX 12 33 13 34 14 35 15 36 16 37 17 38 18 39 19 40 20 41 21 42
REMARK SMILES IDX 22 43 86 44 23 45 85 46 24 47 25 48 26 49 79 50 27 51 84 52
REMARK SMILES IDX 78 53 80 54 28 55 83 56 77 57 76 58 29 60 63 61 42 62 62 63
REMARK SMILES IDX 43 64 46 65 61 66 81 67 44 68 45 69 60 71 82 72 47 73 30 74
REMARK SMILES IDX 31 75 40 76 32 77 33 78 39 79 41 80 34 81 35 82 36 83 37 84
REMARK SMILES IDX 38 85 64 86 65 87 74 88 66 89 67 90 73 91 75 92 68 93 69 94
REMARK SMILES IDX 70 95 71 96 72 97 48 98 49 99 58 100 50 101 51 102 57 103
REMARK SMILES IDX 59 104 52 105 53 106 54 107 55 108 56 109
REMARK H PARENT 80 59 46 70
REMARK Flexibility Score: inf
ROOT
ATOM      1  C   UNL A   1      39.707  28.023  28.851  1.00  0.00     0.188 C 
ENDROOT
BRANCH   1   2
ATOM      2  C   UNL A   1      40.874  29.009  28.710  1.00  0.00     0.188 C 
BRANCH   2   3
ATOM      3  O   UNL A   1      42.157  28.403  28.770  1.00  0.00    -0.376 OA
BRANCH   3   4
ATOM      4  C   UNL A   1      42.384  27.367  29.706  1.00  0.00     0.202 C 
BRANCH   4   5
ATOM      5  C   UNL A   1      43.276  26.175  29.290  1.00  0.00     0.261 C 
BRANCH   5   6
ATOM      6  O   UNL A   1      42.662  24.950  28.847  1.00  0.00    -0.462 OA
BRANCH   6   7
ATOM      7  C   UNL A   1      42.724  24.681  27.530  1.00  0.00     0.329 C 
ATOM      8  O   UNL A   1      41.935  25.169  26.732  1.00  0.00    -0.250 OA
BRANCH   7   9
ATOM      9  C   UNL A   1      43.780  23.661  27.134  1.00  0.00     0.199 C 
BRANCH   9  10
ATOM     10  C   UNL A   1      45.025  24.110  26.310  1.00  0.00     0.034 C 
ATOM     11  C   UNL A   1      46.402  23.767  26.872  1.00  0.00     0.007 C 
ENDBRANCH   9  10
BRANCH   9  12
ATOM     12  N   UNL A   1      43.120  22.420  26.643  1.00  0.00    -0.303 N 
ATOM     13  C   UNL A   1      42.038  21.764  27.244  1.00  0.00     0.170 A 
ATOM     14  C   UNL A   1      43.652  21.496  25.745  1.00  0.00     0.088 A 
ATOM     15  N   UNL A   1      42.199  20.462  27.149  1.00  0.00    -0.222 NA
ATOM     16  C   UNL A   1      43.074  20.287  26.123  1.00  0.00     0.093 A 
ATOM     17  C   UNL A   1      44.551  21.537  24.684  1.00  0.00     0.139 A 
ATOM     18  C   UNL A   1      43.373  19.107  25.446  1.00  0.00     0.051 A 
ATOM     19  N   UNL A   1      44.830  20.392  24.010  1.00  0.00    -0.262 NA
ATOM     20  C   UNL A   1      44.247  19.232  24.387  1.00  0.00     0.113 A 
BRANCH  13  21
ATOM     21  S   UNL A   1      40.389  22.286  27.442  1.00  0.00    -0.083 SA
BRANCH  21  22
ATOM     22  C   UNL A   1      39.474  22.585  25.944  1.00  0.00     0.113 C 
BRANCH  22  23
ATOM     23  C   UNL A   1      38.042  22.168  25.732  1.00  0.00    -0.037 A 
ATOM     24  C   UNL A   1      37.810  20.866  25.255  1.00  0.00     0.004 A 
ATOM     25  C   UNL A   1      36.947  23.025  25.810  1.00  0.00     0.017 A 
ATOM     26  C   UNL A   1      36.544  20.470  24.823  1.00  0.00     0.001 A 
ATOM     27  C   UNL A   1      35.707  22.697  25.240  1.00  0.00     0.056 A 
ATOM     28  C   UNL A   1      35.505  21.396  24.776  1.00  0.00     0.013 A 
BRANCH  27  29
ATOM     29  C   UNL A   1      34.654  23.761  25.039  1.00  0.00     0.416 C 
ATOM     30  F   UNL A   1      33.491  23.452  25.679  1.00  0.00    -0.166 F 
ATOM     31  F   UNL A   1      35.027  24.986  25.487  1.00  0.00    -0.166 F 
ATOM     32  F   UNL A   1      34.302  23.928  23.730  1.00  0.00    -0.166 F 
ENDBRANCH  27  29
ENDBRANCH  22  23
ENDBRANCH  21  22
ENDBRANCH  13  21
ENDBRANCH   9  12
ENDBRANCH   7   9
ENDBRANCH   6   7
ENDBRANCH   5   6
ENDBRANCH   4   5
ENDBRANCH   3   4
ENDBRANCH   2   3
ENDBRANCH   1   2
BRANCH   1  33
ATOM     33  O   UNL A   1      38.900  28.065  30.019  1.00  0.00    -0.377 OA
BRANCH  33  34
ATOM     34  C   UNL A   1      38.588  29.339  30.586  1.00  0.00     0.188 C 
BRANCH  34  35
ATOM     35  C   UNL A   1      37.174  29.569  31.166  1.00  0.00     0.188 C 
BRANCH  35  36
ATOM     36  O   UNL A   1      37.118  29.664  32.581  1.00  0.00    -0.376 OA
BRANCH  36  37
ATOM     37  C   UNL A   1      37.129  30.957  33.165  1.00  0.00     0.202 C 
BRANCH  37  38
ATOM     38  C   UNL A   1      37.872  31.144  34.499  1.00  0.00     0.261 C 
BRANCH  38  39
ATOM     39  O   UNL A   1      38.759  30.083  34.892  1.00  0.00    -0.460 OA
BRANCH  39  40
ATOM     40  C   UNL A   1      39.746  30.391  35.763  1.00  0.00     0.338 C 
ATOM     41  O   UNL A   1      39.634  30.944  36.836  1.00  0.00    -0.246 OA
BRANCH  40  42
ATOM     42  C   UNL A   1      40.983  29.736  35.286  1.00  0.00     0.060 A 
ATOM     43  C   UNL A   1      42.216  30.329  35.593  1.00  0.00     0.016 A 
ATOM     44  C   UNL A   1      40.924  28.561  34.535  1.00  0.00     0.016 A 
ATOM     45  C   UNL A   1      43.392  29.782  35.094  1.00  0.00     0.010 A 
ATOM     46  C   UNL A   1      42.102  28.032  34.003  1.00  0.00     0.010 A 
ATOM     47  C   UNL A   1      43.331  28.677  34.237  1.00  0.00    -0.014 A 
BRANCH  47  48
ATOM     48  C   UNL A   1      44.498  28.410  33.367  1.00  0.00     0.031 A 
ATOM     49  C   UNL A   1      45.446  27.318  33.793  1.00  0.00     0.074 A 
ATOM     50  C   UNL A   1      44.665  29.046  32.195  1.00  0.00     0.049 A 
ATOM     51  N   UNL A   1      46.518  26.868  33.197  1.00  0.00    -0.248 NA
ATOM     52  C   UNL A   1      45.136  26.641  35.065  1.00  0.00     0.031 C 
ATOM     53  C   UNL A   1      43.779  30.076  31.658  1.00  0.00     0.029 A 
ATOM     54  N   UNL A   1      45.640  28.906  31.242  1.00  0.00    -0.354 N 
ATOM     55  C   UNL A   1      47.009  25.860  34.020  1.00  0.00     0.074 A 
ATOM     56  C   UNL A   1      46.144  25.789  35.174  1.00  0.00     0.031 C 
ATOM     57  C   UNL A   1      44.258  30.483  30.468  1.00  0.00     0.029 A 
ATOM     58  C   UNL A   1      45.495  29.760  30.176  1.00  0.00     0.049 A 
ATOM     59  H   UNL A   1      46.376  28.256  31.314  1.00  0.00     0.167 HD
ATOM     60  C   UNL A   1      48.080  25.057  33.824  1.00  0.00     0.037 A 
ATOM     61  C   UNL A   1      46.283  29.942  29.097  1.00  0.00     0.037 A 
ATOM     62  C   UNL A   1      48.938  25.136  32.673  1.00  0.00     0.049 A 
ATOM     63  C   UNL A   1      47.512  29.082  28.934  1.00  0.00     0.074 A 
ATOM     64  C   UNL A   1      50.050  24.370  32.374  1.00  0.00     0.029 A 
ATOM     65  N   UNL A   1      48.783  26.043  31.634  1.00  0.00    -0.354 N 
ATOM     66  N   UNL A   1      47.960  28.124  29.712  1.00  0.00    -0.248 NA
ATOM     67  C   UNL A   1      48.334  29.321  27.741  1.00  0.00     0.031 C 
ATOM     68  C   UNL A   1      50.601  24.852  31.181  1.00  0.00     0.029 A 
ATOM     69  C   UNL A   1      49.793  25.872  30.703  1.00  0.00     0.049 A 
ATOM     70  H   UNL A   1      48.061  26.709  31.568  1.00  0.00     0.167 HD
ATOM     71  C   UNL A   1      49.099  27.625  29.086  1.00  0.00     0.074 A 
ATOM     72  C   UNL A   1      49.259  28.377  27.858  1.00  0.00     0.031 C 
ATOM     73  C   UNL A   1      49.934  26.631  29.484  1.00  0.00     0.037 A 
BRANCH  60  74
ATOM     74  C   UNL A   1      48.400  24.052  34.897  1.00  0.00     0.058 A 
ATOM     75  C   UNL A   1      47.734  22.818  34.985  1.00  0.00     0.135 A 
ATOM     76  C   UNL A   1      49.403  24.321  35.842  1.00  0.00     0.135 A 
ATOM     77  F   UNL A   1      46.748  22.518  34.124  1.00  0.00    -0.206 F 
ATOM     78  C   UNL A   1      48.034  21.899  35.986  1.00  0.00     0.059 A 
ATOM     79  C   UNL A   1      49.740  23.404  36.833  1.00  0.00     0.059 A 
ATOM     80  F   UNL A   1      50.065  25.489  35.811  1.00  0.00    -0.206 F 
ATOM     81  C   UNL A   1      49.041  22.201  36.905  1.00  0.00     0.060 A 
BRANCH  81  82
ATOM     82  S   UNL A   1      49.426  20.993  38.190  1.00  0.00     0.124 S 
ATOM     83  O   UNL A   1      48.095  20.667  38.692  1.00  0.00    -0.237 OA
ATOM     84  O   UNL A   1      50.095  19.939  37.435  1.00  0.00    -0.237 OA
ATOM     85  O   UNL A   1      50.278  21.738  39.112  1.00  0.00    -0.744 OA
ENDBRANCH  81  82
ENDBRANCH  60  74
BRANCH  61  86
ATOM     86  C   UNL A   1      45.942  30.985  28.091  1.00  0.00     0.058 A 
ATOM     87  C   UNL A   1      46.415  32.299  28.212  1.00  0.00     0.135 A 
ATOM     88  C   UNL A   1      45.124  30.686  26.989  1.00  0.00     0.135 A 
ATOM     89  F   UNL A   1      47.190  32.641  29.253  1.00  0.00    -0.206 F 
ATOM     90  C   UNL A   1      46.080  33.284  27.287  1.00  0.00     0.059 A 
ATOM     91  C   UNL A   1      44.799  31.644  26.035  1.00  0.00     0.059 A 
ATOM     92  F   UNL A   1      44.650  29.441  26.821  1.00  0.00    -0.206 F 
ATOM     93  C   UNL A   1      45.274  32.945  26.198  1.00  0.00     0.060 A 
BRANCH  93  94
ATOM     94  S   UNL A   1      44.890  34.215  24.974  1.00  0.00     0.124 S 
ATOM     95  O   UNL A   1      46.212  34.764  24.693  1.00  0.00    -0.237 OA
ATOM     96  O   UNL A   1      44.281  33.432  23.903  1.00  0.00    -0.237 OA
ATOM     97  O   UNL A   1      43.976  35.103  25.686  1.00  0.00    -0.744 OA
ENDBRANCH  93  94
ENDBRANCH  61  86
BRANCH  73  98
ATOM     98  C   UNL A   1      51.069  26.269  28.563  1.00  0.00     0.058 A 
ATOM     99  C   UNL A   1      50.885  25.450  27.439  1.00  0.00     0.135 A 
ATOM    100  C   UNL A   1      52.358  26.781  28.795  1.00  0.00     0.135 A 
ATOM    101  F   UNL A   1      49.674  24.934  27.170  1.00  0.00    -0.206 F 
ATOM    102  C   UNL A   1      51.944  25.115  26.601  1.00  0.00     0.059 A 
ATOM    103  C   UNL A   1      53.423  26.489  27.951  1.00  0.00     0.059 A 
ATOM    104  F   UNL A   1      52.589  27.585  29.845  1.00  0.00    -0.206 F 
ATOM    105  C   UNL A   1      53.211  25.638  26.867  1.00  0.00     0.060 A 
BRANCH 105 106
ATOM    106  S   UNL A   1      54.577  25.198  25.772  1.00  0.00     0.124 S 
ATOM    107  O   UNL A   1      55.106  26.513  25.421  1.00  0.00    -0.237 OA
ATOM    108  O   UNL A   1      55.423  24.386  26.640  1.00  0.00    -0.237 OA
ATOM    109  O   UNL A   1      53.924  24.474  24.686  1.00  0.00    -0.744 OA
ENDBRANCH 105 106
ENDBRANCH  73  98
ENDBRANCH  47  48
ENDBRANCH  40  42
ENDBRANCH  39  40
ENDBRANCH  38  39
ENDBRANCH  37  38
ENDBRANCH  36  37
ENDBRANCH  35  36
ENDBRANCH  34  35
ENDBRANCH  33  34
ENDBRANCH   1  33
TORSDOF 29
ENDMDL
MODEL 2
REMARK VINA RESULT:      -7.4      6.107      9.674
REMARK SMILES CC[C@@H](C(=O)OCCOCCOCCOCCOC(=O)c1ccc(-c2c3nc(c(-c4c(F)cc(S(=O)(=O)[O-])cc4F)c4ccc([nH]4)c(-c4c(F)cc(S(=O)(=O)[O-])cc4F)c4nc(c(-c5c(F)cc(S(=O)(=O)[O-])cc5F)c5ccc2[nH]5)C=C4)C=C3)cc1)n1c(SCc2cccc(C(F)(F)F)c2)nc2ccncc21
REMARK SMILES IDX 11 1 10 2 9 3 8 4 7 5 6 6 4 7 5 8 3 9 2 10 1 11 87 12 88 13
REMARK SMILES IDX 107 14 101 15 102 16 106 17 103 18 105 19 104 20 89 21 90 22
REMARK SMILES IDX 91 23 92 24 100 25 93 26 95 27 94 28 96 29 97 30 98 31 99 32
REMARK SMILES IDX 12 33 13 34 14 35 15 36 16 37 17 38 18 39 19 40 20 41 21 42
REMARK SMILES IDX 22 43 86 44 23 45 85 46 24 47 25 48 26 49 79 50 27 51 84 52
REMARK SMILES IDX 78 53 80 54 28 55 83 56 77 57 76 58 29 60 63 61 42 62 62 63
REMARK SMILES IDX 43 64 46 65 61 66 81 67 44 68 45 69 60 71 82 72 47 73 30 74
REMARK SMILES IDX 31 75 40 76 32 77 33 78 39 79 41 80 34 81 35 82 36 83 37 84
REMARK SMILES IDX 38 85 64 86 65 87 74 88 66 89 67 90 73 91 75 92 68 93 69 94
REMARK SMILES IDX 70 95 71 96 72 97 48 98 49 99 58 100 50 101 51 102 57 103
REMARK SMILES IDX 59 104 52 105 53 106 54 107 55 108 56 109
REMARK H PARENT 80 59 46 70
REMARK Flexibility Score: inf
ROOT
ATOM      1  C   UNL A   1      39.990  21.642  26.942  1.00  0.00     0.188 C 
ENDROOT
BRANCH   1   2
ATOM      2  C   UNL A   1      39.122  22.658  26.186  1.00  0.00     0.188 C 
BRANCH   2   3
ATOM      3  O   UNL A   1      37.827  22.183  25.852  1.00  0.00    -0.376 OA
BRANCH   3   4
ATOM      4  C   UNL A   1      37.031  22.931  24.954  1.00  0.00     0.202 C 
BRANCH   4   5
ATOM      5  C   UNL A   1      36.244  24.146  25.495  1.00  0.00     0.261 C 
BRANCH   5   6
ATOM      6  O   UNL A   1      34.866  24.323  25.119  1.00  0.00    -0.462 OA
BRANCH   6   7
ATOM      7  C   UNL A   1      34.557  24.116  23.827  1.00  0.00     0.329 C 
ATOM      8  O   UNL A   1      35.401  24.167  22.943  1.00  0.00    -0.250 OA
BRANCH   7   9
ATOM      9  C   UNL A   1      33.076  23.911  23.547  1.00  0.00     0.199 C 
BRANCH   9  10
ATOM     10  C   UNL A   1      32.622  23.199  22.237  1.00  0.00     0.034 C 
ATOM     11  C   UNL A   1      32.131  21.758  22.353  1.00  0.00     0.007 C 
ENDBRANCH   9  10
BRANCH   9  12
ATOM     12  N   UNL A   1      32.327  25.156  23.874  1.00  0.00    -0.303 N 
ATOM     13  C   UNL A   1      31.030  25.230  24.400  1.00  0.00     0.170 A 
ATOM     14  C   UNL A   1      32.598  26.437  23.395  1.00  0.00     0.088 A 
ATOM     15  N   UNL A   1      30.383  26.235  23.851  1.00  0.00    -0.222 NA
ATOM     16  C   UNL A   1      31.352  27.058  23.367  1.00  0.00     0.093 A 
ATOM     17  C   UNL A   1      33.730  27.129  22.976  1.00  0.00     0.139 A 
ATOM     18  C   UNL A   1      31.217  28.374  22.933  1.00  0.00     0.051 A 
ATOM     19  N   UNL A   1      33.605  28.418  22.570  1.00  0.00    -0.262 NA
ATOM     20  C   UNL A   1      32.386  29.004  22.564  1.00  0.00     0.113 A 
BRANCH  13  21
ATOM     21  S   UNL A   1      30.432  24.738  25.959  1.00  0.00    -0.083 SA
BRANCH  21  22
ATOM     22  C   UNL A   1      30.556  23.002  26.337  1.00  0.00     0.113 C 
BRANCH  22  23
ATOM     23  C   UNL A   1      31.850  22.296  26.647  1.00  0.00    -0.037 A 
ATOM     24  C   UNL A   1      32.594  22.758  27.746  1.00  0.00     0.004 A 
ATOM     25  C   UNL A   1      32.445  21.337  25.830  1.00  0.00     0.017 A 
ATOM     26  C   UNL A   1      33.898  22.317  27.973  1.00  0.00     0.001 A 
ATOM     27  C   UNL A   1      33.801  20.998  25.952  1.00  0.00     0.056 A 
ATOM     28  C   UNL A   1      34.514  21.471  27.055  1.00  0.00     0.013 A 
BRANCH  27  29
ATOM     29  C   UNL A   1      34.496  20.224  24.857  1.00  0.00     0.416 C 
ATOM     30  F   UNL A   1      35.682  19.701  25.278  1.00  0.00    -0.166 F 
ATOM     31  F   UNL A   1      33.765  19.185  24.378  1.00  0.00    -0.166 F 
ATOM     32  F   UNL A   1      34.814  20.994  23.774  1.00  0.00    -0.166 F 
ENDBRANCH  27  29
ENDBRANCH  22  23
ENDBRANCH  21  22
ENDBRANCH  13  21
ENDBRANCH   9  12
ENDBRANCH   7   9
ENDBRANCH   6   7
ENDBRANCH   5   6
ENDBRANCH   4   5
ENDBRANCH   3   4
ENDBRANCH   2   3
ENDBRANCH   1   2
BRANCH   1  33
ATOM     33  O   UNL A   1      40.396  20.451  26.283  1.00  0.00    -0.377 OA
BRANCH  33  34
ATOM     34  C   UNL A   1      41.766  20.058  26.371  1.00  0.00     0.188 C 
BRANCH  34  35
ATOM     35  C   UNL A   1      42.859  21.148  26.276  1.00  0.00     0.188 C 
BRANCH  35  36
ATOM     36  O   UNL A   1      43.490  21.252  25.009  1.00  0.00    -0.376 OA
BRANCH  36  37
ATOM     37  C   UNL A   1      44.664  20.488  24.782  1.00  0.00     0.202 C 
BRANCH  37  38
ATOM     38  C   UNL A   1      46.025  21.147  25.063  1.00  0.00     0.261 C 
BRANCH  38  39
ATOM     39  O   UNL A   1      45.993  22.434  25.701  1.00  0.00    -0.460 OA
BRANCH  39  40
ATOM     40  C   UNL A   1      46.048  23.524  24.903  1.00  0.00     0.338 C 
ATOM     41  O   UNL A   1      45.283  23.821  24.011  1.00  0.00    -0.246 OA
BRANCH  40  42
ATOM     42  C   UNL A   1      47.087  24.423  25.446  1.00  0.00     0.060 A 
ATOM     43  C   UNL A   1      47.219  24.532  26.838  1.00  0.00     0.016 A 
ATOM     44  C   UNL A   1      47.910  25.160  24.593  1.00  0.00     0.016 A 
ATOM     45  C   UNL A   1      48.133  25.428  27.381  1.00  0.00     0.010 A 
ATOM     46  C   UNL A   1      48.803  26.086  25.138  1.00  0.00     0.010 A 
ATOM     47  C   UNL A   1      48.872  26.260  26.532  1.00  0.00    -0.014 A 
BRANCH  47  48
ATOM     48  C   UNL A   1      49.463  27.488  27.110  1.00  0.00     0.031 A 
ATOM     49  C   UNL A   1      50.886  27.409  27.599  1.00  0.00     0.074 A 
ATOM     50  C   UNL A   1      48.798  28.655  27.115  1.00  0.00     0.049 A 
ATOM     51  N   UNL A   1      51.642  28.344  28.112  1.00  0.00    -0.248 NA
ATOM     52  C   UNL A   1      51.546  26.097  27.489  1.00  0.00     0.031 C 
ATOM     53  C   UNL A   1      47.440  28.858  26.615  1.00  0.00     0.029 A 
ATOM     54  N   UNL A   1      49.186  29.894  27.555  1.00  0.00    -0.354 N 
ATOM     55  C   UNL A   1      52.860  27.732  28.387  1.00  0.00     0.074 A 
ATOM     56  C   UNL A   1      52.734  26.341  28.021  1.00  0.00     0.031 C 
ATOM     57  C   UNL A   1      47.104  30.150  26.783  1.00  0.00     0.029 A 
ATOM     58  C   UNL A   1      48.213  30.855  27.425  1.00  0.00     0.049 A 
ATOM     59  H   UNL A   1      50.078  30.079  27.929  1.00  0.00     0.167 HD
ATOM     60  C   UNL A   1      53.989  28.284  28.889  1.00  0.00     0.037 A 
ATOM     61  C   UNL A   1      48.217  32.151  27.798  1.00  0.00     0.037 A 
ATOM     62  C   UNL A   1      54.105  29.670  29.253  1.00  0.00     0.049 A 
ATOM     63  C   UNL A   1      49.465  32.729  28.421  1.00  0.00     0.074 A 
ATOM     64  C   UNL A   1      55.202  30.335  29.771  1.00  0.00     0.029 A 
ATOM     65  N   UNL A   1      53.084  30.604  29.146  1.00  0.00    -0.354 N 
ATOM     66  N   UNL A   1      50.615  32.144  28.665  1.00  0.00    -0.248 NA
ATOM     67  C   UNL A   1      49.417  34.145  28.808  1.00  0.00     0.031 C 
ATOM     68  C   UNL A   1      54.827  31.658  30.030  1.00  0.00     0.029 A 
ATOM     69  C   UNL A   1      53.517  31.834  29.610  1.00  0.00     0.049 A 
ATOM     70  H   UNL A   1      52.184  30.418  28.793  1.00  0.00     0.167 HD
ATOM     71  C   UNL A   1      51.437  33.129  29.204  1.00  0.00     0.074 A 
ATOM     72  C   UNL A   1      50.656  34.349  29.234  1.00  0.00     0.031 C 
ATOM     73  C   UNL A   1      52.724  33.038  29.630  1.00  0.00     0.037 A 
BRANCH  60  74
ATOM     74  C   UNL A   1      55.169  27.377  29.106  1.00  0.00     0.058 A 
ATOM     75  C   UNL A   1      55.351  26.663  30.302  1.00  0.00     0.135 A 
ATOM     76  C   UNL A   1      56.125  27.206  28.092  1.00  0.00     0.135 A 
ATOM     77  F   UNL A   1      54.482  26.808  31.315  1.00  0.00    -0.206 F 
ATOM     78  C   UNL A   1      56.451  25.832  30.493  1.00  0.00     0.059 A 
ATOM     79  C   UNL A   1      57.216  26.357  28.250  1.00  0.00     0.059 A 
ATOM     80  F   UNL A   1      56.007  27.872  26.931  1.00  0.00    -0.206 F 
ATOM     81  C   UNL A   1      57.377  25.684  29.459  1.00  0.00     0.060 A 
BRANCH  81  82
ATOM     82  S   UNL A   1      58.792  24.593  29.719  1.00  0.00     0.124 S 
ATOM     83  O   UNL A   1      58.173  23.476  30.426  1.00  0.00    -0.237 OA
ATOM     84  O   UNL A   1      59.225  24.316  28.353  1.00  0.00    -0.237 OA
ATOM     85  O   UNL A   1      59.708  25.407  30.511  1.00  0.00    -0.744 OA
ENDBRANCH  81  82
ENDBRANCH  60  74
BRANCH  61  86
ATOM     86  C   UNL A   1      47.003  32.988  27.602  1.00  0.00     0.058 A 
ATOM     87  C   UNL A   1      45.941  32.961  28.518  1.00  0.00     0.135 A 
ATOM     88  C   UNL A   1      46.878  33.830  26.485  1.00  0.00     0.135 A 
ATOM     89  F   UNL A   1      46.005  32.166  29.596  1.00  0.00    -0.206 F 
ATOM     90  C   UNL A   1      44.793  33.725  28.326  1.00  0.00     0.059 A 
ATOM     91  C   UNL A   1      45.754  34.625  26.286  1.00  0.00     0.059 A 
ATOM     92  F   UNL A   1      47.869  33.901  25.581  1.00  0.00    -0.206 F 
ATOM     93  C   UNL A   1      44.712  34.559  27.209  1.00  0.00     0.060 A 
BRANCH  93  94
ATOM     94  S   UNL A   1      43.242  35.586  26.999  1.00  0.00     0.124 S 
ATOM     95  O   UNL A   1      43.807  36.929  27.078  1.00  0.00    -0.237 OA
ATOM     96  O   UNL A   1      42.765  35.169  25.684  1.00  0.00    -0.237 OA
ATOM     97  O   UNL A   1      42.392  35.191  28.118  1.00  0.00    -0.744 OA
ENDBRANCH  93  94
ENDBRANCH  61  86
BRANCH  73  98
ATOM     98  C   UNL A   1      53.381  34.300  30.123  1.00  0.00     0.058 A 
ATOM     99  C   UNL A   1      54.057  35.175  29.259  1.00  0.00     0.135 A 
ATOM    100  C   UNL A   1      53.302  34.654  31.482  1.00  0.00     0.135 A 
ATOM    101  F   UNL A   1      54.162  34.887  27.951  1.00  0.00    -0.206 F 
ATOM    102  C   UNL A   1      54.668  36.333  29.729  1.00  0.00     0.059 A 
ATOM    103  C   UNL A   1      53.875  35.824  31.967  1.00  0.00     0.059 A 
ATOM    104  F   UNL A   1      52.653  33.863  32.351  1.00  0.00    -0.206 F 
ATOM    105  C   UNL A   1      54.574  36.648  31.085  1.00  0.00     0.060 A 
BRANCH 105 106
ATOM    106  S   UNL A   1      55.371  38.154  31.683  1.00  0.00     0.124 S 
ATOM    107  O   UNL A   1      56.387  37.611  32.580  1.00  0.00    -0.237 OA
ATOM    108  O   UNL A   1      55.868  38.754  30.450  1.00  0.00    -0.237 OA
ATOM    109  O   UNL A   1      54.284  38.879  32.334  1.00  0.00    -0.744 OA
ENDBRANCH 105 106
ENDBRANCH  73  98
ENDBRANCH  47  48
ENDBRANCH  40  42
ENDBRANCH  39  40
ENDBRANCH  38  39
ENDBRANCH  37  38
ENDBRANCH  36  37
ENDBRANCH  35  36
ENDBRANCH  34  35
ENDBRANCH  33  34
ENDBRANCH   1  33
TORSDOF 29
ENDMDL
MODEL 3
REMARK VINA RESULT:      -7.4      4.647      9.531
REMARK SMILES CC[C@@H](C(=O)OCCOCCOCCOCCOC(=O)c1ccc(-c2c3nc(c(-c4c(F)cc(S(=O)(=O)[O-])cc4F)c4ccc([nH]4)c(-c4c(F)cc(S(=O)(=O)[O-])cc4F)c4nc(c(-c5c(F)cc(S(=O)(=O)[O-])cc5F)c5ccc2[nH]5)C=C4)C=C3)cc1)n1c(SCc2cccc(C(F)(F)F)c2)nc2ccncc21
REMARK SMILES IDX 11 1 10 2 9 3 8 4 7 5 6 6 4 7 5 8 3 9 2 10 1 11 87 12 88 13
REMARK SMILES IDX 107 14 101 15 102 16 106 17 103 18 105 19 104 20 89 21 90 22
REMARK SMILES IDX 91 23 92 24 100 25 93 26 95 27 94 28 96 29 97 30 98 31 99 32
REMARK SMILES IDX 12 33 13 34 14 35 15 36 16 37 17 38 18 39 19 40 20 41 21 42
REMARK SMILES IDX 22 43 86 44 23 45 85 46 24 47 25 48 26 49 79 50 27 51 84 52
REMARK SMILES IDX 78 53 80 54 28 55 83 56 77 57 76 58 29 60 63 61 42 62 62 63
REMARK SMILES IDX 43 64 46 65 61 66 81 67 44 68 45 69 60 71 82 72 47 73 30 74
REMARK SMILES IDX 31 75 40 76 32 77 33 78 39 79 41 80 34 81 35 82 36 83 37 84
REMARK SMILES IDX 38 85 64 86 65 87 74 88 66 89 67 90 73 91 75 92 68 93 69 94
REMARK SMILES IDX 70 95 71 96 72 97 48 98 49 99 58 100 50 101 51 102 57 103
REMARK SMILES IDX 59 104 52 105 53 106 54 107 55 108 56 109
REMARK H PARENT 80 59 46 70
REMARK Flexibility Score: inf
ROOT
ATOM      1  C   UNL A   1      40.164  21.897  26.917  1.00  0.00     0.188 C 
ENDROOT
BRANCH   1   2
ATOM      2  C   UNL A   1      39.122  22.845  26.307  1.00  0.00     0.188 C 
BRANCH   2   3
ATOM      3  O   UNL A   1      37.898  22.216  25.958  1.00  0.00    -0.376 OA
BRANCH   3   4
ATOM      4  C   UNL A   1      37.099  22.787  24.940  1.00  0.00     0.202 C 
BRANCH   4   5
ATOM      5  C   UNL A   1      36.308  24.077  25.254  1.00  0.00     0.261 C 
BRANCH   5   6
ATOM      6  O   UNL A   1      34.890  24.119  25.005  1.00  0.00    -0.462 OA
BRANCH   6   7
ATOM      7  C   UNL A   1      34.494  23.998  23.724  1.00  0.00     0.329 C 
ATOM      8  O   UNL A   1      35.287  24.054  22.794  1.00  0.00    -0.250 OA
BRANCH   7   9
ATOM      9  C   UNL A   1      32.991  23.883  23.527  1.00  0.00     0.199 C 
BRANCH   9  10
ATOM     10  C   UNL A   1      32.424  23.208  22.242  1.00  0.00     0.034 C 
ATOM     11  C   UNL A   1      32.173  21.703  22.291  1.00  0.00     0.007 C 
ENDBRANCH   9  10
BRANCH   9  12
ATOM     12  N   UNL A   1      32.337  25.169  23.897  1.00  0.00    -0.303 N 
ATOM     13  C   UNL A   1      31.071  25.318  24.481  1.00  0.00     0.170 A 
ATOM     14  C   UNL A   1      32.668  26.436  23.420  1.00  0.00     0.088 A 
ATOM     15  N   UNL A   1      30.467  26.368  23.969  1.00  0.00    -0.222 NA
ATOM     16  C   UNL A   1      31.464  27.134  23.452  1.00  0.00     0.093 A 
ATOM     17  C   UNL A   1      33.823  27.060  22.959  1.00  0.00     0.139 A 
ATOM     18  C   UNL A   1      31.393  28.462  23.038  1.00  0.00     0.051 A 
ATOM     19  N   UNL A   1      33.762  28.360  22.571  1.00  0.00    -0.262 NA
ATOM     20  C   UNL A   1      32.584  29.021  22.624  1.00  0.00     0.113 A 
BRANCH  13  21
ATOM     21  S   UNL A   1      30.511  24.845  26.060  1.00  0.00    -0.083 SA
BRANCH  21  22
ATOM     22  C   UNL A   1      30.579  23.104  26.430  1.00  0.00     0.113 C 
BRANCH  22  23
ATOM     23  C   UNL A   1      31.855  22.350  26.702  1.00  0.00    -0.037 A 
ATOM     24  C   UNL A   1      32.644  22.779  27.783  1.00  0.00     0.004 A 
ATOM     25  C   UNL A   1      32.390  21.372  25.867  1.00  0.00     0.017 A 
ATOM     26  C   UNL A   1      33.936  22.289  27.973  1.00  0.00     0.001 A 
ATOM     27  C   UNL A   1      33.736  20.982  25.952  1.00  0.00     0.056 A 
ATOM     28  C   UNL A   1      34.495  21.424  27.037  1.00  0.00     0.013 A 
BRANCH  27  29
ATOM     29  C   UNL A   1      34.372  20.187  24.836  1.00  0.00     0.416 C 
ATOM     30  F   UNL A   1      35.487  19.525  25.255  1.00  0.00    -0.166 F 
ATOM     31  F   UNL A   1      33.548  19.254  24.296  1.00  0.00    -0.166 F 
ATOM     32  F   UNL A   1      34.794  20.966  23.795  1.00  0.00    -0.166 F 
ENDBRANCH  27  29
ENDBRANCH  22  23
ENDBRANCH  21  22
ENDBRANCH  13  21
ENDBRANCH   9  12
ENDBRANCH   7   9
ENDBRANCH   6   7
ENDBRANCH   5   6
ENDBRANCH   4   5
ENDBRANCH   3   4
ENDBRANCH   2   3
ENDBRANCH   1   2
BRANCH   1  33
ATOM     33  O   UNL A   1      40.806  20.943  26.083  1.00  0.00    -0.377 OA
BRANCH  33  34
ATOM     34  C   UNL A   1      42.226  21.008  25.944  1.00  0.00     0.188 C 
BRANCH  34  35
ATOM     35  C   UNL A   1      42.906  22.396  25.899  1.00  0.00     0.188 C 
BRANCH  35  36
ATOM     36  O   UNL A   1      43.156  22.897  24.595  1.00  0.00    -0.376 OA
BRANCH  36  37
ATOM     37  C   UNL A   1      44.297  22.416  23.902  1.00  0.00     0.202 C 
BRANCH  37  38
ATOM     38  C   UNL A   1      45.685  22.707  24.500  1.00  0.00     0.261 C 
BRANCH  38  39
ATOM     39  O   UNL A   1      45.707  23.407  25.754  1.00  0.00    -0.460 OA
BRANCH  39  40
ATOM     40  C   UNL A   1      46.066  24.710  25.731  1.00  0.00     0.338 C 
ATOM     41  O   UNL A   1      46.219  25.413  24.755  1.00  0.00    -0.246 OA
BRANCH  40  42
ATOM     42  C   UNL A   1      46.029  25.209  27.122  1.00  0.00     0.060 A 
ATOM     43  C   UNL A   1      44.854  25.032  27.867  1.00  0.00     0.016 A 
ATOM     44  C   UNL A   1      47.134  25.855  27.678  1.00  0.00     0.016 A 
ATOM     45  C   UNL A   1      44.759  25.558  29.149  1.00  0.00     0.010 A 
ATOM     46  C   UNL A   1      47.026  26.416  28.953  1.00  0.00     0.010 A 
ATOM     47  C   UNL A   1      45.817  26.315  29.665  1.00  0.00    -0.014 A 
BRANCH  47  48
ATOM     48  C   UNL A   1      45.528  27.233  30.790  1.00  0.00     0.031 A 
ATOM     49  C   UNL A   1      45.694  26.693  32.187  1.00  0.00     0.074 A 
ATOM     50  C   UNL A   1      45.220  28.525  30.584  1.00  0.00     0.049 A 
ATOM     51  N   UNL A   1      45.538  27.296  33.336  1.00  0.00    -0.248 NA
ATOM     52  C   UNL A   1      46.097  25.280  32.300  1.00  0.00     0.031 C 
ATOM     53  C   UNL A   1      45.090  29.167  29.278  1.00  0.00     0.029 A 
ATOM     54  N   UNL A   1      44.968  29.529  31.482  1.00  0.00    -0.354 N 
ATOM     55  C   UNL A   1      45.819  26.337  34.303  1.00  0.00     0.074 A 
ATOM     56  C   UNL A   1      46.119  25.105  33.612  1.00  0.00     0.031 C 
ATOM     57  C   UNL A   1      44.773  30.462  29.461  1.00  0.00     0.029 A 
ATOM     58  C   UNL A   1      44.655  30.730  30.894  1.00  0.00     0.049 A 
ATOM     59  H   UNL A   1      45.008  29.403  32.459  1.00  0.00     0.167 HD
ATOM     60  C   UNL A   1      45.838  26.476  35.649  1.00  0.00     0.037 A 
ATOM     61  C   UNL A   1      44.299  31.904  31.452  1.00  0.00     0.037 A 
ATOM     62  C   UNL A   1      45.536  27.706  36.329  1.00  0.00     0.049 A 
ATOM     63  C   UNL A   1      44.259  32.016  32.957  1.00  0.00     0.074 A 
ATOM     64  C   UNL A   1      45.526  27.958  37.689  1.00  0.00     0.029 A 
ATOM     65  N   UNL A   1      45.182  28.890  35.699  1.00  0.00    -0.354 N 
ATOM     66  N   UNL A   1      44.538  31.107  33.862  1.00  0.00    -0.248 NA
ATOM     67  C   UNL A   1      43.866  33.317  33.514  1.00  0.00     0.031 C 
ATOM     68  C   UNL A   1      45.110  29.279  37.884  1.00  0.00     0.029 A 
ATOM     69  C   UNL A   1      44.928  29.871  36.643  1.00  0.00     0.049 A 
ATOM     70  H   UNL A   1      45.120  29.015  34.724  1.00  0.00     0.167 HD
ATOM     71  C   UNL A   1      44.387  31.736  35.095  1.00  0.00     0.074 A 
ATOM     72  C   UNL A   1      44.006  33.105  34.816  1.00  0.00     0.031 C 
ATOM     73  C   UNL A   1      44.552  31.231  36.345  1.00  0.00     0.037 A 
BRANCH  60  74
ATOM     74  C   UNL A   1      46.161  25.256  36.468  1.00  0.00     0.058 A 
ATOM     75  C   UNL A   1      45.159  24.409  36.971  1.00  0.00     0.135 A 
ATOM     76  C   UNL A   1      47.497  24.919  36.739  1.00  0.00     0.135 A 
ATOM     77  F   UNL A   1      43.864  24.697  36.765  1.00  0.00    -0.206 F 
ATOM     78  C   UNL A   1      45.469  23.287  37.734  1.00  0.00     0.059 A 
ATOM     79  C   UNL A   1      47.831  23.785  37.473  1.00  0.00     0.059 A 
ATOM     80  F   UNL A   1      48.495  25.697  36.291  1.00  0.00    -0.206 F 
ATOM     81  C   UNL A   1      46.810  22.983  37.977  1.00  0.00     0.060 A 
BRANCH  81  82
ATOM     82  S   UNL A   1      47.196  21.517  38.958  1.00  0.00     0.124 S 
ATOM     83  O   UNL A   1      45.862  21.014  39.270  1.00  0.00    -0.237 OA
ATOM     84  O   UNL A   1      47.974  20.712  38.020  1.00  0.00    -0.237 OA
ATOM     85  O   UNL A   1      47.945  22.053  40.090  1.00  0.00    -0.744 OA
ENDBRANCH  81  82
ENDBRANCH  60  74
BRANCH  61  86
ATOM     86  C   UNL A   1      43.945  33.064  30.591  1.00  0.00     0.058 A 
ATOM     87  C   UNL A   1      44.925  33.946  30.112  1.00  0.00     0.135 A 
ATOM     88  C   UNL A   1      42.610  33.318  30.234  1.00  0.00     0.135 A 
ATOM     89  F   UNL A   1      46.214  33.755  30.433  1.00  0.00    -0.206 F 
ATOM     90  C   UNL A   1      44.595  35.046  29.325  1.00  0.00     0.059 A 
ATOM     91  C   UNL A   1      42.259  34.393  29.424  1.00  0.00     0.059 A 
ATOM     92  F   UNL A   1      41.633  32.501  30.657  1.00  0.00    -0.206 F 
ATOM     93  C   UNL A   1      43.259  35.258  28.982  1.00  0.00     0.060 A 
BRANCH  93  94
ATOM     94  S   UNL A   1      42.848  36.656  27.915  1.00  0.00     0.124 S 
ATOM     95  O   UNL A   1      41.567  36.236  27.359  1.00  0.00    -0.237 OA
ATOM     96  O   UNL A   1      42.801  37.761  28.868  1.00  0.00    -0.237 OA
ATOM     97  O   UNL A   1      43.962  36.699  26.973  1.00  0.00    -0.744 OA
ENDBRANCH  93  94
ENDBRANCH  61  86
BRANCH  73  98
ATOM     98  C   UNL A   1      44.366  32.174  37.503  1.00  0.00     0.058 A 
ATOM     99  C   UNL A   1      45.420  32.954  38.006  1.00  0.00     0.135 A 
ATOM    100  C   UNL A   1      43.101  32.324  38.098  1.00  0.00     0.135 A 
ATOM    101  F   UNL A   1      46.649  32.852  37.475  1.00  0.00    -0.206 F 
ATOM    102  C   UNL A   1      45.238  33.815  39.083  1.00  0.00     0.059 A 
ATOM    103  C   UNL A   1      42.888  33.205  39.152  1.00  0.00     0.059 A 
ATOM    104  F   UNL A   1      42.053  31.617  37.646  1.00  0.00    -0.206 F 
ATOM    105  C   UNL A   1      43.968  33.931  39.652  1.00  0.00     0.060 A 
BRANCH 105 106
ATOM    106  S   UNL A   1      43.743  35.053  41.048  1.00  0.00     0.124 S 
ATOM    107  O   UNL A   1      42.288  35.118  41.140  1.00  0.00    -0.237 OA
ATOM    108  O   UNL A   1      44.416  34.343  42.130  1.00  0.00    -0.237 OA
ATOM    109  O   UNL A   1      44.399  36.281  40.608  1.00  0.00    -0.744 OA
ENDBRANCH 105 106
ENDBRANCH  73  98
ENDBRANCH  47  48
ENDBRANCH  40  42
ENDBRANCH  39  40
ENDBRANCH  38  39
ENDBRANCH  37  38
ENDBRANCH  36  37
ENDBRANCH  35  36
ENDBRANCH  34  35
ENDBRANCH  33  34
ENDBRANCH   1  33
TORSDOF 29
ENDMDL
