MODEL 1
REMARK VINA RESULT:      -7.9      0.000      0.000
REMARK SMILES CCC(CC)([NH2+]CC(=O)Nc1ccc(C)cc1)C(=O)OCCOCCOCCOCCOC(=O)c1ccc(-c2c3nc(c(-c4c(F)cc(S(=O)(=O)[O-])cc4F)c4ccc([nH]4)c(-c4c(F)cc(S(=O)(=O)[O-])cc4F)c4nc(c(-c5c(F)cc(S(=O)(=O)[O-])cc5F)c5ccc2[nH]5)C=C4)C=C3)cc1
REMARK SMILES IDX 25 1 24 2 23 3 22 4 21 5 20 6 18 7 19 8 3 9 2 10 1 11 4 12
REMARK SMILES IDX 5 13 6 14 7 17 8 18 9 19 10 20 11 22 12 23 17 24 13 25 16 26
REMARK SMILES IDX 14 27 15 28 26 29 27 30 28 31 29 32 30 33 31 34 32 35 33 36
REMARK SMILES IDX 34 37 35 38 36 39 100 40 37 41 99 42 38 43 39 44 40 45 93 46
REMARK SMILES IDX 41 47 98 48 92 49 94 50 42 51 97 52 91 53 90 54 43 56 77 57
REMARK SMILES IDX 56 58 76 59 57 60 60 61 75 62 95 63 58 64 59 65 74 67 96 68
REMARK SMILES IDX 61 69 44 70 45 71 54 72 46 73 47 74 53 75 55 76 48 77 49 78
REMARK SMILES IDX 50 79 51 80 52 81 78 82 79 83 88 84 80 85 81 86 87 87 89 88
REMARK SMILES IDX 82 89 83 90 84 91 85 92 86 93 62 94 63 95 72 96 64 97 65 98
REMARK SMILES IDX 71 99 73 100 66 101 67 102 68 103 69 104 70 105
REMARK H PARENT 6 15 6 16 10 21 94 55 60 66
REMARK Flexibility Score: inf
ROOT
ATOM      1  C   UNL A   1      37.403  24.086  26.555  1.00  0.00     0.188 C 
ENDROOT
BRANCH   1   2
ATOM      2  C   UNL A   1      38.945  24.196  26.491  1.00  0.00     0.188 C 
BRANCH   2   3
ATOM      3  O   UNL A   1      39.639  25.410  26.645  1.00  0.00    -0.376 OA
BRANCH   3   4
ATOM      4  C   UNL A   1      40.907  25.521  26.045  1.00  0.00     0.202 C 
BRANCH   4   5
ATOM      5  C   UNL A   1      41.667  24.366  25.413  1.00  0.00     0.261 C 
BRANCH   5   6
ATOM      6  O   UNL A   1      43.069  24.379  25.212  1.00  0.00    -0.459 OA
BRANCH   6   7
ATOM      7  C   UNL A   1      43.717  23.278  24.763  1.00  0.00     0.368 C 
ATOM      8  O   UNL A   1      43.551  22.876  23.635  1.00  0.00    -0.245 OA
BRANCH   7   9
ATOM      9  C   UNL A   1      44.914  22.840  25.737  1.00  0.00     0.194 C 
BRANCH   9  10
ATOM     10  C   UNL A   1      45.506  24.263  26.082  1.00  0.00     0.077 C 
ATOM     11  C   UNL A   1      47.051  24.251  26.333  1.00  0.00     0.011 C 
ENDBRANCH   9  10
BRANCH   9  12
ATOM     12  C   UNL A   1      46.175  22.033  25.339  1.00  0.00     0.077 C 
ATOM     13  C   UNL A   1      46.063  20.503  25.232  1.00  0.00     0.011 C 
ENDBRANCH   9  12
BRANCH   9  14
ATOM     14  N   UNL A   1      44.319  22.020  26.821  1.00  0.00    -0.324 N 
ATOM     15  H   UNL A   1      44.149  22.644  27.610  1.00  0.00     0.347 HD
ATOM     16  H   UNL A   1      45.002  21.277  26.973  1.00  0.00     0.347 HD
BRANCH  14  17
ATOM     17  C   UNL A   1      43.030  21.283  26.550  1.00  0.00     0.363 C 
BRANCH  17  18
ATOM     18  C   UNL A   1      41.846  21.264  27.571  1.00  0.00     0.279 C 
ATOM     19  O   UNL A   1      40.902  20.481  27.368  1.00  0.00    -0.268 OA
ATOM     20  N   UNL A   1      41.772  22.004  28.749  1.00  0.00    -0.321 N 
ATOM     21  H   UNL A   1      41.050  21.732  29.359  1.00  0.00     0.170 HD
BRANCH  20  22
ATOM     22  C   UNL A   1      42.561  23.077  29.210  1.00  0.00     0.041 A 
ATOM     23  C   UNL A   1      42.453  24.398  28.755  1.00  0.00     0.026 A 
ATOM     24  C   UNL A   1      43.449  22.866  30.210  1.00  0.00     0.026 A 
ATOM     25  C   UNL A   1      43.513  25.311  28.907  1.00  0.00     0.005 A 
ATOM     26  C   UNL A   1      44.532  23.722  30.287  1.00  0.00     0.005 A 
ATOM     27  C   UNL A   1      44.645  24.910  29.584  1.00  0.00    -0.051 A 
ATOM     28  C   UNL A   1      45.959  25.642  29.581  1.00  0.00     0.044 C 
ENDBRANCH  20  22
ENDBRANCH  17  18
ENDBRANCH  14  17
ENDBRANCH   9  14
ENDBRANCH   7   9
ENDBRANCH   6   7
ENDBRANCH   5   6
ENDBRANCH   4   5
ENDBRANCH   3   4
ENDBRANCH   2   3
ENDBRANCH   1   2
BRANCH   1  29
ATOM     29  O   UNL A   1      36.663  23.635  25.436  1.00  0.00    -0.377 OA
BRANCH  29  30
ATOM     30  C   UNL A   1      35.435  24.266  25.074  1.00  0.00     0.188 C 
BRANCH  30  31
ATOM     31  C   UNL A   1      34.189  23.905  25.868  1.00  0.00     0.188 C 
BRANCH  31  32
ATOM     32  O   UNL A   1      33.515  25.123  26.179  1.00  0.00    -0.376 OA
BRANCH  32  33
ATOM     33  C   UNL A   1      34.005  26.309  25.578  1.00  0.00     0.202 C 
BRANCH  33  34
ATOM     34  C   UNL A   1      33.577  27.560  26.329  1.00  0.00     0.261 C 
BRANCH  34  35
ATOM     35  O   UNL A   1      34.740  28.199  26.896  1.00  0.00    -0.460 OA
BRANCH  35  36
ATOM     36  C   UNL A   1      34.627  29.538  27.131  1.00  0.00     0.338 C 
ATOM     37  O   UNL A   1      33.701  30.211  26.708  1.00  0.00    -0.246 OA
BRANCH  36  38
ATOM     38  C   UNL A   1      35.691  30.038  28.058  1.00  0.00     0.060 A 
ATOM     39  C   UNL A   1      36.541  31.086  27.682  1.00  0.00     0.016 A 
ATOM     40  C   UNL A   1      35.942  29.384  29.255  1.00  0.00     0.016 A 
ATOM     41  C   UNL A   1      37.726  31.353  28.404  1.00  0.00     0.010 A 
ATOM     42  C   UNL A   1      37.123  29.636  29.949  1.00  0.00     0.010 A 
ATOM     43  C   UNL A   1      38.074  30.577  29.517  1.00  0.00    -0.014 A 
BRANCH  43  44
ATOM     44  C   UNL A   1      39.438  30.507  30.141  1.00  0.00     0.031 A 
ATOM     45  C   UNL A   1      40.582  29.704  29.493  1.00  0.00     0.074 A 
ATOM     46  C   UNL A   1      39.738  31.414  31.102  1.00  0.00     0.049 A 
ATOM     47  N   UNL A   1      41.860  29.732  29.752  1.00  0.00    -0.248 NA
ATOM     48  C   UNL A   1      40.295  28.741  28.440  1.00  0.00     0.031 C 
ATOM     49  C   UNL A   1      41.072  31.944  31.285  1.00  0.00     0.029 A 
ATOM     50  N   UNL A   1      38.992  32.227  31.948  1.00  0.00    -0.354 N 
ATOM     51  C   UNL A   1      42.568  28.972  28.815  1.00  0.00     0.074 A 
ATOM     52  C   UNL A   1      41.514  28.400  28.012  1.00  0.00     0.031 C 
ATOM     53  C   UNL A   1      41.054  33.026  32.066  1.00  0.00     0.029 A 
ATOM     54  C   UNL A   1      39.850  32.951  32.795  1.00  0.00     0.049 A 
ATOM     55  H   UNL A   1      38.009  32.287  31.953  1.00  0.00     0.167 HD
ATOM     56  C   UNL A   1      43.953  28.916  28.793  1.00  0.00     0.037 A 
ATOM     57  C   UNL A   1      39.961  32.671  34.127  1.00  0.00     0.037 A 
ATOM     58  C   UNL A   1      44.568  29.456  30.060  1.00  0.00     0.049 A 
ATOM     59  C   UNL A   1      41.247  31.850  34.529  1.00  0.00     0.074 A 
ATOM     60  C   UNL A   1      45.717  30.163  30.402  1.00  0.00     0.029 A 
ATOM     61  N   UNL A   1      43.868  29.371  31.290  1.00  0.00    -0.354 N 
ATOM     62  N   UNL A   1      42.081  31.262  33.675  1.00  0.00    -0.248 NA
ATOM     63  C   UNL A   1      41.729  31.659  35.897  1.00  0.00     0.031 C 
ATOM     64  C   UNL A   1      45.676  30.540  31.766  1.00  0.00     0.029 A 
ATOM     65  C   UNL A   1      44.491  30.077  32.308  1.00  0.00     0.049 A 
ATOM     66  H   UNL A   1      43.030  28.867  31.408  1.00  0.00     0.167 HD
ATOM     67  C   UNL A   1      43.119  30.619  34.320  1.00  0.00     0.074 A 
ATOM     68  C   UNL A   1      42.820  30.882  35.722  1.00  0.00     0.031 C 
ATOM     69  C   UNL A   1      44.158  29.935  33.723  1.00  0.00     0.037 A 
BRANCH  56  70
ATOM     70  C   UNL A   1      44.839  28.487  27.520  1.00  0.00     0.058 A 
ATOM     71  C   UNL A   1      46.248  28.701  27.453  1.00  0.00     0.135 A 
ATOM     72  C   UNL A   1      44.374  27.926  26.303  1.00  0.00     0.135 A 
ATOM     73  F   UNL A   1      46.968  29.090  28.500  1.00  0.00    -0.206 F 
ATOM     74  C   UNL A   1      47.062  28.490  26.324  1.00  0.00     0.059 A 
ATOM     75  C   UNL A   1      45.178  27.654  25.165  1.00  0.00     0.059 A 
ATOM     76  F   UNL A   1      43.110  27.545  26.132  1.00  0.00    -0.206 F 
ATOM     77  C   UNL A   1      46.527  27.954  25.176  1.00  0.00     0.060 A 
BRANCH  77  78
ATOM     78  S   UNL A   1      47.630  27.556  23.803  1.00  0.00     0.124 S 
ATOM     79  O   UNL A   1      47.479  26.109  23.694  1.00  0.00    -0.237 OA
ATOM     80  O   UNL A   1      47.057  28.334  22.708  1.00  0.00    -0.237 OA
ATOM     81  O   UNL A   1      48.936  28.014  24.270  1.00  0.00    -0.744 OA
ENDBRANCH  77  78
ENDBRANCH  56  70
BRANCH  57  82
ATOM     82  C   UNL A   1      38.623  33.022  34.740  1.00  0.00     0.058 A 
ATOM     83  C   UNL A   1      38.221  34.369  34.493  1.00  0.00     0.135 A 
ATOM     84  C   UNL A   1      37.602  32.057  34.616  1.00  0.00     0.135 A 
ATOM     85  F   UNL A   1      39.115  35.362  34.631  1.00  0.00    -0.206 F 
ATOM     86  C   UNL A   1      37.014  34.685  33.849  1.00  0.00     0.059 A 
ATOM     87  C   UNL A   1      36.387  32.355  33.970  1.00  0.00     0.059 A 
ATOM     88  F   UNL A   1      37.885  30.767  34.849  1.00  0.00    -0.206 F 
ATOM     89  C   UNL A   1      36.135  33.657  33.524  1.00  0.00     0.060 A 
BRANCH  89  90
ATOM     90  S   UNL A   1      34.825  33.966  32.295  1.00  0.00     0.124 S 
ATOM     91  O   UNL A   1      34.216  35.191  32.794  1.00  0.00    -0.237 OA
ATOM     92  O   UNL A   1      35.568  34.084  31.043  1.00  0.00    -0.237 OA
ATOM     93  O   UNL A   1      34.012  32.761  32.394  1.00  0.00    -0.744 OA
ENDBRANCH  89  90
ENDBRANCH  57  82
BRANCH  69  94
ATOM     94  C   UNL A   1      45.180  29.039  34.407  1.00  0.00     0.058 A 
ATOM     95  C   UNL A   1      46.353  29.466  35.027  1.00  0.00     0.135 A 
ATOM     96  C   UNL A   1      45.031  27.622  34.281  1.00  0.00     0.135 A 
ATOM     97  F   UNL A   1      46.707  30.760  35.019  1.00  0.00    -0.206 F 
ATOM     98  C   UNL A   1      47.219  28.561  35.649  1.00  0.00     0.059 A 
ATOM     99  C   UNL A   1      45.933  26.707  34.792  1.00  0.00     0.059 A 
ATOM    100  F   UNL A   1      43.976  27.072  33.661  1.00  0.00    -0.206 F 
ATOM    101  C   UNL A   1      46.973  27.188  35.559  1.00  0.00     0.060 A 
BRANCH 101 102
ATOM    102  S   UNL A   1      47.936  26.025  36.535  1.00  0.00     0.124 S 
ATOM    103  O   UNL A   1      47.171  25.937  37.774  1.00  0.00    -0.237 OA
ATOM    104  O   UNL A   1      47.892  24.843  35.678  1.00  0.00    -0.237 OA
ATOM    105  O   UNL A   1      49.241  26.668  36.650  1.00  0.00    -0.744 OA
ENDBRANCH 101 102
ENDBRANCH  69  94
ENDBRANCH  43  44
ENDBRANCH  36  38
ENDBRANCH  35  36
ENDBRANCH  34  35
ENDBRANCH  33  34
ENDBRANCH  32  33
ENDBRANCH  31  32
ENDBRANCH  30  31
ENDBRANCH  29  30
ENDBRANCH   1  29
TORSDOF 29
ENDMDL
MODEL 2
REMARK VINA RESULT:      -7.5      1.904      2.328
REMARK SMILES CCC(CC)([NH2+]CC(=O)Nc1ccc(C)cc1)C(=O)OCCOCCOCCOCCOC(=O)c1ccc(-c2c3nc(c(-c4c(F)cc(S(=O)(=O)[O-])cc4F)c4ccc([nH]4)c(-c4c(F)cc(S(=O)(=O)[O-])cc4F)c4nc(c(-c5c(F)cc(S(=O)(=O)[O-])cc5F)c5ccc2[nH]5)C=C4)C=C3)cc1
REMARK SMILES IDX 25 1 24 2 23 3 22 4 21 5 20 6 18 7 19 8 3 9 2 10 1 11 4 12
REMARK SMILES IDX 5 13 6 14 7 17 8 18 9 19 10 20 11 22 12 23 17 24 13 25 16 26
REMARK SMILES IDX 14 27 15 28 26 29 27 30 28 31 29 32 30 33 31 34 32 35 33 36
REMARK SMILES IDX 34 37 35 38 36 39 100 40 37 41 99 42 38 43 39 44 40 45 93 46
REMARK SMILES IDX 41 47 98 48 92 49 94 50 42 51 97 52 91 53 90 54 43 56 77 57
REMARK SMILES IDX 56 58 76 59 57 60 60 61 75 62 95 63 58 64 59 65 74 67 96 68
REMARK SMILES IDX 61 69 44 70 45 71 54 72 46 73 47 74 53 75 55 76 48 77 49 78
REMARK SMILES IDX 50 79 51 80 52 81 78 82 79 83 88 84 80 85 81 86 87 87 89 88
REMARK SMILES IDX 82 89 83 90 84 91 85 92 86 93 62 94 63 95 72 96 64 97 65 98
REMARK SMILES IDX 71 99 73 100 66 101 67 102 68 103 69 104 70 105
REMARK H PARENT 6 15 6 16 10 21 94 55 60 66
REMARK Flexibility Score: inf
ROOT
ATOM      1  C   UNL A   1      37.285  24.143  26.214  1.00  0.00     0.188 C 
ENDROOT
BRANCH   1   2
ATOM      2  C   UNL A   1      38.827  24.120  26.097  1.00  0.00     0.188 C 
BRANCH   2   3
ATOM      3  O   UNL A   1      39.645  25.201  26.474  1.00  0.00    -0.376 OA
BRANCH   3   4
ATOM      4  C   UNL A   1      41.007  25.145  26.122  1.00  0.00     0.202 C 
BRANCH   4   5
ATOM      5  C   UNL A   1      41.666  23.981  25.400  1.00  0.00     0.261 C 
BRANCH   5   6
ATOM      6  O   UNL A   1      43.011  23.595  25.618  1.00  0.00    -0.459 OA
BRANCH   6   7
ATOM      7  C   UNL A   1      43.637  22.749  24.767  1.00  0.00     0.368 C 
ATOM      8  O   UNL A   1      43.729  23.007  23.589  1.00  0.00    -0.245 OA
BRANCH   7   9
ATOM      9  C   UNL A   1      44.491  21.633  25.541  1.00  0.00     0.194 C 
BRANCH   9  10
ATOM     10  C   UNL A   1      45.914  22.317  25.502  1.00  0.00     0.077 C 
ATOM     11  C   UNL A   1      46.057  23.512  26.503  1.00  0.00     0.011 C 
ENDBRANCH   9  10
BRANCH   9  12
ATOM     12  C   UNL A   1      44.789  20.196  25.047  1.00  0.00     0.077 C 
ATOM     13  C   UNL A   1      46.203  19.876  24.532  1.00  0.00     0.011 C 
ENDBRANCH   9  12
BRANCH   9  14
ATOM     14  N   UNL A   1      43.831  21.407  26.851  1.00  0.00    -0.324 N 
ATOM     15  H   UNL A   1      43.759  22.314  27.311  1.00  0.00     0.347 HD
ATOM     16  H   UNL A   1      44.423  20.715  27.310  1.00  0.00     0.347 HD
BRANCH  14  17
ATOM     17  C   UNL A   1      42.455  20.786  26.873  1.00  0.00     0.363 C 
BRANCH  17  18
ATOM     18  C   UNL A   1      41.293  21.358  27.747  1.00  0.00     0.279 C 
ATOM     19  O   UNL A   1      40.152  20.888  27.597  1.00  0.00    -0.268 OA
ATOM     20  N   UNL A   1      41.421  22.318  28.748  1.00  0.00    -0.321 N 
ATOM     21  H   UNL A   1      40.626  22.424  29.319  1.00  0.00     0.170 HD
BRANCH  20  22
ATOM     22  C   UNL A   1      42.500  23.161  29.079  1.00  0.00     0.041 A 
ATOM     23  C   UNL A   1      43.772  22.714  29.463  1.00  0.00     0.026 A 
ATOM     24  C   UNL A   1      42.354  24.502  28.963  1.00  0.00     0.026 A 
ATOM     25  C   UNL A   1      44.650  23.545  30.185  1.00  0.00     0.005 A 
ATOM     26  C   UNL A   1      43.167  25.299  29.748  1.00  0.00     0.005 A 
ATOM     27  C   UNL A   1      44.271  24.844  30.449  1.00  0.00    -0.051 A 
ATOM     28  C   UNL A   1      44.942  25.755  31.439  1.00  0.00     0.044 C 
ENDBRANCH  20  22
ENDBRANCH  17  18
ENDBRANCH  14  17
ENDBRANCH   9  14
ENDBRANCH   7   9
ENDBRANCH   6   7
ENDBRANCH   5   6
ENDBRANCH   4   5
ENDBRANCH   3   4
ENDBRANCH   2   3
ENDBRANCH   1   2
BRANCH   1  29
ATOM     29  O   UNL A   1      36.470  23.767  25.118  1.00  0.00    -0.377 OA
BRANCH  29  30
ATOM     30  C   UNL A   1      35.237  24.439  24.864  1.00  0.00     0.188 C 
BRANCH  30  31
ATOM     31  C   UNL A   1      34.064  24.146  25.787  1.00  0.00     0.188 C 
BRANCH  31  32
ATOM     32  O   UNL A   1      33.557  25.399  26.242  1.00  0.00    -0.376 OA
BRANCH  32  33
ATOM     33  C   UNL A   1      34.052  26.568  25.611  1.00  0.00     0.202 C 
BRANCH  33  34
ATOM     34  C   UNL A   1      33.642  27.838  26.340  1.00  0.00     0.261 C 
BRANCH  34  35
ATOM     35  O   UNL A   1      34.804  28.433  26.955  1.00  0.00    -0.460 OA
BRANCH  35  36
ATOM     36  C   UNL A   1      34.688  29.748  27.298  1.00  0.00     0.338 C 
ATOM     37  O   UNL A   1      33.767  30.454  26.920  1.00  0.00    -0.246 OA
BRANCH  36  38
ATOM     38  C   UNL A   1      35.741  30.170  28.276  1.00  0.00     0.060 A 
ATOM     39  C   UNL A   1      36.569  31.268  28.015  1.00  0.00     0.016 A 
ATOM     40  C   UNL A   1      36.003  29.398  29.399  1.00  0.00     0.016 A 
ATOM     41  C   UNL A   1      37.748  31.481  28.766  1.00  0.00     0.010 A 
ATOM     42  C   UNL A   1      37.178  29.600  30.120  1.00  0.00     0.010 A 
ATOM     43  C   UNL A   1      38.110  30.599  29.792  1.00  0.00    -0.014 A 
BRANCH  43  44
ATOM     44  C   UNL A   1      39.474  30.492  30.410  1.00  0.00     0.031 A 
ATOM     45  C   UNL A   1      40.625  29.754  29.702  1.00  0.00     0.074 A 
ATOM     46  C   UNL A   1      39.766  31.322  31.441  1.00  0.00     0.049 A 
ATOM     47  N   UNL A   1      41.903  29.772  29.964  1.00  0.00    -0.248 NA
ATOM     48  C   UNL A   1      40.348  28.875  28.576  1.00  0.00     0.031 C 
ATOM     49  C   UNL A   1      41.095  31.847  31.667  1.00  0.00     0.029 A 
ATOM     50  N   UNL A   1      39.011  32.059  32.348  1.00  0.00    -0.354 N 
ATOM     51  C   UNL A   1      42.618  29.095  28.971  1.00  0.00     0.074 A 
ATOM     52  C   UNL A   1      41.570  28.580  28.123  1.00  0.00     0.031 C 
ATOM     53  C   UNL A   1      41.066  32.863  32.532  1.00  0.00     0.029 A 
ATOM     54  C   UNL A   1      39.863  32.720  33.252  1.00  0.00     0.049 A 
ATOM     55  H   UNL A   1      38.028  32.109  32.357  1.00  0.00     0.167 HD
ATOM     56  C   UNL A   1      44.004  29.054  28.946  1.00  0.00     0.037 A 
ATOM     57  C   UNL A   1      39.975  32.336  34.557  1.00  0.00     0.037 A 
ATOM     58  C   UNL A   1      44.613  29.496  30.253  1.00  0.00     0.049 A 
ATOM     59  C   UNL A   1      41.268  31.496  34.894  1.00  0.00     0.074 A 
ATOM     60  C   UNL A   1      45.756  30.183  30.652  1.00  0.00     0.029 A 
ATOM     61  N   UNL A   1      43.913  29.307  31.471  1.00  0.00    -0.354 N 
ATOM     62  N   UNL A   1      42.107  30.985  33.997  1.00  0.00    -0.248 NA
ATOM     63  C   UNL A   1      41.750  31.201  36.243  1.00  0.00     0.031 C 
ATOM     64  C   UNL A   1      45.710  30.450  32.042  1.00  0.00     0.029 A 
ATOM     65  C   UNL A   1      44.529  29.935  32.543  1.00  0.00     0.049 A 
ATOM     66  H   UNL A   1      43.080  28.787  31.548  1.00  0.00     0.167 HD
ATOM     67  C   UNL A   1      43.151  30.302  34.590  1.00  0.00     0.074 A 
ATOM     68  C   UNL A   1      42.849  30.450  36.008  1.00  0.00     0.031 C 
ATOM     69  C   UNL A   1      44.196  29.677  33.942  1.00  0.00     0.037 A 
BRANCH  56  70
ATOM     70  C   UNL A   1      44.894  28.735  27.644  1.00  0.00     0.058 A 
ATOM     71  C   UNL A   1      45.285  27.412  27.280  1.00  0.00     0.135 A 
ATOM     72  C   UNL A   1      45.461  29.674  26.744  1.00  0.00     0.135 A 
ATOM     73  F   UNL A   1      44.790  26.328  27.869  1.00  0.00    -0.206 F 
ATOM     74  C   UNL A   1      46.179  27.069  26.249  1.00  0.00     0.059 A 
ATOM     75  C   UNL A   1      46.325  29.356  25.663  1.00  0.00     0.059 A 
ATOM     76  F   UNL A   1      45.183  30.975  26.804  1.00  0.00    -0.206 F 
ATOM     77  C   UNL A   1      46.695  28.045  25.429  1.00  0.00     0.060 A 
BRANCH  77  78
ATOM     78  S   UNL A   1      47.716  27.552  24.024  1.00  0.00     0.124 S 
ATOM     79  O   UNL A   1      47.505  26.109  23.979  1.00  0.00    -0.237 OA
ATOM     80  O   UNL A   1      47.122  28.310  22.926  1.00  0.00    -0.237 OA
ATOM     81  O   UNL A   1      49.059  27.974  24.412  1.00  0.00    -0.744 OA
ENDBRANCH  77  78
ENDBRANCH  56  70
BRANCH  57  82
ATOM     82  C   UNL A   1      38.634  32.625  35.194  1.00  0.00     0.058 A 
ATOM     83  C   UNL A   1      38.116  31.531  35.951  1.00  0.00     0.135 A 
ATOM     84  C   UNL A   1      38.482  33.894  35.791  1.00  0.00     0.135 A 
ATOM     85  F   UNL A   1      38.175  30.290  35.441  1.00  0.00    -0.206 F 
ATOM     86  C   UNL A   1      37.795  31.646  37.312  1.00  0.00     0.059 A 
ATOM     87  C   UNL A   1      38.165  34.029  37.156  1.00  0.00     0.059 A 
ATOM     88  F   UNL A   1      38.923  34.983  35.142  1.00  0.00    -0.206 F 
ATOM     89  C   UNL A   1      37.896  32.891  37.925  1.00  0.00     0.060 A 
BRANCH  89  90
ATOM     90  S   UNL A   1      37.954  32.981  39.744  1.00  0.00     0.124 S 
ATOM     91  O   UNL A   1      38.406  31.645  40.106  1.00  0.00    -0.237 OA
ATOM     92  O   UNL A   1      38.900  34.066  39.992  1.00  0.00    -0.237 OA
ATOM     93  O   UNL A   1      36.575  33.304  40.086  1.00  0.00    -0.744 OA
ENDBRANCH  89  90
ENDBRANCH  57  82
BRANCH  69  94
ATOM     94  C   UNL A   1      45.226  28.738  34.554  1.00  0.00     0.058 A 
ATOM     95  C   UNL A   1      46.485  29.105  35.025  1.00  0.00     0.135 A 
ATOM     96  C   UNL A   1      44.972  27.332  34.508  1.00  0.00     0.135 A 
ATOM     97  F   UNL A   1      46.920  30.370  34.921  1.00  0.00    -0.206 F 
ATOM     98  C   UNL A   1      47.352  28.166  35.593  1.00  0.00     0.059 A 
ATOM     99  C   UNL A   1      45.862  26.376  34.962  1.00  0.00     0.059 A 
ATOM    100  F   UNL A   1      43.821  26.833  34.030  1.00  0.00    -0.206 F 
ATOM    101  C   UNL A   1      47.008  26.811  35.591  1.00  0.00     0.060 A 
BRANCH 101 102
ATOM    102  S   UNL A   1      47.993  25.622  36.512  1.00  0.00     0.124 S 
ATOM    103  O   UNL A   1      47.726  24.372  35.810  1.00  0.00    -0.237 OA
ATOM    104  O   UNL A   1      49.333  26.176  36.334  1.00  0.00    -0.237 OA
ATOM    105  O   UNL A   1      47.455  25.704  37.867  1.00  0.00    -0.744 OA
ENDBRANCH 101 102
ENDBRANCH  69  94
ENDBRANCH  43  44
ENDBRANCH  36  38
ENDBRANCH  35  36
ENDBRANCH  34  35
ENDBRANCH  33  34
ENDBRANCH  32  33
ENDBRANCH  31  32
ENDBRANCH  30  31
ENDBRANCH  29  30
ENDBRANCH   1  29
TORSDOF 29
ENDMDL
MODEL 3
REMARK VINA RESULT:      -7.2      3.968     10.580
REMARK SMILES CCC(CC)([NH2+]CC(=O)Nc1ccc(C)cc1)C(=O)OCCOCCOCCOCCOC(=O)c1ccc(-c2c3nc(c(-c4c(F)cc(S(=O)(=O)[O-])cc4F)c4ccc([nH]4)c(-c4c(F)cc(S(=O)(=O)[O-])cc4F)c4nc(c(-c5c(F)cc(S(=O)(=O)[O-])cc5F)c5ccc2[nH]5)C=C4)C=C3)cc1
REMARK SMILES IDX 25 1 24 2 23 3 22 4 21 5 20 6 18 7 19 8 3 9 2 10 1 11 4 12
REMARK SMILES IDX 5 13 6 14 7 17 8 18 9 19 10 20 11 22 12 23 17 24 13 25 16 26
REMARK SMILES IDX 14 27 15 28 26 29 27 30 28 31 29 32 30 33 31 34 32 35 33 36
REMARK SMILES IDX 34 37 35 38 36 39 100 40 37 41 99 42 38 43 39 44 40 45 93 46
REMARK SMILES IDX 41 47 98 48 92 49 94 50 42 51 97 52 91 53 90 54 43 56 77 57
REMARK SMILES IDX 56 58 76 59 57 60 60 61 75 62 95 63 58 64 59 65 74 67 96 68
REMARK SMILES IDX 61 69 44 70 45 71 54 72 46 73 47 74 53 75 55 76 48 77 49 78
REMARK SMILES IDX 50 79 51 80 52 81 78 82 79 83 88 84 80 85 81 86 87 87 89 88
REMARK SMILES IDX 82 89 83 90 84 91 85 92 86 93 62 94 63 95 72 96 64 97 65 98
REMARK SMILES IDX 71 99 73 100 66 101 67 102 68 103 69 104 70 105
REMARK H PARENT 6 15 6 16 10 21 94 55 60 66
REMARK Flexibility Score: inf
ROOT
ATOM      1  C   UNL A   1      42.549  24.428  27.641  1.00  0.00     0.188 C 
ENDROOT
BRANCH   1   2
ATOM      2  C   UNL A   1      42.204  25.429  26.513  1.00  0.00     0.188 C 
BRANCH   2   3
ATOM      3  O   UNL A   1      40.942  25.490  25.894  1.00  0.00    -0.376 OA
BRANCH   3   4
ATOM      4  C   UNL A   1      40.068  24.403  26.078  1.00  0.00     0.202 C 
BRANCH   4   5
ATOM      5  C   UNL A   1      38.617  24.526  26.516  1.00  0.00     0.261 C 
BRANCH   5   6
ATOM      6  O   UNL A   1      37.795  23.408  26.797  1.00  0.00    -0.459 OA
BRANCH   6   7
ATOM      7  C   UNL A   1      37.382  22.582  25.807  1.00  0.00     0.368 C 
ATOM      8  O   UNL A   1      38.152  21.814  25.277  1.00  0.00    -0.245 OA
BRANCH   7   9
ATOM      9  C   UNL A   1      35.783  22.512  25.703  1.00  0.00     0.194 C 
BRANCH   9  10
ATOM     10  C   UNL A   1      35.581  23.195  24.294  1.00  0.00     0.077 C 
ATOM     11  C   UNL A   1      36.651  22.766  23.235  1.00  0.00     0.011 C 
ENDBRANCH   9  10
BRANCH   9  12
ATOM     12  C   UNL A   1      34.769  23.266  26.597  1.00  0.00     0.077 C 
ATOM     13  C   UNL A   1      34.168  22.531  27.807  1.00  0.00     0.011 C 
ENDBRANCH   9  12
BRANCH   9  14
ATOM     14  N   UNL A   1      35.395  21.090  25.882  1.00  0.00    -0.324 N 
ATOM     15  H   UNL A   1      34.964  21.010  26.803  1.00  0.00     0.347 HD
ATOM     16  H   UNL A   1      36.266  20.577  25.745  1.00  0.00     0.347 HD
BRANCH  14  17
ATOM     17  C   UNL A   1      34.442  20.468  24.890  1.00  0.00     0.363 C 
BRANCH  17  18
ATOM     18  C   UNL A   1      32.981  20.064  25.273  1.00  0.00     0.279 C 
ATOM     19  O   UNL A   1      32.775  18.909  25.685  1.00  0.00    -0.268 OA
ATOM     20  N   UNL A   1      31.872  20.907  25.264  1.00  0.00    -0.321 N 
ATOM     21  H   UNL A   1      31.075  20.540  25.709  1.00  0.00     0.170 HD
BRANCH  20  22
ATOM     22  C   UNL A   1      31.704  22.197  24.723  1.00  0.00     0.041 A 
ATOM     23  C   UNL A   1      31.972  22.544  23.392  1.00  0.00     0.026 A 
ATOM     24  C   UNL A   1      31.186  23.179  25.498  1.00  0.00     0.026 A 
ATOM     25  C   UNL A   1      32.209  23.881  23.020  1.00  0.00     0.005 A 
ATOM     26  C   UNL A   1      31.504  24.483  25.166  1.00  0.00     0.005 A 
ATOM     27  C   UNL A   1      32.100  24.867  23.976  1.00  0.00    -0.051 A 
ATOM     28  C   UNL A   1      32.596  26.278  23.823  1.00  0.00     0.044 C 
ENDBRANCH  20  22
ENDBRANCH  17  18
ENDBRANCH  14  17
ENDBRANCH   9  14
ENDBRANCH   7   9
ENDBRANCH   6   7
ENDBRANCH   5   6
ENDBRANCH   4   5
ENDBRANCH   3   4
ENDBRANCH   2   3
ENDBRANCH   1   2
BRANCH   1  29
ATOM     29  O   UNL A   1      43.763  23.700  27.617  1.00  0.00    -0.377 OA
BRANCH  29  30
ATOM     30  C   UNL A   1      44.784  24.019  26.672  1.00  0.00     0.188 C 
BRANCH  30  31
ATOM     31  C   UNL A   1      46.226  24.019  27.157  1.00  0.00     0.188 C 
BRANCH  31  32
ATOM     32  O   UNL A   1      47.062  23.898  26.007  1.00  0.00    -0.376 OA
BRANCH  32  33
ATOM     33  C   UNL A   1      46.969  24.918  25.027  1.00  0.00     0.202 C 
BRANCH  33  34
ATOM     34  C   UNL A   1      48.286  25.652  24.828  1.00  0.00     0.261 C 
BRANCH  34  35
ATOM     35  O   UNL A   1      48.492  26.569  25.924  1.00  0.00    -0.460 OA
BRANCH  35  36
ATOM     36  C   UNL A   1      48.983  27.796  25.587  1.00  0.00     0.338 C 
ATOM     37  O   UNL A   1      49.859  27.956  24.754  1.00  0.00    -0.246 OA
BRANCH  36  38
ATOM     38  C   UNL A   1      48.237  28.905  26.264  1.00  0.00     0.060 A 
ATOM     39  C   UNL A   1      48.621  29.365  27.529  1.00  0.00     0.016 A 
ATOM     40  C   UNL A   1      47.069  29.406  25.706  1.00  0.00     0.016 A 
ATOM     41  C   UNL A   1      47.756  30.177  28.298  1.00  0.00     0.010 A 
ATOM     42  C   UNL A   1      46.212  30.186  26.478  1.00  0.00     0.010 A 
ATOM     43  C   UNL A   1      46.496  30.543  27.808  1.00  0.00    -0.014 A 
BRANCH  43  44
ATOM     44  C   UNL A   1      45.359  31.075  28.631  1.00  0.00     0.031 A 
ATOM     45  C   UNL A   1      44.546  30.164  29.569  1.00  0.00     0.074 A 
ATOM     46  C   UNL A   1      45.266  32.419  28.783  1.00  0.00     0.049 A 
ATOM     47  N   UNL A   1      43.712  30.488  30.518  1.00  0.00    -0.248 NA
ATOM     48  C   UNL A   1      44.644  28.716  29.450  1.00  0.00     0.031 C 
ATOM     49  C   UNL A   1      44.761  33.034  29.990  1.00  0.00     0.029 A 
ATOM     50  N   UNL A   1      45.759  33.518  28.088  1.00  0.00    -0.354 N 
ATOM     51  C   UNL A   1      43.322  29.355  31.240  1.00  0.00     0.074 A 
ATOM     52  C   UNL A   1      43.969  28.285  30.520  1.00  0.00     0.031 C 
ATOM     53  C   UNL A   1      45.053  34.336  30.021  1.00  0.00     0.029 A 
ATOM     54  C   UNL A   1      45.295  34.706  28.682  1.00  0.00     0.049 A 
ATOM     55  H   UNL A   1      46.344  33.471  27.298  1.00  0.00     0.167 HD
ATOM     56  C   UNL A   1      42.523  29.429  32.370  1.00  0.00     0.037 A 
ATOM     57  C   UNL A   1      44.353  35.495  28.088  1.00  0.00     0.037 A 
ATOM     58  C   UNL A   1      41.856  30.775  32.514  1.00  0.00     0.049 A 
ATOM     59  C   UNL A   1      42.896  35.348  28.675  1.00  0.00     0.074 A 
ATOM     60  C   UNL A   1      41.486  31.610  33.563  1.00  0.00     0.029 A 
ATOM     61  N   UNL A   1      41.547  31.548  31.366  1.00  0.00    -0.354 N 
ATOM     62  N   UNL A   1      42.502  34.404  29.526  1.00  0.00    -0.248 NA
ATOM     63  C   UNL A   1      41.784  36.259  28.402  1.00  0.00     0.031 C 
ATOM     64  C   UNL A   1      41.032  32.855  33.066  1.00  0.00     0.029 A 
ATOM     65  C   UNL A   1      41.114  32.826  31.685  1.00  0.00     0.049 A 
ATOM     66  H   UNL A   1      41.631  31.214  30.444  1.00  0.00     0.167 HD
ATOM     67  C   UNL A   1      41.170  34.532  29.866  1.00  0.00     0.074 A 
ATOM     68  C   UNL A   1      40.768  35.704  29.098  1.00  0.00     0.031 C 
ATOM     69  C   UNL A   1      40.464  33.729  30.738  1.00  0.00     0.037 A 
BRANCH  56  70
ATOM     70  C   UNL A   1      42.422  28.293  33.505  1.00  0.00     0.058 A 
ATOM     71  C   UNL A   1      43.562  27.793  34.201  1.00  0.00     0.135 A 
ATOM     72  C   UNL A   1      41.257  27.596  33.918  1.00  0.00     0.135 A 
ATOM     73  F   UNL A   1      44.764  28.354  34.110  1.00  0.00    -0.206 F 
ATOM     74  C   UNL A   1      43.574  26.704  35.094  1.00  0.00     0.059 A 
ATOM     75  C   UNL A   1      41.228  26.528  34.853  1.00  0.00     0.059 A 
ATOM     76  F   UNL A   1      40.041  27.926  33.488  1.00  0.00    -0.206 F 
ATOM     77  C   UNL A   1      42.398  26.074  35.430  1.00  0.00     0.060 A 
BRANCH  77  78
ATOM     78  S   UNL A   1      42.432  24.784  36.693  1.00  0.00     0.124 S 
ATOM     79  O   UNL A   1      43.394  25.315  37.653  1.00  0.00    -0.237 OA
ATOM     80  O   UNL A   1      41.043  24.753  37.144  1.00  0.00    -0.237 OA
ATOM     81  O   UNL A   1      42.871  23.600  35.960  1.00  0.00    -0.744 OA
ENDBRANCH  77  78
ENDBRANCH  56  70
BRANCH  57  82
ATOM     82  C   UNL A   1      45.004  36.057  26.843  1.00  0.00     0.058 A 
ATOM     83  C   UNL A   1      45.966  37.075  27.115  1.00  0.00     0.135 A 
ATOM     84  C   UNL A   1      45.380  35.123  25.855  1.00  0.00     0.135 A 
ATOM     85  F   UNL A   1      45.677  38.035  28.010  1.00  0.00    -0.206 F 
ATOM     86  C   UNL A   1      47.303  36.975  26.700  1.00  0.00     0.059 A 
ATOM     87  C   UNL A   1      46.717  35.005  25.429  1.00  0.00     0.059 A 
ATOM     88  F   UNL A   1      44.529  34.141  25.520  1.00  0.00    -0.206 F 
ATOM     89  C   UNL A   1      47.685  35.890  25.916  1.00  0.00     0.060 A 
BRANCH  89  90
ATOM     90  S   UNL A   1      49.455  35.483  25.769  1.00  0.00     0.124 S 
ATOM     91  O   UNL A   1      49.877  35.426  27.161  1.00  0.00    -0.237 OA
ATOM     92  O   UNL A   1      49.443  34.212  25.050  1.00  0.00    -0.237 OA
ATOM     93  O   UNL A   1      49.970  36.603  24.990  1.00  0.00    -0.744 OA
ENDBRANCH  89  90
ENDBRANCH  57  82
BRANCH  69  94
ATOM     94  C   UNL A   1      38.959  33.712  30.957  1.00  0.00     0.058 A 
ATOM     95  C   UNL A   1      38.019  33.117  30.117  1.00  0.00     0.135 A 
ATOM     96  C   UNL A   1      38.420  34.502  32.020  1.00  0.00     0.135 A 
ATOM     97  F   UNL A   1      38.393  32.528  28.970  1.00  0.00    -0.206 F 
ATOM     98  C   UNL A   1      36.654  33.138  30.420  1.00  0.00     0.059 A 
ATOM     99  C   UNL A   1      37.067  34.629  32.272  1.00  0.00     0.059 A 
ATOM    100  F   UNL A   1      39.207  35.174  32.874  1.00  0.00    -0.206 F 
ATOM    101  C   UNL A   1      36.198  33.864  31.524  1.00  0.00     0.060 A 
BRANCH 101 102
ATOM    102  S   UNL A   1      34.489  33.720  32.063  1.00  0.00     0.124 S 
ATOM    103  O   UNL A   1      34.353  32.291  32.322  1.00  0.00    -0.237 OA
ATOM    104  O   UNL A   1      34.500  34.581  33.244  1.00  0.00    -0.237 OA
ATOM    105  O   UNL A   1      33.725  34.225  30.927  1.00  0.00    -0.744 OA
ENDBRANCH 101 102
ENDBRANCH  69  94
ENDBRANCH  43  44
ENDBRANCH  36  38
ENDBRANCH  35  36
ENDBRANCH  34  35
ENDBRANCH  33  34
ENDBRANCH  32  33
ENDBRANCH  31  32
ENDBRANCH  30  31
ENDBRANCH  29  30
ENDBRANCH   1  29
TORSDOF 29
ENDMDL
