MODEL 1
REMARK VINA RESULT:      -9.3      0.000      0.000
REMARK SMILES CC(=O)N[C@@H](C)C(=O)N1CCC[C@H]1C(=O)OCCOCCOCCOCCOC(=O)c1ccc(-c2c3nc(c(-c4c(F)cc(S(=O)(=O)[O-])cc4F)c4ccc([nH]4)c(-c4c(F)cc(S(=O)(=O)[O-])cc4F)c4nc(c(-c5c(F)cc(S(=O)(=O)[O-])cc5F)c5ccc2[nH]5)C=C4)C=C3)cc1
REMARK SMILES IDX 22 1 21 2 20 3 19 4 18 5 17 6 16 7 14 8 15 9 13 10 9 11
REMARK SMILES IDX 10 12 11 13 12 14 7 15 8 16 5 17 6 18 4 19 1 20 2 21 3 22
REMARK SMILES IDX 23 24 24 25 25 26 26 27 27 28 28 29 29 30 30 31 31 32 32 33
REMARK SMILES IDX 96 34 33 35 95 36 34 37 35 38 36 39 89 40 37 41 94 42 88 43
REMARK SMILES IDX 90 44 38 45 93 46 87 47 86 48 39 50 73 51 52 52 72 53 53 54
REMARK SMILES IDX 56 55 71 56 91 57 54 58 55 59 70 61 92 62 57 63 40 64 41 65
REMARK SMILES IDX 50 66 42 67 43 68 49 69 51 70 44 71 45 72 46 73 47 74 48 75
REMARK SMILES IDX 74 76 75 77 84 78 76 79 77 80 83 81 85 82 78 83 79 84 80 85
REMARK SMILES IDX 81 86 82 87 58 88 59 89 68 90 60 91 61 92 67 93 69 94 62 95
REMARK SMILES IDX 63 96 64 97 65 98 66 99
REMARK H PARENT 4 23 90 49 56 60
REMARK Flexibility Score: inf
ROOT
ATOM      1  O   UNL A   1      31.596  29.163  24.126  1.00  0.00    -0.377 OA
ENDROOT
BRANCH   1   2
ATOM      2  C   UNL A   1      31.262  28.638  22.864  1.00  0.00     0.188 C 
BRANCH   2   3
ATOM      3  C   UNL A   1      29.968  27.800  22.875  1.00  0.00     0.188 C 
BRANCH   3   4
ATOM      4  O   UNL A   1      29.558  27.060  24.018  1.00  0.00    -0.376 OA
BRANCH   4   5
ATOM      5  C   UNL A   1      30.398  26.107  24.668  1.00  0.00     0.202 C 
BRANCH   5   6
ATOM      6  C   UNL A   1      30.537  25.992  26.192  1.00  0.00     0.261 C 
BRANCH   6   7
ATOM      7  O   UNL A   1      31.446  24.979  26.591  1.00  0.00    -0.462 OA
BRANCH   7   8
ATOM      8  C   UNL A   1      31.204  23.713  26.178  1.00  0.00     0.328 C 
ATOM      9  O   UNL A   1      30.171  23.079  26.356  1.00  0.00    -0.250 OA
BRANCH   8  10
ATOM     10  C   UNL A   1      32.390  23.234  25.343  1.00  0.00     0.195 C 
ATOM     11  N   UNL A   1      33.083  22.096  25.899  1.00  0.00    -0.327 N 
ATOM     12  C   UNL A   1      32.598  20.887  25.271  1.00  0.00     0.120 C 
ATOM     13  C   UNL A   1      32.310  21.318  23.843  1.00  0.00     0.024 C 
ATOM     14  C   UNL A   1      31.932  22.792  23.945  1.00  0.00     0.039 C 
BRANCH  11  15
ATOM     15  C   UNL A   1      34.118  22.363  26.770  1.00  0.00     0.245 C 
ATOM     16  O   UNL A   1      33.877  22.670  27.943  1.00  0.00    -0.272 OA
BRANCH  15  17
ATOM     17  C   UNL A   1      35.538  22.592  26.237  1.00  0.00     0.168 C 
ATOM     18  C   UNL A   1      35.562  23.904  25.455  1.00  0.00     0.041 C 
BRANCH  17  19
ATOM     19  N   UNL A   1      36.080  21.493  25.459  1.00  0.00    -0.345 N 
ATOM     20  C   UNL A   1      38.442  22.094  25.831  1.00  0.00     0.114 C 
ATOM     21  C   UNL A   1      37.390  21.149  25.318  1.00  0.00     0.217 C 
ATOM     22  O   UNL A   1      37.664  20.100  24.740  1.00  0.00    -0.275 OA
ATOM     23  H   UNL A   1      35.427  20.933  24.980  1.00  0.00     0.164 HD
ENDBRANCH  17  19
ENDBRANCH  15  17
ENDBRANCH  11  15
ENDBRANCH   8  10
ENDBRANCH   7   8
ENDBRANCH   6   7
ENDBRANCH   5   6
ENDBRANCH   4   5
ENDBRANCH   3   4
ENDBRANCH   2   3
ENDBRANCH   1   2
BRANCH   1  24
ATOM     24  C   UNL A   1      32.927  28.950  24.580  1.00  0.00     0.188 C 
BRANCH  24  25
ATOM     25  C   UNL A   1      33.314  29.384  26.015  1.00  0.00     0.188 C 
BRANCH  25  26
ATOM     26  O   UNL A   1      32.819  30.657  26.413  1.00  0.00    -0.376 OA
BRANCH  26  27
ATOM     27  C   UNL A   1      33.329  31.243  27.600  1.00  0.00     0.202 C 
BRANCH  27  28
ATOM     28  C   UNL A   1      34.838  31.530  27.657  1.00  0.00     0.261 C 
BRANCH  28  29
ATOM     29  O   UNL A   1      35.578  30.835  28.667  1.00  0.00    -0.460 OA
BRANCH  29  30
ATOM     30  C   UNL A   1      36.564  31.515  29.295  1.00  0.00     0.338 C 
ATOM     31  O   UNL A   1      36.448  32.510  29.977  1.00  0.00    -0.246 OA
BRANCH  30  32
ATOM     32  C   UNL A   1      37.799  30.710  29.169  1.00  0.00     0.060 A 
ATOM     33  C   UNL A   1      38.673  30.624  30.261  1.00  0.00     0.016 A 
ATOM     34  C   UNL A   1      38.082  30.040  27.977  1.00  0.00     0.016 A 
ATOM     35  C   UNL A   1      39.861  29.900  30.149  1.00  0.00     0.010 A 
ATOM     36  C   UNL A   1      39.281  29.336  27.859  1.00  0.00     0.010 A 
ATOM     37  C   UNL A   1      40.192  29.299  28.930  1.00  0.00    -0.014 A 
BRANCH  37  38
ATOM     38  C   UNL A   1      41.579  28.844  28.676  1.00  0.00     0.031 A 
ATOM     39  C   UNL A   1      42.664  29.886  28.664  1.00  0.00     0.074 A 
ATOM     40  C   UNL A   1      41.872  27.556  28.436  1.00  0.00     0.049 A 
ATOM     41  N   UNL A   1      43.924  29.774  28.339  1.00  0.00    -0.248 NA
ATOM     42  C   UNL A   1      42.260  31.246  29.060  1.00  0.00     0.031 C 
ATOM     43  C   UNL A   1      40.915  26.452  28.462  1.00  0.00     0.029 A 
ATOM     44  N   UNL A   1      43.062  26.966  28.093  1.00  0.00    -0.354 N 
ATOM     45  C   UNL A   1      44.458  31.051  28.469  1.00  0.00     0.074 A 
ATOM     46  C   UNL A   1      43.379  31.925  28.873  1.00  0.00     0.031 C 
ATOM     47  C   UNL A   1      41.552  25.319  28.117  1.00  0.00     0.029 A 
ATOM     48  C   UNL A   1      42.948  25.628  27.805  1.00  0.00     0.049 A 
ATOM     49  H   UNL A   1      43.917  27.455  28.055  1.00  0.00     0.167 HD
ATOM     50  C   UNL A   1      45.734  31.458  28.270  1.00  0.00     0.037 A 
ATOM     51  C   UNL A   1      43.857  24.762  27.311  1.00  0.00     0.037 A 
ATOM     52  C   UNL A   1      46.795  30.579  27.855  1.00  0.00     0.049 A 
ATOM     53  C   UNL A   1      45.258  25.241  27.030  1.00  0.00     0.074 A 
ATOM     54  C   UNL A   1      48.127  30.882  27.638  1.00  0.00     0.029 A 
ATOM     55  N   UNL A   1      46.640  29.228  27.573  1.00  0.00    -0.354 N 
ATOM     56  N   UNL A   1      45.763  26.444  27.173  1.00  0.00    -0.248 NA
ATOM     57  C   UNL A   1      46.216  24.247  26.523  1.00  0.00     0.031 C 
ATOM     58  C   UNL A   1      48.763  29.730  27.166  1.00  0.00     0.029 A 
ATOM     59  C   UNL A   1      47.846  28.690  27.157  1.00  0.00     0.049 A 
ATOM     60  H   UNL A   1      45.796  28.727  27.655  1.00  0.00     0.167 HD
ATOM     61  C   UNL A   1      47.103  26.345  26.808  1.00  0.00     0.074 A 
ATOM     62  C   UNL A   1      47.329  24.963  26.433  1.00  0.00     0.031 C 
ATOM     63  C   UNL A   1      48.060  27.307  26.797  1.00  0.00     0.037 A 
BRANCH  50  64
ATOM     64  C   UNL A   1      46.026  32.923  28.449  1.00  0.00     0.058 A 
ATOM     65  C   UNL A   1      46.377  33.468  29.696  1.00  0.00     0.135 A 
ATOM     66  C   UNL A   1      45.926  33.802  27.358  1.00  0.00     0.135 A 
ATOM     67  F   UNL A   1      46.470  32.679  30.777  1.00  0.00    -0.206 F 
ATOM     68  C   UNL A   1      46.563  34.837  29.865  1.00  0.00     0.059 A 
ATOM     69  C   UNL A   1      46.145  35.169  27.496  1.00  0.00     0.059 A 
ATOM     70  F   UNL A   1      45.595  33.338  26.143  1.00  0.00    -0.206 F 
ATOM     71  C   UNL A   1      46.437  35.680  28.760  1.00  0.00     0.060 A 
BRANCH  71  72
ATOM     72  S   UNL A   1      46.637  37.457  29.004  1.00  0.00     0.124 S 
ATOM     73  O   UNL A   1      46.429  37.960  27.650  1.00  0.00    -0.237 OA
ATOM     74  O   UNL A   1      45.580  37.762  29.962  1.00  0.00    -0.237 OA
ATOM     75  O   UNL A   1      47.999  37.578  29.516  1.00  0.00    -0.744 OA
ENDBRANCH  71  72
ENDBRANCH  50  64
BRANCH  51  76
ATOM     76  C   UNL A   1      43.452  23.357  27.040  1.00  0.00     0.058 A 
ATOM     77  C   UNL A   1      43.370  22.412  28.072  1.00  0.00     0.135 A 
ATOM     78  C   UNL A   1      43.084  22.947  25.748  1.00  0.00     0.135 A 
ATOM     79  F   UNL A   1      43.727  22.749  29.320  1.00  0.00    -0.206 F 
ATOM     80  C   UNL A   1      42.928  21.113  27.837  1.00  0.00     0.059 A 
ATOM     81  C   UNL A   1      42.614  21.663  25.492  1.00  0.00     0.059 A 
ATOM     82  F   UNL A   1      43.140  23.815  24.726  1.00  0.00    -0.206 F 
ATOM     83  C   UNL A   1      42.539  20.753  26.546  1.00  0.00     0.060 A 
BRANCH  83  84
ATOM     84  S   UNL A   1      41.874  19.095  26.275  1.00  0.00     0.124 S 
ATOM     85  O   UNL A   1      42.802  18.564  25.283  1.00  0.00    -0.237 OA
ATOM     86  O   UNL A   1      41.962  18.511  27.609  1.00  0.00    -0.237 OA
ATOM     87  O   UNL A   1      40.518  19.351  25.798  1.00  0.00    -0.744 OA
ENDBRANCH  83  84
ENDBRANCH  51  76
BRANCH  63  88
ATOM     88  C   UNL A   1      49.463  26.908  26.421  1.00  0.00     0.058 A 
ATOM     89  C   UNL A   1      50.381  26.428  27.366  1.00  0.00     0.135 A 
ATOM     90  C   UNL A   1      49.855  26.914  25.071  1.00  0.00     0.135 A 
ATOM     91  F   UNL A   1      50.062  26.405  28.669  1.00  0.00    -0.206 F 
ATOM     92  C   UNL A   1      51.641  25.972  26.987  1.00  0.00     0.059 A 
ATOM     93  C   UNL A   1      51.097  26.436  24.667  1.00  0.00     0.059 A 
ATOM     94  F   UNL A   1      49.012  27.355  24.123  1.00  0.00    -0.206 F 
ATOM     95  C   UNL A   1      51.987  25.971  25.634  1.00  0.00     0.060 A 
BRANCH  95  96
ATOM     96  S   UNL A   1      53.598  25.315  25.150  1.00  0.00     0.124 S 
ATOM     97  O   UNL A   1      54.475  25.921  26.146  1.00  0.00    -0.237 OA
ATOM     98  O   UNL A   1      53.397  23.874  25.275  1.00  0.00    -0.237 OA
ATOM     99  O   UNL A   1      53.769  25.802  23.785  1.00  0.00    -0.744 OA
ENDBRANCH  95  96
ENDBRANCH  63  88
ENDBRANCH  37  38
ENDBRANCH  30  32
ENDBRANCH  29  30
ENDBRANCH  28  29
ENDBRANCH  27  28
ENDBRANCH  26  27
ENDBRANCH  25  26
ENDBRANCH  24  25
ENDBRANCH   1  24
TORSDOF 26
ENDMDL
MODEL 2
REMARK VINA RESULT:      -9.1      1.354      2.420
REMARK SMILES CC(=O)N[C@@H](C)C(=O)N1CCC[C@H]1C(=O)OCCOCCOCCOCCOC(=O)c1ccc(-c2c3nc(c(-c4c(F)cc(S(=O)(=O)[O-])cc4F)c4ccc([nH]4)c(-c4c(F)cc(S(=O)(=O)[O-])cc4F)c4nc(c(-c5c(F)cc(S(=O)(=O)[O-])cc5F)c5ccc2[nH]5)C=C4)C=C3)cc1
REMARK SMILES IDX 22 1 21 2 20 3 19 4 18 5 17 6 16 7 14 8 15 9 13 10 9 11
REMARK SMILES IDX 10 12 11 13 12 14 7 15 8 16 5 17 6 18 4 19 1 20 2 21 3 22
REMARK SMILES IDX 23 24 24 25 25 26 26 27 27 28 28 29 29 30 30 31 31 32 32 33
REMARK SMILES IDX 96 34 33 35 95 36 34 37 35 38 36 39 89 40 37 41 94 42 88 43
REMARK SMILES IDX 90 44 38 45 93 46 87 47 86 48 39 50 73 51 52 52 72 53 53 54
REMARK SMILES IDX 56 55 71 56 91 57 54 58 55 59 70 61 92 62 57 63 40 64 41 65
REMARK SMILES IDX 50 66 42 67 43 68 49 69 51 70 44 71 45 72 46 73 47 74 48 75
REMARK SMILES IDX 74 76 75 77 84 78 76 79 77 80 83 81 85 82 78 83 79 84 80 85
REMARK SMILES IDX 81 86 82 87 58 88 59 89 68 90 60 91 61 92 67 93 69 94 62 95
REMARK SMILES IDX 63 96 64 97 65 98 66 99
REMARK H PARENT 4 23 90 49 56 60
REMARK Flexibility Score: inf
ROOT
ATOM      1  O   UNL A   1      31.376  29.445  25.607  1.00  0.00    -0.377 OA
ENDROOT
BRANCH   1   2
ATOM      2  C   UNL A   1      31.874  29.309  24.298  1.00  0.00     0.188 C 
BRANCH   2   3
ATOM      3  C   UNL A   1      31.021  28.378  23.415  1.00  0.00     0.188 C 
BRANCH   3   4
ATOM      4  O   UNL A   1      30.373  27.225  23.938  1.00  0.00    -0.376 OA
BRANCH   4   5
ATOM      5  C   UNL A   1      31.082  26.063  24.364  1.00  0.00     0.202 C 
BRANCH   5   6
ATOM      6  C   UNL A   1      32.479  25.681  23.854  1.00  0.00     0.261 C 
BRANCH   6   7
ATOM      7  O   UNL A   1      32.570  24.325  23.450  1.00  0.00    -0.462 OA
BRANCH   7   8
ATOM      8  C   UNL A   1      31.517  23.515  23.709  1.00  0.00     0.328 C 
ATOM      9  O   UNL A   1      30.465  23.474  23.084  1.00  0.00    -0.250 OA
BRANCH   8  10
ATOM     10  C   UNL A   1      31.897  22.566  24.844  1.00  0.00     0.195 C 
ATOM     11  N   UNL A   1      33.248  22.730  25.326  1.00  0.00    -0.327 N 
ATOM     12  C   UNL A   1      33.238  23.574  26.500  1.00  0.00     0.120 C 
ATOM     13  C   UNL A   1      31.938  23.204  27.193  1.00  0.00     0.024 C 
ATOM     14  C   UNL A   1      30.996  22.788  26.068  1.00  0.00     0.039 C 
BRANCH  11  15
ATOM     15  C   UNL A   1      34.226  21.984  24.703  1.00  0.00     0.245 C 
ATOM     16  O   UNL A   1      34.858  22.460  23.753  1.00  0.00    -0.272 OA
BRANCH  15  17
ATOM     17  C   UNL A   1      34.326  20.474  24.957  1.00  0.00     0.168 C 
ATOM     18  C   UNL A   1      35.802  20.082  24.995  1.00  0.00     0.041 C 
BRANCH  17  19
ATOM     19  N   UNL A   1      33.575  19.650  24.027  1.00  0.00    -0.345 N 
ATOM     20  C   UNL A   1      32.746  18.079  25.736  1.00  0.00     0.114 C 
ATOM     21  C   UNL A   1      32.753  18.608  24.328  1.00  0.00     0.217 C 
ATOM     22  O   UNL A   1      32.078  18.112  23.428  1.00  0.00    -0.275 OA
ATOM     23  H   UNL A   1      33.670  19.871  23.073  1.00  0.00     0.164 HD
ENDBRANCH  17  19
ENDBRANCH  15  17
ENDBRANCH  11  15
ENDBRANCH   8  10
ENDBRANCH   7   8
ENDBRANCH   6   7
ENDBRANCH   5   6
ENDBRANCH   4   5
ENDBRANCH   3   4
ENDBRANCH   2   3
ENDBRANCH   1   2
BRANCH   1  24
ATOM     24  C   UNL A   1      32.332  29.457  26.660  1.00  0.00     0.188 C 
BRANCH  24  25
ATOM     25  C   UNL A   1      32.794  30.815  27.246  1.00  0.00     0.188 C 
BRANCH  25  26
ATOM     26  O   UNL A   1      34.186  31.081  27.119  1.00  0.00    -0.376 OA
BRANCH  26  27
ATOM     27  C   UNL A   1      34.760  32.093  27.931  1.00  0.00     0.202 C 
BRANCH  27  28
ATOM     28  C   UNL A   1      35.215  31.695  29.344  1.00  0.00     0.261 C 
BRANCH  28  29
ATOM     29  O   UNL A   1      35.894  30.439  29.461  1.00  0.00    -0.460 OA
BRANCH  29  30
ATOM     30  C   UNL A   1      36.610  30.220  30.587  1.00  0.00     0.338 C 
ATOM     31  O   UNL A   1      36.179  30.020  31.701  1.00  0.00    -0.246 OA
BRANCH  30  32
ATOM     32  C   UNL A   1      38.025  30.067  30.183  1.00  0.00     0.060 A 
ATOM     33  C   UNL A   1      38.342  29.988  28.820  1.00  0.00     0.016 A 
ATOM     34  C   UNL A   1      39.030  30.009  31.151  1.00  0.00     0.016 A 
ATOM     35  C   UNL A   1      39.666  29.806  28.421  1.00  0.00     0.010 A 
ATOM     36  C   UNL A   1      40.350  29.804  30.751  1.00  0.00     0.010 A 
ATOM     37  C   UNL A   1      40.667  29.661  29.388  1.00  0.00    -0.014 A 
BRANCH  37  38
ATOM     38  C   UNL A   1      41.992  29.115  29.013  1.00  0.00     0.031 A 
ATOM     39  C   UNL A   1      43.149  30.074  28.948  1.00  0.00     0.074 A 
ATOM     40  C   UNL A   1      42.166  27.818  28.710  1.00  0.00     0.049 A 
ATOM     41  N   UNL A   1      44.368  29.881  28.522  1.00  0.00    -0.248 NA
ATOM     42  C   UNL A   1      42.881  31.444  29.417  1.00  0.00     0.031 C 
ATOM     43  C   UNL A   1      41.133  26.788  28.778  1.00  0.00     0.029 A 
ATOM     44  N   UNL A   1      43.279  27.155  28.257  1.00  0.00    -0.354 N 
ATOM     45  C   UNL A   1      45.007  31.110  28.649  1.00  0.00     0.074 A 
ATOM     46  C   UNL A   1      44.031  32.045  29.164  1.00  0.00     0.031 C 
ATOM     47  C   UNL A   1      41.653  25.624  28.349  1.00  0.00     0.029 A 
ATOM     48  C   UNL A   1      43.041  25.840  27.938  1.00  0.00     0.049 A 
ATOM     49  H   UNL A   1      44.163  27.581  28.167  1.00  0.00     0.167 HD
ATOM     50  C   UNL A   1      46.291  31.428  28.363  1.00  0.00     0.037 A 
ATOM     51  C   UNL A   1      43.841  24.929  27.347  1.00  0.00     0.037 A 
ATOM     52  C   UNL A   1      47.247  30.490  27.838  1.00  0.00     0.049 A 
ATOM     53  C   UNL A   1      45.250  25.313  26.972  1.00  0.00     0.074 A 
ATOM     54  C   UNL A   1      48.578  30.701  27.528  1.00  0.00     0.029 A 
ATOM     55  N   UNL A   1      46.968  29.166  27.528  1.00  0.00    -0.354 N 
ATOM     56  N   UNL A   1      45.855  26.470  27.113  1.00  0.00    -0.248 NA
ATOM     57  C   UNL A   1      46.087  24.271  26.361  1.00  0.00     0.031 C 
ATOM     58  C   UNL A   1      49.087  29.524  26.971  1.00  0.00     0.029 A 
ATOM     59  C   UNL A   1      48.095  28.555  27.003  1.00  0.00     0.049 A 
ATOM     60  H   UNL A   1      46.098  28.726  27.661  1.00  0.00     0.167 HD
ATOM     61  C   UNL A   1      47.151  26.286  26.640  1.00  0.00     0.074 A 
ATOM     62  C   UNL A   1      47.242  24.906  26.206  1.00  0.00     0.031 C 
ATOM     63  C   UNL A   1      48.175  27.175  26.584  1.00  0.00     0.037 A 
BRANCH  50  64
ATOM     64  C   UNL A   1      46.707  32.861  28.564  1.00  0.00     0.058 A 
ATOM     65  C   UNL A   1      46.612  33.816  27.537  1.00  0.00     0.135 A 
ATOM     66  C   UNL A   1      47.235  33.278  29.796  1.00  0.00     0.135 A 
ATOM     67  F   UNL A   1      46.132  33.470  26.333  1.00  0.00    -0.206 F 
ATOM     68  C   UNL A   1      47.076  35.117  27.709  1.00  0.00     0.059 A 
ATOM     69  C   UNL A   1      47.670  34.584  30.002  1.00  0.00     0.059 A 
ATOM     70  F   UNL A   1      47.349  32.410  30.813  1.00  0.00    -0.206 F 
ATOM     71  C   UNL A   1      47.611  35.488  28.943  1.00  0.00     0.060 A 
BRANCH  71  72
ATOM     72  S   UNL A   1      48.250  37.165  29.137  1.00  0.00     0.124 S 
ATOM     73  O   UNL A   1      47.171  37.955  28.552  1.00  0.00    -0.237 OA
ATOM     74  O   UNL A   1      48.402  37.276  30.584  1.00  0.00    -0.237 OA
ATOM     75  O   UNL A   1      49.496  37.145  28.377  1.00  0.00    -0.744 OA
ENDBRANCH  71  72
ENDBRANCH  50  64
BRANCH  51  76
ATOM     76  C   UNL A   1      43.311  23.568  27.065  1.00  0.00     0.058 A 
ATOM     77  C   UNL A   1      42.987  23.170  25.761  1.00  0.00     0.135 A 
ATOM     78  C   UNL A   1      43.171  22.620  28.092  1.00  0.00     0.135 A 
ATOM     79  F   UNL A   1      43.087  24.044  24.748  1.00  0.00    -0.206 F 
ATOM     80  C   UNL A   1      42.554  21.877  25.481  1.00  0.00     0.059 A 
ATOM     81  C   UNL A   1      42.765  21.315  27.834  1.00  0.00     0.059 A 
ATOM     82  F   UNL A   1      43.472  22.950  29.358  1.00  0.00    -0.206 F 
ATOM     83  C   UNL A   1      42.460  20.953  26.523  1.00  0.00     0.060 A 
BRANCH  83  84
ATOM     84  S   UNL A   1      41.992  19.253  26.130  1.00  0.00     0.124 S 
ATOM     85  O   UNL A   1      42.773  19.004  24.924  1.00  0.00    -0.237 OA
ATOM     86  O   UNL A   1      42.420  18.536  27.327  1.00  0.00    -0.237 OA
ATOM     87  O   UNL A   1      40.547  19.337  25.941  1.00  0.00    -0.744 OA
ENDBRANCH  83  84
ENDBRANCH  51  76
BRANCH  63  88
ATOM     88  C   UNL A   1      49.511  26.688  26.087  1.00  0.00     0.058 A 
ATOM     89  C   UNL A   1      49.936  26.892  24.766  1.00  0.00     0.135 A 
ATOM     90  C   UNL A   1      50.418  26.097  26.983  1.00  0.00     0.135 A 
ATOM     91  F   UNL A   1      49.108  27.447  23.867  1.00  0.00    -0.206 F 
ATOM     92  C   UNL A   1      51.212  26.521  24.348  1.00  0.00     0.059 A 
ATOM     93  C   UNL A   1      51.707  25.745  26.595  1.00  0.00     0.059 A 
ATOM     94  F   UNL A   1      50.067  25.887  28.262  1.00  0.00    -0.206 F 
ATOM     95  C   UNL A   1      52.094  25.957  25.273  1.00  0.00     0.060 A 
BRANCH  95  96
ATOM     96  S   UNL A   1      53.767  25.544  24.735  1.00  0.00     0.124 S 
ATOM     97  O   UNL A   1      53.808  26.150  23.408  1.00  0.00    -0.237 OA
ATOM     98  O   UNL A   1      54.590  26.191  25.754  1.00  0.00    -0.237 OA
ATOM     99  O   UNL A   1      53.783  24.085  24.759  1.00  0.00    -0.744 OA
ENDBRANCH  95  96
ENDBRANCH  63  88
ENDBRANCH  37  38
ENDBRANCH  30  32
ENDBRANCH  29  30
ENDBRANCH  28  29
ENDBRANCH  27  28
ENDBRANCH  26  27
ENDBRANCH  25  26
ENDBRANCH  24  25
ENDBRANCH   1  24
TORSDOF 26
ENDMDL
MODEL 3
REMARK VINA RESULT:      -8.9      1.517      3.519
REMARK SMILES CC(=O)N[C@@H](C)C(=O)N1CCC[C@H]1C(=O)OCCOCCOCCOCCOC(=O)c1ccc(-c2c3nc(c(-c4c(F)cc(S(=O)(=O)[O-])cc4F)c4ccc([nH]4)c(-c4c(F)cc(S(=O)(=O)[O-])cc4F)c4nc(c(-c5c(F)cc(S(=O)(=O)[O-])cc5F)c5ccc2[nH]5)C=C4)C=C3)cc1
REMARK SMILES IDX 22 1 21 2 20 3 19 4 18 5 17 6 16 7 14 8 15 9 13 10 9 11
REMARK SMILES IDX 10 12 11 13 12 14 7 15 8 16 5 17 6 18 4 19 1 20 2 21 3 22
REMARK SMILES IDX 23 24 24 25 25 26 26 27 27 28 28 29 29 30 30 31 31 32 32 33
REMARK SMILES IDX 96 34 33 35 95 36 34 37 35 38 36 39 89 40 37 41 94 42 88 43
REMARK SMILES IDX 90 44 38 45 93 46 87 47 86 48 39 50 73 51 52 52 72 53 53 54
REMARK SMILES IDX 56 55 71 56 91 57 54 58 55 59 70 61 92 62 57 63 40 64 41 65
REMARK SMILES IDX 50 66 42 67 43 68 49 69 51 70 44 71 45 72 46 73 47 74 48 75
REMARK SMILES IDX 74 76 75 77 84 78 76 79 77 80 83 81 85 82 78 83 79 84 80 85
REMARK SMILES IDX 81 86 82 87 58 88 59 89 68 90 60 91 61 92 67 93 69 94 62 95
REMARK SMILES IDX 63 96 64 97 65 98 66 99
REMARK H PARENT 4 23 90 49 56 60
REMARK Flexibility Score: inf
ROOT
ATOM      1  O   UNL A   1      33.205  32.568  27.775  1.00  0.00    -0.377 OA
ENDROOT
BRANCH   1   2
ATOM      2  C   UNL A   1      31.943  32.215  27.263  1.00  0.00     0.188 C 
BRANCH   2   3
ATOM      3  C   UNL A   1      31.958  30.907  26.448  1.00  0.00     0.188 C 
BRANCH   3   4
ATOM      4  O   UNL A   1      32.916  29.882  26.684  1.00  0.00    -0.376 OA
BRANCH   4   5
ATOM      5  C   UNL A   1      32.771  28.554  26.184  1.00  0.00     0.202 C 
BRANCH   5   6
ATOM      6  C   UNL A   1      33.822  27.451  26.374  1.00  0.00     0.261 C 
BRANCH   6   7
ATOM      7  O   UNL A   1      33.251  26.159  26.506  1.00  0.00    -0.462 OA
BRANCH   7   8
ATOM      8  C   UNL A   1      31.982  25.981  26.073  1.00  0.00     0.328 C 
ATOM      9  O   UNL A   1      30.977  26.502  26.542  1.00  0.00    -0.250 OA
BRANCH   8  10
ATOM     10  C   UNL A   1      32.010  25.110  24.819  1.00  0.00     0.195 C 
ATOM     11  N   UNL A   1      33.131  25.365  23.946  1.00  0.00    -0.327 N 
ATOM     12  C   UNL A   1      34.177  24.404  24.216  1.00  0.00     0.120 C 
ATOM     13  C   UNL A   1      33.415  23.138  24.566  1.00  0.00     0.024 C 
ATOM     14  C   UNL A   1      32.110  23.622  25.188  1.00  0.00     0.039 C 
BRANCH  11  15
ATOM     15  C   UNL A   1      32.956  26.329  22.976  1.00  0.00     0.245 C 
ATOM     16  O   UNL A   1      33.547  27.412  23.064  1.00  0.00    -0.272 OA
BRANCH  15  17
ATOM     17  C   UNL A   1      31.810  26.209  21.964  1.00  0.00     0.168 C 
ATOM     18  C   UNL A   1      32.324  25.476  20.726  1.00  0.00     0.041 C 
BRANCH  17  19
ATOM     19  N   UNL A   1      31.171  27.466  21.616  1.00  0.00    -0.345 N 
ATOM     20  C   UNL A   1      29.645  27.488  23.552  1.00  0.00     0.114 C 
ATOM     21  C   UNL A   1      30.253  28.154  22.349  1.00  0.00     0.217 C 
ATOM     22  O   UNL A   1      29.924  29.277  21.974  1.00  0.00    -0.275 OA
ATOM     23  H   UNL A   1      31.433  27.866  20.756  1.00  0.00     0.164 HD
ENDBRANCH  17  19
ENDBRANCH  15  17
ENDBRANCH  11  15
ENDBRANCH   8  10
ENDBRANCH   7   8
ENDBRANCH   6   7
ENDBRANCH   5   6
ENDBRANCH   4   5
ENDBRANCH   3   4
ENDBRANCH   2   3
ENDBRANCH   1   2
BRANCH   1  24
ATOM     24  C   UNL A   1      33.436  33.950  28.019  1.00  0.00     0.188 C 
BRANCH  24  25
ATOM     25  C   UNL A   1      33.612  34.440  29.478  1.00  0.00     0.188 C 
BRANCH  25  26
ATOM     26  O   UNL A   1      34.139  33.472  30.378  1.00  0.00    -0.376 OA
BRANCH  26  27
ATOM     27  C   UNL A   1      35.524  33.511  30.680  1.00  0.00     0.202 C 
BRANCH  27  28
ATOM     28  C   UNL A   1      36.464  32.663  29.809  1.00  0.00     0.261 C 
BRANCH  28  29
ATOM     29  O   UNL A   1      36.074  31.301  29.596  1.00  0.00    -0.460 OA
BRANCH  29  30
ATOM     30  C   UNL A   1      36.609  30.365  30.412  1.00  0.00     0.338 C 
ATOM     31  O   UNL A   1      36.022  29.674  31.216  1.00  0.00    -0.246 OA
BRANCH  30  32
ATOM     32  C   UNL A   1      38.020  30.185  30.007  1.00  0.00     0.060 A 
ATOM     33  C   UNL A   1      38.315  29.899  28.667  1.00  0.00     0.016 A 
ATOM     34  C   UNL A   1      39.042  30.307  30.950  1.00  0.00     0.016 A 
ATOM     35  C   UNL A   1      39.637  29.689  28.273  1.00  0.00     0.010 A 
ATOM     36  C   UNL A   1      40.361  30.074  30.559  1.00  0.00     0.010 A 
ATOM     37  C   UNL A   1      40.658  29.724  29.230  1.00  0.00    -0.014 A 
BRANCH  37  38
ATOM     38  C   UNL A   1      41.992  29.160  28.916  1.00  0.00     0.031 A 
ATOM     39  C   UNL A   1      43.161  30.105  28.889  1.00  0.00     0.074 A 
ATOM     40  C   UNL A   1      42.163  27.857  28.636  1.00  0.00     0.049 A 
ATOM     41  N   UNL A   1      44.395  29.894  28.517  1.00  0.00    -0.248 NA
ATOM     42  C   UNL A   1      42.889  31.483  29.331  1.00  0.00     0.031 C 
ATOM     43  C   UNL A   1      41.116  26.840  28.672  1.00  0.00     0.029 A 
ATOM     44  N   UNL A   1      43.286  27.177  28.238  1.00  0.00    -0.354 N 
ATOM     45  C   UNL A   1      45.042  31.117  28.657  1.00  0.00     0.074 A 
ATOM     46  C   UNL A   1      44.056  32.069  29.119  1.00  0.00     0.031 C 
ATOM     47  C   UNL A   1      41.641  25.666  28.278  1.00  0.00     0.029 A 
ATOM     48  C   UNL A   1      43.047  25.861  27.924  1.00  0.00     0.049 A 
ATOM     49  H   UNL A   1      44.178  27.592  28.180  1.00  0.00     0.167 HD
ATOM     50  C   UNL A   1      46.341  31.418  28.422  1.00  0.00     0.037 A 
ATOM     51  C   UNL A   1      43.860  24.934  27.378  1.00  0.00     0.037 A 
ATOM     52  C   UNL A   1      47.307  30.463  27.949  1.00  0.00     0.049 A 
ATOM     53  C   UNL A   1      45.288  25.299  27.058  1.00  0.00     0.074 A 
ATOM     54  C   UNL A   1      48.652  30.656  27.692  1.00  0.00     0.029 A 
ATOM     55  N   UNL A   1      47.026  29.138  27.642  1.00  0.00    -0.354 N 
ATOM     56  N   UNL A   1      45.900  26.450  27.211  1.00  0.00    -0.248 NA
ATOM     57  C   UNL A   1      46.138  24.240  26.494  1.00  0.00     0.031 C 
ATOM     58  C   UNL A   1      49.170  29.466  27.171  1.00  0.00     0.029 A 
ATOM     59  C   UNL A   1      48.167  28.509  27.171  1.00  0.00     0.049 A 
ATOM     60  H   UNL A   1      46.146  28.709  27.743  1.00  0.00     0.167 HD
ATOM     61  C   UNL A   1      47.213  26.246  26.795  1.00  0.00     0.074 A 
ATOM     62  C   UNL A   1      47.306  24.861  26.381  1.00  0.00     0.031 C 
ATOM     63  C   UNL A   1      48.248  27.123  26.772  1.00  0.00     0.037 A 
BRANCH  50  64
ATOM     64  C   UNL A   1      46.764  32.848  28.623  1.00  0.00     0.058 A 
ATOM     65  C   UNL A   1      47.271  33.311  29.850  1.00  0.00     0.135 A 
ATOM     66  C   UNL A   1      46.634  33.777  27.579  1.00  0.00     0.135 A 
ATOM     67  F   UNL A   1      47.400  32.471  30.889  1.00  0.00    -0.206 F 
ATOM     68  C   UNL A   1      47.580  34.653  30.048  1.00  0.00     0.059 A 
ATOM     69  C   UNL A   1      46.973  35.117  27.744  1.00  0.00     0.059 A 
ATOM     70  F   UNL A   1      46.156  33.392  26.386  1.00  0.00    -0.206 F 
ATOM     71  C   UNL A   1      47.420  35.549  28.991  1.00  0.00     0.060 A 
BRANCH  71  72
ATOM     72  S   UNL A   1      47.783  37.294  29.277  1.00  0.00     0.124 S 
ATOM     73  O   UNL A   1      48.979  37.208  30.110  1.00  0.00    -0.237 OA
ATOM     74  O   UNL A   1      47.990  37.796  27.923  1.00  0.00    -0.237 OA
ATOM     75  O   UNL A   1      46.585  37.786  29.949  1.00  0.00    -0.744 OA
ENDBRANCH  71  72
ENDBRANCH  50  64
BRANCH  51  76
ATOM     76  C   UNL A   1      43.327  23.576  27.089  1.00  0.00     0.058 A 
ATOM     77  C   UNL A   1      42.994  23.188  25.784  1.00  0.00     0.135 A 
ATOM     78  C   UNL A   1      43.193  22.620  28.110  1.00  0.00     0.135 A 
ATOM     79  F   UNL A   1      43.087  24.070  24.777  1.00  0.00    -0.206 F 
ATOM     80  C   UNL A   1      42.557  21.898  25.497  1.00  0.00     0.059 A 
ATOM     81  C   UNL A   1      42.784  21.318  27.845  1.00  0.00     0.059 A 
ATOM     82  F   UNL A   1      43.503  22.941  29.376  1.00  0.00    -0.206 F 
ATOM     83  C   UNL A   1      42.469  20.966  26.533  1.00  0.00     0.060 A 
BRANCH  83  84
ATOM     84  S   UNL A   1      41.997  19.269  26.131  1.00  0.00     0.124 S 
ATOM     85  O   UNL A   1      40.565  19.411  25.892  1.00  0.00    -0.237 OA
ATOM     86  O   UNL A   1      42.816  18.997  24.954  1.00  0.00    -0.237 OA
ATOM     87  O   UNL A   1      42.367  18.524  27.330  1.00  0.00    -0.744 OA
ENDBRANCH  83  84
ENDBRANCH  51  76
BRANCH  63  88
ATOM     88  C   UNL A   1      49.598  26.615  26.337  1.00  0.00     0.058 A 
ATOM     89  C   UNL A   1      50.067  26.771  25.025  1.00  0.00     0.135 A 
ATOM     90  C   UNL A   1      50.473  26.055  27.283  1.00  0.00     0.135 A 
ATOM     91  F   UNL A   1      49.271  27.295  24.079  1.00  0.00    -0.206 F 
ATOM     92  C   UNL A   1      51.355  26.383  24.663  1.00  0.00     0.059 A 
ATOM     93  C   UNL A   1      51.773  25.687  26.951  1.00  0.00     0.059 A 
ATOM     94  F   UNL A   1      50.079  25.891  28.557  1.00  0.00    -0.206 F 
ATOM     95  C   UNL A   1      52.204  25.850  25.636  1.00  0.00     0.060 A 
BRANCH  95  96
ATOM     96  S   UNL A   1      53.893  25.414  25.169  1.00  0.00     0.124 S 
ATOM     97  O   UNL A   1      54.181  26.411  24.143  1.00  0.00    -0.237 OA
ATOM     98  O   UNL A   1      54.614  25.572  26.429  1.00  0.00    -0.237 OA
ATOM     99  O   UNL A   1      53.771  24.040  24.691  1.00  0.00    -0.744 OA
ENDBRANCH  95  96
ENDBRANCH  63  88
ENDBRANCH  37  38
ENDBRANCH  30  32
ENDBRANCH  29  30
ENDBRANCH  28  29
ENDBRANCH  27  28
ENDBRANCH  26  27
ENDBRANCH  25  26
ENDBRANCH  24  25
ENDBRANCH   1  24
TORSDOF 26
ENDMDL
