MODEL 1
REMARK VINA RESULT:      -9.0      0.000      0.000
REMARK SMILES O=C(OCCOCCOCCOCCOC(=O)c1ccccc1C(=O)Nc1ccc(N2C(=O)[C@H]3[C@@H]4CC[C@@H](C4)[C@@H]3C2=O)cc1)c1ccc(-c2c3nc(c(-c4c(F)cc(S(=O)(=O)[O-])cc4F)c4ccc([nH]4)c(-c4c(F)cc(S(=O)(=O)[O-])cc4F)c4nc(c(-c5c(F)cc(S(=O)(=O)[O-])cc5F)c5ccc2[nH]5)C=C4)C=C3)cc1
REMARK SMILES IDX 9 1 8 2 7 3 6 4 5 5 4 6 3 7 2 8 1 9 45 10 46 11 110 12 47 13
REMARK SMILES IDX 109 14 48 15 49 16 50 17 103 18 51 19 108 20 102 21 104 22
REMARK SMILES IDX 52 23 107 24 101 25 100 26 53 28 87 29 66 30 86 31 67 32
REMARK SMILES IDX 70 33 85 34 105 35 68 36 69 37 84 39 106 40 71 41 54 42
REMARK SMILES IDX 55 43 64 44 56 45 57 46 63 47 65 48 58 49 59 50 60 51 61 52
REMARK SMILES IDX 62 53 88 54 89 55 98 56 90 57 91 58 97 59 99 60 92 61 93 62
REMARK SMILES IDX 94 63 95 64 96 65 72 66 73 67 82 68 74 69 75 70 81 71 83 72
REMARK SMILES IDX 76 73 77 74 78 75 79 76 80 77 10 78 11 79 12 80 13 81 14 82
REMARK SMILES IDX 15 83 16 84 17 85 18 86 19 87 23 88 20 89 22 90 21 91 24 92
REMARK SMILES IDX 25 93 26 94 27 96 28 97 44 98 29 99 43 100 30 101 31 102
REMARK SMILES IDX 32 103 41 104 33 105 34 106 40 107 42 108 35 109 38 110
REMARK SMILES IDX 36 111 39 112 37 113
REMARK H PARENT 104 27 70 38 26 95
REMARK Flexibility Score: inf
ROOT
ATOM      1  O   UNL A   1      39.689  33.500  31.620  1.00  0.00    -0.377 OA
ENDROOT
BRANCH   1   2
ATOM      2  C   UNL A   1      38.669  34.499  31.710  1.00  0.00     0.188 C 
BRANCH   2   3
ATOM      3  C   UNL A   1      37.386  33.996  32.378  1.00  0.00     0.188 C 
BRANCH   3   4
ATOM      4  O   UNL A   1      36.252  34.246  31.532  1.00  0.00    -0.376 OA
BRANCH   4   5
ATOM      5  C   UNL A   1      35.820  33.074  30.835  1.00  0.00     0.202 C 
BRANCH   5   6
ATOM      6  C   UNL A   1      36.151  33.182  29.347  1.00  0.00     0.261 C 
BRANCH   6   7
ATOM      7  O   UNL A   1      35.259  32.347  28.580  1.00  0.00    -0.460 OA
BRANCH   7   8
ATOM      8  C   UNL A   1      35.231  30.991  28.668  1.00  0.00     0.338 C 
ATOM      9  O   UNL A   1      34.184  30.369  28.522  1.00  0.00    -0.246 OA
BRANCH   8  10
ATOM     10  C   UNL A   1      36.523  30.257  28.651  1.00  0.00     0.060 A 
ATOM     11  C   UNL A   1      37.101  29.681  29.784  1.00  0.00     0.016 A 
ATOM     12  C   UNL A   1      37.156  30.112  27.410  1.00  0.00     0.016 A 
ATOM     13  C   UNL A   1      38.369  29.103  29.709  1.00  0.00     0.010 A 
ATOM     14  C   UNL A   1      38.408  29.495  27.326  1.00  0.00     0.010 A 
ATOM     15  C   UNL A   1      39.050  29.042  28.488  1.00  0.00    -0.014 A 
BRANCH  15  16
ATOM     16  C   UNL A   1      40.491  28.693  28.445  1.00  0.00     0.031 A 
ATOM     17  C   UNL A   1      41.487  29.738  28.872  1.00  0.00     0.074 A 
ATOM     18  C   UNL A   1      40.918  27.463  28.109  1.00  0.00     0.049 A 
ATOM     19  N   UNL A   1      42.790  29.732  28.775  1.00  0.00    -0.248 NA
ATOM     20  C   UNL A   1      40.934  30.950  29.501  1.00  0.00     0.031 C 
ATOM     21  C   UNL A   1      40.063  26.320  27.794  1.00  0.00     0.029 A 
ATOM     22  N   UNL A   1      42.194  26.968  28.002  1.00  0.00    -0.354 N 
ATOM     23  C   UNL A   1      43.210  30.954  29.288  1.00  0.00     0.074 A 
ATOM     24  C   UNL A   1      42.026  31.669  29.711  1.00  0.00     0.031 C 
ATOM     25  C   UNL A   1      40.840  25.245  27.564  1.00  0.00     0.029 A 
ATOM     26  C   UNL A   1      42.244  25.641  27.647  1.00  0.00     0.049 A 
ATOM     27  H   UNL A   1      42.997  27.512  28.166  1.00  0.00     0.167 HD
ATOM     28  C   UNL A   1      44.467  31.446  29.383  1.00  0.00     0.037 A 
ATOM     29  C   UNL A   1      43.306  24.852  27.388  1.00  0.00     0.037 A 
ATOM     30  C   UNL A   1      45.643  30.739  28.961  1.00  0.00     0.049 A 
ATOM     31  C   UNL A   1      44.692  25.443  27.415  1.00  0.00     0.074 A 
ATOM     32  C   UNL A   1      46.951  31.185  28.908  1.00  0.00     0.029 A 
ATOM     33  N   UNL A   1      45.650  29.421  28.535  1.00  0.00    -0.354 N 
ATOM     34  N   UNL A   1      45.069  26.651  27.765  1.00  0.00    -0.248 NA
ATOM     35  C   UNL A   1      45.793  24.576  26.968  1.00  0.00     0.031 C 
ATOM     36  C   UNL A   1      47.749  30.136  28.437  1.00  0.00     0.029 A 
ATOM     37  C   UNL A   1      46.938  29.034  28.218  1.00  0.00     0.049 A 
ATOM     38  H   UNL A   1      44.854  28.845  28.467  1.00  0.00     0.167 HD
ATOM     39  C   UNL A   1      46.446  26.689  27.572  1.00  0.00     0.074 A 
ATOM     40  C   UNL A   1      46.841  25.378  27.100  1.00  0.00     0.031 C 
ATOM     41  C   UNL A   1      47.305  27.721  27.751  1.00  0.00     0.037 A 
BRANCH  28  42
ATOM     42  C   UNL A   1      44.603  32.840  29.912  1.00  0.00     0.058 A 
ATOM     43  C   UNL A   1      44.379  33.958  29.094  1.00  0.00     0.135 A 
ATOM     44  C   UNL A   1      45.023  33.060  31.232  1.00  0.00     0.135 A 
ATOM     45  F   UNL A   1      44.005  33.796  27.814  1.00  0.00    -0.206 F 
ATOM     46  C   UNL A   1      44.601  35.250  29.559  1.00  0.00     0.059 A 
ATOM     47  C   UNL A   1      45.241  34.342  31.722  1.00  0.00     0.059 A 
ATOM     48  F   UNL A   1      45.263  32.019  32.045  1.00  0.00    -0.206 F 
ATOM     49  C   UNL A   1      45.049  35.430  30.869  1.00  0.00     0.060 A 
BRANCH  49  50
ATOM     50  S   UNL A   1      45.405  37.103  31.444  1.00  0.00     0.124 S 
ATOM     51  O   UNL A   1      44.096  37.736  31.312  1.00  0.00    -0.237 OA
ATOM     52  O   UNL A   1      45.864  36.878  32.811  1.00  0.00    -0.237 OA
ATOM     53  O   UNL A   1      46.426  37.570  30.512  1.00  0.00    -0.744 OA
ENDBRANCH  49  50
ENDBRANCH  28  42
BRANCH  29  54
ATOM     54  C   UNL A   1      43.113  23.422  27.036  1.00  0.00     0.058 A 
ATOM     55  C   UNL A   1      43.322  22.977  25.724  1.00  0.00     0.135 A 
ATOM     56  C   UNL A   1      42.690  22.482  27.989  1.00  0.00     0.135 A 
ATOM     57  F   UNL A   1      43.709  23.844  24.777  1.00  0.00    -0.206 F 
ATOM     58  C   UNL A   1      43.111  21.649  25.361  1.00  0.00     0.059 A 
ATOM     59  C   UNL A   1      42.487  21.147  27.655  1.00  0.00     0.059 A 
ATOM     60  F   UNL A   1      42.479  22.860  29.259  1.00  0.00    -0.206 F 
ATOM     61  C   UNL A   1      42.688  20.743  26.335  1.00  0.00     0.060 A 
BRANCH  61  62
ATOM     62  S   UNL A   1      42.441  19.011  25.885  1.00  0.00     0.124 S 
ATOM     63  O   UNL A   1      43.263  18.902  24.687  1.00  0.00    -0.237 OA
ATOM     64  O   UNL A   1      42.932  18.302  27.063  1.00  0.00    -0.237 OA
ATOM     65  O   UNL A   1      40.998  18.931  25.676  1.00  0.00    -0.744 OA
ENDBRANCH  61  62
ENDBRANCH  29  54
BRANCH  41  66
ATOM     66  C   UNL A   1      48.751  27.484  27.431  1.00  0.00     0.058 A 
ATOM     67  C   UNL A   1      49.233  27.626  26.120  1.00  0.00     0.135 A 
ATOM     68  C   UNL A   1      49.673  27.195  28.447  1.00  0.00     0.135 A 
ATOM     69  F   UNL A   1      48.385  27.900  25.116  1.00  0.00    -0.206 F 
ATOM     70  C   UNL A   1      50.585  27.491  25.828  1.00  0.00     0.059 A 
ATOM     71  C   UNL A   1      51.033  27.067  28.179  1.00  0.00     0.059 A 
ATOM     72  F   UNL A   1      49.259  27.058  29.717  1.00  0.00    -0.206 F 
ATOM     73  C   UNL A   1      51.478  27.213  26.864  1.00  0.00     0.060 A 
BRANCH  73  74
ATOM     74  S   UNL A   1      53.242  27.106  26.491  1.00  0.00     0.124 S 
ATOM     75  O   UNL A   1      53.740  28.349  27.067  1.00  0.00    -0.237 OA
ATOM     76  O   UNL A   1      53.640  25.883  27.183  1.00  0.00    -0.237 OA
ATOM     77  O   UNL A   1      53.272  27.029  25.033  1.00  0.00    -0.744 OA
ENDBRANCH  73  74
ENDBRANCH  41  66
ENDBRANCH  15  16
ENDBRANCH   8  10
ENDBRANCH   7   8
ENDBRANCH   6   7
ENDBRANCH   5   6
ENDBRANCH   4   5
ENDBRANCH   3   4
ENDBRANCH   2   3
ENDBRANCH   1   2
BRANCH   1  78
ATOM     78  C   UNL A   1      40.377  33.209  32.838  1.00  0.00     0.188 C 
BRANCH  78  79
ATOM     79  C   UNL A   1      40.658  31.720  33.084  1.00  0.00     0.188 C 
BRANCH  79  80
ATOM     80  O   UNL A   1      41.785  31.610  33.961  1.00  0.00    -0.376 OA
BRANCH  80  81
ATOM     81  C   UNL A   1      42.830  30.767  33.462  1.00  0.00     0.202 C 
BRANCH  81  82
ATOM     82  C   UNL A   1      42.279  29.322  32.931  1.00  0.00     0.261 C 
BRANCH  82  83
ATOM     83  O   UNL A   1      42.970  27.470  33.306  1.00  0.00    -0.460 OA
BRANCH  83  84
ATOM     84  C   UNL A   1      43.579  26.271  33.702  1.00  0.00     0.339 C 
ATOM     85  O   UNL A   1      43.179  25.454  34.518  1.00  0.00    -0.246 OA
BRANCH  84  86
ATOM     86  C   UNL A   1      44.830  26.035  32.930  1.00  0.00     0.072 A 
ATOM     87  C   UNL A   1      44.628  25.453  31.664  1.00  0.00     0.016 A 
ATOM     88  C   UNL A   1      46.122  26.447  33.322  1.00  0.00     0.054 A 
ATOM     89  C   UNL A   1      45.686  25.321  30.768  1.00  0.00     0.001 A 
ATOM     90  C   UNL A   1      47.180  26.283  32.406  1.00  0.00     0.015 A 
ATOM     91  C   UNL A   1      46.960  25.745  31.135  1.00  0.00     0.001 A 
BRANCH  88  92
ATOM     92  C   UNL A   1      46.520  27.050  34.637  1.00  0.00     0.256 C 
ATOM     93  O   UNL A   1      46.715  28.267  34.680  1.00  0.00    -0.269 OA
ATOM     94  N   UNL A   1      46.684  26.303  35.786  1.00  0.00    -0.322 N 
ATOM     95  H   UNL A   1      46.957  26.774  36.607  1.00  0.00     0.170 HD
BRANCH  94  96
ATOM     96  C   UNL A   1      46.485  24.925  35.858  1.00  0.00     0.041 A 
ATOM     97  C   UNL A   1      47.958  23.890  36.051  1.00  0.00     0.028 A 
ATOM     98  C   UNL A   1      44.941  24.463  36.677  1.00  0.00     0.028 A 
ATOM     99  C   UNL A   1      47.921  22.490  37.195  1.00  0.00     0.029 A 
ATOM    100  C   UNL A   1      44.899  23.026  37.785  1.00  0.00     0.029 A 
ATOM    101  C   UNL A   1      46.387  22.039  38.043  1.00  0.00     0.052 A 
BRANCH 101 102
ATOM    102  N   UNL A   1      46.351  20.845  38.798  1.00  0.00    -0.250 N 
ATOM    103  C   UNL A   1      46.677  19.568  38.303  1.00  0.00     0.237 C 
ATOM    104  C   UNL A   1      46.228  20.817  40.198  1.00  0.00     0.237 C 
ATOM    105  O   UNL A   1      47.078  19.222  37.210  1.00  0.00    -0.274 OA
ATOM    106  C   UNL A   1      46.407  18.664  39.473  1.00  0.00     0.095 C 
ATOM    107  C   UNL A   1      46.975  19.579  40.546  1.00  0.00     0.095 C 
ATOM    108  O   UNL A   1      45.780  21.622  40.992  1.00  0.00    -0.274 OA
ATOM    109  C   UNL A   1      46.927  17.301  39.944  1.00  0.00     0.002 C 
ATOM    110  C   UNL A   1      47.120  18.664  41.740  1.00  0.00     0.002 C 
ATOM    111  C   UNL A   1      45.834  16.777  40.910  1.00  0.00     0.005 C 
ATOM    112  C   UNL A   1      47.996  17.612  41.015  1.00  0.00     0.009 C 
ATOM    113  C   UNL A   1      45.856  17.838  42.043  1.00  0.00     0.005 C 
ENDBRANCH 101 102
ENDBRANCH  94  96
ENDBRANCH  88  92
ENDBRANCH  84  86
ENDBRANCH  83  84
ENDBRANCH  82  83
ENDBRANCH  81  82
ENDBRANCH  80  81
ENDBRANCH  79  80
ENDBRANCH  78  79
ENDBRANCH   1  78
TORSDOF 26
ENDMDL
MODEL 2
REMARK VINA RESULT:      -9.0      2.608      8.177
REMARK SMILES O=C(OCCOCCOCCOCCOC(=O)c1ccccc1C(=O)Nc1ccc(N2C(=O)[C@H]3[C@@H]4CC[C@@H](C4)[C@@H]3C2=O)cc1)c1ccc(-c2c3nc(c(-c4c(F)cc(S(=O)(=O)[O-])cc4F)c4ccc([nH]4)c(-c4c(F)cc(S(=O)(=O)[O-])cc4F)c4nc(c(-c5c(F)cc(S(=O)(=O)[O-])cc5F)c5ccc2[nH]5)C=C4)C=C3)cc1
REMARK SMILES IDX 9 1 8 2 7 3 6 4 5 5 4 6 3 7 2 8 1 9 45 10 46 11 110 12 47 13
REMARK SMILES IDX 109 14 48 15 49 16 50 17 103 18 51 19 108 20 102 21 104 22
REMARK SMILES IDX 52 23 107 24 101 25 100 26 53 28 87 29 66 30 86 31 67 32
REMARK SMILES IDX 70 33 85 34 105 35 68 36 69 37 84 39 106 40 71 41 54 42
REMARK SMILES IDX 55 43 64 44 56 45 57 46 63 47 65 48 58 49 59 50 60 51 61 52
REMARK SMILES IDX 62 53 88 54 89 55 98 56 90 57 91 58 97 59 99 60 92 61 93 62
REMARK SMILES IDX 94 63 95 64 96 65 72 66 73 67 82 68 74 69 75 70 81 71 83 72
REMARK SMILES IDX 76 73 77 74 78 75 79 76 80 77 10 78 11 79 12 80 13 81 14 82
REMARK SMILES IDX 15 83 16 84 17 85 18 86 19 87 23 88 20 89 22 90 21 91 24 92
REMARK SMILES IDX 25 93 26 94 27 96 28 97 44 98 29 99 43 100 30 101 31 102
REMARK SMILES IDX 32 103 41 104 33 105 34 106 40 107 42 108 35 109 38 110
REMARK SMILES IDX 36 111 39 112 37 113
REMARK H PARENT 104 27 70 38 26 95
REMARK Flexibility Score: inf
ROOT
ATOM      1  O   UNL A   1      39.840  34.390  35.590  1.00  0.00    -0.377 OA
ENDROOT
BRANCH   1   2
ATOM      2  C   UNL A   1      40.296  34.366  34.233  1.00  0.00     0.188 C 
BRANCH   2   3
ATOM      3  C   UNL A   1      39.218  34.770  33.225  1.00  0.00     0.188 C 
BRANCH   3   4
ATOM      4  O   UNL A   1      37.919  34.724  33.836  1.00  0.00    -0.376 OA
BRANCH   4   5
ATOM      5  C   UNL A   1      36.944  34.093  33.002  1.00  0.00     0.202 C 
BRANCH   5   6
ATOM      6  C   UNL A   1      37.562  33.691  31.664  1.00  0.00     0.261 C 
BRANCH   6   7
ATOM      7  O   UNL A   1      36.902  32.516  31.147  1.00  0.00    -0.460 OA
BRANCH   7   8
ATOM      8  C   UNL A   1      37.181  31.251  31.559  1.00  0.00     0.338 C 
ATOM      9  O   UNL A   1      36.337  30.574  32.137  1.00  0.00    -0.246 OA
BRANCH   8  10
ATOM     10  C   UNL A   1      38.411  30.598  31.044  1.00  0.00     0.060 A 
ATOM     11  C   UNL A   1      39.493  30.239  31.852  1.00  0.00     0.016 A 
ATOM     12  C   UNL A   1      38.448  30.296  29.676  1.00  0.00     0.016 A 
ATOM     13  C   UNL A   1      40.659  29.729  31.279  1.00  0.00     0.010 A 
ATOM     14  C   UNL A   1      39.600  29.745  29.108  1.00  0.00     0.010 A 
ATOM     15  C   UNL A   1      40.736  29.517  29.898  1.00  0.00    -0.014 A 
BRANCH  15  16
ATOM     16  C   UNL A   1      42.043  29.247  29.248  1.00  0.00     0.031 A 
ATOM     17  C   UNL A   1      42.280  27.876  28.674  1.00  0.00     0.074 A 
ATOM     18  C   UNL A   1      42.976  30.203  29.097  1.00  0.00     0.049 A 
ATOM     19  N   UNL A   1      43.380  27.352  28.204  1.00  0.00    -0.248 NA
ATOM     20  C   UNL A   1      41.112  26.980  28.616  1.00  0.00     0.031 C 
ATOM     21  C   UNL A   1      42.833  31.604  29.492  1.00  0.00     0.029 A 
ATOM     22  N   UNL A   1      44.230  30.137  28.542  1.00  0.00    -0.354 N 
ATOM     23  C   UNL A   1      43.050  26.052  27.837  1.00  0.00     0.074 A 
ATOM     24  C   UNL A   1      41.644  25.873  28.122  1.00  0.00     0.031 C 
ATOM     25  C   UNL A   1      43.945  32.273  29.134  1.00  0.00     0.029 A 
ATOM     26  C   UNL A   1      44.901  31.336  28.549  1.00  0.00     0.049 A 
ATOM     27  H   UNL A   1      44.611  29.308  28.174  1.00  0.00     0.167 HD
ATOM     28  C   UNL A   1      43.849  25.088  27.325  1.00  0.00     0.037 A 
ATOM     29  C   UNL A   1      46.157  31.629  28.155  1.00  0.00     0.037 A 
ATOM     30  C   UNL A   1      45.246  25.263  27.044  1.00  0.00     0.049 A 
ATOM     31  C   UNL A   1      47.058  30.522  27.669  1.00  0.00     0.074 A 
ATOM     32  C   UNL A   1      46.172  24.323  26.630  1.00  0.00     0.029 A 
ATOM     33  N   UNL A   1      45.913  26.473  27.132  1.00  0.00    -0.354 N 
ATOM     34  N   UNL A   1      46.775  29.258  27.460  1.00  0.00    -0.248 NA
ATOM     35  C   UNL A   1      48.461  30.875  27.408  1.00  0.00     0.031 C 
ATOM     36  C   UNL A   1      47.407  24.966  26.480  1.00  0.00     0.029 A 
ATOM     37  C   UNL A   1      47.239  26.309  26.780  1.00  0.00     0.049 A 
ATOM     38  H   UNL A   1      45.503  27.326  27.406  1.00  0.00     0.167 HD
ATOM     39  C   UNL A   1      47.966  28.666  27.053  1.00  0.00     0.074 A 
ATOM     40  C   UNL A   1      48.966  29.712  27.019  1.00  0.00     0.031 C 
ATOM     41  C   UNL A   1      48.215  27.368  26.752  1.00  0.00     0.037 A 
BRANCH  28  42
ATOM     42  C   UNL A   1      43.221  23.746  27.102  1.00  0.00     0.058 A 
ATOM     43  C   UNL A   1      42.806  23.336  25.826  1.00  0.00     0.135 A 
ATOM     44  C   UNL A   1      42.974  22.891  28.186  1.00  0.00     0.135 A 
ATOM     45  F   UNL A   1      42.993  24.136  24.764  1.00  0.00    -0.206 F 
ATOM     46  C   UNL A   1      42.134  22.133  25.637  1.00  0.00     0.059 A 
ATOM     47  C   UNL A   1      42.315  21.678  28.019  1.00  0.00     0.059 A 
ATOM     48  F   UNL A   1      43.342  23.249  29.426  1.00  0.00    -0.206 F 
ATOM     49  C   UNL A   1      41.878  21.319  26.743  1.00  0.00     0.060 A 
BRANCH  49  50
ATOM     50  S   UNL A   1      40.943  19.795  26.504  1.00  0.00     0.124 S 
ATOM     51  O   UNL A   1      40.836  19.306  27.875  1.00  0.00    -0.237 OA
ATOM     52  O   UNL A   1      39.702  20.274  25.904  1.00  0.00    -0.237 OA
ATOM     53  O   UNL A   1      41.800  19.009  25.622  1.00  0.00    -0.744 OA
ENDBRANCH  49  50
ENDBRANCH  28  42
BRANCH  29  54
ATOM     54  C   UNL A   1      46.667  33.022  28.239  1.00  0.00     0.058 A 
ATOM     55  C   UNL A   1      47.325  33.471  29.393  1.00  0.00     0.135 A 
ATOM     56  C   UNL A   1      46.482  33.935  27.190  1.00  0.00     0.135 A 
ATOM     57  F   UNL A   1      47.507  32.636  30.427  1.00  0.00    -0.206 F 
ATOM     58  C   UNL A   1      47.777  34.782  29.510  1.00  0.00     0.059 A 
ATOM     59  C   UNL A   1      46.939  35.247  27.277  1.00  0.00     0.059 A 
ATOM     60  F   UNL A   1      45.861  33.551  26.065  1.00  0.00    -0.206 F 
ATOM     61  C   UNL A   1      47.574  35.664  28.447  1.00  0.00     0.060 A 
BRANCH  61  62
ATOM     62  S   UNL A   1      48.185  37.359  28.574  1.00  0.00     0.124 S 
ATOM     63  O   UNL A   1      47.702  37.937  27.326  1.00  0.00    -0.237 OA
ATOM     64  O   UNL A   1      47.541  37.842  29.791  1.00  0.00    -0.237 OA
ATOM     65  O   UNL A   1      49.631  37.177  28.672  1.00  0.00    -0.744 OA
ENDBRANCH  61  62
ENDBRANCH  29  54
BRANCH  41  66
ATOM     66  C   UNL A   1      49.618  27.002  26.369  1.00  0.00     0.058 A 
ATOM     67  C   UNL A   1      50.524  26.517  27.324  1.00  0.00     0.135 A 
ATOM     68  C   UNL A   1      50.033  27.057  25.030  1.00  0.00     0.135 A 
ATOM     69  F   UNL A   1      50.171  26.450  28.616  1.00  0.00    -0.206 F 
ATOM     70  C   UNL A   1      51.799  26.097  26.963  1.00  0.00     0.059 A 
ATOM     71  C   UNL A   1      51.300  26.630  24.645  1.00  0.00     0.059 A 
ATOM     72  F   UNL A   1      49.197  27.507  24.081  1.00  0.00    -0.206 F 
ATOM     73  C   UNL A   1      52.178  26.155  25.621  1.00  0.00     0.060 A 
BRANCH  73  74
ATOM     74  S   UNL A   1      53.810  25.544  25.146  1.00  0.00     0.124 S 
ATOM     75  O   UNL A   1      54.675  26.270  26.069  1.00  0.00    -0.237 OA
ATOM     76  O   UNL A   1      53.694  24.108  25.384  1.00  0.00    -0.237 OA
ATOM     77  O   UNL A   1      53.918  25.931  23.742  1.00  0.00    -0.744 OA
ENDBRANCH  73  74
ENDBRANCH  41  66
ENDBRANCH  15  16
ENDBRANCH   8  10
ENDBRANCH   7   8
ENDBRANCH   6   7
ENDBRANCH   5   6
ENDBRANCH   4   5
ENDBRANCH   3   4
ENDBRANCH   2   3
ENDBRANCH   1   2
BRANCH   1  78
ATOM     78  C   UNL A   1      39.785  33.120  36.244  1.00  0.00     0.188 C 
BRANCH  78  79
ATOM     79  C   UNL A   1      41.095  32.679  36.911  1.00  0.00     0.188 C 
BRANCH  79  80
ATOM     80  O   UNL A   1      40.853  32.500  38.311  1.00  0.00    -0.376 OA
BRANCH  80  81
ATOM     81  C   UNL A   1      42.028  32.198  39.072  1.00  0.00     0.202 C 
BRANCH  81  82
ATOM     82  C   UNL A   1      43.307  31.808  38.132  1.00  0.00     0.261 C 
BRANCH  82  83
ATOM     83  O   UNL A   1      43.882  30.012  37.429  1.00  0.00    -0.460 OA
BRANCH  83  84
ATOM     84  C   UNL A   1      44.471  28.811  37.010  1.00  0.00     0.339 C 
ATOM     85  O   UNL A   1      45.207  28.069  37.644  1.00  0.00    -0.246 OA
BRANCH  84  86
ATOM     86  C   UNL A   1      44.032  28.461  35.631  1.00  0.00     0.072 A 
ATOM     87  C   UNL A   1      45.066  28.461  34.676  1.00  0.00     0.016 A 
ATOM     88  C   UNL A   1      42.734  28.038  35.269  1.00  0.00     0.054 A 
ATOM     89  C   UNL A   1      44.836  28.001  33.382  1.00  0.00     0.001 A 
ATOM     90  C   UNL A   1      42.520  27.598  33.948  1.00  0.00     0.015 A 
ATOM     91  C   UNL A   1      43.566  27.560  33.020  1.00  0.00     0.001 A 
BRANCH  88  92
ATOM     92  C   UNL A   1      41.515  28.007  36.144  1.00  0.00     0.256 C 
ATOM     93  O   UNL A   1      40.833  29.032  36.221  1.00  0.00    -0.269 OA
ATOM     94  N   UNL A   1      41.137  26.893  36.866  1.00  0.00    -0.322 N 
ATOM     95  H   UNL A   1      40.328  26.959  37.425  1.00  0.00     0.170 HD
BRANCH  94  96
ATOM     96  C   UNL A   1      41.826  25.682  36.851  1.00  0.00     0.041 A 
ATOM     97  C   UNL A   1      41.967  24.833  35.257  1.00  0.00     0.028 A 
ATOM     98  C   UNL A   1      43.193  25.618  38.033  1.00  0.00     0.028 A 
ATOM     99  C   UNL A   1      43.536  24.066  34.791  1.00  0.00     0.029 A 
ATOM    100  C   UNL A   1      44.748  24.802  37.576  1.00  0.00     0.029 A 
ATOM    101  C   UNL A   1      44.920  24.025  35.957  1.00  0.00     0.052 A 
BRANCH 101 102
ATOM    102  N   UNL A   1      46.071  23.275  35.623  1.00  0.00    -0.250 N 
ATOM    103  C   UNL A   1      46.993  23.621  34.617  1.00  0.00     0.237 C 
ATOM    104  C   UNL A   1      46.570  22.227  36.415  1.00  0.00     0.237 C 
ATOM    105  O   UNL A   1      47.043  24.590  33.887  1.00  0.00    -0.274 OA
ATOM    106  C   UNL A   1      47.963  22.472  34.628  1.00  0.00     0.095 C 
ATOM    107  C   UNL A   1      48.029  22.304  36.138  1.00  0.00     0.095 C 
ATOM    108  O   UNL A   1      46.041  21.509  37.242  1.00  0.00    -0.274 OA
ATOM    109  C   UNL A   1      49.436  22.281  34.247  1.00  0.00     0.002 C 
ATOM    110  C   UNL A   1      49.248  21.431  36.336  1.00  0.00     0.002 C 
ATOM    111  C   UNL A   1      49.588  20.754  34.028  1.00  0.00     0.005 C 
ATOM    112  C   UNL A   1      50.222  22.363  35.574  1.00  0.00     0.009 C 
ATOM    113  C   UNL A   1      49.266  20.183  35.435  1.00  0.00     0.005 C 
ENDBRANCH 101 102
ENDBRANCH  94  96
ENDBRANCH  88  92
ENDBRANCH  84  86
ENDBRANCH  83  84
ENDBRANCH  82  83
ENDBRANCH  81  82
ENDBRANCH  80  81
ENDBRANCH  79  80
ENDBRANCH  78  79
ENDBRANCH   1  78
TORSDOF 26
ENDMDL
MODEL 3
REMARK VINA RESULT:      -8.9      4.385     14.146
REMARK SMILES O=C(OCCOCCOCCOCCOC(=O)c1ccccc1C(=O)Nc1ccc(N2C(=O)[C@H]3[C@@H]4CC[C@@H](C4)[C@@H]3C2=O)cc1)c1ccc(-c2c3nc(c(-c4c(F)cc(S(=O)(=O)[O-])cc4F)c4ccc([nH]4)c(-c4c(F)cc(S(=O)(=O)[O-])cc4F)c4nc(c(-c5c(F)cc(S(=O)(=O)[O-])cc5F)c5ccc2[nH]5)C=C4)C=C3)cc1
REMARK SMILES IDX 9 1 8 2 7 3 6 4 5 5 4 6 3 7 2 8 1 9 45 10 46 11 110 12 47 13
REMARK SMILES IDX 109 14 48 15 49 16 50 17 103 18 51 19 108 20 102 21 104 22
REMARK SMILES IDX 52 23 107 24 101 25 100 26 53 28 87 29 66 30 86 31 67 32
REMARK SMILES IDX 70 33 85 34 105 35 68 36 69 37 84 39 106 40 71 41 54 42
REMARK SMILES IDX 55 43 64 44 56 45 57 46 63 47 65 48 58 49 59 50 60 51 61 52
REMARK SMILES IDX 62 53 88 54 89 55 98 56 90 57 91 58 97 59 99 60 92 61 93 62
REMARK SMILES IDX 94 63 95 64 96 65 72 66 73 67 82 68 74 69 75 70 81 71 83 72
REMARK SMILES IDX 76 73 77 74 78 75 79 76 80 77 10 78 11 79 12 80 13 81 14 82
REMARK SMILES IDX 15 83 16 84 17 85 18 86 19 87 23 88 20 89 22 90 21 91 24 92
REMARK SMILES IDX 25 93 26 94 27 96 28 97 44 98 29 99 43 100 30 101 31 102
REMARK SMILES IDX 32 103 41 104 33 105 34 106 40 107 42 108 35 109 38 110
REMARK SMILES IDX 36 111 39 112 37 113
REMARK H PARENT 104 27 70 38 26 95
REMARK Flexibility Score: inf
ROOT
ATOM      1  O   UNL A   1      42.308  24.142  26.643  1.00  0.00    -0.377 OA
ENDROOT
BRANCH   1   2
ATOM      2  C   UNL A   1      41.376  23.174  26.151  1.00  0.00     0.188 C 
BRANCH   2   3
ATOM      3  C   UNL A   1      41.931  21.748  26.143  1.00  0.00     0.188 C 
BRANCH   3   4
ATOM      4  O   UNL A   1      43.357  21.766  26.310  1.00  0.00    -0.376 OA
BRANCH   4   5
ATOM      5  C   UNL A   1      44.028  20.898  25.393  1.00  0.00     0.202 C 
BRANCH   5   6
ATOM      6  C   UNL A   1      45.365  21.500  24.963  1.00  0.00     0.261 C 
BRANCH   6   7
ATOM      7  O   UNL A   1      46.033  22.086  26.100  1.00  0.00    -0.460 OA
BRANCH   7   8
ATOM      8  C   UNL A   1      46.404  23.392  26.167  1.00  0.00     0.338 C 
ATOM      9  O   UNL A   1      46.647  24.033  25.150  1.00  0.00    -0.246 OA
BRANCH   8  10
ATOM     10  C   UNL A   1      46.227  24.109  27.456  1.00  0.00     0.060 A 
ATOM     11  C   UNL A   1      45.080  24.008  28.246  1.00  0.00     0.016 A 
ATOM     12  C   UNL A   1      47.300  24.891  27.903  1.00  0.00     0.016 A 
ATOM     13  C   UNL A   1      44.942  24.798  29.389  1.00  0.00     0.010 A 
ATOM     14  C   UNL A   1      47.179  25.650  29.070  1.00  0.00     0.010 A 
ATOM     15  C   UNL A   1      45.973  25.654  29.787  1.00  0.00    -0.014 A 
BRANCH  15  16
ATOM     16  C   UNL A   1      45.735  26.692  30.821  1.00  0.00     0.031 A 
ATOM     17  C   UNL A   1      45.868  26.296  32.267  1.00  0.00     0.074 A 
ATOM     18  C   UNL A   1      45.480  27.973  30.501  1.00  0.00     0.049 A 
ATOM     19  N   UNL A   1      45.561  26.969  33.344  1.00  0.00    -0.248 NA
ATOM     20  C   UNL A   1      46.433  24.961  32.531  1.00  0.00     0.031 C 
ATOM     21  C   UNL A   1      45.445  28.523  29.147  1.00  0.00     0.029 A 
ATOM     22  N   UNL A   1      45.224  29.052  31.309  1.00  0.00    -0.354 N 
ATOM     23  C   UNL A   1      45.851  26.125  34.410  1.00  0.00     0.074 A 
ATOM     24  C   UNL A   1      46.376  24.898  33.852  1.00  0.00     0.031 C 
ATOM     25  C   UNL A   1      45.217  29.848  29.221  1.00  0.00     0.029 A 
ATOM     26  C   UNL A   1      45.022  30.224  30.619  1.00  0.00     0.049 A 
ATOM     27  H   UNL A   1      45.189  28.993  32.291  1.00  0.00     0.167 HD
ATOM     28  C   UNL A   1      45.680  26.343  35.734  1.00  0.00     0.037 A 
ATOM     29  C   UNL A   1      44.687  31.450  31.071  1.00  0.00     0.037 A 
ATOM     30  C   UNL A   1      45.157  27.559  36.290  1.00  0.00     0.049 A 
ATOM     31  C   UNL A   1      44.417  31.650  32.540  1.00  0.00     0.074 A 
ATOM     32  C   UNL A   1      44.838  27.845  37.605  1.00  0.00     0.029 A 
ATOM     33  N   UNL A   1      44.892  28.702  35.554  1.00  0.00    -0.354 N 
ATOM     34  N   UNL A   1      44.557  30.799  33.529  1.00  0.00    -0.248 NA
ATOM     35  C   UNL A   1      43.900  32.965  32.947  1.00  0.00     0.031 C 
ATOM     36  C   UNL A   1      44.368  29.163  37.661  1.00  0.00     0.029 A 
ATOM     37  C   UNL A   1      44.415  29.699  36.383  1.00  0.00     0.049 A 
ATOM     38  H   UNL A   1      45.024  28.791  34.582  1.00  0.00     0.167 HD
ATOM     39  C   UNL A   1      44.137  31.473  34.671  1.00  0.00     0.074 A 
ATOM     40  C   UNL A   1      43.763  32.809  34.257  1.00  0.00     0.031 C 
ATOM     41  C   UNL A   1      44.051  31.022  35.946  1.00  0.00     0.037 A 
BRANCH  28  42
ATOM     42  C   UNL A   1      46.013  25.205  36.649  1.00  0.00     0.058 A 
ATOM     43  C   UNL A   1      47.285  25.080  37.228  1.00  0.00     0.135 A 
ATOM     44  C   UNL A   1      45.070  24.197  36.897  1.00  0.00     0.135 A 
ATOM     45  F   UNL A   1      48.229  26.005  36.992  1.00  0.00    -0.206 F 
ATOM     46  C   UNL A   1      47.623  23.972  37.996  1.00  0.00     0.059 A 
ATOM     47  C   UNL A   1      45.381  23.085  37.673  1.00  0.00     0.059 A 
ATOM     48  F   UNL A   1      43.846  24.269  36.353  1.00  0.00    -0.206 F 
ATOM     49  C   UNL A   1      46.669  22.971  38.199  1.00  0.00     0.060 A 
BRANCH  49  50
ATOM     50  S   UNL A   1      47.135  21.502  39.136  1.00  0.00     0.124 S 
ATOM     51  O   UNL A   1      47.580  20.611  38.069  1.00  0.00    -0.237 OA
ATOM     52  O   UNL A   1      48.183  22.006  40.017  1.00  0.00    -0.237 OA
ATOM     53  O   UNL A   1      45.894  21.117  39.800  1.00  0.00    -0.744 OA
ENDBRANCH  49  50
ENDBRANCH  28  42
BRANCH  29  54
ATOM     54  C   UNL A   1      44.541  32.586  30.125  1.00  0.00     0.058 A 
ATOM     55  C   UNL A   1      43.298  32.875  29.545  1.00  0.00     0.135 A 
ATOM     56  C   UNL A   1      45.637  33.381  29.759  1.00  0.00     0.135 A 
ATOM     57  F   UNL A   1      42.226  32.128  29.853  1.00  0.00    -0.206 F 
ATOM     58  C   UNL A   1      43.144  33.910  28.628  1.00  0.00     0.059 A 
ATOM     59  C   UNL A   1      45.506  34.432  28.856  1.00  0.00     0.059 A 
ATOM     60  F   UNL A   1      46.847  33.145  30.289  1.00  0.00    -0.206 F 
ATOM     61  C   UNL A   1      44.257  34.680  28.285  1.00  0.00     0.060 A 
BRANCH  61  62
ATOM     62  S   UNL A   1      44.065  36.047  27.120  1.00  0.00     0.124 S 
ATOM     63  O   UNL A   1      43.489  37.078  27.974  1.00  0.00    -0.237 OA
ATOM     64  O   UNL A   1      45.434  36.280  26.672  1.00  0.00    -0.237 OA
ATOM     65  O   UNL A   1      43.173  35.488  26.108  1.00  0.00    -0.744 OA
ENDBRANCH  61  62
ENDBRANCH  29  54
BRANCH  41  66
ATOM     66  C   UNL A   1      43.528  31.970  36.984  1.00  0.00     0.058 A 
ATOM     67  C   UNL A   1      42.160  32.021  37.290  1.00  0.00     0.135 A 
ATOM     68  C   UNL A   1      44.403  32.771  37.731  1.00  0.00     0.135 A 
ATOM     69  F   UNL A   1      41.285  31.274  36.599  1.00  0.00    -0.206 F 
ATOM     70  C   UNL A   1      41.676  32.836  38.307  1.00  0.00     0.059 A 
ATOM     71  C   UNL A   1      43.943  33.585  38.761  1.00  0.00     0.059 A 
ATOM     72  F   UNL A   1      45.722  32.749  37.478  1.00  0.00    -0.206 F 
ATOM     73  C   UNL A   1      42.576  33.613  39.039  1.00  0.00     0.060 A 
BRANCH  73  74
ATOM     74  S   UNL A   1      41.952  34.618  40.405  1.00  0.00     0.124 S 
ATOM     75  O   UNL A   1      41.017  33.698  41.042  1.00  0.00    -0.237 OA
ATOM     76  O   UNL A   1      43.165  34.914  41.162  1.00  0.00    -0.237 OA
ATOM     77  O   UNL A   1      41.349  35.764  39.729  1.00  0.00    -0.744 OA
ENDBRANCH  73  74
ENDBRANCH  41  66
ENDBRANCH  15  16
ENDBRANCH   8  10
ENDBRANCH   7   8
ENDBRANCH   6   7
ENDBRANCH   5   6
ENDBRANCH   4   5
ENDBRANCH   3   4
ENDBRANCH   2   3
ENDBRANCH   1   2
BRANCH   1  78
ATOM     78  C   UNL A   1      41.956  25.508  26.415  1.00  0.00     0.188 C 
BRANCH  78  79
ATOM     79  C   UNL A   1      40.460  25.822  26.549  1.00  0.00     0.188 C 
BRANCH  79  80
ATOM     80  O   UNL A   1      40.268  26.627  27.718  1.00  0.00    -0.376 OA
BRANCH  80  81
ATOM     81  C   UNL A   1      39.280  26.116  28.620  1.00  0.00     0.202 C 
BRANCH  81  82
ATOM     82  C   UNL A   1      39.049  27.082  29.919  1.00  0.00     0.261 C 
BRANCH  82  83
ATOM     83  O   UNL A   1      38.981  29.090  30.027  1.00  0.00    -0.460 OA
BRANCH  83  84
ATOM     84  C   UNL A   1      38.926  30.485  29.895  1.00  0.00     0.339 C 
ATOM     85  O   UNL A   1      39.531  31.193  29.103  1.00  0.00    -0.246 OA
BRANCH  84  86
ATOM     86  C   UNL A   1      37.938  31.066  30.845  1.00  0.00     0.072 A 
ATOM     87  C   UNL A   1      37.876  30.410  32.089  1.00  0.00     0.016 A 
ATOM     88  C   UNL A   1      37.189  32.242  30.627  1.00  0.00     0.054 A 
ATOM     89  C   UNL A   1      37.115  30.936  33.131  1.00  0.00     0.001 A 
ATOM     90  C   UNL A   1      36.410  32.743  31.689  1.00  0.00     0.015 A 
ATOM     91  C   UNL A   1      36.390  32.107  32.934  1.00  0.00     0.001 A 
BRANCH  88  92
ATOM     92  C   UNL A   1      37.111  33.044  29.362  1.00  0.00     0.256 C 
ATOM     93  O   UNL A   1      37.870  34.009  29.242  1.00  0.00    -0.269 OA
ATOM     94  N   UNL A   1      36.228  32.755  28.342  1.00  0.00    -0.322 N 
ATOM     95  H   UNL A   1      36.233  33.338  27.547  1.00  0.00     0.170 HD
BRANCH  94  96
ATOM     96  C   UNL A   1      35.330  31.689  28.365  1.00  0.00     0.041 A 
ATOM     97  C   UNL A   1      33.607  32.053  27.942  1.00  0.00     0.028 A 
ATOM     98  C   UNL A   1      36.070  30.115  27.867  1.00  0.00     0.028 A 
ATOM     99  C   UNL A   1      32.688  30.912  26.884  1.00  0.00     0.029 A 
ATOM    100  C   UNL A   1      35.122  28.952  26.846  1.00  0.00     0.029 A 
ATOM    101  C   UNL A   1      33.432  29.349  26.356  1.00  0.00     0.052 A 
BRANCH 101 102
ATOM    102  N   UNL A   1      32.629  28.409  25.669  1.00  0.00    -0.250 N 
ATOM    103  C   UNL A   1      31.669  27.577  26.274  1.00  0.00     0.237 C 
ATOM    104  C   UNL A   1      32.513  28.366  24.269  1.00  0.00     0.237 C 
ATOM    105  O   UNL A   1      31.298  27.504  27.428  1.00  0.00    -0.274 OA
ATOM    106  C   UNL A   1      31.167  26.740  25.130  1.00  0.00     0.095 C 
ATOM    107  C   UNL A   1      31.128  27.852  24.094  1.00  0.00     0.095 C 
ATOM    108  O   UNL A   1      33.241  28.762  23.379  1.00  0.00    -0.274 OA
ATOM    109  C   UNL A   1      29.867  25.993  24.809  1.00  0.00     0.002 C 
ATOM    110  C   UNL A   1      30.292  27.260  22.982  1.00  0.00     0.002 C 
ATOM    111  C   UNL A   1      30.270  24.951  23.735  1.00  0.00     0.005 C 
ATOM    112  C   UNL A   1      29.071  26.932  23.875  1.00  0.00     0.009 C 
ATOM    113  C   UNL A   1      30.738  25.848  22.558  1.00  0.00     0.005 C 
ENDBRANCH 101 102
ENDBRANCH  94  96
ENDBRANCH  88  92
ENDBRANCH  84  86
ENDBRANCH  83  84
ENDBRANCH  82  83
ENDBRANCH  81  82
ENDBRANCH  80  81
ENDBRANCH  79  80
ENDBRANCH  78  79
ENDBRANCH   1  78
TORSDOF 26
ENDMDL
