MODEL 1
REMARK VINA RESULT:      -6.7      0.000      0.000
REMARK SMILES C[C@@H](C(=O)OCCOCCOCCOCCOC(=O)c1ccc(-c2c3nc(c(-c4c(F)cc(S(=O)(=O)[O-])cc4F)c4ccc([nH]4)c(-c4c(F)cc(S(=O)(=O)[O-])cc4F)c4nc(c(-c5c(F)cc(S(=O)(=O)[O-])cc5F)c5ccc2[nH]5)C=C4)C=C3)cc1)c1ccc(-c2ccccc2)c(F)c1
REMARK SMILES IDX 12 1 11 2 10 3 9 4 8 5 7 6 6 7 5 8 3 9 4 10 2 11 1 12 86 13
REMARK SMILES IDX 87 14 98 15 88 16 96 17 89 18 97 19 90 20 91 21 95 22 92 23
REMARK SMILES IDX 94 24 93 25 13 26 14 27 15 28 16 29 17 30 18 31 19 32 20 33
REMARK SMILES IDX 21 34 85 35 22 36 84 37 23 38 24 39 25 40 78 41 26 42 83 43
REMARK SMILES IDX 77 44 79 45 27 46 82 47 76 48 75 49 28 51 62 52 41 53 61 54
REMARK SMILES IDX 42 55 45 56 60 57 80 58 43 59 44 60 59 62 81 63 46 64 29 65
REMARK SMILES IDX 30 66 39 67 31 68 32 69 38 70 40 71 33 72 34 73 35 74 36 75
REMARK SMILES IDX 37 76 63 77 64 78 73 79 65 80 66 81 72 82 74 83 67 84 68 85
REMARK SMILES IDX 69 86 70 87 71 88 47 89 48 90 57 91 49 92 50 93 56 94 58 95
REMARK SMILES IDX 51 96 52 97 53 98 54 99 55 100
REMARK H PARENT 79 50 45 61
REMARK Flexibility Score: inf
ROOT
ATOM      1  C   UNL A   1      39.648  36.148  35.482  1.00  0.00     0.188 C 
ENDROOT
BRANCH   1   2
ATOM      2  O   UNL A   1      38.866  35.211  34.750  1.00  0.00    -0.377 OA
BRANCH   2   3
ATOM      3  C   UNL A   1      38.157  34.219  35.466  1.00  0.00     0.188 C 
BRANCH   3   4
ATOM      4  C   UNL A   1      37.328  33.256  34.602  1.00  0.00     0.188 C 
BRANCH   4   5
ATOM      5  O   UNL A   1      35.921  33.240  34.742  1.00  0.00    -0.376 OA
BRANCH   5   6
ATOM      6  C   UNL A   1      35.115  34.300  34.241  1.00  0.00     0.202 C 
BRANCH   6   7
ATOM      7  C   UNL A   1      34.254  34.245  32.960  1.00  0.00     0.261 C 
BRANCH   7   8
ATOM      8  O   UNL A   1      34.913  33.820  31.763  1.00  0.00    -0.463 OA
BRANCH   8   9
ATOM      9  C   UNL A   1      34.398  34.225  30.580  1.00  0.00     0.313 C 
ATOM     10  O   UNL A   1      33.229  34.557  30.415  1.00  0.00    -0.252 OA
BRANCH   9  11
ATOM     11  C   UNL A   1      35.461  34.343  29.476  1.00  0.00     0.126 C 
ATOM     12  C   UNL A   1      34.871  34.219  28.058  1.00  0.00     0.025 C 
BRANCH  11  13
ATOM     13  C   UNL A   1      36.739  33.530  29.748  1.00  0.00    -0.031 A 
ATOM     14  C   UNL A   1      36.876  32.218  29.262  1.00  0.00     0.005 A 
ATOM     15  C   UNL A   1      37.765  34.005  30.581  1.00  0.00     0.044 A 
ATOM     16  C   UNL A   1      37.970  31.411  29.603  1.00  0.00     0.012 A 
ATOM     17  C   UNL A   1      38.848  33.185  30.935  1.00  0.00     0.131 A 
ATOM     18  C   UNL A   1      38.963  31.867  30.478  1.00  0.00     0.017 A 
ATOM     19  F   UNL A   1      39.773  33.688  31.768  1.00  0.00    -0.206 F 
BRANCH  18  20
ATOM     20  C   UNL A   1      39.999  30.934  30.956  1.00  0.00    -0.015 A 
ATOM     21  C   UNL A   1      41.013  30.461  30.107  1.00  0.00     0.009 A 
ATOM     22  C   UNL A   1      39.934  30.408  32.257  1.00  0.00     0.009 A 
ATOM     23  C   UNL A   1      41.916  29.483  30.537  1.00  0.00     0.001 A 
ATOM     24  C   UNL A   1      40.831  29.427  32.688  1.00  0.00     0.001 A 
ATOM     25  C   UNL A   1      41.820  28.960  31.825  1.00  0.00     0.000 A 
ENDBRANCH  18  20
ENDBRANCH  11  13
ENDBRANCH   9  11
ENDBRANCH   8   9
ENDBRANCH   7   8
ENDBRANCH   6   7
ENDBRANCH   5   6
ENDBRANCH   4   5
ENDBRANCH   3   4
ENDBRANCH   2   3
ENDBRANCH   1   2
BRANCH   1  26
ATOM     26  C   UNL A   1      40.815  35.674  36.373  1.00  0.00     0.188 C 
BRANCH  26  27
ATOM     27  O   UNL A   1      40.763  36.123  37.721  1.00  0.00    -0.376 OA
BRANCH  27  28
ATOM     28  C   UNL A   1      39.512  36.106  38.394  1.00  0.00     0.202 C 
BRANCH  28  29
ATOM     29  C   UNL A   1      39.339  35.111  39.552  1.00  0.00     0.261 C 
BRANCH  29  30
ATOM     30  O   UNL A   1      40.516  34.398  39.964  1.00  0.00    -0.460 OA
BRANCH  30  31
ATOM     31  C   UNL A   1      40.544  33.062  39.779  1.00  0.00     0.338 C 
ATOM     32  O   UNL A   1      39.993  32.214  40.464  1.00  0.00    -0.246 OA
BRANCH  31  33
ATOM     33  C   UNL A   1      41.192  32.799  38.478  1.00  0.00     0.060 A 
ATOM     34  C   UNL A   1      40.418  32.293  37.424  1.00  0.00     0.016 A 
ATOM     35  C   UNL A   1      42.554  33.050  38.297  1.00  0.00     0.016 A 
ATOM     36  C   UNL A   1      41.016  31.996  36.199  1.00  0.00     0.010 A 
ATOM     37  C   UNL A   1      43.155  32.732  37.076  1.00  0.00     0.010 A 
ATOM     38  C   UNL A   1      42.396  32.168  36.033  1.00  0.00    -0.014 A 
BRANCH  38  39
ATOM     39  C   UNL A   1      43.078  31.568  34.860  1.00  0.00     0.031 A 
ATOM     40  C   UNL A   1      43.174  32.385  33.599  1.00  0.00     0.074 A 
ATOM     41  C   UNL A   1      43.621  30.339  34.914  1.00  0.00     0.049 A 
ATOM     42  N   UNL A   1      43.662  32.058  32.431  1.00  0.00    -0.248 NA
ATOM     43  C   UNL A   1      42.641  33.756  33.666  1.00  0.00     0.031 C 
ATOM     44  C   UNL A   1      43.634  29.470  36.089  1.00  0.00     0.029 A 
ATOM     45  N   UNL A   1      44.261  29.604  33.944  1.00  0.00    -0.354 N 
ATOM     46  C   UNL A   1      43.491  33.177  31.624  1.00  0.00     0.074 A 
ATOM     47  C   UNL A   1      42.822  34.179  32.424  1.00  0.00     0.031 C 
ATOM     48  C   UNL A   1      44.233  28.310  35.766  1.00  0.00     0.029 A 
ATOM     49  C   UNL A   1      44.615  28.342  34.354  1.00  0.00     0.049 A 
ATOM     50  H   UNL A   1      44.447  29.951  33.042  1.00  0.00     0.167 HD
ATOM     51  C   UNL A   1      43.867  33.358  30.336  1.00  0.00     0.037 A 
ATOM     52  C   UNL A   1      45.157  27.319  33.659  1.00  0.00     0.037 A 
ATOM     53  C   UNL A   1      44.528  32.354  29.543  1.00  0.00     0.049 A 
ATOM     54  C   UNL A   1      45.497  27.515  32.202  1.00  0.00     0.074 A 
ATOM     55  C   UNL A   1      44.956  32.440  28.231  1.00  0.00     0.029 A 
ATOM     56  N   UNL A   1      44.847  31.079  29.986  1.00  0.00    -0.354 N 
ATOM     57  N   UNL A   1      45.345  28.583  31.454  1.00  0.00    -0.248 NA
ATOM     58  C   UNL A   1      46.085  26.368  31.494  1.00  0.00     0.031 C 
ATOM     59  C   UNL A   1      45.481  31.198  27.861  1.00  0.00     0.029 A 
ATOM     60  C   UNL A   1      45.444  30.360  28.964  1.00  0.00     0.049 A 
ATOM     61  H   UNL A   1      44.676  30.736  30.893  1.00  0.00     0.167 HD
ATOM     62  C   UNL A   1      45.848  28.246  30.200  1.00  0.00     0.074 A 
ATOM     63  C   UNL A   1      46.319  26.881  30.293  1.00  0.00     0.031 C 
ATOM     64  C   UNL A   1      45.918  29.001  29.074  1.00  0.00     0.037 A 
BRANCH  51  65
ATOM     65  C   UNL A   1      43.546  34.681  29.694  1.00  0.00     0.058 A 
ATOM     66  C   UNL A   1      44.496  35.713  29.608  1.00  0.00     0.135 A 
ATOM     67  C   UNL A   1      42.280  34.910  29.130  1.00  0.00     0.135 A 
ATOM     68  F   UNL A   1      45.714  35.558  30.148  1.00  0.00    -0.206 F 
ATOM     69  C   UNL A   1      44.193  36.931  29.007  1.00  0.00     0.059 A 
ATOM     70  C   UNL A   1      41.966  36.109  28.497  1.00  0.00     0.059 A 
ATOM     71  F   UNL A   1      41.332  33.961  29.189  1.00  0.00    -0.206 F 
ATOM     72  C   UNL A   1      42.926  37.118  28.453  1.00  0.00     0.060 A 
BRANCH  72  73
ATOM     73  S   UNL A   1      42.555  38.701  27.669  1.00  0.00     0.124 S 
ATOM     74  O   UNL A   1      41.681  38.286  26.575  1.00  0.00    -0.237 OA
ATOM     75  O   UNL A   1      41.909  39.439  28.749  1.00  0.00    -0.237 OA
ATOM     76  O   UNL A   1      43.866  39.200  27.268  1.00  0.00    -0.744 OA
ENDBRANCH  72  73
ENDBRANCH  51  65
BRANCH  52  77
ATOM     77  C   UNL A   1      45.393  26.008  34.325  1.00  0.00     0.058 A 
ATOM     78  C   UNL A   1      46.643  25.681  34.872  1.00  0.00     0.135 A 
ATOM     79  C   UNL A   1      44.371  25.049  34.418  1.00  0.00     0.135 A 
ATOM     80  F   UNL A   1      47.657  26.556  34.797  1.00  0.00    -0.206 F 
ATOM     81  C   UNL A   1      46.876  24.448  35.475  1.00  0.00     0.059 A 
ATOM     82  C   UNL A   1      44.571  23.821  35.041  1.00  0.00     0.059 A 
ATOM     83  F   UNL A   1      43.154  25.312  33.916  1.00  0.00    -0.206 F 
ATOM     84  C   UNL A   1      45.831  23.527  35.559  1.00  0.00     0.060 A 
BRANCH  84  85
ATOM     85  S   UNL A   1      46.132  21.950  36.388  1.00  0.00     0.124 S 
ATOM     86  O   UNL A   1      45.672  22.236  37.742  1.00  0.00    -0.237 OA
ATOM     87  O   UNL A   1      45.302  21.036  35.610  1.00  0.00    -0.237 OA
ATOM     88  O   UNL A   1      47.571  21.760  36.236  1.00  0.00    -0.744 OA
ENDBRANCH  84  85
ENDBRANCH  52  77
BRANCH  64  89
ATOM     89  C   UNL A   1      46.565  28.389  27.859  1.00  0.00     0.058 A 
ATOM     90  C   UNL A   1      45.849  27.582  26.961  1.00  0.00     0.135 A 
ATOM     91  C   UNL A   1      47.910  28.666  27.558  1.00  0.00     0.135 A 
ATOM     92  F   UNL A   1      44.563  27.281  27.200  1.00  0.00    -0.206 F 
ATOM     93  C   UNL A   1      46.449  27.051  25.823  1.00  0.00     0.059 A 
ATOM     94  C   UNL A   1      48.520  28.174  26.409  1.00  0.00     0.059 A 
ATOM     95  F   UNL A   1      48.640  29.443  28.375  1.00  0.00    -0.206 F 
ATOM     96  C   UNL A   1      47.785  27.356  25.554  1.00  0.00     0.060 A 
BRANCH  96  97
ATOM     97  S   UNL A   1      48.540  26.688  24.055  1.00  0.00     0.124 S 
ATOM     98  O   UNL A   1      49.867  26.317  24.535  1.00  0.00    -0.237 OA
ATOM     99  O   UNL A   1      47.651  25.579  23.726  1.00  0.00    -0.237 OA
ATOM    100  O   UNL A   1      48.501  27.812  23.124  1.00  0.00    -0.744 OA
ENDBRANCH  96  97
ENDBRANCH  64  89
ENDBRANCH  38  39
ENDBRANCH  31  33
ENDBRANCH  30  31
ENDBRANCH  29  30
ENDBRANCH  28  29
ENDBRANCH  27  28
ENDBRANCH  26  27
ENDBRANCH   1  26
TORSDOF 25
ENDMDL
MODEL 2
REMARK VINA RESULT:      -6.7      6.152      9.627
REMARK SMILES C[C@@H](C(=O)OCCOCCOCCOCCOC(=O)c1ccc(-c2c3nc(c(-c4c(F)cc(S(=O)(=O)[O-])cc4F)c4ccc([nH]4)c(-c4c(F)cc(S(=O)(=O)[O-])cc4F)c4nc(c(-c5c(F)cc(S(=O)(=O)[O-])cc5F)c5ccc2[nH]5)C=C4)C=C3)cc1)c1ccc(-c2ccccc2)c(F)c1
REMARK SMILES IDX 12 1 11 2 10 3 9 4 8 5 7 6 6 7 5 8 3 9 4 10 2 11 1 12 86 13
REMARK SMILES IDX 87 14 98 15 88 16 96 17 89 18 97 19 90 20 91 21 95 22 92 23
REMARK SMILES IDX 94 24 93 25 13 26 14 27 15 28 16 29 17 30 18 31 19 32 20 33
REMARK SMILES IDX 21 34 85 35 22 36 84 37 23 38 24 39 25 40 78 41 26 42 83 43
REMARK SMILES IDX 77 44 79 45 27 46 82 47 76 48 75 49 28 51 62 52 41 53 61 54
REMARK SMILES IDX 42 55 45 56 60 57 80 58 43 59 44 60 59 62 81 63 46 64 29 65
REMARK SMILES IDX 30 66 39 67 31 68 32 69 38 70 40 71 33 72 34 73 35 74 36 75
REMARK SMILES IDX 37 76 63 77 64 78 73 79 65 80 66 81 72 82 74 83 67 84 68 85
REMARK SMILES IDX 69 86 70 87 71 88 47 89 48 90 57 91 49 92 50 93 56 94 58 95
REMARK SMILES IDX 51 96 52 97 53 98 54 99 55 100
REMARK H PARENT 79 50 45 61
REMARK Flexibility Score: inf
ROOT
ATOM      1  C   UNL A   1      39.433  25.697  27.369  1.00  0.00     0.188 C 
ENDROOT
BRANCH   1   2
ATOM      2  O   UNL A   1      39.440  26.219  28.692  1.00  0.00    -0.377 OA
BRANCH   2   3
ATOM      3  C   UNL A   1      39.875  27.549  28.891  1.00  0.00     0.188 C 
BRANCH   3   4
ATOM      4  C   UNL A   1      39.022  28.626  28.203  1.00  0.00     0.188 C 
BRANCH   4   5
ATOM      5  O   UNL A   1      37.641  28.708  28.502  1.00  0.00    -0.376 OA
BRANCH   5   6
ATOM      6  C   UNL A   1      36.776  29.567  27.770  1.00  0.00     0.202 C 
BRANCH   6   7
ATOM      7  C   UNL A   1      35.232  29.535  27.812  1.00  0.00     0.261 C 
BRANCH   7   8
ATOM      8  O   UNL A   1      34.565  29.209  26.589  1.00  0.00    -0.463 OA
BRANCH   8   9
ATOM      9  C   UNL A   1      33.374  28.572  26.668  1.00  0.00     0.313 C 
ATOM     10  O   UNL A   1      32.635  28.613  27.647  1.00  0.00    -0.252 OA
BRANCH   9  11
ATOM     11  C   UNL A   1      32.978  27.880  25.354  1.00  0.00     0.126 C 
ATOM     12  C   UNL A   1      31.574  28.279  24.864  1.00  0.00     0.025 C 
BRANCH  11  13
ATOM     13  C   UNL A   1      33.304  26.376  25.317  1.00  0.00    -0.031 A 
ATOM     14  C   UNL A   1      33.982  25.812  24.222  1.00  0.00     0.005 A 
ATOM     15  C   UNL A   1      32.842  25.486  26.301  1.00  0.00     0.044 A 
ATOM     16  C   UNL A   1      34.176  24.429  24.102  1.00  0.00     0.012 A 
ATOM     17  C   UNL A   1      33.023  24.101  26.164  1.00  0.00     0.131 A 
ATOM     18  C   UNL A   1      33.668  23.540  25.055  1.00  0.00     0.017 A 
ATOM     19  F   UNL A   1      32.521  23.303  27.122  1.00  0.00    -0.206 F 
BRANCH  18  20
ATOM     20  C   UNL A   1      33.732  22.088  24.808  1.00  0.00    -0.015 A 
ATOM     21  C   UNL A   1      32.580  21.338  24.520  1.00  0.00     0.009 A 
ATOM     22  C   UNL A   1      34.945  21.395  24.962  1.00  0.00     0.009 A 
ATOM     23  C   UNL A   1      32.636  19.945  24.410  1.00  0.00     0.001 A 
ATOM     24  C   UNL A   1      35.002  20.003  24.858  1.00  0.00     0.001 A 
ATOM     25  C   UNL A   1      33.846  19.277  24.587  1.00  0.00     0.000 A 
ENDBRANCH  18  20
ENDBRANCH  11  13
ENDBRANCH   9  11
ENDBRANCH   8   9
ENDBRANCH   7   8
ENDBRANCH   6   7
ENDBRANCH   5   6
ENDBRANCH   4   5
ENDBRANCH   3   4
ENDBRANCH   2   3
ENDBRANCH   1   2
BRANCH   1  26
ATOM     26  C   UNL A   1      38.557  24.480  27.006  1.00  0.00     0.188 C 
BRANCH  26  27
ATOM     27  O   UNL A   1      39.163  23.542  26.127  1.00  0.00    -0.376 OA
BRANCH  27  28
ATOM     28  C   UNL A   1      38.663  22.214  26.101  1.00  0.00     0.202 C 
BRANCH  28  29
ATOM     29  C   UNL A   1      39.685  21.066  26.113  1.00  0.00     0.261 C 
BRANCH  29  30
ATOM     30  O   UNL A   1      41.052  21.424  25.852  1.00  0.00    -0.460 OA
BRANCH  30  31
ATOM     31  C   UNL A   1      41.997  20.980  26.706  1.00  0.00     0.338 C 
ATOM     32  O   UNL A   1      42.477  19.858  26.751  1.00  0.00    -0.246 OA
BRANCH  31  33
ATOM     33  C   UNL A   1      42.509  22.143  27.458  1.00  0.00     0.060 A 
ATOM     34  C   UNL A   1      43.830  22.562  27.244  1.00  0.00     0.016 A 
ATOM     35  C   UNL A   1      41.694  22.819  28.369  1.00  0.00     0.016 A 
ATOM     36  C   UNL A   1      44.351  23.632  27.973  1.00  0.00     0.010 A 
ATOM     37  C   UNL A   1      42.223  23.876  29.113  1.00  0.00     0.010 A 
ATOM     38  C   UNL A   1      43.566  24.263  28.946  1.00  0.00    -0.014 A 
BRANCH  38  39
ATOM     39  C   UNL A   1      44.203  25.176  29.927  1.00  0.00     0.031 A 
ATOM     40  C   UNL A   1      44.435  26.607  29.521  1.00  0.00     0.074 A 
ATOM     41  C   UNL A   1      44.547  24.757  31.159  1.00  0.00     0.049 A 
ATOM     42  N   UNL A   1      45.027  27.572  30.175  1.00  0.00    -0.248 NA
ATOM     43  C   UNL A   1      43.934  26.999  28.193  1.00  0.00     0.031 C 
ATOM     44  C   UNL A   1      44.332  23.411  31.685  1.00  0.00     0.029 A 
ATOM     45  N   UNL A   1      45.162  25.427  32.188  1.00  0.00    -0.354 N 
ATOM     46  C   UNL A   1      44.976  28.682  29.338  1.00  0.00     0.074 A 
ATOM     47  C   UNL A   1      44.327  28.262  28.116  1.00  0.00     0.031 C 
ATOM     48  C   UNL A   1      44.827  23.348  32.934  1.00  0.00     0.029 A 
ATOM     49  C   UNL A   1      45.424  24.638  33.281  1.00  0.00     0.049 A 
ATOM     50  H   UNL A   1      45.395  26.383  32.145  1.00  0.00     0.167 HD
ATOM     51  C   UNL A   1      45.419  29.939  29.571  1.00  0.00     0.037 A 
ATOM     52  C   UNL A   1      46.095  24.917  34.418  1.00  0.00     0.037 A 
ATOM     53  C   UNL A   1      46.069  30.349  30.788  1.00  0.00     0.049 A 
ATOM     54  C   UNL A   1      46.652  26.304  34.626  1.00  0.00     0.074 A 
ATOM     55  C   UNL A   1      46.550  31.602  31.126  1.00  0.00     0.029 A 
ATOM     56  N   UNL A   1      46.338  29.514  31.863  1.00  0.00    -0.354 N 
ATOM     57  N   UNL A   1      46.582  27.349  33.835  1.00  0.00    -0.248 NA
ATOM     58  C   UNL A   1      47.374  26.552  35.882  1.00  0.00     0.031 C 
ATOM     59  C   UNL A   1      47.162  31.510  32.381  1.00  0.00     0.029 A 
ATOM     60  C   UNL A   1      47.002  30.218  32.854  1.00  0.00     0.049 A 
ATOM     61  H   UNL A   1      46.093  28.562  31.914  1.00  0.00     0.167 HD
ATOM     62  C   UNL A   1      47.222  28.384  34.511  1.00  0.00     0.074 A 
ATOM     63  C   UNL A   1      47.661  27.843  35.780  1.00  0.00     0.031 C 
ATOM     64  C   UNL A   1      47.425  29.668  34.120  1.00  0.00     0.037 A 
BRANCH  51  65
ATOM     65  C   UNL A   1      45.242  30.956  28.476  1.00  0.00     0.058 A 
ATOM     66  C   UNL A   1      46.224  31.167  27.495  1.00  0.00     0.135 A 
ATOM     67  C   UNL A   1      44.058  31.709  28.388  1.00  0.00     0.135 A 
ATOM     68  F   UNL A   1      47.383  30.492  27.541  1.00  0.00    -0.206 F 
ATOM     69  C   UNL A   1      46.050  32.105  26.481  1.00  0.00     0.059 A 
ATOM     70  C   UNL A   1      43.850  32.629  27.365  1.00  0.00     0.059 A 
ATOM     71  F   UNL A   1      43.088  31.552  29.303  1.00  0.00    -0.206 F 
ATOM     72  C   UNL A   1      44.859  32.829  26.425  1.00  0.00     0.060 A 
BRANCH  72  73
ATOM     73  S   UNL A   1      44.646  34.034  25.097  1.00  0.00     0.124 S 
ATOM     74  O   UNL A   1      43.591  34.883  25.641  1.00  0.00    -0.237 OA
ATOM     75  O   UNL A   1      45.970  34.643  25.015  1.00  0.00    -0.237 OA
ATOM     76  O   UNL A   1      44.263  33.216  23.951  1.00  0.00    -0.744 OA
ENDBRANCH  72  73
ENDBRANCH  51  65
BRANCH  52  77
ATOM     77  C   UNL A   1      46.301  23.854  35.442  1.00  0.00     0.058 A 
ATOM     78  C   UNL A   1      47.382  22.964  35.363  1.00  0.00     0.135 A 
ATOM     79  C   UNL A   1      45.410  23.703  36.517  1.00  0.00     0.135 A 
ATOM     80  F   UNL A   1      48.254  23.056  34.348  1.00  0.00    -0.206 F 
ATOM     81  C   UNL A   1      47.566  21.955  36.305  1.00  0.00     0.059 A 
ATOM     82  C   UNL A   1      45.589  22.722  37.487  1.00  0.00     0.059 A 
ATOM     83  F   UNL A   1      44.362  24.532  36.644  1.00  0.00    -0.206 F 
ATOM     84  C   UNL A   1      46.667  21.845  37.366  1.00  0.00     0.060 A 
BRANCH  84  85
ATOM     85  S   UNL A   1      46.944  20.563  38.608  1.00  0.00     0.124 S 
ATOM     86  O   UNL A   1      45.832  19.656  38.350  1.00  0.00    -0.237 OA
ATOM     87  O   UNL A   1      48.269  20.072  38.245  1.00  0.00    -0.237 OA
ATOM     88  O   UNL A   1      46.881  21.299  39.868  1.00  0.00    -0.744 OA
ENDBRANCH  84  85
ENDBRANCH  52  77
BRANCH  64  89
ATOM     89  C   UNL A   1      48.113  30.596  35.087  1.00  0.00     0.058 A 
ATOM     90  C   UNL A   1      47.402  31.333  36.046  1.00  0.00     0.135 A 
ATOM     91  C   UNL A   1      49.515  30.700  35.091  1.00  0.00     0.135 A 
ATOM     92  F   UNL A   1      46.061  31.275  36.085  1.00  0.00    -0.206 F 
ATOM     93  C   UNL A   1      48.053  32.160  36.957  1.00  0.00     0.059 A 
ATOM     94  C   UNL A   1      50.188  31.494  36.014  1.00  0.00     0.059 A 
ATOM     95  F   UNL A   1      50.248  30.007  34.204  1.00  0.00    -0.206 F 
ATOM     96  C   UNL A   1      49.447  32.231  36.935  1.00  0.00     0.060 A 
BRANCH  96  97
ATOM     97  S   UNL A   1      50.279  33.281  38.146  1.00  0.00     0.124 S 
ATOM     98  O   UNL A   1      49.228  33.473  39.140  1.00  0.00    -0.237 OA
ATOM     99  O   UNL A   1      51.402  32.448  38.562  1.00  0.00    -0.237 OA
ATOM    100  O   UNL A   1      50.639  34.469  37.376  1.00  0.00    -0.744 OA
ENDBRANCH  96  97
ENDBRANCH  64  89
ENDBRANCH  38  39
ENDBRANCH  31  33
ENDBRANCH  30  31
ENDBRANCH  29  30
ENDBRANCH  28  29
ENDBRANCH  27  28
ENDBRANCH  26  27
ENDBRANCH   1  26
TORSDOF 25
ENDMDL
MODEL 3
REMARK VINA RESULT:      -6.7      3.382      6.854
REMARK SMILES C[C@@H](C(=O)OCCOCCOCCOCCOC(=O)c1ccc(-c2c3nc(c(-c4c(F)cc(S(=O)(=O)[O-])cc4F)c4ccc([nH]4)c(-c4c(F)cc(S(=O)(=O)[O-])cc4F)c4nc(c(-c5c(F)cc(S(=O)(=O)[O-])cc5F)c5ccc2[nH]5)C=C4)C=C3)cc1)c1ccc(-c2ccccc2)c(F)c1
REMARK SMILES IDX 12 1 11 2 10 3 9 4 8 5 7 6 6 7 5 8 3 9 4 10 2 11 1 12 86 13
REMARK SMILES IDX 87 14 98 15 88 16 96 17 89 18 97 19 90 20 91 21 95 22 92 23
REMARK SMILES IDX 94 24 93 25 13 26 14 27 15 28 16 29 17 30 18 31 19 32 20 33
REMARK SMILES IDX 21 34 85 35 22 36 84 37 23 38 24 39 25 40 78 41 26 42 83 43
REMARK SMILES IDX 77 44 79 45 27 46 82 47 76 48 75 49 28 51 62 52 41 53 61 54
REMARK SMILES IDX 42 55 45 56 60 57 80 58 43 59 44 60 59 62 81 63 46 64 29 65
REMARK SMILES IDX 30 66 39 67 31 68 32 69 38 70 40 71 33 72 34 73 35 74 36 75
REMARK SMILES IDX 37 76 63 77 64 78 73 79 65 80 66 81 72 82 74 83 67 84 68 85
REMARK SMILES IDX 69 86 70 87 71 88 47 89 48 90 57 91 49 92 50 93 56 94 58 95
REMARK SMILES IDX 51 96 52 97 53 98 54 99 55 100
REMARK H PARENT 79 50 45 61
REMARK Flexibility Score: inf
ROOT
ATOM      1  C   UNL A   1      38.509  34.007  36.820  1.00  0.00     0.188 C 
ENDROOT
BRANCH   1   2
ATOM      2  O   UNL A   1      39.348  33.816  37.953  1.00  0.00    -0.377 OA
BRANCH   2   3
ATOM      3  C   UNL A   1      40.679  33.391  37.743  1.00  0.00     0.188 C 
BRANCH   3   4
ATOM      4  C   UNL A   1      40.849  32.244  36.736  1.00  0.00     0.188 C 
BRANCH   4   5
ATOM      5  O   UNL A   1      41.292  32.537  35.424  1.00  0.00    -0.376 OA
BRANCH   5   6
ATOM      6  C   UNL A   1      40.855  31.771  34.308  1.00  0.00     0.202 C 
BRANCH   6   7
ATOM      7  C   UNL A   1      40.355  30.311  34.361  1.00  0.00     0.261 C 
BRANCH   7   8
ATOM      8  O   UNL A   1      41.352  29.299  34.539  1.00  0.00    -0.463 OA
BRANCH   8   9
ATOM      9  C   UNL A   1      41.183  28.124  33.890  1.00  0.00     0.313 C 
ATOM     10  O   UNL A   1      40.472  27.980  32.900  1.00  0.00    -0.252 OA
BRANCH   9  11
ATOM     11  C   UNL A   1      42.071  27.001  34.448  1.00  0.00     0.126 C 
ATOM     12  C   UNL A   1      42.265  27.090  35.973  1.00  0.00     0.025 C 
BRANCH  11  13
ATOM     13  C   UNL A   1      43.342  26.739  33.621  1.00  0.00    -0.031 A 
ATOM     14  C   UNL A   1      44.005  25.501  33.691  1.00  0.00     0.005 A 
ATOM     15  C   UNL A   1      43.960  27.745  32.859  1.00  0.00     0.044 A 
ATOM     16  C   UNL A   1      45.232  25.280  33.050  1.00  0.00     0.012 A 
ATOM     17  C   UNL A   1      45.199  27.523  32.237  1.00  0.00     0.131 A 
ATOM     18  C   UNL A   1      45.874  26.300  32.338  1.00  0.00     0.017 A 
ATOM     19  F   UNL A   1      45.753  28.540  31.558  1.00  0.00    -0.206 F 
BRANCH  18  20
ATOM     20  C   UNL A   1      47.241  26.089  31.832  1.00  0.00    -0.015 A 
ATOM     21  C   UNL A   1      47.505  25.947  30.459  1.00  0.00     0.009 A 
ATOM     22  C   UNL A   1      48.311  25.917  32.727  1.00  0.00     0.009 A 
ATOM     23  C   UNL A   1      48.786  25.624  30.001  1.00  0.00     0.001 A 
ATOM     24  C   UNL A   1      49.590  25.589  32.272  1.00  0.00     0.001 A 
ATOM     25  C   UNL A   1      49.827  25.437  30.908  1.00  0.00     0.000 A 
ENDBRANCH  18  20
ENDBRANCH  11  13
ENDBRANCH   9  11
ENDBRANCH   8   9
ENDBRANCH   7   8
ENDBRANCH   6   7
ENDBRANCH   5   6
ENDBRANCH   4   5
ENDBRANCH   3   4
ENDBRANCH   2   3
ENDBRANCH   1   2
BRANCH   1  26
ATOM     26  C   UNL A   1      37.386  33.000  36.492  1.00  0.00     0.188 C 
BRANCH  26  27
ATOM     27  O   UNL A   1      36.174  33.580  36.030  1.00  0.00    -0.376 OA
BRANCH  27  28
ATOM     28  C   UNL A   1      36.120  34.073  34.700  1.00  0.00     0.202 C 
BRANCH  28  29
ATOM     29  C   UNL A   1      34.772  33.997  33.965  1.00  0.00     0.261 C 
BRANCH  29  30
ATOM     30  O   UNL A   1      34.534  32.815  33.185  1.00  0.00    -0.460 OA
BRANCH  30  31
ATOM     31  C   UNL A   1      34.579  32.924  31.841  1.00  0.00     0.338 C 
ATOM     32  O   UNL A   1      33.789  33.520  31.126  1.00  0.00    -0.246 OA
BRANCH  31  33
ATOM     33  C   UNL A   1      35.869  32.367  31.384  1.00  0.00     0.060 A 
ATOM     34  C   UNL A   1      36.567  31.491  32.228  1.00  0.00     0.016 A 
ATOM     35  C   UNL A   1      36.387  32.704  30.132  1.00  0.00     0.016 A 
ATOM     36  C   UNL A   1      37.808  30.985  31.838  1.00  0.00     0.010 A 
ATOM     37  C   UNL A   1      37.639  32.214  29.752  1.00  0.00     0.010 A 
ATOM     38  C   UNL A   1      38.372  31.382  30.619  1.00  0.00    -0.014 A 
BRANCH  38  39
ATOM     39  C   UNL A   1      39.804  31.103  30.345  1.00  0.00     0.031 A 
ATOM     40  C   UNL A   1      40.802  32.203  30.587  1.00  0.00     0.074 A 
ATOM     41  C   UNL A   1      40.216  29.897  29.914  1.00  0.00     0.049 A 
ATOM     42  N   UNL A   1      42.090  32.222  30.364  1.00  0.00    -0.248 NA
ATOM     43  C   UNL A   1      40.272  33.453  31.156  1.00  0.00     0.031 C 
ATOM     44  C   UNL A   1      39.353  28.739  29.685  1.00  0.00     0.029 A 
ATOM     45  N   UNL A   1      41.472  29.452  29.580  1.00  0.00    -0.354 N 
ATOM     46  C   UNL A   1      42.523  33.484  30.758  1.00  0.00     0.074 A 
ATOM     47  C   UNL A   1      41.355  34.214  31.200  1.00  0.00     0.031 C 
ATOM     48  C   UNL A   1      40.104  27.721  29.229  1.00  0.00     0.029 A 
ATOM     49  C   UNL A   1      41.492  28.165  29.100  1.00  0.00     0.049 A 
ATOM     50  H   UNL A   1      42.282  30.004  29.675  1.00  0.00     0.167 HD
ATOM     51  C   UNL A   1      43.780  33.985  30.761  1.00  0.00     0.037 A 
ATOM     52  C   UNL A   1      42.508  27.440  28.588  1.00  0.00     0.037 A 
ATOM     53  C   UNL A   1      44.937  33.255  30.313  1.00  0.00     0.049 A 
ATOM     54  C   UNL A   1      43.890  28.046  28.527  1.00  0.00     0.074 A 
ATOM     55  C   UNL A   1      46.256  33.670  30.281  1.00  0.00     0.029 A 
ATOM     56  N   UNL A   1      44.913  31.962  29.811  1.00  0.00    -0.354 N 
ATOM     57  N   UNL A   1      44.289  29.233  28.917  1.00  0.00    -0.248 NA
ATOM     58  C   UNL A   1      44.959  27.211  27.959  1.00  0.00     0.031 C 
ATOM     59  C   UNL A   1      47.021  32.650  29.706  1.00  0.00     0.029 A 
ATOM     60  C   UNL A   1      46.190  31.573  29.443  1.00  0.00     0.049 A 
ATOM     61  H   UNL A   1      44.107  31.402  29.730  1.00  0.00     0.167 HD
ATOM     62  C   UNL A   1      45.659  29.275  28.672  1.00  0.00     0.074 A 
ATOM     63  C   UNL A   1      46.021  27.991  28.111  1.00  0.00     0.031 C 
ATOM     64  C   UNL A   1      46.539  30.285  28.894  1.00  0.00     0.037 A 
BRANCH  51  65
ATOM     65  C   UNL A   1      43.966  35.401  31.235  1.00  0.00     0.058 A 
ATOM     66  C   UNL A   1      43.890  36.494  30.356  1.00  0.00     0.135 A 
ATOM     67  C   UNL A   1      44.193  35.672  32.595  1.00  0.00     0.135 A 
ATOM     68  F   UNL A   1      43.697  36.293  29.043  1.00  0.00    -0.206 F 
ATOM     69  C   UNL A   1      44.056  37.801  30.804  1.00  0.00     0.059 A 
ATOM     70  C   UNL A   1      44.331  36.973  33.070  1.00  0.00     0.059 A 
ATOM     71  F   UNL A   1      44.280  34.665  33.479  1.00  0.00    -0.206 F 
ATOM     72  C   UNL A   1      44.274  38.029  32.163  1.00  0.00     0.060 A 
BRANCH  72  73
ATOM     73  S   UNL A   1      44.478  39.732  32.727  1.00  0.00     0.124 S 
ATOM     74  O   UNL A   1      43.089  40.151  32.896  1.00  0.00    -0.237 OA
ATOM     75  O   UNL A   1      45.241  39.561  33.960  1.00  0.00    -0.237 OA
ATOM     76  O   UNL A   1      45.197  40.372  31.631  1.00  0.00    -0.744 OA
ENDBRANCH  72  73
ENDBRANCH  51  65
BRANCH  52  77
ATOM     77  C   UNL A   1      42.257  26.066  28.070  1.00  0.00     0.058 A 
ATOM     78  C   UNL A   1      42.662  24.930  28.787  1.00  0.00     0.135 A 
ATOM     79  C   UNL A   1      41.615  25.864  26.837  1.00  0.00     0.135 A 
ATOM     80  F   UNL A   1      43.292  25.069  29.962  1.00  0.00    -0.206 F 
ATOM     81  C   UNL A   1      42.450  23.644  28.297  1.00  0.00     0.059 A 
ATOM     82  C   UNL A   1      41.366  24.588  26.340  1.00  0.00     0.059 A 
ATOM     83  F   UNL A   1      41.203  26.915  26.113  1.00  0.00    -0.206 F 
ATOM     84  C   UNL A   1      41.797  23.484  27.074  1.00  0.00     0.060 A 
BRANCH  84  85
ATOM     85  S   UNL A   1      41.484  21.810  26.472  1.00  0.00     0.124 S 
ATOM     86  O   UNL A   1      40.132  21.935  25.941  1.00  0.00    -0.237 OA
ATOM     87  O   UNL A   1      42.546  21.639  25.486  1.00  0.00    -0.237 OA
ATOM     88  O   UNL A   1      41.617  20.991  27.674  1.00  0.00    -0.744 OA
ENDBRANCH  84  85
ENDBRANCH  52  77
BRANCH  64  89
ATOM     89  C   UNL A   1      47.990  30.033  28.576  1.00  0.00     0.058 A 
ATOM     90  C   UNL A   1      48.564  30.427  27.357  1.00  0.00     0.135 A 
ATOM     91  C   UNL A   1      48.832  29.442  29.533  1.00  0.00     0.135 A 
ATOM     92  F   UNL A   1      47.805  30.993  26.405  1.00  0.00    -0.206 F 
ATOM     93  C   UNL A   1      49.914  30.221  27.089  1.00  0.00     0.059 A 
ATOM     94  C   UNL A   1      50.191  29.257  29.299  1.00  0.00     0.059 A 
ATOM     95  F   UNL A   1      48.340  29.057  30.722  1.00  0.00    -0.206 F 
ATOM     96  C   UNL A   1      50.720  29.638  28.068  1.00  0.00     0.060 A 
BRANCH  96  97
ATOM     97  S   UNL A   1      52.477  29.408  27.719  1.00  0.00     0.124 S 
ATOM     98  O   UNL A   1      52.437  28.832  26.379  1.00  0.00    -0.237 OA
ATOM     99  O   UNL A   1      52.993  30.771  27.808  1.00  0.00    -0.237 OA
ATOM    100  O   UNL A   1      52.920  28.506  28.778  1.00  0.00    -0.744 OA
ENDBRANCH  96  97
ENDBRANCH  64  89
ENDBRANCH  38  39
ENDBRANCH  31  33
ENDBRANCH  30  31
ENDBRANCH  29  30
ENDBRANCH  28  29
ENDBRANCH  27  28
ENDBRANCH  26  27
ENDBRANCH   1  26
TORSDOF 25
ENDMDL
