MODEL 1
REMARK VINA RESULT:      -8.6      0.000      0.000
REMARK SMILES CS(=O)(=O)c1ccc(C2=NN(c3ccc(C(=O)OCCOCCOCCOCCOC(=O)c4ccc(-c5c6nc(c(-c7c(F)cc(S(=O)(=O)[O-])cc7F)c7ccc([nH]7)c(-c7c(F)cc(S(=O)(=O)[O-])cc7F)c7nc(c(-c8c(F)cc(S(=O)(=O)[O-])cc8F)c8ccc5[nH]8)C=C7)C=C6)cc4)cc3)[C@H](c3ccc(F)cc3)C2)cc1
REMARK SMILES IDX 24 1 23 2 22 3 21 4 20 5 19 6 18 7 16 8 17 9 15 10 12 11
REMARK SMILES IDX 13 12 100 13 14 14 99 15 11 16 9 17 10 18 109 19 101 20 8 21
REMARK SMILES IDX 5 22 6 23 111 24 7 25 110 26 2 27 1 28 3 29 4 30 102 31
REMARK SMILES IDX 103 32 108 33 104 34 107 35 105 36 106 37 25 38 26 39 27 40
REMARK SMILES IDX 28 41 29 42 30 43 31 44 32 45 33 46 34 47 98 48 35 49 97 50
REMARK SMILES IDX 36 51 37 52 38 53 91 54 39 55 96 56 90 57 92 58 40 59 95 60
REMARK SMILES IDX 89 61 88 62 41 64 75 65 54 66 74 67 55 68 58 69 73 70 93 71
REMARK SMILES IDX 56 72 57 73 72 75 94 76 59 77 42 78 43 79 52 80 44 81 45 82
REMARK SMILES IDX 51 83 53 84 46 85 47 86 48 87 49 88 50 89 76 90 77 91 86 92
REMARK SMILES IDX 78 93 79 94 85 95 87 96 80 97 81 98 82 99 83 100 84 101
REMARK SMILES IDX 60 102 61 103 70 104 62 105 63 106 69 107 71 108 64 109
REMARK SMILES IDX 65 110 66 111 67 112 68 113
REMARK H PARENT 92 63 58 74
REMARK Flexibility Score: inf
ROOT
ATOM      1  O   UNL A   1      43.670  25.308  25.992  1.00  0.00    -0.377 OA
ENDROOT
BRANCH   1   2
ATOM      2  C   UNL A   1      42.820  26.442  25.939  1.00  0.00     0.188 C 
BRANCH   2   3
ATOM      3  C   UNL A   1      42.271  26.983  27.274  1.00  0.00     0.188 C 
BRANCH   3   4
ATOM      4  O   UNL A   1      42.837  28.223  27.661  1.00  0.00    -0.376 OA
BRANCH   4   5
ATOM      5  C   UNL A   1      42.646  28.710  28.976  1.00  0.00     0.202 C 
BRANCH   5   6
ATOM      6  C   UNL A   1      42.486  27.750  30.165  1.00  0.00     0.261 C 
BRANCH   6   7
ATOM      7  O   UNL A   1      41.607  28.174  31.208  1.00  0.00    -0.460 OA
BRANCH   7   8
ATOM      8  C   UNL A   1      41.200  29.459  31.203  1.00  0.00     0.338 C 
ATOM      9  O   UNL A   1      41.827  30.427  31.596  1.00  0.00    -0.246 OA
BRANCH   8  10
ATOM     10  C   UNL A   1      39.914  29.532  30.463  1.00  0.00     0.060 A 
ATOM     11  C   UNL A   1      37.446  29.805  29.160  1.00  0.00     0.060 A 
ATOM     12  C   UNL A   1      38.456  30.755  28.964  1.00  0.00     0.029 A 
ATOM     13  C   UNL A   1      37.743  28.646  29.889  1.00  0.00     0.029 A 
ATOM     14  C   UNL A   1      39.683  30.625  29.620  1.00  0.00     0.018 A 
ATOM     15  C   UNL A   1      38.958  28.515  30.559  1.00  0.00     0.018 A 
BRANCH  11  16
ATOM     16  N   UNL A   1      36.111  30.079  28.836  1.00  0.00    -0.257 N 
ATOM     17  C   UNL A   1      34.524  30.029  27.417  1.00  0.00     0.071 C 
ATOM     18  N   UNL A   1      35.436  29.286  27.963  1.00  0.00    -0.176 NA
ATOM     19  C   UNL A   1      34.585  31.495  27.749  1.00  0.00     0.091 C 
ATOM     20  C   UNL A   1      35.702  31.496  28.799  1.00  0.00     0.144 C 
BRANCH  17  21
ATOM     21  C   UNL A   1      33.473  29.491  26.538  1.00  0.00    -0.002 A 
ATOM     22  C   UNL A   1      31.503  28.387  24.902  1.00  0.00     0.067 A 
ATOM     23  C   UNL A   1      32.524  27.574  25.406  1.00  0.00     0.021 A 
ATOM     24  C   UNL A   1      31.461  29.751  25.214  1.00  0.00     0.021 A 
ATOM     25  C   UNL A   1      33.518  28.131  26.212  1.00  0.00     0.011 A 
ATOM     26  C   UNL A   1      32.444  30.301  26.047  1.00  0.00     0.011 A 
BRANCH  22  27
ATOM     27  S   UNL A   1      30.275  27.643  23.852  1.00  0.00     0.175 S 
ATOM     28  C   UNL A   1      31.133  27.036  22.427  1.00  0.00     0.163 C 
ATOM     29  O   UNL A   1      29.408  28.711  23.389  1.00  0.00    -0.224 OA
ATOM     30  O   UNL A   1      29.746  26.504  24.575  1.00  0.00    -0.224 OA
ENDBRANCH  22  27
ENDBRANCH  17  21
BRANCH  20  31
ATOM     31  C   UNL A   1      35.378  32.006  30.199  1.00  0.00    -0.023 A 
ATOM     32  C   UNL A   1      35.858  31.413  31.377  1.00  0.00     0.009 A 
ATOM     33  C   UNL A   1      34.622  33.194  30.322  1.00  0.00     0.009 A 
ATOM     34  C   UNL A   1      35.605  31.998  32.623  1.00  0.00     0.039 A 
ATOM     35  C   UNL A   1      34.418  33.806  31.559  1.00  0.00     0.039 A 
ATOM     36  C   UNL A   1      34.910  33.199  32.702  1.00  0.00     0.123 A 
ATOM     37  F   UNL A   1      34.721  33.775  33.895  1.00  0.00    -0.207 F 
ENDBRANCH  20  31
ENDBRANCH  11  16
ENDBRANCH   8  10
ENDBRANCH   7   8
ENDBRANCH   6   7
ENDBRANCH   5   6
ENDBRANCH   4   5
ENDBRANCH   3   4
ENDBRANCH   2   3
ENDBRANCH   1   2
BRANCH   1  38
ATOM     38  C   UNL A   1      43.186  24.038  25.560  1.00  0.00     0.188 C 
BRANCH  38  39
ATOM     39  C   UNL A   1      43.169  22.791  26.480  1.00  0.00     0.188 C 
BRANCH  39  40
ATOM     40  O   UNL A   1      41.897  22.434  26.995  1.00  0.00    -0.376 OA
BRANCH  40  41
ATOM     41  C   UNL A   1      41.700  22.538  28.394  1.00  0.00     0.202 C 
BRANCH  41  42
ATOM     42  C   UNL A   1      42.958  22.676  29.260  1.00  0.00     0.261 C 
BRANCH  42  43
ATOM     43  O   UNL A   1      43.206  23.980  29.805  1.00  0.00    -0.460 OA
BRANCH  43  44
ATOM     44  C   UNL A   1      44.245  24.112  30.658  1.00  0.00     0.338 C 
ATOM     45  O   UNL A   1      44.437  23.484  31.686  1.00  0.00    -0.246 OA
BRANCH  44  46
ATOM     46  C   UNL A   1      45.219  25.027  30.028  1.00  0.00     0.060 A 
ATOM     47  C   UNL A   1      45.847  26.006  30.809  1.00  0.00     0.016 A 
ATOM     48  C   UNL A   1      45.532  24.894  28.674  1.00  0.00     0.016 A 
ATOM     49  C   UNL A   1      46.778  26.870  30.229  1.00  0.00     0.010 A 
ATOM     50  C   UNL A   1      46.446  25.773  28.090  1.00  0.00     0.010 A 
ATOM     51  C   UNL A   1      47.055  26.781  28.858  1.00  0.00    -0.014 A 
BRANCH  51  52
ATOM     52  C   UNL A   1      47.854  27.837  28.189  1.00  0.00     0.031 A 
ATOM     53  C   UNL A   1      49.261  27.511  27.767  1.00  0.00     0.074 A 
ATOM     54  C   UNL A   1      47.345  29.060  27.961  1.00  0.00     0.049 A 
ATOM     55  N   UNL A   1      50.170  28.284  27.235  1.00  0.00    -0.248 NA
ATOM     56  C   UNL A   1      49.701  26.121  27.977  1.00  0.00     0.031 C 
ATOM     57  C   UNL A   1      45.985  29.484  28.289  1.00  0.00     0.029 A 
ATOM     58  N   UNL A   1      47.922  30.178  27.409  1.00  0.00    -0.354 N 
ATOM     59  C   UNL A   1      51.291  27.482  27.054  1.00  0.00     0.074 A 
ATOM     60  C   UNL A   1      50.957  26.168  27.560  1.00  0.00     0.031 C 
ATOM     61  C   UNL A   1      45.837  30.777  27.946  1.00  0.00     0.029 A 
ATOM     62  C   UNL A   1      47.101  31.281  27.412  1.00  0.00     0.049 A 
ATOM     63  H   UNL A   1      48.838  30.188  27.047  1.00  0.00     0.167 HD
ATOM     64  C   UNL A   1      52.486  27.810  26.509  1.00  0.00     0.037 A 
ATOM     65  C   UNL A   1      47.353  32.557  27.051  1.00  0.00     0.037 A 
ATOM     66  C   UNL A   1      52.812  29.123  26.015  1.00  0.00     0.049 A 
ATOM     67  C   UNL A   1      48.720  32.918  26.522  1.00  0.00     0.074 A 
ATOM     68  C   UNL A   1      53.989  29.551  25.428  1.00  0.00     0.029 A 
ATOM     69  N   UNL A   1      51.966  30.221  26.062  1.00  0.00    -0.354 N 
ATOM     70  N   UNL A   1      49.762  32.145  26.328  1.00  0.00    -0.248 NA
ATOM     71  C   UNL A   1      48.944  34.326  26.164  1.00  0.00     0.031 C 
ATOM     72  C   UNL A   1      53.877  30.922  25.175  1.00  0.00     0.029 A 
ATOM     73  C   UNL A   1      52.606  31.335  25.544  1.00  0.00     0.049 A 
ATOM     74  H   UNL A   1      51.045  30.211  26.412  1.00  0.00     0.167 HD
ATOM     75  C   UNL A   1      50.755  32.966  25.800  1.00  0.00     0.074 A 
ATOM     76  C   UNL A   1      50.184  34.292  25.692  1.00  0.00     0.031 C 
ATOM     77  C   UNL A   1      52.024  32.651  25.437  1.00  0.00     0.037 A 
BRANCH  64  78
ATOM     78  C   UNL A   1      53.541  26.739  26.448  1.00  0.00     0.058 A 
ATOM     79  C   UNL A   1      53.560  25.773  25.430  1.00  0.00     0.135 A 
ATOM     80  C   UNL A   1      54.571  26.702  27.403  1.00  0.00     0.135 A 
ATOM     81  F   UNL A   1      52.590  25.749  24.502  1.00  0.00    -0.206 F 
ATOM     82  C   UNL A   1      54.546  24.793  25.374  1.00  0.00     0.059 A 
ATOM     83  C   UNL A   1      55.584  25.750  27.350  1.00  0.00     0.059 A 
ATOM     84  F   UNL A   1      54.600  27.600  28.401  1.00  0.00    -0.206 F 
ATOM     85  C   UNL A   1      55.556  24.791  26.339  1.00  0.00     0.060 A 
BRANCH  85  86
ATOM     86  S   UNL A   1      56.833  23.519  26.245  1.00  0.00     0.124 S 
ATOM     87  O   UNL A   1      57.247  23.623  24.850  1.00  0.00    -0.237 OA
ATOM     88  O   UNL A   1      57.804  23.981  27.231  1.00  0.00    -0.237 OA
ATOM     89  O   UNL A   1      56.120  22.294  26.597  1.00  0.00    -0.744 OA
ENDBRANCH  85  86
ENDBRANCH  64  78
BRANCH  65  90
ATOM     90  C   UNL A   1      46.296  33.595  27.194  1.00  0.00     0.058 A 
ATOM     91  C   UNL A   1      45.216  33.660  26.301  1.00  0.00     0.135 A 
ATOM     92  C   UNL A   1      46.348  34.549  28.223  1.00  0.00     0.135 A 
ATOM     93  F   UNL A   1      45.128  32.782  25.290  1.00  0.00    -0.206 F 
ATOM     94  C   UNL A   1      44.232  34.638  26.414  1.00  0.00     0.059 A 
ATOM     95  C   UNL A   1      45.361  35.519  28.374  1.00  0.00     0.059 A 
ATOM     96  F   UNL A   1      47.357  34.531  29.108  1.00  0.00    -0.206 F 
ATOM     97  C   UNL A   1      44.311  35.560  27.459  1.00  0.00     0.060 A 
BRANCH  97  98
ATOM     98  S   UNL A   1      42.999  36.791  27.628  1.00  0.00     0.124 S 
ATOM     99  O   UNL A   1      42.902  36.921  29.077  1.00  0.00    -0.237 OA
ATOM    100  O   UNL A   1      43.563  37.936  26.920  1.00  0.00    -0.237 OA
ATOM    101  O   UNL A   1      41.858  36.158  26.972  1.00  0.00    -0.744 OA
ENDBRANCH  97  98
ENDBRANCH  65  90
BRANCH  77 102
ATOM    102  C   UNL A   1      52.878  33.747  24.857  1.00  0.00     0.058 A 
ATOM    103  C   UNL A   1      53.649  34.595  25.668  1.00  0.00     0.135 A 
ATOM    104  C   UNL A   1      52.975  33.911  23.465  1.00  0.00     0.135 A 
ATOM    105  F   UNL A   1      53.593  34.487  27.005  1.00  0.00    -0.206 F 
ATOM    106  C   UNL A   1      54.465  35.580  25.122  1.00  0.00     0.059 A 
ATOM    107  C   UNL A   1      53.808  34.869  22.896  1.00  0.00     0.059 A 
ATOM    108  F   UNL A   1      52.269  33.122  22.640  1.00  0.00    -0.206 F 
ATOM    109  C   UNL A   1      54.542  35.707  23.734  1.00  0.00     0.060 A 
BRANCH 109 110
ATOM    110  S   UNL A   1      55.634  36.967  23.039  1.00  0.00     0.124 S 
ATOM    111  O   UNL A   1      54.708  38.072  22.821  1.00  0.00    -0.237 OA
ATOM    112  O   UNL A   1      56.609  37.157  24.109  1.00  0.00    -0.237 OA
ATOM    113  O   UNL A   1      56.155  36.337  21.829  1.00  0.00    -0.744 OA
ENDBRANCH 109 110
ENDBRANCH  77 102
ENDBRANCH  51  52
ENDBRANCH  44  46
ENDBRANCH  43  44
ENDBRANCH  42  43
ENDBRANCH  41  42
ENDBRANCH  40  41
ENDBRANCH  39  40
ENDBRANCH  38  39
ENDBRANCH   1  38
TORSDOF 27
ENDMDL
MODEL 2
REMARK VINA RESULT:      -8.2      6.461     10.711
REMARK SMILES CS(=O)(=O)c1ccc(C2=NN(c3ccc(C(=O)OCCOCCOCCOCCOC(=O)c4ccc(-c5c6nc(c(-c7c(F)cc(S(=O)(=O)[O-])cc7F)c7ccc([nH]7)c(-c7c(F)cc(S(=O)(=O)[O-])cc7F)c7nc(c(-c8c(F)cc(S(=O)(=O)[O-])cc8F)c8ccc5[nH]8)C=C7)C=C6)cc4)cc3)[C@H](c3ccc(F)cc3)C2)cc1
REMARK SMILES IDX 24 1 23 2 22 3 21 4 20 5 19 6 18 7 16 8 17 9 15 10 12 11
REMARK SMILES IDX 13 12 100 13 14 14 99 15 11 16 9 17 10 18 109 19 101 20 8 21
REMARK SMILES IDX 5 22 6 23 111 24 7 25 110 26 2 27 1 28 3 29 4 30 102 31
REMARK SMILES IDX 103 32 108 33 104 34 107 35 105 36 106 37 25 38 26 39 27 40
REMARK SMILES IDX 28 41 29 42 30 43 31 44 32 45 33 46 34 47 98 48 35 49 97 50
REMARK SMILES IDX 36 51 37 52 38 53 91 54 39 55 96 56 90 57 92 58 40 59 95 60
REMARK SMILES IDX 89 61 88 62 41 64 75 65 54 66 74 67 55 68 58 69 73 70 93 71
REMARK SMILES IDX 56 72 57 73 72 75 94 76 59 77 42 78 43 79 52 80 44 81 45 82
REMARK SMILES IDX 51 83 53 84 46 85 47 86 48 87 49 88 50 89 76 90 77 91 86 92
REMARK SMILES IDX 78 93 79 94 85 95 87 96 80 97 81 98 82 99 83 100 84 101
REMARK SMILES IDX 60 102 61 103 70 104 62 105 63 106 69 107 71 108 64 109
REMARK SMILES IDX 65 110 66 111 67 112 68 113
REMARK H PARENT 92 63 58 74
REMARK Flexibility Score: inf
ROOT
ATOM      1  O   UNL A   1      37.750  31.397  35.492  1.00  0.00    -0.377 OA
ENDROOT
BRANCH   1   2
ATOM      2  C   UNL A   1      38.322  32.283  36.440  1.00  0.00     0.188 C 
BRANCH   2   3
ATOM      3  C   UNL A   1      38.079  33.792  36.241  1.00  0.00     0.188 C 
BRANCH   3   4
ATOM      4  O   UNL A   1      39.242  34.582  36.409  1.00  0.00    -0.376 OA
BRANCH   4   5
ATOM      5  C   UNL A   1      39.771  35.309  35.316  1.00  0.00     0.202 C 
BRANCH   5   6
ATOM      6  C   UNL A   1      40.818  34.688  34.379  1.00  0.00     0.261 C 
BRANCH   6   7
ATOM      7  O   UNL A   1      40.649  34.940  32.984  1.00  0.00    -0.460 OA
BRANCH   7   8
ATOM      8  C   UNL A   1      40.752  33.895  32.139  1.00  0.00     0.338 C 
ATOM      9  O   UNL A   1      41.661  33.085  32.083  1.00  0.00    -0.246 OA
BRANCH   8  10
ATOM     10  C   UNL A   1      39.473  33.778  31.392  1.00  0.00     0.060 A 
ATOM     11  C   UNL A   1      37.000  33.462  30.109  1.00  0.00     0.060 A 
ATOM     12  C   UNL A   1      37.093  34.221  31.283  1.00  0.00     0.029 A 
ATOM     13  C   UNL A   1      38.178  32.998  29.510  1.00  0.00     0.029 A 
ATOM     14  C   UNL A   1      38.324  34.371  31.928  1.00  0.00     0.018 A 
ATOM     15  C   UNL A   1      39.407  33.131  30.154  1.00  0.00     0.018 A 
BRANCH  11  16
ATOM     16  N   UNL A   1      35.768  32.981  29.646  1.00  0.00    -0.257 N 
ATOM     17  C   UNL A   1      34.669  31.809  28.249  1.00  0.00     0.071 C 
ATOM     18  N   UNL A   1      35.682  31.759  29.058  1.00  0.00    -0.176 NA
ATOM     19  C   UNL A   1      34.035  33.160  28.072  1.00  0.00     0.091 C 
ATOM     20  C   UNL A   1      34.813  33.972  29.116  1.00  0.00     0.144 C 
BRANCH  17  21
ATOM     21  C   UNL A   1      34.144  30.624  27.550  1.00  0.00    -0.002 A 
ATOM     22  C   UNL A   1      33.093  28.436  26.179  1.00  0.00     0.067 A 
ATOM     23  C   UNL A   1      32.392  29.647  26.196  1.00  0.00     0.021 A 
ATOM     24  C   UNL A   1      34.319  28.314  26.842  1.00  0.00     0.021 A 
ATOM     25  C   UNL A   1      32.912  30.737  26.896  1.00  0.00     0.011 A 
ATOM     26  C   UNL A   1      34.852  29.419  27.520  1.00  0.00     0.011 A 
BRANCH  22  27
ATOM     27  S   UNL A   1      32.378  27.063  25.302  1.00  0.00     0.175 S 
ATOM     28  C   UNL A   1      33.614  26.490  24.170  1.00  0.00     0.163 C 
ATOM     29  O   UNL A   1      31.292  27.591  24.497  1.00  0.00    -0.224 OA
ATOM     30  O   UNL A   1      32.150  26.019  26.281  1.00  0.00    -0.224 OA
ENDBRANCH  22  27
ENDBRANCH  17  21
BRANCH  20  31
ATOM     31  C   UNL A   1      34.031  34.635  30.245  1.00  0.00    -0.023 A 
ATOM     32  C   UNL A   1      34.099  34.226  31.586  1.00  0.00     0.009 A 
ATOM     33  C   UNL A   1      33.260  35.781  29.945  1.00  0.00     0.009 A 
ATOM     34  C   UNL A   1      33.436  34.948  32.584  1.00  0.00     0.039 A 
ATOM     35  C   UNL A   1      32.646  36.531  30.948  1.00  0.00     0.039 A 
ATOM     36  C   UNL A   1      32.736  36.104  32.262  1.00  0.00     0.123 A 
ATOM     37  F   UNL A   1      32.151  36.815  33.233  1.00  0.00    -0.207 F 
ENDBRANCH  20  31
ENDBRANCH  11  16
ENDBRANCH   8  10
ENDBRANCH   7   8
ENDBRANCH   6   7
ENDBRANCH   5   6
ENDBRANCH   4   5
ENDBRANCH   3   4
ENDBRANCH   2   3
ENDBRANCH   1   2
BRANCH   1  38
ATOM     38  C   UNL A   1      38.023  31.572  34.103  1.00  0.00     0.188 C 
BRANCH  38  39
ATOM     39  C   UNL A   1      37.307  30.752  33.000  1.00  0.00     0.188 C 
BRANCH  39  40
ATOM     40  O   UNL A   1      38.113  30.397  31.888  1.00  0.00    -0.376 OA
BRANCH  40  41
ATOM     41  C   UNL A   1      38.212  29.023  31.558  1.00  0.00     0.202 C 
BRANCH  41  42
ATOM     42  C   UNL A   1      39.033  28.142  32.508  1.00  0.00     0.261 C 
BRANCH  42  43
ATOM     43  O   UNL A   1      40.397  28.538  32.712  1.00  0.00    -0.460 OA
BRANCH  43  44
ATOM     44  C   UNL A   1      40.800  28.752  33.983  1.00  0.00     0.338 C 
ATOM     45  O   UNL A   1      40.150  29.252  34.886  1.00  0.00    -0.246 OA
BRANCH  44  46
ATOM     46  C   UNL A   1      42.115  28.098  34.145  1.00  0.00     0.060 A 
ATOM     47  C   UNL A   1      42.865  28.341  35.303  1.00  0.00     0.016 A 
ATOM     48  C   UNL A   1      42.587  27.222  33.166  1.00  0.00     0.016 A 
ATOM     49  C   UNL A   1      44.104  27.721  35.474  1.00  0.00     0.010 A 
ATOM     50  C   UNL A   1      43.837  26.620  33.329  1.00  0.00     0.010 A 
ATOM     51  C   UNL A   1      44.612  26.885  34.471  1.00  0.00    -0.014 A 
BRANCH  51  52
ATOM     52  C   UNL A   1      46.018  26.414  34.533  1.00  0.00     0.031 A 
ATOM     53  C   UNL A   1      46.311  25.130  35.261  1.00  0.00     0.074 A 
ATOM     54  C   UNL A   1      47.014  27.111  33.960  1.00  0.00     0.049 A 
ATOM     55  N   UNL A   1      47.461  24.559  35.509  1.00  0.00    -0.248 NA
ATOM     56  C   UNL A   1      45.148  24.392  35.779  1.00  0.00     0.031 C 
ATOM     57  C   UNL A   1      46.851  28.347  33.197  1.00  0.00     0.029 A 
ATOM     58  N   UNL A   1      48.369  26.881  33.943  1.00  0.00    -0.354 N 
ATOM     59  C   UNL A   1      47.162  23.402  36.219  1.00  0.00     0.074 A 
ATOM     60  C   UNL A   1      45.726  23.367  36.386  1.00  0.00     0.031 C 
ATOM     61  C   UNL A   1      48.063  28.777  32.799  1.00  0.00     0.029 A 
ATOM     62  C   UNL A   1      49.088  27.869  33.312  1.00  0.00     0.049 A 
ATOM     63  H   UNL A   1      48.785  26.085  34.346  1.00  0.00     0.167 HD
ATOM     64  C   UNL A   1      48.009  22.453  36.681  1.00  0.00     0.037 A 
ATOM     65  C   UNL A   1      50.422  28.033  33.188  1.00  0.00     0.037 A 
ATOM     66  C   UNL A   1      49.439  22.499  36.517  1.00  0.00     0.049 A 
ATOM     67  C   UNL A   1      51.350  27.004  33.783  1.00  0.00     0.074 A 
ATOM     68  C   UNL A   1      50.382  21.578  36.933  1.00  0.00     0.029 A 
ATOM     69  N   UNL A   1      50.132  23.530  35.898  1.00  0.00    -0.354 N 
ATOM     70  N   UNL A   1      51.056  25.898  34.426  1.00  0.00    -0.248 NA
ATOM     71  C   UNL A   1      52.794  27.245  33.637  1.00  0.00     0.031 C 
ATOM     72  C   UNL A   1      51.650  22.078  36.620  1.00  0.00     0.029 A 
ATOM     73  C   UNL A   1      51.495  23.282  35.950  1.00  0.00     0.049 A 
ATOM     74  H   UNL A   1      49.718  24.321  35.483  1.00  0.00     0.167 HD
ATOM     75  C   UNL A   1      52.274  25.299  34.736  1.00  0.00     0.074 A 
ATOM     76  C   UNL A   1      53.309  26.158  34.197  1.00  0.00     0.031 C 
ATOM     77  C   UNL A   1      52.516  24.144  35.405  1.00  0.00     0.037 A 
BRANCH  64  78
ATOM     78  C   UNL A   1      47.414  21.297  37.439  1.00  0.00     0.058 A 
ATOM     79  C   UNL A   1      47.333  21.290  38.840  1.00  0.00     0.135 A 
ATOM     80  C   UNL A   1      46.882  20.195  36.748  1.00  0.00     0.135 A 
ATOM     81  F   UNL A   1      47.841  22.308  39.553  1.00  0.00    -0.206 F 
ATOM     82  C   UNL A   1      46.770  20.222  39.532  1.00  0.00     0.059 A 
ATOM     83  C   UNL A   1      46.288  19.129  37.417  1.00  0.00     0.059 A 
ATOM     84  F   UNL A   1      46.936  20.146  35.408  1.00  0.00    -0.206 F 
ATOM     85  C   UNL A   1      46.248  19.146  38.811  1.00  0.00     0.060 A 
BRANCH  85  86
ATOM     86  S   UNL A   1      45.513  17.774  39.724  1.00  0.00     0.124 S 
ATOM     87  O   UNL A   1      44.970  18.458  40.893  1.00  0.00    -0.237 OA
ATOM     88  O   UNL A   1      44.529  17.262  38.776  1.00  0.00    -0.237 OA
ATOM     89  O   UNL A   1      46.646  16.891  39.985  1.00  0.00    -0.744 OA
ENDBRANCH  85  86
ENDBRANCH  64  78
BRANCH  65  90
ATOM     90  C   UNL A   1      50.964  29.230  32.488  1.00  0.00     0.058 A 
ATOM     91  C   UNL A   1      51.246  30.413  33.185  1.00  0.00     0.135 A 
ATOM     92  C   UNL A   1      51.203  29.218  31.104  1.00  0.00     0.135 A 
ATOM     93  F   UNL A   1      51.020  30.483  34.506  1.00  0.00    -0.206 F 
ATOM     94  C   UNL A   1      51.735  31.544  32.538  1.00  0.00     0.059 A 
ATOM     95  C   UNL A   1      51.719  30.327  30.439  1.00  0.00     0.059 A 
ATOM     96  F   UNL A   1      50.953  28.110  30.388  1.00  0.00    -0.206 F 
ATOM     97  C   UNL A   1      51.973  31.488  31.164  1.00  0.00     0.060 A 
BRANCH  97  98
ATOM     98  S   UNL A   1      52.659  32.945  30.345  1.00  0.00     0.124 S 
ATOM     99  O   UNL A   1      54.083  32.629  30.325  1.00  0.00    -0.237 OA
ATOM    100  O   UNL A   1      51.981  32.916  29.053  1.00  0.00    -0.237 OA
ATOM    101  O   UNL A   1      52.268  34.042  31.225  1.00  0.00    -0.744 OA
ENDBRANCH  97  98
ENDBRANCH  65  90
BRANCH  77 102
ATOM    102  C   UNL A   1      53.950  23.715  35.567  1.00  0.00     0.058 A 
ATOM    103  C   UNL A   1      54.615  22.964  34.584  1.00  0.00     0.135 A 
ATOM    104  C   UNL A   1      54.689  24.114  36.693  1.00  0.00     0.135 A 
ATOM    105  F   UNL A   1      53.958  22.551  33.489  1.00  0.00    -0.206 F 
ATOM    106  C   UNL A   1      55.951  22.604  34.724  1.00  0.00     0.059 A 
ATOM    107  C   UNL A   1      56.035  23.793  36.839  1.00  0.00     0.059 A 
ATOM    108  F   UNL A   1      54.108  24.844  37.659  1.00  0.00    -0.206 F 
ATOM    109  C   UNL A   1      56.655  23.027  35.853  1.00  0.00     0.060 A 
BRANCH 109 110
ATOM    110  S   UNL A   1      58.399  22.583  36.003  1.00  0.00     0.124 S 
ATOM    111  O   UNL A   1      58.630  22.771  37.430  1.00  0.00    -0.237 OA
ATOM    112  O   UNL A   1      58.409  21.200  35.535  1.00  0.00    -0.237 OA
ATOM    113  O   UNL A   1      59.070  23.539  35.127  1.00  0.00    -0.744 OA
ENDBRANCH 109 110
ENDBRANCH  77 102
ENDBRANCH  51  52
ENDBRANCH  44  46
ENDBRANCH  43  44
ENDBRANCH  42  43
ENDBRANCH  41  42
ENDBRANCH  40  41
ENDBRANCH  39  40
ENDBRANCH  38  39
ENDBRANCH   1  38
TORSDOF 27
ENDMDL
MODEL 3
REMARK VINA RESULT:      -8.0      6.093     15.854
REMARK SMILES CS(=O)(=O)c1ccc(C2=NN(c3ccc(C(=O)OCCOCCOCCOCCOC(=O)c4ccc(-c5c6nc(c(-c7c(F)cc(S(=O)(=O)[O-])cc7F)c7ccc([nH]7)c(-c7c(F)cc(S(=O)(=O)[O-])cc7F)c7nc(c(-c8c(F)cc(S(=O)(=O)[O-])cc8F)c8ccc5[nH]8)C=C7)C=C6)cc4)cc3)[C@H](c3ccc(F)cc3)C2)cc1
REMARK SMILES IDX 24 1 23 2 22 3 21 4 20 5 19 6 18 7 16 8 17 9 15 10 12 11
REMARK SMILES IDX 13 12 100 13 14 14 99 15 11 16 9 17 10 18 109 19 101 20 8 21
REMARK SMILES IDX 5 22 6 23 111 24 7 25 110 26 2 27 1 28 3 29 4 30 102 31
REMARK SMILES IDX 103 32 108 33 104 34 107 35 105 36 106 37 25 38 26 39 27 40
REMARK SMILES IDX 28 41 29 42 30 43 31 44 32 45 33 46 34 47 98 48 35 49 97 50
REMARK SMILES IDX 36 51 37 52 38 53 91 54 39 55 96 56 90 57 92 58 40 59 95 60
REMARK SMILES IDX 89 61 88 62 41 64 75 65 54 66 74 67 55 68 58 69 73 70 93 71
REMARK SMILES IDX 56 72 57 73 72 75 94 76 59 77 42 78 43 79 52 80 44 81 45 82
REMARK SMILES IDX 51 83 53 84 46 85 47 86 48 87 49 88 50 89 76 90 77 91 86 92
REMARK SMILES IDX 78 93 79 94 85 95 87 96 80 97 81 98 82 99 83 100 84 101
REMARK SMILES IDX 60 102 61 103 70 104 62 105 63 106 69 107 71 108 64 109
REMARK SMILES IDX 65 110 66 111 67 112 68 113
REMARK H PARENT 92 63 58 74
REMARK Flexibility Score: inf
ROOT
ATOM      1  O   UNL A   1      45.525  37.473  27.916  1.00  0.00    -0.377 OA
ENDROOT
BRANCH   1   2
ATOM      2  C   UNL A   1      44.482  37.624  26.968  1.00  0.00     0.188 C 
BRANCH   2   3
ATOM      3  C   UNL A   1      43.187  38.317  27.438  1.00  0.00     0.188 C 
BRANCH   3   4
ATOM      4  O   UNL A   1      43.249  39.731  27.389  1.00  0.00    -0.376 OA
BRANCH   4   5
ATOM      5  C   UNL A   1      42.680  40.503  28.430  1.00  0.00     0.202 C 
BRANCH   5   6
ATOM      6  C   UNL A   1      43.561  41.182  29.490  1.00  0.00     0.261 C 
BRANCH   6   7
ATOM      7  O   UNL A   1      44.033  42.493  29.176  1.00  0.00    -0.460 OA
BRANCH   7   8
ATOM      8  C   UNL A   1      45.330  42.628  28.831  1.00  0.00     0.338 C 
ATOM      9  O   UNL A   1      46.300  42.461  29.550  1.00  0.00    -0.246 OA
BRANCH   8  10
ATOM     10  C   UNL A   1      45.396  42.841  27.362  1.00  0.00     0.060 A 
ATOM     11  C   UNL A   1      45.683  43.202  24.597  1.00  0.00     0.060 A 
ATOM     12  C   UNL A   1      45.761  41.919  25.152  1.00  0.00     0.029 A 
ATOM     13  C   UNL A   1      45.309  44.272  25.420  1.00  0.00     0.029 A 
ATOM     14  C   UNL A   1      45.627  41.739  26.531  1.00  0.00     0.018 A 
ATOM     15  C   UNL A   1      45.187  44.104  26.798  1.00  0.00     0.018 A 
BRANCH  11  16
ATOM     16  N   UNL A   1      46.171  43.474  23.312  1.00  0.00    -0.257 N 
ATOM     17  C   UNL A   1      47.756  44.147  22.060  1.00  0.00     0.071 C 
ATOM     18  N   UNL A   1      47.492  43.328  23.030  1.00  0.00    -0.176 NA
ATOM     19  C   UNL A   1      46.648  45.086  21.672  1.00  0.00     0.091 C 
ATOM     20  C   UNL A   1      45.511  44.554  22.554  1.00  0.00     0.144 C 
BRANCH  17  21
ATOM     21  C   UNL A   1      49.049  44.164  21.355  1.00  0.00    -0.002 A 
ATOM     22  C   UNL A   1      51.464  44.130  19.962  1.00  0.00     0.067 A 
ATOM     23  C   UNL A   1      50.575  43.056  19.839  1.00  0.00     0.021 A 
ATOM     24  C   UNL A   1      51.149  45.223  20.777  1.00  0.00     0.021 A 
ATOM     25  C   UNL A   1      49.374  43.067  20.549  1.00  0.00     0.011 A 
ATOM     26  C   UNL A   1      49.929  45.244  21.466  1.00  0.00     0.011 A 
BRANCH  22  27
ATOM     27  S   UNL A   1      52.999  44.060  19.066  1.00  0.00     0.175 S 
ATOM     28  C   UNL A   1      53.608  42.406  19.240  1.00  0.00     0.163 C 
ATOM     29  O   UNL A   1      53.938  44.922  19.761  1.00  0.00    -0.224 OA
ATOM     30  O   UNL A   1      52.675  44.273  17.670  1.00  0.00    -0.224 OA
ENDBRANCH  22  27
ENDBRANCH  17  21
BRANCH  20  31
ATOM     31  C   UNL A   1      44.245  44.046  21.872  1.00  0.00    -0.023 A 
ATOM     32  C   UNL A   1      43.038  43.806  22.547  1.00  0.00     0.009 A 
ATOM     33  C   UNL A   1      44.256  43.888  20.468  1.00  0.00     0.009 A 
ATOM     34  C   UNL A   1      41.887  43.442  21.839  1.00  0.00     0.039 A 
ATOM     35  C   UNL A   1      43.095  43.579  19.758  1.00  0.00     0.039 A 
ATOM     36  C   UNL A   1      41.919  43.354  20.453  1.00  0.00     0.123 A 
ATOM     37  F   UNL A   1      40.798  43.057  19.784  1.00  0.00    -0.207 F 
ENDBRANCH  20  31
ENDBRANCH  11  16
ENDBRANCH   8  10
ENDBRANCH   7   8
ENDBRANCH   6   7
ENDBRANCH   5   6
ENDBRANCH   4   5
ENDBRANCH   3   4
ENDBRANCH   2   3
ENDBRANCH   1   2
BRANCH   1  38
ATOM     38  C   UNL A   1      46.319  38.600  28.284  1.00  0.00     0.188 C 
BRANCH  38  39
ATOM     39  C   UNL A   1      46.443  39.094  29.748  1.00  0.00     0.188 C 
BRANCH  39  40
ATOM     40  O   UNL A   1      45.439  38.626  30.633  1.00  0.00    -0.376 OA
BRANCH  40  41
ATOM     41  C   UNL A   1      45.780  38.484  32.000  1.00  0.00     0.202 C 
BRANCH  41  42
ATOM     42  C   UNL A   1      47.243  38.142  32.315  1.00  0.00     0.261 C 
BRANCH  42  43
ATOM     43  O   UNL A   1      47.548  36.747  32.446  1.00  0.00    -0.460 OA
BRANCH  43  44
ATOM     44  C   UNL A   1      48.590  36.267  31.732  1.00  0.00     0.338 C 
ATOM     45  O   UNL A   1      49.705  36.753  31.640  1.00  0.00    -0.246 OA
BRANCH  44  46
ATOM     46  C   UNL A   1      48.201  34.935  31.224  1.00  0.00     0.060 A 
ATOM     47  C   UNL A   1      48.096  34.730  29.842  1.00  0.00     0.016 A 
ATOM     48  C   UNL A   1      47.970  33.886  32.115  1.00  0.00     0.016 A 
ATOM     49  C   UNL A   1      47.740  33.473  29.349  1.00  0.00     0.010 A 
ATOM     50  C   UNL A   1      47.592  32.635  31.621  1.00  0.00     0.010 A 
ATOM     51  C   UNL A   1      47.452  32.429  30.238  1.00  0.00    -0.014 A 
BRANCH  51  52
ATOM     52  C   UNL A   1      46.846  31.170  29.737  1.00  0.00     0.031 A 
ATOM     53  C   UNL A   1      45.392  30.912  30.027  1.00  0.00     0.074 A 
ATOM     54  C   UNL A   1      47.568  30.274  29.042  1.00  0.00     0.049 A 
ATOM     55  N   UNL A   1      44.666  29.859  29.759  1.00  0.00    -0.248 NA
ATOM     56  C   UNL A   1      44.661  31.988  30.716  1.00  0.00     0.031 C 
ATOM     57  C   UNL A   1      48.972  30.429  28.667  1.00  0.00     0.029 A 
ATOM     58  N   UNL A   1      47.219  29.044  28.540  1.00  0.00    -0.354 N 
ATOM     59  C   UNL A   1      43.397  30.140  30.251  1.00  0.00     0.074 A 
ATOM     60  C   UNL A   1      43.459  31.451  30.861  1.00  0.00     0.031 C 
ATOM     61  C   UNL A   1      49.370  29.327  28.006  1.00  0.00     0.029 A 
ATOM     62  C   UNL A   1      48.263  28.375  27.946  1.00  0.00     0.049 A 
ATOM     63  H   UNL A   1      46.307  28.678  28.600  1.00  0.00     0.167 HD
ATOM     64  C   UNL A   1      42.280  29.377  30.194  1.00  0.00     0.037 A 
ATOM     65  C   UNL A   1      48.322  27.126  27.438  1.00  0.00     0.037 A 
ATOM     66  C   UNL A   1      42.227  28.070  29.592  1.00  0.00     0.049 A 
ATOM     67  C   UNL A   1      47.085  26.262  27.459  1.00  0.00     0.074 A 
ATOM     68  C   UNL A   1      41.140  27.225  29.466  1.00  0.00     0.029 A 
ATOM     69  N   UNL A   1      43.312  27.413  29.028  1.00  0.00    -0.354 N 
ATOM     70  N   UNL A   1      45.883  26.549  27.900  1.00  0.00    -0.248 NA
ATOM     71  C   UNL A   1      47.213  24.903  26.912  1.00  0.00     0.031 C 
ATOM     72  C   UNL A   1      41.578  26.033  28.881  1.00  0.00     0.029 A 
ATOM     73  C   UNL A   1      42.926  26.159  28.581  1.00  0.00     0.049 A 
ATOM     74  H   UNL A   1      44.221  27.783  28.954  1.00  0.00     0.167 HD
ATOM     75  C   UNL A   1      45.106  25.419  27.660  1.00  0.00     0.074 A 
ATOM     76  C   UNL A   1      45.971  24.448  27.021  1.00  0.00     0.031 C 
ATOM     77  C   UNL A   1      43.797  25.203  27.941  1.00  0.00     0.037 A 
BRANCH  64  78
ATOM     78  C   UNL A   1      41.029  29.924  30.826  1.00  0.00     0.058 A 
ATOM     79  C   UNL A   1      40.822  29.888  32.214  1.00  0.00     0.135 A 
ATOM     80  C   UNL A   1      40.038  30.526  30.034  1.00  0.00     0.135 A 
ATOM     81  F   UNL A   1      41.726  29.307  33.019  1.00  0.00    -0.206 F 
ATOM     82  C   UNL A   1      39.667  30.406  32.792  1.00  0.00     0.059 A 
ATOM     83  C   UNL A   1      38.889  31.078  30.592  1.00  0.00     0.059 A 
ATOM     84  F   UNL A   1      40.181  30.584  28.700  1.00  0.00    -0.206 F 
ATOM     85  C   UNL A   1      38.707  31.001  31.972  1.00  0.00     0.060 A 
BRANCH  85  86
ATOM     86  S   UNL A   1      37.220  31.678  32.739  1.00  0.00     0.124 S 
ATOM     87  O   UNL A   1      37.292  33.077  32.332  1.00  0.00    -0.237 OA
ATOM     88  O   UNL A   1      36.162  30.890  32.115  1.00  0.00    -0.237 OA
ATOM     89  O   UNL A   1      37.426  31.428  34.163  1.00  0.00    -0.744 OA
ENDBRANCH  85  86
ENDBRANCH  64  78
BRANCH  65  90
ATOM     90  C   UNL A   1      49.602  26.605  26.885  1.00  0.00     0.058 A 
ATOM     91  C   UNL A   1      49.910  26.735  25.523  1.00  0.00     0.135 A 
ATOM     92  C   UNL A   1      50.541  25.960  27.705  1.00  0.00     0.135 A 
ATOM     93  F   UNL A   1      49.040  27.329  24.692  1.00  0.00    -0.206 F 
ATOM     94  C   UNL A   1      51.096  26.235  24.991  1.00  0.00     0.059 A 
ATOM     95  C   UNL A   1      51.746  25.478  27.203  1.00  0.00     0.059 A 
ATOM     96  F   UNL A   1      50.299  25.812  29.018  1.00  0.00    -0.206 F 
ATOM     97  C   UNL A   1      52.010  25.613  25.842  1.00  0.00     0.060 A 
BRANCH  97  98
ATOM     98  S   UNL A   1      53.569  25.018  25.150  1.00  0.00     0.124 S 
ATOM     99  O   UNL A   1      54.539  25.571  26.088  1.00  0.00    -0.237 OA
ATOM    100  O   UNL A   1      53.389  23.570  25.196  1.00  0.00    -0.237 OA
ATOM    101  O   UNL A   1      53.585  25.597  23.810  1.00  0.00    -0.744 OA
ENDBRANCH  97  98
ENDBRANCH  65  90
BRANCH  77 102
ATOM    102  C   UNL A   1      43.201  23.881  27.533  1.00  0.00     0.058 A 
ATOM    103  C   UNL A   1      42.689  23.666  26.243  1.00  0.00     0.135 A 
ATOM    104  C   UNL A   1      43.199  22.796  28.425  1.00  0.00     0.135 A 
ATOM    105  F   UNL A   1      42.661  24.668  25.351  1.00  0.00    -0.206 F 
ATOM    106  C   UNL A   1      42.175  22.431  25.861  1.00  0.00     0.059 A 
ATOM    107  C   UNL A   1      42.720  21.544  28.055  1.00  0.00     0.059 A 
ATOM    108  F   UNL A   1      43.687  22.941  29.667  1.00  0.00    -0.206 F 
ATOM    109  C   UNL A   1      42.199  21.373  26.773  1.00  0.00     0.060 A 
BRANCH 109 110
ATOM    110  S   UNL A   1      41.562  19.767  26.251  1.00  0.00     0.124 S 
ATOM    111  O   UNL A   1      41.741  18.970  27.460  1.00  0.00    -0.237 OA
ATOM    112  O   UNL A   1      40.181  20.080  25.896  1.00  0.00    -0.237 OA
ATOM    113  O   UNL A   1      42.424  19.406  25.129  1.00  0.00    -0.744 OA
ENDBRANCH 109 110
ENDBRANCH  77 102
ENDBRANCH  51  52
ENDBRANCH  44  46
ENDBRANCH  43  44
ENDBRANCH  42  43
ENDBRANCH  41  42
ENDBRANCH  40  41
ENDBRANCH  39  40
ENDBRANCH  38  39
ENDBRANCH   1  38
TORSDOF 27
ENDMDL
