MODEL 1
REMARK VINA RESULT:     -10.0      0.000      0.000
REMARK SMILES NC(=O)[C@H]1CCCN1S(=O)(=O)Cc1ccc(C(=O)OCCOCCOCCOCCOC(=O)c2ccc(-c3c4nc(c(-c5c(F)cc(S(=O)(=O)[O-])cc5F)c5ccc([nH]5)c(-c5c(F)cc(S(=O)(=O)[O-])cc5F)c5nc(c(-c6c(F)cc(S(=O)(=O)[O-])cc6F)c6ccc3[nH]6)C=C5)C=C4)cc2)cc1
REMARK SMILES IDX 24 1 23 2 22 3 21 4 20 5 19 6 17 7 18 8 16 9 13 10 14 11
REMARK SMILES IDX 101 12 15 13 100 14 12 15 9 16 10 17 11 18 8 19 4 20 5 21
REMARK SMILES IDX 6 22 7 23 2 24 1 25 3 28 25 29 26 30 27 31 28 32 29 33 30 34
REMARK SMILES IDX 31 35 32 36 33 37 34 38 35 39 99 40 36 41 98 42 37 43 38 44
REMARK SMILES IDX 39 45 92 46 40 47 97 48 91 49 93 50 41 51 96 52 90 53 89 54
REMARK SMILES IDX 42 56 76 57 55 58 75 59 56 60 59 61 74 62 94 63 57 64 58 65
REMARK SMILES IDX 73 67 95 68 60 69 43 70 44 71 53 72 45 73 46 74 52 75 54 76
REMARK SMILES IDX 47 77 48 78 49 79 50 80 51 81 77 82 78 83 87 84 79 85 80 86
REMARK SMILES IDX 86 87 88 88 81 89 82 90 83 91 84 92 85 93 61 94 62 95 71 96
REMARK SMILES IDX 63 97 64 98 70 99 72 100 65 101 66 102 67 103 68 104 69 105
REMARK H PARENT 1 26 1 27 93 55 59 66
REMARK Flexibility Score: inf
ROOT
ATOM      1  C   UNL A   1      35.313  24.293  25.109  1.00  0.00     0.188 C 
ENDROOT
BRANCH   1   2
ATOM      2  C   UNL A   1      35.376  22.755  25.183  1.00  0.00     0.188 C 
BRANCH   2   3
ATOM      3  O   UNL A   1      34.487  22.100  24.297  1.00  0.00    -0.376 OA
BRANCH   3   4
ATOM      4  C   UNL A   1      34.006  20.808  24.616  1.00  0.00     0.202 C 
BRANCH   4   5
ATOM      5  C   UNL A   1      32.657  20.645  25.335  1.00  0.00     0.261 C 
BRANCH   5   6
ATOM      6  O   UNL A   1      31.684  21.666  25.092  1.00  0.00    -0.460 OA
BRANCH   6   7
ATOM      7  C   UNL A   1      31.607  22.656  26.004  1.00  0.00     0.338 C 
ATOM      8  O   UNL A   1      32.101  22.668  27.117  1.00  0.00    -0.246 OA
BRANCH   7   9
ATOM      9  C   UNL A   1      30.995  23.838  25.355  1.00  0.00     0.060 A 
ATOM     10  C   UNL A   1      29.737  26.095  24.238  1.00  0.00    -0.032 A 
ATOM     11  C   UNL A   1      29.899  25.979  25.624  1.00  0.00     0.006 A 
ATOM     12  C   UNL A   1      30.331  25.113  23.420  1.00  0.00     0.006 A 
ATOM     13  C   UNL A   1      30.486  24.843  26.180  1.00  0.00     0.016 A 
ATOM     14  C   UNL A   1      30.967  23.997  23.970  1.00  0.00     0.016 A 
BRANCH  10  15
ATOM     15  C   UNL A   1      28.977  27.201  23.542  1.00  0.00     0.189 C 
BRANCH  15  16
ATOM     16  S   UNL A   1      29.959  28.525  22.824  1.00  0.00     0.219 S 
ATOM     17  O   UNL A   1      30.615  28.001  21.644  1.00  0.00    -0.212 OA
ATOM     18  O   UNL A   1      30.751  29.125  23.880  1.00  0.00    -0.212 OA
BRANCH  16  19
ATOM     19  N   UNL A   1      28.862  29.702  22.290  1.00  0.00    -0.189 NA
ATOM     20  C   UNL A   1      29.109  31.121  22.677  1.00  0.00     0.161 C 
ATOM     21  C   UNL A   1      28.265  31.314  23.930  1.00  0.00     0.032 C 
ATOM     22  C   UNL A   1      27.033  30.453  23.694  1.00  0.00     0.019 C 
ATOM     23  C   UNL A   1      27.439  29.411  22.657  1.00  0.00     0.103 C 
BRANCH  20  24
ATOM     24  C   UNL A   1      28.619  32.064  21.560  1.00  0.00     0.235 C 
ATOM     25  N   UNL A   1      28.761  31.617  20.278  1.00  0.00    -0.368 N 
ATOM     26  H   UNL A   1      28.464  32.178  19.526  1.00  0.00     0.159 HD
ATOM     27  H   UNL A   1      29.158  30.732  20.107  1.00  0.00     0.159 HD
ATOM     28  O   UNL A   1      28.130  33.174  21.761  1.00  0.00    -0.273 OA
ENDBRANCH  20  24
ENDBRANCH  16  19
ENDBRANCH  15  16
ENDBRANCH  10  15
ENDBRANCH   7   9
ENDBRANCH   6   7
ENDBRANCH   5   6
ENDBRANCH   4   5
ENDBRANCH   3   4
ENDBRANCH   2   3
ENDBRANCH   1   2
BRANCH   1  29
ATOM     29  O   UNL A   1      34.424  24.883  24.175  1.00  0.00    -0.377 OA
BRANCH  29  30
ATOM     30  C   UNL A   1      33.886  26.182  24.421  1.00  0.00     0.188 C 
BRANCH  30  31
ATOM     31  C   UNL A   1      33.480  26.662  25.836  1.00  0.00     0.188 C 
BRANCH  31  32
ATOM     32  O   UNL A   1      32.853  27.932  25.879  1.00  0.00    -0.376 OA
BRANCH  32  33
ATOM     33  C   UNL A   1      33.681  29.077  25.797  1.00  0.00     0.202 C 
BRANCH  33  34
ATOM     34  C   UNL A   1      33.322  30.253  26.716  1.00  0.00     0.261 C 
BRANCH  34  35
ATOM     35  O   UNL A   1      33.782  30.158  28.072  1.00  0.00    -0.460 OA
BRANCH  35  36
ATOM     36  C   UNL A   1      34.629  31.123  28.504  1.00  0.00     0.338 C 
ATOM     37  O   UNL A   1      34.338  32.240  28.872  1.00  0.00    -0.246 OA
BRANCH  36  38
ATOM     38  C   UNL A   1      35.968  30.506  28.634  1.00  0.00     0.060 A 
ATOM     39  C   UNL A   1      36.398  30.062  29.891  1.00  0.00     0.016 A 
ATOM     40  C   UNL A   1      36.784  30.353  27.511  1.00  0.00     0.016 A 
ATOM     41  C   UNL A   1      37.664  29.491  30.033  1.00  0.00     0.010 A 
ATOM     42  C   UNL A   1      38.058  29.798  27.658  1.00  0.00     0.010 A 
ATOM     43  C   UNL A   1      38.516  29.394  28.925  1.00  0.00    -0.014 A 
BRANCH  43  44
ATOM     44  C   UNL A   1      39.945  29.046  29.117  1.00  0.00     0.031 A 
ATOM     45  C   UNL A   1      40.874  30.106  29.644  1.00  0.00     0.074 A 
ATOM     46  C   UNL A   1      40.411  27.814  28.841  1.00  0.00     0.049 A 
ATOM     47  N   UNL A   1      42.165  30.056  29.844  1.00  0.00    -0.248 NA
ATOM     48  C   UNL A   1      40.261  31.400  29.985  1.00  0.00     0.031 C 
ATOM     49  C   UNL A   1      39.604  26.695  28.358  1.00  0.00     0.029 A 
ATOM     50  N   UNL A   1      41.683  27.305  28.915  1.00  0.00    -0.354 N 
ATOM     51  C   UNL A   1      42.521  31.313  30.322  1.00  0.00     0.074 A 
ATOM     52  C   UNL A   1      41.316  32.111  30.352  1.00  0.00     0.031 C 
ATOM     53  C   UNL A   1      40.405  25.633  28.163  1.00  0.00     0.029 A 
ATOM     54  C   UNL A   1      41.785  26.007  28.473  1.00  0.00     0.049 A 
ATOM     55  H   UNL A   1      42.451  27.820  29.252  1.00  0.00     0.167 HD
ATOM     56  C   UNL A   1      43.742  31.756  30.706  1.00  0.00     0.037 A 
ATOM     57  C   UNL A   1      42.870  25.222  28.314  1.00  0.00     0.037 A 
ATOM     58  C   UNL A   1      44.937  30.953  30.668  1.00  0.00     0.049 A 
ATOM     59  C   UNL A   1      44.230  25.756  28.688  1.00  0.00     0.074 A 
ATOM     60  C   UNL A   1      46.217  31.301  31.061  1.00  0.00     0.029 A 
ATOM     61  N   UNL A   1      45.003  29.651  30.195  1.00  0.00    -0.354 N 
ATOM     62  N   UNL A   1      44.550  26.934  29.171  1.00  0.00    -0.248 NA
ATOM     63  C   UNL A   1      45.375  24.855  28.500  1.00  0.00     0.031 C 
ATOM     64  C   UNL A   1      47.069  30.232  30.765  1.00  0.00     0.029 A 
ATOM     65  C   UNL A   1      46.309  29.191  30.255  1.00  0.00     0.049 A 
ATOM     66  H   UNL A   1      44.235  29.130  29.866  1.00  0.00     0.167 HD
ATOM     67  C   UNL A   1      45.928  26.904  29.372  1.00  0.00     0.074 A 
ATOM     68  C   UNL A   1      46.377  25.588  28.967  1.00  0.00     0.031 C 
ATOM     69  C   UNL A   1      46.744  27.876  29.850  1.00  0.00     0.037 A 
BRANCH  56  70
ATOM     70  C   UNL A   1      43.850  33.186  31.163  1.00  0.00     0.058 A 
ATOM     71  C   UNL A   1      44.144  34.233  30.274  1.00  0.00     0.135 A 
ATOM     72  C   UNL A   1      43.634  33.516  32.511  1.00  0.00     0.135 A 
ATOM     73  F   UNL A   1      44.379  33.975  28.978  1.00  0.00    -0.206 F 
ATOM     74  C   UNL A   1      44.250  35.550  30.711  1.00  0.00     0.059 A 
ATOM     75  C   UNL A   1      43.702  34.829  32.965  1.00  0.00     0.059 A 
ATOM     76  F   UNL A   1      43.353  32.555  33.406  1.00  0.00    -0.206 F 
ATOM     77  C   UNL A   1      44.027  35.838  32.059  1.00  0.00     0.060 A 
BRANCH  77  78
ATOM     78  S   UNL A   1      44.167  37.552  32.609  1.00  0.00     0.124 S 
ATOM     79  O   UNL A   1      43.800  38.277  31.396  1.00  0.00    -0.237 OA
ATOM     80  O   UNL A   1      43.198  37.608  33.699  1.00  0.00    -0.237 OA
ATOM     81  O   UNL A   1      45.566  37.668  33.009  1.00  0.00    -0.744 OA
ENDBRANCH  77  78
ENDBRANCH  56  70
BRANCH  57  82
ATOM     82  C   UNL A   1      42.715  23.849  27.759  1.00  0.00     0.058 A 
ATOM     83  C   UNL A   1      42.495  22.745  28.594  1.00  0.00     0.135 A 
ATOM     84  C   UNL A   1      42.773  23.617  26.375  1.00  0.00     0.135 A 
ATOM     85  F   UNL A   1      42.446  22.910  29.925  1.00  0.00    -0.206 F 
ATOM     86  C   UNL A   1      42.341  21.459  28.081  1.00  0.00     0.059 A 
ATOM     87  C   UNL A   1      42.595  22.347  25.836  1.00  0.00     0.059 A 
ATOM     88  F   UNL A   1      42.977  24.640  25.529  1.00  0.00    -0.206 F 
ATOM     89  C   UNL A   1      42.385  21.273  26.698  1.00  0.00     0.060 A 
BRANCH  89  90
ATOM     90  S   UNL A   1      42.112  19.613  26.040  1.00  0.00     0.124 S 
ATOM     91  O   UNL A   1      40.668  19.607  25.840  1.00  0.00    -0.237 OA
ATOM     92  O   UNL A   1      42.926  19.629  24.828  1.00  0.00    -0.237 OA
ATOM     93  O   UNL A   1      42.607  18.745  27.105  1.00  0.00    -0.744 OA
ENDBRANCH  89  90
ENDBRANCH  57  82
BRANCH  69  94
ATOM     94  C   UNL A   1      48.208  27.549  30.004  1.00  0.00     0.058 A 
ATOM     95  C   UNL A   1      48.728  27.005  31.189  1.00  0.00     0.135 A 
ATOM     96  C   UNL A   1      49.090  27.726  28.924  1.00  0.00     0.135 A 
ATOM     97  F   UNL A   1      47.931  26.817  32.253  1.00  0.00    -0.206 F 
ATOM     98  C   UNL A   1      50.074  26.674  31.308  1.00  0.00     0.059 A 
ATOM     99  C   UNL A   1      50.433  27.372  29.011  1.00  0.00     0.059 A 
ATOM    100  F   UNL A   1      48.645  28.231  27.762  1.00  0.00    -0.206 F 
ATOM    101  C   UNL A   1      50.918  26.859  30.211  1.00  0.00     0.060 A 
BRANCH 101 102
ATOM    102  S   UNL A   1      52.656  26.396  30.370  1.00  0.00     0.124 S 
ATOM    103  O   UNL A   1      52.995  26.047  28.994  1.00  0.00    -0.237 OA
ATOM    104  O   UNL A   1      53.261  27.622  30.881  1.00  0.00    -0.237 OA
ATOM    105  O   UNL A   1      52.628  25.279  31.311  1.00  0.00    -0.744 OA
ENDBRANCH 101 102
ENDBRANCH  69  94
ENDBRANCH  43  44
ENDBRANCH  36  38
ENDBRANCH  35  36
ENDBRANCH  34  35
ENDBRANCH  33  34
ENDBRANCH  32  33
ENDBRANCH  31  32
ENDBRANCH  30  31
ENDBRANCH  29  30
ENDBRANCH   1  29
TORSDOF 27
ENDMDL
MODEL 2
REMARK VINA RESULT:      -9.9      4.374     10.160
REMARK SMILES NC(=O)[C@H]1CCCN1S(=O)(=O)Cc1ccc(C(=O)OCCOCCOCCOCCOC(=O)c2ccc(-c3c4nc(c(-c5c(F)cc(S(=O)(=O)[O-])cc5F)c5ccc([nH]5)c(-c5c(F)cc(S(=O)(=O)[O-])cc5F)c5nc(c(-c6c(F)cc(S(=O)(=O)[O-])cc6F)c6ccc3[nH]6)C=C5)C=C4)cc2)cc1
REMARK SMILES IDX 24 1 23 2 22 3 21 4 20 5 19 6 17 7 18 8 16 9 13 10 14 11
REMARK SMILES IDX 101 12 15 13 100 14 12 15 9 16 10 17 11 18 8 19 4 20 5 21
REMARK SMILES IDX 6 22 7 23 2 24 1 25 3 28 25 29 26 30 27 31 28 32 29 33 30 34
REMARK SMILES IDX 31 35 32 36 33 37 34 38 35 39 99 40 36 41 98 42 37 43 38 44
REMARK SMILES IDX 39 45 92 46 40 47 97 48 91 49 93 50 41 51 96 52 90 53 89 54
REMARK SMILES IDX 42 56 76 57 55 58 75 59 56 60 59 61 74 62 94 63 57 64 58 65
REMARK SMILES IDX 73 67 95 68 60 69 43 70 44 71 53 72 45 73 46 74 52 75 54 76
REMARK SMILES IDX 47 77 48 78 49 79 50 80 51 81 77 82 78 83 87 84 79 85 80 86
REMARK SMILES IDX 86 87 88 88 81 89 82 90 83 91 84 92 85 93 61 94 62 95 71 96
REMARK SMILES IDX 63 97 64 98 70 99 72 100 65 101 66 102 67 103 68 104 69 105
REMARK H PARENT 1 26 1 27 93 55 59 66
REMARK Flexibility Score: inf
ROOT
ATOM      1  C   UNL A   1      42.162  19.500  26.022  1.00  0.00     0.188 C 
ENDROOT
BRANCH   1   2
ATOM      2  C   UNL A   1      41.864  20.257  27.332  1.00  0.00     0.188 C 
BRANCH   2   3
ATOM      3  O   UNL A   1      40.517  20.671  27.463  1.00  0.00    -0.376 OA
BRANCH   3   4
ATOM      4  C   UNL A   1      39.941  21.501  26.472  1.00  0.00     0.202 C 
BRANCH   4   5
ATOM      5  C   UNL A   1      38.662  21.054  25.743  1.00  0.00     0.261 C 
BRANCH   5   6
ATOM      6  O   UNL A   1      37.601  22.013  25.683  1.00  0.00    -0.460 OA
BRANCH   6   7
ATOM      7  C   UNL A   1      36.428  21.584  25.177  1.00  0.00     0.338 C 
ATOM      8  O   UNL A   1      35.982  20.452  25.217  1.00  0.00    -0.246 OA
BRANCH   7   9
ATOM      9  C   UNL A   1      35.652  22.766  24.739  1.00  0.00     0.060 A 
ATOM     10  C   UNL A   1      34.099  25.008  24.037  1.00  0.00    -0.032 A 
ATOM     11  C   UNL A   1      34.486  24.793  25.365  1.00  0.00     0.006 A 
ATOM     12  C   UNL A   1      34.615  24.141  23.051  1.00  0.00     0.006 A 
ATOM     13  C   UNL A   1      35.220  23.662  25.720  1.00  0.00     0.016 A 
ATOM     14  C   UNL A   1      35.395  23.034  23.395  1.00  0.00     0.016 A 
BRANCH  10  15
ATOM     15  C   UNL A   1      33.173  26.108  23.568  1.00  0.00     0.189 C 
BRANCH  15  16
ATOM     16  S   UNL A   1      31.530  25.606  23.040  1.00  0.00     0.219 S 
ATOM     17  O   UNL A   1      31.217  24.352  23.695  1.00  0.00    -0.212 OA
ATOM     18  O   UNL A   1      31.471  25.696  21.594  1.00  0.00    -0.212 OA
BRANCH  16  19
ATOM     19  N   UNL A   1      30.453  26.760  23.659  1.00  0.00    -0.189 NA
ATOM     20  C   UNL A   1      30.002  27.858  22.755  1.00  0.00     0.161 C 
ATOM     21  C   UNL A   1      30.958  29.003  23.059  1.00  0.00     0.032 C 
ATOM     22  C   UNL A   1      31.244  28.875  24.548  1.00  0.00     0.019 C 
ATOM     23  C   UNL A   1      30.937  27.425  24.911  1.00  0.00     0.103 C 
BRANCH  20  24
ATOM     24  C   UNL A   1      28.558  28.267  23.104  1.00  0.00     0.235 C 
ATOM     25  N   UNL A   1      27.720  27.267  23.506  1.00  0.00    -0.368 N 
ATOM     26  H   UNL A   1      26.787  27.472  23.742  1.00  0.00     0.159 HD
ATOM     27  H   UNL A   1      28.051  26.342  23.561  1.00  0.00     0.159 HD
ATOM     28  O   UNL A   1      28.132  29.418  23.030  1.00  0.00    -0.273 OA
ENDBRANCH  20  24
ENDBRANCH  16  19
ENDBRANCH  15  16
ENDBRANCH  10  15
ENDBRANCH   7   9
ENDBRANCH   6   7
ENDBRANCH   5   6
ENDBRANCH   4   5
ENDBRANCH   3   4
ENDBRANCH   2   3
ENDBRANCH   1   2
BRANCH   1  29
ATOM     29  O   UNL A   1      42.979  20.136  25.052  1.00  0.00    -0.377 OA
BRANCH  29  30
ATOM     30  C   UNL A   1      44.399  20.000  25.114  1.00  0.00     0.188 C 
BRANCH  30  31
ATOM     31  C   UNL A   1      45.363  21.139  24.702  1.00  0.00     0.188 C 
BRANCH  31  32
ATOM     32  O   UNL A   1      45.974  21.825  25.782  1.00  0.00    -0.376 OA
BRANCH  32  33
ATOM     33  C   UNL A   1      45.727  23.213  25.902  1.00  0.00     0.202 C 
BRANCH  33  34
ATOM     34  C   UNL A   1      44.864  23.855  24.808  1.00  0.00     0.261 C 
BRANCH  34  35
ATOM     35  O   UNL A   1      43.948  24.871  25.240  1.00  0.00    -0.460 OA
BRANCH  35  36
ATOM     36  C   UNL A   1      42.747  24.458  25.713  1.00  0.00     0.338 C 
ATOM     37  O   UNL A   1      42.192  23.407  25.480  1.00  0.00    -0.246 OA
BRANCH  36  38
ATOM     38  C   UNL A   1      42.312  25.444  26.728  1.00  0.00     0.060 A 
ATOM     39  C   UNL A   1      42.881  26.724  26.726  1.00  0.00     0.016 A 
ATOM     40  C   UNL A   1      41.333  25.105  27.664  1.00  0.00     0.016 A 
ATOM     41  C   UNL A   1      42.492  27.661  27.685  1.00  0.00     0.010 A 
ATOM     42  C   UNL A   1      40.960  26.037  28.636  1.00  0.00     0.010 A 
ATOM     43  C   UNL A   1      41.560  27.308  28.670  1.00  0.00    -0.014 A 
BRANCH  43  44
ATOM     44  C   UNL A   1      41.349  28.194  29.842  1.00  0.00     0.031 A 
ATOM     45  C   UNL A   1      42.210  27.987  31.057  1.00  0.00     0.074 A 
ATOM     46  C   UNL A   1      40.420  29.167  29.827  1.00  0.00     0.049 A 
ATOM     47  N   UNL A   1      42.178  28.597  32.213  1.00  0.00    -0.248 NA
ATOM     48  C   UNL A   1      43.247  26.946  30.955  1.00  0.00     0.031 C 
ATOM     49  C   UNL A   1      39.548  29.486  28.698  1.00  0.00     0.029 A 
ATOM     50  N   UNL A   1      40.048  30.058  30.802  1.00  0.00    -0.354 N 
ATOM     51  C   UNL A   1      43.177  28.007  32.980  1.00  0.00     0.074 A 
ATOM     52  C   UNL A   1      43.777  26.971  32.168  1.00  0.00     0.031 C 
ATOM     53  C   UNL A   1      38.729  30.492  29.050  1.00  0.00     0.029 A 
ATOM     54  C   UNL A   1      38.994  30.864  30.440  1.00  0.00     0.049 A 
ATOM     55  H   UNL A   1      40.492  30.114  31.679  1.00  0.00     0.167 HD
ATOM     56  C   UNL A   1      43.562  28.306  34.243  1.00  0.00     0.037 A 
ATOM     57  C   UNL A   1      38.308  31.778  31.157  1.00  0.00     0.037 A 
ATOM     58  C   UNL A   1      42.955  29.337  35.045  1.00  0.00     0.049 A 
ATOM     59  C   UNL A   1      38.712  32.052  32.584  1.00  0.00     0.074 A 
ATOM     60  C   UNL A   1      43.291  29.737  36.326  1.00  0.00     0.029 A 
ATOM     61  N   UNL A   1      41.878  30.118  34.651  1.00  0.00    -0.354 N 
ATOM     62  N   UNL A   1      39.681  31.513  33.286  1.00  0.00    -0.248 NA
ATOM     63  C   UNL A   1      37.934  33.062  33.314  1.00  0.00     0.031 C 
ATOM     64  C   UNL A   1      42.376  30.714  36.731  1.00  0.00     0.029 A 
ATOM     65  C   UNL A   1      41.515  30.975  35.677  1.00  0.00     0.049 A 
ATOM     66  H   UNL A   1      41.437  30.070  33.772  1.00  0.00     0.167 HD
ATOM     67  C   UNL A   1      39.647  32.138  34.530  1.00  0.00     0.074 A 
ATOM     68  C   UNL A   1      38.568  33.104  34.479  1.00  0.00     0.031 C 
ATOM     69  C   UNL A   1      40.438  31.934  35.613  1.00  0.00     0.037 A 
BRANCH  56  70
ATOM     70  C   UNL A   1      44.667  27.483  34.848  1.00  0.00     0.058 A 
ATOM     71  C   UNL A   1      46.014  27.875  34.776  1.00  0.00     0.135 A 
ATOM     72  C   UNL A   1      44.370  26.292  35.530  1.00  0.00     0.135 A 
ATOM     73  F   UNL A   1      46.360  28.994  34.120  1.00  0.00    -0.206 F 
ATOM     74  C   UNL A   1      47.028  27.100  35.333  1.00  0.00     0.059 A 
ATOM     75  C   UNL A   1      45.363  25.519  36.123  1.00  0.00     0.059 A 
ATOM     76  F   UNL A   1      43.099  25.867  35.627  1.00  0.00    -0.206 F 
ATOM     77  C   UNL A   1      46.692  25.923  36.005  1.00  0.00     0.060 A 
BRANCH  77  78
ATOM     78  S   UNL A   1      48.018  24.931  36.721  1.00  0.00     0.124 S 
ATOM     79  O   UNL A   1      48.050  25.435  38.091  1.00  0.00    -0.237 OA
ATOM     80  O   UNL A   1      47.512  23.571  36.558  1.00  0.00    -0.237 OA
ATOM     81  O   UNL A   1      49.178  25.269  35.902  1.00  0.00    -0.744 OA
ENDBRANCH  77  78
ENDBRANCH  56  70
BRANCH  57  82
ATOM     82  C   UNL A   1      37.156  32.490  30.539  1.00  0.00     0.058 A 
ATOM     83  C   UNL A   1      35.835  32.097  30.793  1.00  0.00     0.135 A 
ATOM     84  C   UNL A   1      37.356  33.588  29.686  1.00  0.00     0.135 A 
ATOM     85  F   UNL A   1      35.589  31.044  31.588  1.00  0.00    -0.206 F 
ATOM     86  C   UNL A   1      34.752  32.763  30.224  1.00  0.00     0.059 A 
ATOM     87  C   UNL A   1      36.291  34.287  29.128  1.00  0.00     0.059 A 
ATOM     88  F   UNL A   1      38.601  34.010  29.413  1.00  0.00    -0.206 F 
ATOM     89  C   UNL A   1      34.992  33.863  29.399  1.00  0.00     0.060 A 
BRANCH  89  90
ATOM     90  S   UNL A   1      33.578  34.764  28.725  1.00  0.00     0.124 S 
ATOM     91  O   UNL A   1      33.124  33.859  27.676  1.00  0.00    -0.237 OA
ATOM     92  O   UNL A   1      32.708  34.881  29.891  1.00  0.00    -0.237 OA
ATOM     93  O   UNL A   1      34.169  36.018  28.265  1.00  0.00    -0.744 OA
ENDBRANCH  89  90
ENDBRANCH  57  82
BRANCH  69  94
ATOM     94  C   UNL A   1      40.199  32.795  36.827  1.00  0.00     0.058 A 
ATOM     95  C   UNL A   1      41.023  33.890  37.136  1.00  0.00     0.135 A 
ATOM     96  C   UNL A   1      39.092  32.556  37.659  1.00  0.00     0.135 A 
ATOM     97  F   UNL A   1      42.097  34.163  36.378  1.00  0.00    -0.206 F 
ATOM     98  C   UNL A   1      40.773  34.699  38.241  1.00  0.00     0.059 A 
ATOM     99  C   UNL A   1      38.805  33.372  38.749  1.00  0.00     0.059 A 
ATOM    100  F   UNL A   1      38.263  31.531  37.404  1.00  0.00    -0.206 F 
ATOM    101  C   UNL A   1      39.660  34.433  39.039  1.00  0.00     0.060 A 
BRANCH 101 102
ATOM    102  S   UNL A   1      39.331  35.511  40.450  1.00  0.00     0.124 S 
ATOM    103  O   UNL A   1      40.344  35.068  41.402  1.00  0.00    -0.237 OA
ATOM    104  O   UNL A   1      39.532  36.840  39.882  1.00  0.00    -0.237 OA
ATOM    105  O   UNL A   1      37.952  35.191  40.810  1.00  0.00    -0.744 OA
ENDBRANCH 101 102
ENDBRANCH  69  94
ENDBRANCH  43  44
ENDBRANCH  36  38
ENDBRANCH  35  36
ENDBRANCH  34  35
ENDBRANCH  33  34
ENDBRANCH  32  33
ENDBRANCH  31  32
ENDBRANCH  30  31
ENDBRANCH  29  30
ENDBRANCH   1  29
TORSDOF 27
ENDMDL
MODEL 3
REMARK VINA RESULT:      -9.8      2.480      3.027
REMARK SMILES NC(=O)[C@H]1CCCN1S(=O)(=O)Cc1ccc(C(=O)OCCOCCOCCOCCOC(=O)c2ccc(-c3c4nc(c(-c5c(F)cc(S(=O)(=O)[O-])cc5F)c5ccc([nH]5)c(-c5c(F)cc(S(=O)(=O)[O-])cc5F)c5nc(c(-c6c(F)cc(S(=O)(=O)[O-])cc6F)c6ccc3[nH]6)C=C5)C=C4)cc2)cc1
REMARK SMILES IDX 24 1 23 2 22 3 21 4 20 5 19 6 17 7 18 8 16 9 13 10 14 11
REMARK SMILES IDX 101 12 15 13 100 14 12 15 9 16 10 17 11 18 8 19 4 20 5 21
REMARK SMILES IDX 6 22 7 23 2 24 1 25 3 28 25 29 26 30 27 31 28 32 29 33 30 34
REMARK SMILES IDX 31 35 32 36 33 37 34 38 35 39 99 40 36 41 98 42 37 43 38 44
REMARK SMILES IDX 39 45 92 46 40 47 97 48 91 49 93 50 41 51 96 52 90 53 89 54
REMARK SMILES IDX 42 56 76 57 55 58 75 59 56 60 59 61 74 62 94 63 57 64 58 65
REMARK SMILES IDX 73 67 95 68 60 69 43 70 44 71 53 72 45 73 46 74 52 75 54 76
REMARK SMILES IDX 47 77 48 78 49 79 50 80 51 81 77 82 78 83 87 84 79 85 80 86
REMARK SMILES IDX 86 87 88 88 81 89 82 90 83 91 84 92 85 93 61 94 62 95 71 96
REMARK SMILES IDX 63 97 64 98 70 99 72 100 65 101 66 102 67 103 68 104 69 105
REMARK H PARENT 1 26 1 27 93 55 59 66
REMARK Flexibility Score: inf
ROOT
ATOM      1  C   UNL A   1      35.914  23.884  24.785  1.00  0.00     0.188 C 
ENDROOT
BRANCH   1   2
ATOM      2  C   UNL A   1      35.947  22.351  24.944  1.00  0.00     0.188 C 
BRANCH   2   3
ATOM      3  O   UNL A   1      34.830  21.691  24.378  1.00  0.00    -0.376 OA
BRANCH   3   4
ATOM      4  C   UNL A   1      34.282  20.560  25.030  1.00  0.00     0.202 C 
BRANCH   4   5
ATOM      5  C   UNL A   1      32.976  20.691  25.829  1.00  0.00     0.261 C 
BRANCH   5   6
ATOM      6  O   UNL A   1      32.062  21.699  25.387  1.00  0.00    -0.460 OA
BRANCH   6   7
ATOM      7  C   UNL A   1      31.709  22.634  26.291  1.00  0.00     0.338 C 
ATOM      8  O   UNL A   1      32.016  22.668  27.469  1.00  0.00    -0.246 OA
BRANCH   7   9
ATOM      9  C   UNL A   1      31.052  23.749  25.573  1.00  0.00     0.060 A 
ATOM     10  C   UNL A   1      29.714  25.892  24.328  1.00  0.00    -0.032 A 
ATOM     11  C   UNL A   1      29.959  25.905  25.706  1.00  0.00     0.006 A 
ATOM     12  C   UNL A   1      30.266  24.838  23.570  1.00  0.00     0.006 A 
ATOM     13  C   UNL A   1      30.586  24.826  26.330  1.00  0.00     0.016 A 
ATOM     14  C   UNL A   1      30.940  23.779  24.183  1.00  0.00     0.016 A 
BRANCH  10  15
ATOM     15  C   UNL A   1      28.907  26.927  23.579  1.00  0.00     0.189 C 
BRANCH  15  16
ATOM     16  S   UNL A   1      29.809  28.344  22.939  1.00  0.00     0.219 S 
ATOM     17  O   UNL A   1      30.614  27.890  21.823  1.00  0.00    -0.212 OA
ATOM     18  O   UNL A   1      30.444  29.019  24.054  1.00  0.00    -0.212 OA
BRANCH  16  19
ATOM     19  N   UNL A   1      28.651  29.405  22.303  1.00  0.00    -0.189 NA
ATOM     20  C   UNL A   1      29.075  30.798  21.977  1.00  0.00     0.161 C 
ATOM     21  C   UNL A   1      28.709  31.596  23.221  1.00  0.00     0.032 C 
ATOM     22  C   UNL A   1      27.431  30.944  23.729  1.00  0.00     0.019 C 
ATOM     23  C   UNL A   1      27.421  29.532  23.150  1.00  0.00     0.103 C 
BRANCH  20  24
ATOM     24  C   UNL A   1      28.283  31.319  20.763  1.00  0.00     0.235 C 
ATOM     25  N   UNL A   1      28.366  32.657  20.509  1.00  0.00    -0.368 N 
ATOM     26  H   UNL A   1      27.880  33.044  19.745  1.00  0.00     0.159 HD
ATOM     27  H   UNL A   1      28.912  33.235  21.089  1.00  0.00     0.159 HD
ATOM     28  O   UNL A   1      27.590  30.608  20.037  1.00  0.00    -0.273 OA
ENDBRANCH  20  24
ENDBRANCH  16  19
ENDBRANCH  15  16
ENDBRANCH  10  15
ENDBRANCH   7   9
ENDBRANCH   6   7
ENDBRANCH   5   6
ENDBRANCH   4   5
ENDBRANCH   3   4
ENDBRANCH   2   3
ENDBRANCH   1   2
BRANCH   1  29
ATOM     29  O   UNL A   1      34.903  24.451  23.969  1.00  0.00    -0.377 OA
BRANCH  29  30
ATOM     30  C   UNL A   1      34.163  25.582  24.428  1.00  0.00     0.188 C 
BRANCH  30  31
ATOM     31  C   UNL A   1      33.847  25.819  25.925  1.00  0.00     0.188 C 
BRANCH  31  32
ATOM     32  O   UNL A   1      33.317  27.098  26.228  1.00  0.00    -0.376 OA
BRANCH  32  33
ATOM     33  C   UNL A   1      33.864  28.214  25.551  1.00  0.00     0.202 C 
BRANCH  33  34
ATOM     34  C   UNL A   1      33.375  29.598  26.000  1.00  0.00     0.261 C 
BRANCH  34  35
ATOM     35  O   UNL A   1      33.660  29.958  27.360  1.00  0.00    -0.460 OA
BRANCH  35  36
ATOM     36  C   UNL A   1      34.534  30.974  27.559  1.00  0.00     0.338 C 
ATOM     37  O   UNL A   1      34.304  32.161  27.485  1.00  0.00    -0.246 OA
BRANCH  36  38
ATOM     38  C   UNL A   1      35.787  30.380  28.077  1.00  0.00     0.060 A 
ATOM     39  C   UNL A   1      35.774  29.728  29.317  1.00  0.00     0.016 A 
ATOM     40  C   UNL A   1      36.963  30.455  27.328  1.00  0.00     0.016 A 
ATOM     41  C   UNL A   1      36.950  29.175  29.826  1.00  0.00     0.010 A 
ATOM     42  C   UNL A   1      38.143  29.918  27.848  1.00  0.00     0.010 A 
ATOM     43  C   UNL A   1      38.149  29.304  29.113  1.00  0.00    -0.014 A 
BRANCH  43  44
ATOM     44  C   UNL A   1      39.438  28.966  29.765  1.00  0.00     0.031 A 
ATOM     45  C   UNL A   1      39.883  29.792  30.940  1.00  0.00     0.074 A 
ATOM     46  C   UNL A   1      40.196  27.942  29.331  1.00  0.00     0.049 A 
ATOM     47  N   UNL A   1      40.987  29.723  31.636  1.00  0.00    -0.248 NA
ATOM     48  C   UNL A   1      38.955  30.844  31.388  1.00  0.00     0.031 C 
ATOM     49  C   UNL A   1      39.858  27.050  28.224  1.00  0.00     0.029 A 
ATOM     50  N   UNL A   1      41.418  27.492  29.765  1.00  0.00    -0.354 N 
ATOM     51  C   UNL A   1      40.894  30.727  32.594  1.00  0.00     0.074 A 
ATOM     52  C   UNL A   1      39.639  31.410  32.370  1.00  0.00     0.031 C 
ATOM     53  C   UNL A   1      40.857  26.167  28.055  1.00  0.00     0.029 A 
ATOM     54  C   UNL A   1      41.921  26.454  29.017  1.00  0.00     0.049 A 
ATOM     55  H   UNL A   1      41.890  27.876  30.538  1.00  0.00     0.167 HD
ATOM     56  C   UNL A   1      41.772  31.045  33.574  1.00  0.00     0.037 A 
ATOM     57  C   UNL A   1      43.113  25.826  29.086  1.00  0.00     0.037 A 
ATOM     58  C   UNL A   1      43.021  30.361  33.786  1.00  0.00     0.049 A 
ATOM     59  C   UNL A   1      44.105  26.238  30.145  1.00  0.00     0.074 A 
ATOM     60  C   UNL A   1      43.969  30.589  34.768  1.00  0.00     0.029 A 
ATOM     61  N   UNL A   1      43.505  29.329  32.995  1.00  0.00    -0.354 N 
ATOM     62  N   UNL A   1      43.991  27.166  31.066  1.00  0.00    -0.248 NA
ATOM     63  C   UNL A   1      45.384  25.516  30.177  1.00  0.00     0.031 C 
ATOM     64  C   UNL A   1      45.054  29.739  34.533  1.00  0.00     0.029 A 
ATOM     65  C   UNL A   1      44.753  28.931  33.448  1.00  0.00     0.049 A 
ATOM     66  H   UNL A   1      43.031  28.936  32.227  1.00  0.00     0.167 HD
ATOM     67  C   UNL A   1      45.171  27.119  31.805  1.00  0.00     0.074 A 
ATOM     68  C   UNL A   1      45.979  26.063  31.229  1.00  0.00     0.031 C 
ATOM     69  C   UNL A   1      45.548  27.877  32.865  1.00  0.00     0.037 A 
BRANCH  56  70
ATOM     70  C   UNL A   1      41.429  32.208  34.465  1.00  0.00     0.058 A 
ATOM     71  C   UNL A   1      40.718  32.043  35.665  1.00  0.00     0.135 A 
ATOM     72  C   UNL A   1      41.841  33.507  34.124  1.00  0.00     0.135 A 
ATOM     73  F   UNL A   1      40.282  30.828  36.033  1.00  0.00    -0.206 F 
ATOM     74  C   UNL A   1      40.400  33.128  36.477  1.00  0.00     0.059 A 
ATOM     75  C   UNL A   1      41.563  34.601  34.937  1.00  0.00     0.059 A 
ATOM     76  F   UNL A   1      42.521  33.723  32.987  1.00  0.00    -0.206 F 
ATOM     77  C   UNL A   1      40.827  34.404  36.104  1.00  0.00     0.060 A 
BRANCH  77  78
ATOM     78  S   UNL A   1      40.407  35.799  37.169  1.00  0.00     0.124 S 
ATOM     79  O   UNL A   1      41.718  36.163  37.701  1.00  0.00    -0.237 OA
ATOM     80  O   UNL A   1      39.822  36.746  36.225  1.00  0.00    -0.237 OA
ATOM     81  O   UNL A   1      39.477  35.223  38.135  1.00  0.00    -0.744 OA
ENDBRANCH  77  78
ENDBRANCH  56  70
BRANCH  57  82
ATOM     82  C   UNL A   1      43.440  24.751  28.110  1.00  0.00     0.058 A 
ATOM     83  C   UNL A   1      43.053  23.422  28.332  1.00  0.00     0.135 A 
ATOM     84  C   UNL A   1      44.141  25.035  26.926  1.00  0.00     0.135 A 
ATOM     85  F   UNL A   1      42.396  23.093  29.455  1.00  0.00    -0.206 F 
ATOM     86  C   UNL A   1      43.349  22.412  27.420  1.00  0.00     0.059 A 
ATOM     87  C   UNL A   1      44.424  24.050  25.986  1.00  0.00     0.059 A 
ATOM     88  F   UNL A   1      44.531  26.292  26.660  1.00  0.00    -0.206 F 
ATOM     89  C   UNL A   1      44.028  22.739  26.245  1.00  0.00     0.060 A 
BRANCH  89  90
ATOM     90  S   UNL A   1      44.343  21.435  25.035  1.00  0.00     0.124 S 
ATOM     91  O   UNL A   1      43.265  20.496  25.325  1.00  0.00    -0.237 OA
ATOM     92  O   UNL A   1      44.240  22.159  23.773  1.00  0.00    -0.237 OA
ATOM     93  O   UNL A   1      45.687  20.978  25.378  1.00  0.00    -0.744 OA
ENDBRANCH  89  90
ENDBRANCH  57  82
BRANCH  69  94
ATOM     94  C   UNL A   1      46.879  27.573  33.504  1.00  0.00     0.058 A 
ATOM     95  C   UNL A   1      47.024  26.580  34.486  1.00  0.00     0.135 A 
ATOM     96  C   UNL A   1      48.038  28.248  33.082  1.00  0.00     0.135 A 
ATOM     97  F   UNL A   1      45.950  25.907  34.930  1.00  0.00    -0.206 F 
ATOM     98  C   UNL A   1      48.264  26.285  35.045  1.00  0.00     0.059 A 
ATOM     99  C   UNL A   1      49.292  27.946  33.604  1.00  0.00     0.059 A 
ATOM    100  F   UNL A   1      47.961  29.199  32.138  1.00  0.00    -0.206 F 
ATOM    101  C   UNL A   1      49.392  26.971  34.595  1.00  0.00     0.060 A 
BRANCH 101 102
ATOM    102  S   UNL A   1      50.999  26.555  35.307  1.00  0.00     0.124 S 
ATOM    103  O   UNL A   1      51.778  27.749  34.993  1.00  0.00    -0.237 OA
ATOM    104  O   UNL A   1      50.675  26.362  36.717  1.00  0.00    -0.237 OA
ATOM    105  O   UNL A   1      51.388  25.346  34.587  1.00  0.00    -0.744 OA
ENDBRANCH 101 102
ENDBRANCH  69  94
ENDBRANCH  43  44
ENDBRANCH  36  38
ENDBRANCH  35  36
ENDBRANCH  34  35
ENDBRANCH  33  34
ENDBRANCH  32  33
ENDBRANCH  31  32
ENDBRANCH  30  31
ENDBRANCH  29  30
ENDBRANCH   1  29
TORSDOF 27
ENDMDL
