MODEL 1
REMARK VINA RESULT:      -9.2      0.000      0.000
REMARK SMILES CCn1nc(-c2cccnc2)c2cc(C(=O)OCCOCCOCCOCCOC(=O)c3ccc(-c4c5nc(c(-c6c(F)cc(S(=O)(=O)[O-])cc6F)c6ccc([nH]6)c(-c6c(F)cc(S(=O)(=O)[O-])cc6F)c6nc(c(-c7c(F)cc(S(=O)(=O)[O-])cc7F)c7ccc4[nH]7)C=C6)C=C5)cc3)sc21
REMARK SMILES IDX 24 1 23 2 22 3 21 4 20 5 19 6 18 7 17 8 15 9 16 10 14 11
REMARK SMILES IDX 3 12 4 13 99 14 5 15 12 16 98 17 13 18 2 19 1 20 6 21 7 22
REMARK SMILES IDX 11 23 8 24 10 25 9 26 25 27 26 28 27 29 28 30 29 31 30 32
REMARK SMILES IDX 31 33 32 34 33 35 97 36 34 37 96 38 35 39 36 40 37 41 90 42
REMARK SMILES IDX 38 43 95 44 89 45 91 46 39 47 94 48 88 49 87 50 40 52 74 53
REMARK SMILES IDX 53 54 73 55 54 56 57 57 72 58 92 59 55 60 56 61 71 63 93 64
REMARK SMILES IDX 58 65 41 66 42 67 51 68 43 69 44 70 50 71 52 72 45 73 46 74
REMARK SMILES IDX 47 75 48 76 49 77 75 78 76 79 85 80 77 81 78 82 84 83 86 84
REMARK SMILES IDX 79 85 80 86 81 87 82 88 83 89 59 90 60 91 69 92 61 93 62 94
REMARK SMILES IDX 68 95 70 96 63 97 64 98 65 99 66 100 67 101
REMARK H PARENT 91 51 57 62
REMARK Flexibility Score: inf
ROOT
ATOM      1  C   UNL A   1      33.246  36.378  28.925  1.00  0.00     0.188 C 
ENDROOT
BRANCH   1   2
ATOM      2  O   UNL A   1      33.486  35.038  28.499  1.00  0.00    -0.377 OA
BRANCH   2   3
ATOM      3  C   UNL A   1      34.810  34.571  28.690  1.00  0.00     0.188 C 
BRANCH   3   4
ATOM      4  C   UNL A   1      35.126  33.255  27.943  1.00  0.00     0.188 C 
BRANCH   4   5
ATOM      5  O   UNL A   1      34.553  32.004  28.311  1.00  0.00    -0.376 OA
BRANCH   5   6
ATOM      6  C   UNL A   1      33.419  31.457  27.659  1.00  0.00     0.202 C 
BRANCH   6   7
ATOM      7  C   UNL A   1      33.427  30.030  27.099  1.00  0.00     0.261 C 
BRANCH   7   8
ATOM      8  O   UNL A   1      32.158  29.477  26.770  1.00  0.00    -0.459 OA
BRANCH   8   9
ATOM      9  C   UNL A   1      31.976  28.156  27.034  1.00  0.00     0.348 C 
ATOM     10  O   UNL A   1      31.410  27.706  28.023  1.00  0.00    -0.245 OA
BRANCH   9  11
ATOM     11  C   UNL A   1      32.425  27.376  25.895  1.00  0.00     0.115 A 
ATOM     12  N   UNL A   1      32.856  25.876  22.497  1.00  0.00    -0.254 N 
ATOM     13  N   UNL A   1      33.859  24.954  22.550  1.00  0.00    -0.171 NA
ATOM     14  C   UNL A   1      32.627  26.428  23.703  1.00  0.00     0.122 A 
ATOM     15  C   UNL A   1      34.240  24.934  23.854  1.00  0.00     0.103 A 
ATOM     16  C   UNL A   1      33.486  25.874  24.559  1.00  0.00     0.040 A 
ATOM     17  S   UNL A   1      31.648  27.595  24.345  1.00  0.00    -0.109 S 
ATOM     18  C   UNL A   1      33.424  26.393  25.851  1.00  0.00     0.040 A 
BRANCH  12  19
ATOM     19  C   UNL A   1      32.221  26.215  21.240  1.00  0.00     0.142 C 
ATOM     20  C   UNL A   1      32.576  25.234  20.133  1.00  0.00     0.029 C 
ENDBRANCH  12  19
BRANCH  15  21
ATOM     21  C   UNL A   1      35.321  24.074  24.287  1.00  0.00     0.021 A 
ATOM     22  C   UNL A   1      35.856  23.122  23.416  1.00  0.00     0.013 A 
ATOM     23  C   UNL A   1      35.814  24.112  25.585  1.00  0.00     0.121 A 
ATOM     24  C   UNL A   1      36.848  22.257  23.867  1.00  0.00     0.021 A 
ATOM     25  N   UNL A   1      36.790  23.289  26.048  1.00  0.00    -0.264 NA
ATOM     26  C   UNL A   1      37.275  22.374  25.180  1.00  0.00     0.111 A 
ENDBRANCH  15  21
ENDBRANCH   9  11
ENDBRANCH   8   9
ENDBRANCH   7   8
ENDBRANCH   6   7
ENDBRANCH   5   6
ENDBRANCH   4   5
ENDBRANCH   3   4
ENDBRANCH   2   3
ENDBRANCH   1   2
BRANCH   1  27
ATOM     27  C   UNL A   1      32.910  36.631  30.420  1.00  0.00     0.188 C 
BRANCH  27  28
ATOM     28  O   UNL A   1      33.980  37.197  31.169  1.00  0.00    -0.376 OA
BRANCH  28  29
ATOM     29  C   UNL A   1      33.782  37.669  32.492  1.00  0.00     0.202 C 
BRANCH  29  30
ATOM     30  C   UNL A   1      33.615  36.573  33.544  1.00  0.00     0.261 C 
BRANCH  30  31
ATOM     31  O   UNL A   1      34.595  35.558  33.424  1.00  0.00    -0.460 OA
BRANCH  31  32
ATOM     32  C   UNL A   1      34.145  34.412  32.882  1.00  0.00     0.338 C 
ATOM     33  O   UNL A   1      32.995  33.995  32.888  1.00  0.00    -0.246 OA
BRANCH  32  34
ATOM     34  C   UNL A   1      35.286  33.690  32.319  1.00  0.00     0.060 A 
ATOM     35  C   UNL A   1      35.378  32.355  32.704  1.00  0.00     0.016 A 
ATOM     36  C   UNL A   1      36.382  34.430  31.841  1.00  0.00     0.016 A 
ATOM     37  C   UNL A   1      36.630  31.895  33.003  1.00  0.00     0.010 A 
ATOM     38  C   UNL A   1      37.632  33.968  32.138  1.00  0.00     0.010 A 
ATOM     39  C   UNL A   1      37.704  32.781  32.853  1.00  0.00    -0.014 A 
BRANCH  39  40
ATOM     40  C   UNL A   1      38.893  32.481  33.602  1.00  0.00     0.031 A 
ATOM     41  C   UNL A   1      38.929  33.142  34.910  1.00  0.00     0.074 A 
ATOM     42  C   UNL A   1      39.841  31.669  33.105  1.00  0.00     0.049 A 
ATOM     43  N   UNL A   1      39.636  34.163  35.251  1.00  0.00    -0.248 NA
ATOM     44  C   UNL A   1      37.890  32.761  35.875  1.00  0.00     0.031 C 
ATOM     45  C   UNL A   1      39.788  30.767  31.950  1.00  0.00     0.029 A 
ATOM     46  N   UNL A   1      41.068  31.430  33.623  1.00  0.00    -0.354 N 
ATOM     47  C   UNL A   1      39.275  34.435  36.562  1.00  0.00     0.074 A 
ATOM     48  C   UNL A   1      38.071  33.686  36.816  1.00  0.00     0.031 C 
ATOM     49  C   UNL A   1      40.841  29.916  32.008  1.00  0.00     0.029 A 
ATOM     50  C   UNL A   1      41.697  30.306  33.115  1.00  0.00     0.049 A 
ATOM     51  H   UNL A   1      41.479  32.007  34.306  1.00  0.00     0.167 HD
ATOM     52  C   UNL A   1      40.111  35.090  37.408  1.00  0.00     0.037 A 
ATOM     53  C   UNL A   1      42.769  29.707  33.689  1.00  0.00     0.037 A 
ATOM     54  C   UNL A   1      41.187  35.731  36.695  1.00  0.00     0.049 A 
ATOM     55  C   UNL A   1      43.413  30.731  34.568  1.00  0.00     0.074 A 
ATOM     56  C   UNL A   1      41.246  36.750  35.765  1.00  0.00     0.029 A 
ATOM     57  N   UNL A   1      42.386  35.063  36.604  1.00  0.00    -0.354 N 
ATOM     58  N   UNL A   1      43.989  31.815  34.111  1.00  0.00    -0.248 NA
ATOM     59  C   UNL A   1      42.977  30.810  35.958  1.00  0.00     0.031 C 
ATOM     60  C   UNL A   1      42.271  36.365  34.854  1.00  0.00     0.029 A 
ATOM     61  C   UNL A   1      42.814  35.159  35.302  1.00  0.00     0.049 A 
ATOM     62  H   UNL A   1      42.853  34.603  37.339  1.00  0.00     0.167 HD
ATOM     63  C   UNL A   1      43.640  32.823  35.003  1.00  0.00     0.074 A 
ATOM     64  C   UNL A   1      43.072  32.129  36.156  1.00  0.00     0.031 C 
ATOM     65  C   UNL A   1      43.574  34.133  34.616  1.00  0.00     0.037 A 
BRANCH  52  66
ATOM     66  C   UNL A   1      40.124  34.879  38.894  1.00  0.00     0.058 A 
ATOM     67  C   UNL A   1      40.525  33.635  39.413  1.00  0.00     0.135 A 
ATOM     68  C   UNL A   1      39.520  35.764  39.816  1.00  0.00     0.135 A 
ATOM     69  F   UNL A   1      41.103  32.718  38.620  1.00  0.00    -0.206 F 
ATOM     70  C   UNL A   1      40.281  33.271  40.736  1.00  0.00     0.059 A 
ATOM     71  C   UNL A   1      39.325  35.447  41.152  1.00  0.00     0.059 A 
ATOM     72  F   UNL A   1      38.993  36.939  39.446  1.00  0.00    -0.206 F 
ATOM     73  C   UNL A   1      39.665  34.179  41.592  1.00  0.00     0.060 A 
BRANCH  73  74
ATOM     74  S   UNL A   1      39.223  33.668  43.259  1.00  0.00     0.124 S 
ATOM     75  O   UNL A   1      40.455  33.959  43.985  1.00  0.00    -0.237 OA
ATOM     76  O   UNL A   1      38.087  34.535  43.551  1.00  0.00    -0.237 OA
ATOM     77  O   UNL A   1      38.902  32.253  43.103  1.00  0.00    -0.744 OA
ENDBRANCH  73  74
ENDBRANCH  52  66
BRANCH  53  78
ATOM     78  C   UNL A   1      42.964  28.241  33.852  1.00  0.00     0.058 A 
ATOM     79  C   UNL A   1      44.099  27.592  33.340  1.00  0.00     0.135 A 
ATOM     80  C   UNL A   1      42.162  27.484  34.734  1.00  0.00     0.135 A 
ATOM     81  F   UNL A   1      44.935  28.245  32.519  1.00  0.00    -0.206 F 
ATOM     82  C   UNL A   1      44.438  26.282  33.705  1.00  0.00     0.059 A 
ATOM     83  C   UNL A   1      42.471  26.176  35.102  1.00  0.00     0.059 A 
ATOM     84  F   UNL A   1      41.096  28.023  35.342  1.00  0.00    -0.206 F 
ATOM     85  C   UNL A   1      43.624  25.587  34.601  1.00  0.00     0.060 A 
BRANCH  85  86
ATOM     86  S   UNL A   1      44.136  23.961  35.204  1.00  0.00     0.124 S 
ATOM     87  O   UNL A   1      42.971  23.142  34.887  1.00  0.00    -0.237 OA
ATOM     88  O   UNL A   1      45.333  23.703  34.411  1.00  0.00    -0.237 OA
ATOM     89  O   UNL A   1      44.373  24.186  36.627  1.00  0.00    -0.744 OA
ENDBRANCH  85  86
ENDBRANCH  53  78
BRANCH  65  90
ATOM     90  C   UNL A   1      44.110  34.503  33.253  1.00  0.00     0.058 A 
ATOM     91  C   UNL A   1      43.328  34.527  32.085  1.00  0.00     0.135 A 
ATOM     92  C   UNL A   1      45.403  35.039  33.166  1.00  0.00     0.135 A 
ATOM     93  F   UNL A   1      42.047  34.134  32.110  1.00  0.00    -0.206 F 
ATOM     94  C   UNL A   1      43.818  35.030  30.878  1.00  0.00     0.059 A 
ATOM     95  C   UNL A   1      45.903  35.574  31.981  1.00  0.00     0.059 A 
ATOM     96  F   UNL A   1      46.177  35.108  34.263  1.00  0.00    -0.206 F 
ATOM     97  C   UNL A   1      45.108  35.558  30.838  1.00  0.00     0.060 A 
BRANCH  97  98
ATOM     98  S   UNL A   1      45.705  36.304  29.304  1.00  0.00     0.124 S 
ATOM     99  O   UNL A   1      45.436  35.253  28.328  1.00  0.00    -0.237 OA
ATOM    100  O   UNL A   1      44.879  37.503  29.189  1.00  0.00    -0.237 OA
ATOM    101  O   UNL A   1      47.118  36.557  29.575  1.00  0.00    -0.744 OA
ENDBRANCH  97  98
ENDBRANCH  65  90
ENDBRANCH  39  40
ENDBRANCH  32  34
ENDBRANCH  31  32
ENDBRANCH  30  31
ENDBRANCH  29  30
ENDBRANCH  28  29
ENDBRANCH  27  28
ENDBRANCH   1  27
TORSDOF 25
ENDMDL
MODEL 2
REMARK VINA RESULT:      -8.9      1.222      2.077
REMARK SMILES CCn1nc(-c2cccnc2)c2cc(C(=O)OCCOCCOCCOCCOC(=O)c3ccc(-c4c5nc(c(-c6c(F)cc(S(=O)(=O)[O-])cc6F)c6ccc([nH]6)c(-c6c(F)cc(S(=O)(=O)[O-])cc6F)c6nc(c(-c7c(F)cc(S(=O)(=O)[O-])cc7F)c7ccc4[nH]7)C=C6)C=C5)cc3)sc21
REMARK SMILES IDX 24 1 23 2 22 3 21 4 20 5 19 6 18 7 17 8 15 9 16 10 14 11
REMARK SMILES IDX 3 12 4 13 99 14 5 15 12 16 98 17 13 18 2 19 1 20 6 21 7 22
REMARK SMILES IDX 11 23 8 24 10 25 9 26 25 27 26 28 27 29 28 30 29 31 30 32
REMARK SMILES IDX 31 33 32 34 33 35 97 36 34 37 96 38 35 39 36 40 37 41 90 42
REMARK SMILES IDX 38 43 95 44 89 45 91 46 39 47 94 48 88 49 87 50 40 52 74 53
REMARK SMILES IDX 53 54 73 55 54 56 57 57 72 58 92 59 55 60 56 61 71 63 93 64
REMARK SMILES IDX 58 65 41 66 42 67 51 68 43 69 44 70 50 71 52 72 45 73 46 74
REMARK SMILES IDX 47 75 48 76 49 77 75 78 76 79 85 80 77 81 78 82 84 83 86 84
REMARK SMILES IDX 79 85 80 86 81 87 82 88 83 89 59 90 60 91 69 92 61 93 62 94
REMARK SMILES IDX 68 95 70 96 63 97 64 98 65 99 66 100 67 101
REMARK H PARENT 91 51 57 62
REMARK Flexibility Score: inf
ROOT
ATOM      1  C   UNL A   1      33.273  36.201  28.995  1.00  0.00     0.188 C 
ENDROOT
BRANCH   1   2
ATOM      2  O   UNL A   1      33.484  34.832  28.654  1.00  0.00    -0.377 OA
BRANCH   2   3
ATOM      3  C   UNL A   1      34.835  34.405  28.674  1.00  0.00     0.188 C 
BRANCH   3   4
ATOM      4  C   UNL A   1      35.053  32.984  28.106  1.00  0.00     0.188 C 
BRANCH   4   5
ATOM      5  O   UNL A   1      34.167  31.901  28.379  1.00  0.00    -0.376 OA
BRANCH   5   6
ATOM      6  C   UNL A   1      33.349  31.310  27.383  1.00  0.00     0.202 C 
BRANCH   6   7
ATOM      7  C   UNL A   1      33.458  29.821  27.037  1.00  0.00     0.261 C 
BRANCH   7   8
ATOM      8  O   UNL A   1      32.284  29.210  26.515  1.00  0.00    -0.459 OA
BRANCH   8   9
ATOM      9  C   UNL A   1      32.076  27.905  26.834  1.00  0.00     0.348 C 
ATOM     10  O   UNL A   1      31.580  27.505  27.880  1.00  0.00    -0.245 OA
BRANCH   9  11
ATOM     11  C   UNL A   1      32.399  27.076  25.688  1.00  0.00     0.115 A 
ATOM     12  N   UNL A   1      32.610  25.575  22.268  1.00  0.00    -0.254 N 
ATOM     13  N   UNL A   1      33.438  24.492  22.317  1.00  0.00    -0.171 NA
ATOM     14  C   UNL A   1      32.464  26.140  23.481  1.00  0.00     0.122 A 
ATOM     15  C   UNL A   1      33.792  24.388  23.624  1.00  0.00     0.103 A 
ATOM     16  C   UNL A   1      33.203  25.433  24.337  1.00  0.00     0.040 A 
ATOM     17  S   UNL A   1      31.693  27.449  24.133  1.00  0.00    -0.109 S 
ATOM     18  C   UNL A   1      33.214  25.935  25.637  1.00  0.00     0.040 A 
BRANCH  12  19
ATOM     19  C   UNL A   1      32.060  26.038  21.011  1.00  0.00     0.142 C 
ATOM     20  C   UNL A   1      32.646  25.295  19.820  1.00  0.00     0.029 C 
ENDBRANCH  12  19
BRANCH  15  21
ATOM     21  C   UNL A   1      34.702  23.346  24.054  1.00  0.00     0.021 A 
ATOM     22  C   UNL A   1      36.082  23.532  23.952  1.00  0.00     0.013 A 
ATOM     23  C   UNL A   1      34.246  22.116  24.511  1.00  0.00     0.121 A 
ATOM     24  C   UNL A   1      36.944  22.497  24.306  1.00  0.00     0.021 A 
ATOM     25  N   UNL A   1      35.063  21.095  24.875  1.00  0.00    -0.264 NA
ATOM     26  C   UNL A   1      36.392  21.307  24.753  1.00  0.00     0.111 A 
ENDBRANCH  15  21
ENDBRANCH   9  11
ENDBRANCH   8   9
ENDBRANCH   7   8
ENDBRANCH   6   7
ENDBRANCH   5   6
ENDBRANCH   4   5
ENDBRANCH   3   4
ENDBRANCH   2   3
ENDBRANCH   1   2
BRANCH   1  27
ATOM     27  C   UNL A   1      32.905  36.550  30.463  1.00  0.00     0.188 C 
BRANCH  27  28
ATOM     28  O   UNL A   1      33.979  37.104  31.216  1.00  0.00    -0.376 OA
BRANCH  28  29
ATOM     29  C   UNL A   1      33.766  37.647  32.509  1.00  0.00     0.202 C 
BRANCH  29  30
ATOM     30  C   UNL A   1      33.768  36.622  33.642  1.00  0.00     0.261 C 
BRANCH  30  31
ATOM     31  O   UNL A   1      34.876  35.744  33.571  1.00  0.00    -0.460 OA
BRANCH  31  32
ATOM     32  C   UNL A   1      34.574  34.499  33.163  1.00  0.00     0.338 C 
ATOM     33  O   UNL A   1      33.469  33.972  33.159  1.00  0.00    -0.246 OA
BRANCH  32  34
ATOM     34  C   UNL A   1      35.813  33.828  32.770  1.00  0.00     0.060 A 
ATOM     35  C   UNL A   1      35.877  32.478  33.102  1.00  0.00     0.016 A 
ATOM     36  C   UNL A   1      36.953  34.613  32.519  1.00  0.00     0.016 A 
ATOM     37  C   UNL A   1      37.073  32.029  33.589  1.00  0.00     0.010 A 
ATOM     38  C   UNL A   1      38.147  34.162  33.003  1.00  0.00     0.010 A 
ATOM     39  C   UNL A   1      38.131  32.942  33.664  1.00  0.00    -0.014 A 
BRANCH  39  40
ATOM     40  C   UNL A   1      39.185  32.628  34.590  1.00  0.00     0.031 A 
ATOM     41  C   UNL A   1      38.934  33.144  35.939  1.00  0.00     0.074 A 
ATOM     42  C   UNL A   1      40.265  31.930  34.203  1.00  0.00     0.049 A 
ATOM     43  N   UNL A   1      39.490  34.159  36.504  1.00  0.00    -0.248 NA
ATOM     44  C   UNL A   1      37.770  32.603  36.651  1.00  0.00     0.031 C 
ATOM     45  C   UNL A   1      40.489  31.158  32.976  1.00  0.00     0.029 A 
ATOM     46  N   UNL A   1      41.392  31.705  34.916  1.00  0.00    -0.354 N 
ATOM     47  C   UNL A   1      38.878  34.266  37.744  1.00  0.00     0.074 A 
ATOM     48  C   UNL A   1      37.708  33.428  37.695  1.00  0.00     0.031 C 
ATOM     49  C   UNL A   1      41.575  30.366  33.148  1.00  0.00     0.029 A 
ATOM     50  C   UNL A   1      42.186  30.680  34.427  1.00  0.00     0.049 A 
ATOM     51  H   UNL A   1      41.629  32.226  35.717  1.00  0.00     0.167 HD
ATOM     52  C   UNL A   1      39.497  34.870  38.792  1.00  0.00     0.037 A 
ATOM     53  C   UNL A   1      43.179  30.082  35.131  1.00  0.00     0.037 A 
ATOM     54  C   UNL A   1      40.632  35.644  38.359  1.00  0.00     0.049 A 
ATOM     55  C   UNL A   1      43.575  31.038  36.211  1.00  0.00     0.074 A 
ATOM     56  C   UNL A   1      40.782  36.760  37.560  1.00  0.00     0.029 A 
ATOM     57  N   UNL A   1      41.875  35.058  38.430  1.00  0.00    -0.354 N 
ATOM     58  N   UNL A   1      44.141  32.196  35.977  1.00  0.00    -0.248 NA
ATOM     59  C   UNL A   1      42.890  30.940  37.495  1.00  0.00     0.031 C 
ATOM     60  C   UNL A   1      41.981  36.535  36.823  1.00  0.00     0.029 A 
ATOM     61  C   UNL A   1      42.523  35.319  37.246  1.00  0.00     0.049 A 
ATOM     62  H   UNL A   1      42.235  34.547  39.190  1.00  0.00     0.167 HD
ATOM     63  C   UNL A   1      43.561  33.080  36.881  1.00  0.00     0.074 A 
ATOM     64  C   UNL A   1      42.848  32.234  37.835  1.00  0.00     0.031 C 
ATOM     65  C   UNL A   1      43.468  34.419  36.618  1.00  0.00     0.037 A 
BRANCH  52  66
ATOM     66  C   UNL A   1      39.257  34.499  40.226  1.00  0.00     0.058 A 
ATOM     67  C   UNL A   1      38.744  35.462  41.114  1.00  0.00     0.135 A 
ATOM     68  C   UNL A   1      39.747  33.314  40.821  1.00  0.00     0.135 A 
ATOM     69  F   UNL A   1      38.260  36.627  40.653  1.00  0.00    -0.206 F 
ATOM     70  C   UNL A   1      38.777  35.289  42.496  1.00  0.00     0.059 A 
ATOM     71  C   UNL A   1      39.732  33.093  42.190  1.00  0.00     0.059 A 
ATOM     72  F   UNL A   1      40.361  32.355  40.115  1.00  0.00    -0.206 F 
ATOM     73  C   UNL A   1      39.290  34.106  43.023  1.00  0.00     0.060 A 
BRANCH  73  74
ATOM     74  S   UNL A   1      39.463  33.932  44.805  1.00  0.00     0.124 S 
ATOM     75  O   UNL A   1      39.190  35.292  45.256  1.00  0.00    -0.237 OA
ATOM     76  O   UNL A   1      38.442  32.937  45.113  1.00  0.00    -0.237 OA
ATOM     77  O   UNL A   1      40.842  33.478  44.966  1.00  0.00    -0.744 OA
ENDBRANCH  73  74
ENDBRANCH  52  66
BRANCH  53  78
ATOM     78  C   UNL A   1      43.450  28.621  35.184  1.00  0.00     0.058 A 
ATOM     79  C   UNL A   1      42.462  27.706  35.582  1.00  0.00     0.135 A 
ATOM     80  C   UNL A   1      44.611  28.064  34.603  1.00  0.00     0.135 A 
ATOM     81  F   UNL A   1      41.313  28.147  36.115  1.00  0.00    -0.206 F 
ATOM     82  C   UNL A   1      42.601  26.325  35.387  1.00  0.00     0.059 A 
ATOM     83  C   UNL A   1      44.778  26.695  34.410  1.00  0.00     0.059 A 
ATOM     84  F   UNL A   1      45.588  28.843  34.118  1.00  0.00    -0.206 F 
ATOM     85  C   UNL A   1      43.758  25.831  34.784  1.00  0.00     0.060 A 
BRANCH  85  86
ATOM     86  S   UNL A   1      43.878  24.072  34.380  1.00  0.00     0.124 S 
ATOM     87  O   UNL A   1      42.618  23.556  34.903  1.00  0.00    -0.237 OA
ATOM     88  O   UNL A   1      44.004  24.099  32.927  1.00  0.00    -0.237 OA
ATOM     89  O   UNL A   1      45.075  23.640  35.097  1.00  0.00    -0.744 OA
ENDBRANCH  85  86
ENDBRANCH  53  78
BRANCH  65  90
ATOM     90  C   UNL A   1      44.213  34.964  35.423  1.00  0.00     0.058 A 
ATOM     91  C   UNL A   1      45.574  35.319  35.444  1.00  0.00     0.135 A 
ATOM     92  C   UNL A   1      43.580  34.939  34.171  1.00  0.00     0.135 A 
ATOM     93  F   UNL A   1      46.279  35.263  36.582  1.00  0.00    -0.206 F 
ATOM     94  C   UNL A   1      46.265  35.663  34.281  1.00  0.00     0.059 A 
ATOM     95  C   UNL A   1      44.257  35.249  32.994  1.00  0.00     0.059 A 
ATOM     96  F   UNL A   1      42.299  34.543  34.074  1.00  0.00    -0.206 F 
ATOM     97  C   UNL A   1      45.598  35.620  33.057  1.00  0.00     0.060 A 
BRANCH  97  98
ATOM     98  S   UNL A   1      46.519  35.964  31.541  1.00  0.00     0.124 S 
ATOM     99  O   UNL A   1      45.581  36.797  30.796  1.00  0.00    -0.237 OA
ATOM    100  O   UNL A   1      47.712  36.643  32.039  1.00  0.00    -0.237 OA
ATOM    101  O   UNL A   1      46.759  34.637  30.979  1.00  0.00    -0.744 OA
ENDBRANCH  97  98
ENDBRANCH  65  90
ENDBRANCH  39  40
ENDBRANCH  32  34
ENDBRANCH  31  32
ENDBRANCH  30  31
ENDBRANCH  29  30
ENDBRANCH  28  29
ENDBRANCH  27  28
ENDBRANCH   1  27
TORSDOF 25
ENDMDL
MODEL 3
REMARK VINA RESULT:      -8.8      4.312      9.887
REMARK SMILES CCn1nc(-c2cccnc2)c2cc(C(=O)OCCOCCOCCOCCOC(=O)c3ccc(-c4c5nc(c(-c6c(F)cc(S(=O)(=O)[O-])cc6F)c6ccc([nH]6)c(-c6c(F)cc(S(=O)(=O)[O-])cc6F)c6nc(c(-c7c(F)cc(S(=O)(=O)[O-])cc7F)c7ccc4[nH]7)C=C6)C=C5)cc3)sc21
REMARK SMILES IDX 24 1 23 2 22 3 21 4 20 5 19 6 18 7 17 8 15 9 16 10 14 11
REMARK SMILES IDX 3 12 4 13 99 14 5 15 12 16 98 17 13 18 2 19 1 20 6 21 7 22
REMARK SMILES IDX 11 23 8 24 10 25 9 26 25 27 26 28 27 29 28 30 29 31 30 32
REMARK SMILES IDX 31 33 32 34 33 35 97 36 34 37 96 38 35 39 36 40 37 41 90 42
REMARK SMILES IDX 38 43 95 44 89 45 91 46 39 47 94 48 88 49 87 50 40 52 74 53
REMARK SMILES IDX 53 54 73 55 54 56 57 57 72 58 92 59 55 60 56 61 71 63 93 64
REMARK SMILES IDX 58 65 41 66 42 67 51 68 43 69 44 70 50 71 52 72 45 73 46 74
REMARK SMILES IDX 47 75 48 76 49 77 75 78 76 79 85 80 77 81 78 82 84 83 86 84
REMARK SMILES IDX 79 85 80 86 81 87 82 88 83 89 59 90 60 91 69 92 61 93 62 94
REMARK SMILES IDX 68 95 70 96 63 97 64 98 65 99 66 100 67 101
REMARK H PARENT 91 51 57 62
REMARK Flexibility Score: inf
ROOT
ATOM      1  C   UNL A   1      44.001  22.555  25.017  1.00  0.00     0.188 C 
ENDROOT
BRANCH   1   2
ATOM      2  O   UNL A   1      43.813  21.155  24.823  1.00  0.00    -0.377 OA
BRANCH   2   3
ATOM      3  C   UNL A   1      43.414  20.433  25.976  1.00  0.00     0.188 C 
BRANCH   3   4
ATOM      4  C   UNL A   1      42.224  19.476  25.737  1.00  0.00     0.188 C 
BRANCH   4   5
ATOM      5  O   UNL A   1      40.948  19.667  26.343  1.00  0.00    -0.376 OA
BRANCH   5   6
ATOM      6  C   UNL A   1      40.571  20.881  26.972  1.00  0.00     0.202 C 
BRANCH   6   7
ATOM      7  C   UNL A   1      39.964  22.041  26.174  1.00  0.00     0.261 C 
BRANCH   7   8
ATOM      8  O   UNL A   1      38.618  21.871  25.746  1.00  0.00    -0.459 OA
BRANCH   8   9
ATOM      9  C   UNL A   1      37.787  22.938  25.889  1.00  0.00     0.348 C 
ATOM     10  O   UNL A   1      38.148  24.087  26.112  1.00  0.00    -0.245 OA
BRANCH   9  11
ATOM     11  C   UNL A   1      36.427  22.526  25.595  1.00  0.00     0.115 A 
ATOM     12  N   UNL A   1      32.718  22.398  25.135  1.00  0.00    -0.254 N 
ATOM     13  N   UNL A   1      32.376  21.157  24.688  1.00  0.00    -0.171 NA
ATOM     14  C   UNL A   1      34.042  22.497  25.355  1.00  0.00     0.122 A 
ATOM     15  C   UNL A   1      33.546  20.468  24.655  1.00  0.00     0.103 A 
ATOM     16  C   UNL A   1      34.582  21.318  25.047  1.00  0.00     0.040 A 
ATOM     17  S   UNL A   1      35.118  23.660  25.827  1.00  0.00    -0.109 S 
ATOM     18  C   UNL A   1      35.970  21.275  25.156  1.00  0.00     0.040 A 
BRANCH  12  19
ATOM     19  C   UNL A   1      31.726  23.448  25.256  1.00  0.00     0.142 C 
ATOM     20  C   UNL A   1      31.299  23.670  26.699  1.00  0.00     0.029 C 
ENDBRANCH  12  19
BRANCH  15  21
ATOM     21  C   UNL A   1      33.573  19.094  24.196  1.00  0.00     0.021 A 
ATOM     22  C   UNL A   1      34.556  18.217  24.659  1.00  0.00     0.013 A 
ATOM     23  C   UNL A   1      32.681  18.621  23.242  1.00  0.00     0.121 A 
ATOM     24  C   UNL A   1      34.611  16.919  24.159  1.00  0.00     0.021 A 
ATOM     25  N   UNL A   1      32.703  17.358  22.746  1.00  0.00    -0.264 NA
ATOM     26  C   UNL A   1      33.676  16.541  23.209  1.00  0.00     0.111 A 
ENDBRANCH  15  21
ENDBRANCH   9  11
ENDBRANCH   8   9
ENDBRANCH   7   8
ENDBRANCH   6   7
ENDBRANCH   5   6
ENDBRANCH   4   5
ENDBRANCH   3   4
ENDBRANCH   2   3
ENDBRANCH   1   2
BRANCH   1  27
ATOM     27  C   UNL A   1      44.097  23.095  26.469  1.00  0.00     0.188 C 
BRANCH  27  28
ATOM     28  O   UNL A   1      42.861  23.567  26.997  1.00  0.00    -0.376 OA
BRANCH  28  29
ATOM     29  C   UNL A   1      42.793  24.771  27.744  1.00  0.00     0.202 C 
BRANCH  29  30
ATOM     30  C   UNL A   1      44.006  25.688  27.591  1.00  0.00     0.261 C 
BRANCH  30  31
ATOM     31  O   UNL A   1      44.044  26.323  26.326  1.00  0.00    -0.460 OA
BRANCH  31  32
ATOM     32  C   UNL A   1      42.864  26.824  25.919  1.00  0.00     0.338 C 
ATOM     33  O   UNL A   1      41.974  26.227  25.328  1.00  0.00    -0.246 OA
BRANCH  32  34
ATOM     34  C   UNL A   1      42.829  28.249  26.247  1.00  0.00     0.060 A 
ATOM     35  C   UNL A   1      44.063  28.802  26.579  1.00  0.00     0.016 A 
ATOM     36  C   UNL A   1      41.603  28.823  26.627  1.00  0.00     0.016 A 
ATOM     37  C   UNL A   1      44.073  29.677  27.629  1.00  0.00     0.010 A 
ATOM     38  C   UNL A   1      41.614  29.699  27.673  1.00  0.00     0.010 A 
ATOM     39  C   UNL A   1      42.850  29.976  28.240  1.00  0.00    -0.014 A 
BRANCH  39  40
ATOM     40  C   UNL A   1      42.911  30.476  29.587  1.00  0.00     0.031 A 
ATOM     41  C   UNL A   1      43.021  29.412  30.588  1.00  0.00     0.074 A 
ATOM     42  C   UNL A   1      42.869  31.795  29.841  1.00  0.00     0.049 A 
ATOM     43  N   UNL A   1      42.098  28.982  31.377  1.00  0.00    -0.248 NA
ATOM     44  C   UNL A   1      44.231  28.582  30.546  1.00  0.00     0.031 C 
ATOM     45  C   UNL A   1      43.023  32.929  28.924  1.00  0.00     0.029 A 
ATOM     46  N   UNL A   1      42.757  32.392  31.050  1.00  0.00    -0.354 N 
ATOM     47  C   UNL A   1      42.679  27.942  32.086  1.00  0.00     0.074 A 
ATOM     48  C   UNL A   1      43.901  27.613  31.398  1.00  0.00     0.031 C 
ATOM     49  C   UNL A   1      43.231  34.055  29.649  1.00  0.00     0.029 A 
ATOM     50  C   UNL A   1      43.088  33.737  31.059  1.00  0.00     0.049 A 
ATOM     51  H   UNL A   1      42.465  31.909  31.856  1.00  0.00     0.167 HD
ATOM     52  C   UNL A   1      42.219  27.571  33.309  1.00  0.00     0.037 A 
ATOM     53  C   UNL A   1      43.343  34.452  32.182  1.00  0.00     0.037 A 
ATOM     54  C   UNL A   1      40.916  28.127  33.573  1.00  0.00     0.049 A 
ATOM     55  C   UNL A   1      42.703  33.714  33.315  1.00  0.00     0.074 A 
ATOM     56  C   UNL A   1      39.671  27.964  32.997  1.00  0.00     0.029 A 
ATOM     57  N   UNL A   1      40.848  29.292  34.301  1.00  0.00    -0.354 N 
ATOM     58  N   UNL A   1      41.408  33.568  33.441  1.00  0.00    -0.248 NA
ATOM     59  C   UNL A   1      43.503  32.717  34.019  1.00  0.00     0.031 C 
ATOM     60  C   UNL A   1      39.073  29.257  33.029  1.00  0.00     0.029 A 
ATOM     61  C   UNL A   1      39.963  30.127  33.664  1.00  0.00     0.049 A 
ATOM     62  H   UNL A   1      41.343  29.490  35.129  1.00  0.00     0.167 HD
ATOM     63  C   UNL A   1      41.225  32.266  33.895  1.00  0.00     0.074 A 
ATOM     64  C   UNL A   1      42.555  31.815  34.297  1.00  0.00     0.031 C 
ATOM     65  C   UNL A   1      40.076  31.571  33.640  1.00  0.00     0.037 A 
BRANCH  52  66
ATOM     66  C   UNL A   1      43.085  26.971  34.378  1.00  0.00     0.058 A 
ATOM     67  C   UNL A   1      42.610  25.875  35.120  1.00  0.00     0.135 A 
ATOM     68  C   UNL A   1      44.258  27.587  34.873  1.00  0.00     0.135 A 
ATOM     69  F   UNL A   1      41.498  25.223  34.740  1.00  0.00    -0.206 F 
ATOM     70  C   UNL A   1      43.217  25.463  36.305  1.00  0.00     0.059 A 
ATOM     71  C   UNL A   1      44.914  27.153  36.015  1.00  0.00     0.059 A 
ATOM     72  F   UNL A   1      44.766  28.703  34.334  1.00  0.00    -0.206 F 
ATOM     73  C   UNL A   1      44.359  26.122  36.752  1.00  0.00     0.060 A 
BRANCH  73  74
ATOM     74  S   UNL A   1      45.067  25.687  38.347  1.00  0.00     0.124 S 
ATOM     75  O   UNL A   1      44.177  26.397  39.260  1.00  0.00    -0.237 OA
ATOM     76  O   UNL A   1      44.954  24.232  38.343  1.00  0.00    -0.237 OA
ATOM     77  O   UNL A   1      46.429  26.205  38.263  1.00  0.00    -0.744 OA
ENDBRANCH  73  74
ENDBRANCH  52  66
BRANCH  53  78
ATOM     78  C   UNL A   1      44.446  35.434  32.357  1.00  0.00     0.058 A 
ATOM     79  C   UNL A   1      45.767  35.125  31.993  1.00  0.00     0.135 A 
ATOM     80  C   UNL A   1      44.186  36.791  32.650  1.00  0.00     0.135 A 
ATOM     81  F   UNL A   1      46.097  33.867  31.666  1.00  0.00    -0.206 F 
ATOM     82  C   UNL A   1      46.763  36.106  31.894  1.00  0.00     0.059 A 
ATOM     83  C   UNL A   1      45.162  37.782  32.573  1.00  0.00     0.059 A 
ATOM     84  F   UNL A   1      42.948  37.216  32.937  1.00  0.00    -0.206 F 
ATOM     85  C   UNL A   1      46.446  37.436  32.172  1.00  0.00     0.060 A 
BRANCH  85  86
ATOM     86  S   UNL A   1      47.678  38.730  31.891  1.00  0.00     0.124 S 
ATOM     87  O   UNL A   1      47.144  39.403  30.713  1.00  0.00    -0.237 OA
ATOM     88  O   UNL A   1      47.620  39.484  33.139  1.00  0.00    -0.237 OA
ATOM     89  O   UNL A   1      48.913  37.981  31.677  1.00  0.00    -0.744 OA
ENDBRANCH  85  86
ENDBRANCH  53  78
BRANCH  65  90
ATOM     90  C   UNL A   1      38.905  32.320  33.048  1.00  0.00     0.058 A 
ATOM     91  C   UNL A   1      38.719  32.516  31.668  1.00  0.00     0.135 A 
ATOM     92  C   UNL A   1      37.843  32.675  33.892  1.00  0.00     0.135 A 
ATOM     93  F   UNL A   1      39.641  32.103  30.787  1.00  0.00    -0.206 F 
ATOM     94  C   UNL A   1      37.546  33.068  31.152  1.00  0.00     0.059 A 
ATOM     95  C   UNL A   1      36.651  33.200  33.397  1.00  0.00     0.059 A 
ATOM     96  F   UNL A   1      37.930  32.450  35.214  1.00  0.00    -0.206 F 
ATOM     97  C   UNL A   1      36.512  33.403  32.027  1.00  0.00     0.060 A 
BRANCH  97  98
ATOM     98  S   UNL A   1      34.954  34.021  31.351  1.00  0.00     0.124 S 
ATOM     99  O   UNL A   1      35.285  34.214  29.944  1.00  0.00    -0.237 OA
ATOM    100  O   UNL A   1      34.025  32.930  31.641  1.00  0.00    -0.237 OA
ATOM    101  O   UNL A   1      34.715  35.245  32.111  1.00  0.00    -0.744 OA
ENDBRANCH  97  98
ENDBRANCH  65  90
ENDBRANCH  39  40
ENDBRANCH  32  34
ENDBRANCH  31  32
ENDBRANCH  30  31
ENDBRANCH  29  30
ENDBRANCH  28  29
ENDBRANCH  27  28
ENDBRANCH   1  27
TORSDOF 25
ENDMDL
