MODEL 1
REMARK VINA RESULT:      -8.2      0.000      0.000
REMARK SMILES N#C/C(=C\c1ccc(Oc2ccccc2Cl)c([N+](=O)[O-])c1)C(=O)OCCOCCOCCOCCOC(=O)c1ccc(-c2c3nc(c(-c4c(F)cc(S(=O)(=O)[O-])cc4F)c4ccc([nH]4)c(-c4c(F)cc(S(=O)(=O)[O-])cc4F)c4nc(c(-c5c(F)cc(S(=O)(=O)[O-])cc5F)c5ccc2[nH]5)C=C4)C=C3)cc1
REMARK SMILES IDX 30 1 29 2 28 3 27 4 26 5 25 6 24 7 22 8 23 9 3 10 4 11 2 12
REMARK SMILES IDX 1 13 5 14 6 15 21 16 7 17 17 18 8 19 18 20 19 21 20 22 9 23
REMARK SMILES IDX 10 24 11 25 15 26 12 27 14 28 16 29 13 30 31 31 32 32 33 33
REMARK SMILES IDX 34 34 35 35 36 36 37 37 38 38 39 39 40 40 104 41 41 42
REMARK SMILES IDX 103 43 42 44 43 45 44 46 97 47 45 48 102 49 96 50 98 51
REMARK SMILES IDX 46 52 101 53 95 54 94 55 47 57 81 58 60 59 80 60 61 61 64 62
REMARK SMILES IDX 79 63 99 64 62 65 63 66 78 68 100 69 65 70 48 71 49 72 58 73
REMARK SMILES IDX 50 74 51 75 57 76 59 77 52 78 53 79 54 80 55 81 56 82 82 83
REMARK SMILES IDX 83 84 92 85 84 86 85 87 91 88 93 89 86 90 87 91 88 92 89 93
REMARK SMILES IDX 90 94 66 95 67 96 76 97 68 98 69 99 75 100 77 101 70 102
REMARK SMILES IDX 71 103 72 104 73 105 74 106
REMARK H PARENT 98 56 64 67
REMARK Flexibility Score: inf
ROOT
ATOM      1  O   UNL A   1      43.625  42.873  34.283  1.00  0.00    -0.377 OA
ENDROOT
BRANCH   1   2
ATOM      2  C   UNL A   1      44.635  43.763  33.877  1.00  0.00     0.188 C 
BRANCH   2   3
ATOM      3  C   UNL A   1      44.880  43.798  32.354  1.00  0.00     0.188 C 
BRANCH   3   4
ATOM      4  O   UNL A   1      45.825  42.953  31.717  1.00  0.00    -0.376 OA
BRANCH   4   5
ATOM      5  C   UNL A   1      45.667  42.343  30.442  1.00  0.00     0.202 C 
BRANCH   5   6
ATOM      6  C   UNL A   1      46.157  42.923  29.105  1.00  0.00     0.261 C 
BRANCH   6   7
ATOM      7  O   UNL A   1      45.205  42.881  28.053  1.00  0.00    -0.459 OA
BRANCH   7   8
ATOM      8  C   UNL A   1      45.483  43.720  27.039  1.00  0.00     0.348 C 
ATOM      9  O   UNL A   1      46.396  44.531  26.999  1.00  0.00    -0.245 OA
BRANCH   8  10
ATOM     10  C   UNL A   1      44.617  43.432  25.874  1.00  0.00     0.138 C 
ATOM     11  C   UNL A   1      44.634  44.294  24.829  1.00  0.00     0.035 C 
BRANCH  10  12
ATOM     12  C   UNL A   1      44.337  41.956  25.642  1.00  0.00     0.107 C 
ATOM     13  N   UNL A   1      44.105  40.731  25.449  1.00  0.00    -0.192 NA
ENDBRANCH  10  12
BRANCH  11  14
ATOM     14  C   UNL A   1      44.396  43.878  23.427  1.00  0.00    -0.017 A 
ATOM     15  C   UNL A   1      43.108  43.994  22.894  1.00  0.00     0.012 A 
ATOM     16  C   UNL A   1      45.434  43.517  22.566  1.00  0.00     0.098 A 
ATOM     17  C   UNL A   1      42.877  43.788  21.523  1.00  0.00     0.055 A 
ATOM     18  C   UNL A   1      45.212  43.423  21.178  1.00  0.00     0.312 A 
ATOM     19  C   UNL A   1      43.927  43.508  20.634  1.00  0.00     0.204 A 
BRANCH  18  20
ATOM     20  N   UNL A   1      46.419  43.407  20.375  1.00  0.00     0.066 N 
ATOM     21  O   UNL A   1      47.144  44.410  20.419  1.00  0.00    -0.258 OA
ATOM     22  O   UNL A   1      46.676  42.361  19.764  1.00  0.00    -0.258 OA
ENDBRANCH  18  20
BRANCH  19  23
ATOM     23  O   UNL A   1      43.488  43.374  19.334  1.00  0.00    -0.449 OA
BRANCH  23  24
ATOM     24  C   UNL A   1      43.191  44.467  18.560  1.00  0.00     0.146 A 
ATOM     25  C   UNL A   1      44.281  45.273  18.212  1.00  0.00     0.049 A 
ATOM     26  C   UNL A   1      41.900  44.836  18.165  1.00  0.00     0.083 A 
ATOM     27  C   UNL A   1      44.101  46.377  17.381  1.00  0.00     0.004 A 
ATOM     28  C   UNL A   1      41.727  45.925  17.306  1.00  0.00     0.024 A 
ATOM     29  Cl  UNL A   1      40.497  43.981  18.691  1.00  0.00    -0.080 Cl
ATOM     30  C   UNL A   1      42.828  46.686  16.905  1.00  0.00     0.002 A 
ENDBRANCH  23  24
ENDBRANCH  19  23
ENDBRANCH  11  14
ENDBRANCH   8  10
ENDBRANCH   7   8
ENDBRANCH   6   7
ENDBRANCH   5   6
ENDBRANCH   4   5
ENDBRANCH   3   4
ENDBRANCH   2   3
ENDBRANCH   1   2
BRANCH   1  31
ATOM     31  C   UNL A   1      43.433  41.719  33.475  1.00  0.00     0.188 C 
BRANCH  31  32
ATOM     32  C   UNL A   1      42.436  41.771  32.291  1.00  0.00     0.188 C 
BRANCH  32  33
ATOM     33  O   UNL A   1      42.537  40.714  31.348  1.00  0.00    -0.376 OA
BRANCH  33  34
ATOM     34  C   UNL A   1      42.027  40.877  30.032  1.00  0.00     0.202 C 
BRANCH  34  35
ATOM     35  C   UNL A   1      42.672  40.091  28.876  1.00  0.00     0.261 C 
BRANCH  35  36
ATOM     36  O   UNL A   1      42.442  38.678  28.863  1.00  0.00    -0.460 OA
BRANCH  36  37
ATOM     37  C   UNL A   1      42.084  38.123  27.687  1.00  0.00     0.338 C 
ATOM     38  O   UNL A   1      41.436  38.650  26.796  1.00  0.00    -0.246 OA
BRANCH  37  39
ATOM     39  C   UNL A   1      42.796  36.837  27.560  1.00  0.00     0.060 A 
ATOM     40  C   UNL A   1      43.244  36.195  28.723  1.00  0.00     0.016 A 
ATOM     41  C   UNL A   1      43.007  36.263  26.305  1.00  0.00     0.016 A 
ATOM     42  C   UNL A   1      43.943  34.994  28.631  1.00  0.00     0.010 A 
ATOM     43  C   UNL A   1      43.733  35.073  26.212  1.00  0.00     0.010 A 
ATOM     44  C   UNL A   1      44.237  34.457  27.372  1.00  0.00    -0.014 A 
BRANCH  44  45
ATOM     45  C   UNL A   1      45.255  33.387  27.257  1.00  0.00     0.031 A 
ATOM     46  C   UNL A   1      46.692  33.795  27.083  1.00  0.00     0.074 A 
ATOM     47  C   UNL A   1      44.920  32.087  27.332  1.00  0.00     0.049 A 
ATOM     48  N   UNL A   1      47.752  33.053  26.898  1.00  0.00    -0.248 NA
ATOM     49  C   UNL A   1      46.968  35.241  27.117  1.00  0.00     0.031 C 
ATOM     50  C   UNL A   1      43.569  31.573  27.544  1.00  0.00     0.029 A 
ATOM     51  N   UNL A   1      45.698  30.962  27.223  1.00  0.00    -0.354 N 
ATOM     52  C   UNL A   1      48.817  33.939  26.791  1.00  0.00     0.074 A 
ATOM     53  C   UNL A   1      48.271  35.275  26.890  1.00  0.00     0.031 C 
ATOM     54  C   UNL A   1      43.608  30.229  27.525  1.00  0.00     0.029 A 
ATOM     55  C   UNL A   1      44.980  29.792  27.265  1.00  0.00     0.049 A 
ATOM     56  H   UNL A   1      46.677  30.991  27.124  1.00  0.00     0.167 HD
ATOM     57  C   UNL A   1      50.133  33.663  26.635  1.00  0.00     0.037 A 
ATOM     58  C   UNL A   1      45.381  28.517  27.081  1.00  0.00     0.037 A 
ATOM     59  C   UNL A   1      50.664  32.330  26.523  1.00  0.00     0.049 A 
ATOM     60  C   UNL A   1      46.841  28.233  26.829  1.00  0.00     0.074 A 
ATOM     61  C   UNL A   1      51.982  31.940  26.362  1.00  0.00     0.029 A 
ATOM     62  N   UNL A   1      49.904  31.170  26.550  1.00  0.00    -0.354 N 
ATOM     63  N   UNL A   1      47.843  29.076  26.743  1.00  0.00    -0.248 NA
ATOM     64  C   UNL A   1      47.225  26.826  26.653  1.00  0.00     0.031 C 
ATOM     65  C   UNL A   1      52.011  30.548  26.232  1.00  0.00     0.029 A 
ATOM     66  C   UNL A   1      50.720  30.064  26.382  1.00  0.00     0.049 A 
ATOM     67  H   UNL A   1      48.927  31.138  26.669  1.00  0.00     0.167 HD
ATOM     68  C   UNL A   1      48.980  28.300  26.533  1.00  0.00     0.074 A 
ATOM     69  C   UNL A   1      48.542  26.920  26.516  1.00  0.00     0.031 C 
ATOM     70  C   UNL A   1      50.268  28.693  26.372  1.00  0.00     0.037 A 
BRANCH  57  71
ATOM     71  C   UNL A   1      51.079  34.831  26.545  1.00  0.00     0.058 A 
ATOM     72  C   UNL A   1      51.591  35.461  27.691  1.00  0.00     0.135 A 
ATOM     73  C   UNL A   1      51.486  35.322  25.293  1.00  0.00     0.135 A 
ATOM     74  F   UNL A   1      51.220  35.047  28.913  1.00  0.00    -0.206 F 
ATOM     75  C   UNL A   1      52.443  36.556  27.600  1.00  0.00     0.059 A 
ATOM     76  C   UNL A   1      52.365  36.395  25.179  1.00  0.00     0.059 A 
ATOM     77  F   UNL A   1      51.025  34.762  24.164  1.00  0.00    -0.206 F 
ATOM     78  C   UNL A   1      52.824  37.017  26.339  1.00  0.00     0.060 A 
BRANCH  78  79
ATOM     79  S   UNL A   1      53.923  38.444  26.240  1.00  0.00     0.124 S 
ATOM     80  O   UNL A   1      55.235  37.805  26.277  1.00  0.00    -0.237 OA
ATOM     81  O   UNL A   1      53.544  39.039  24.962  1.00  0.00    -0.237 OA
ATOM     82  O   UNL A   1      53.574  39.227  27.421  1.00  0.00    -0.744 OA
ENDBRANCH  78  79
ENDBRANCH  57  71
BRANCH  58  83
ATOM     83  C   UNL A   1      44.380  27.416  27.107  1.00  0.00     0.058 A 
ATOM     84  C   UNL A   1      43.656  27.056  25.962  1.00  0.00     0.135 A 
ATOM     85  C   UNL A   1      44.136  26.692  28.287  1.00  0.00     0.135 A 
ATOM     86  F   UNL A   1      43.841  27.727  24.814  1.00  0.00    -0.206 F 
ATOM     87  C   UNL A   1      42.724  26.024  25.983  1.00  0.00     0.059 A 
ATOM     88  C   UNL A   1      43.230  25.638  28.325  1.00  0.00     0.059 A 
ATOM     89  F   UNL A   1      44.807  26.990  29.410  1.00  0.00    -0.206 F 
ATOM     90  C   UNL A   1      42.523  25.314  27.169  1.00  0.00     0.060 A 
BRANCH  90  91
ATOM     91  S   UNL A   1      41.363  23.931  27.166  1.00  0.00     0.124 S 
ATOM     92  O   UNL A   1      40.139  24.573  26.704  1.00  0.00    -0.237 OA
ATOM     93  O   UNL A   1      41.995  23.008  26.228  1.00  0.00    -0.237 OA
ATOM     94  O   UNL A   1      41.361  23.493  28.558  1.00  0.00    -0.744 OA
ENDBRANCH  90  91
ENDBRANCH  58  83
BRANCH  70  95
ATOM     95  C   UNL A   1      51.311  27.619  26.203  1.00  0.00     0.058 A 
ATOM     96  C   UNL A   1      51.702  27.154  24.937  1.00  0.00     0.135 A 
ATOM     97  C   UNL A   1      51.973  27.092  27.325  1.00  0.00     0.135 A 
ATOM     98  F   UNL A   1      51.100  27.620  23.831  1.00  0.00    -0.206 F 
ATOM     99  C   UNL A   1      52.692  26.187  24.791  1.00  0.00     0.059 A 
ATOM    100  C   UNL A   1      52.988  26.149  27.201  1.00  0.00     0.059 A 
ATOM    101  F   UNL A   1      51.649  27.509  28.559  1.00  0.00    -0.206 F 
ATOM    102  C   UNL A   1      53.332  25.693  25.930  1.00  0.00     0.060 A 
BRANCH 102 103
ATOM    103  S   UNL A   1      54.638  24.463  25.723  1.00  0.00     0.124 S 
ATOM    104  O   UNL A   1      55.484  25.098  24.719  1.00  0.00    -0.237 OA
ATOM    105  O   UNL A   1      55.201  24.378  27.067  1.00  0.00    -0.237 OA
ATOM    106  O   UNL A   1      53.919  23.274  25.275  1.00  0.00    -0.744 OA
ENDBRANCH 102 103
ENDBRANCH  70  95
ENDBRANCH  44  45
ENDBRANCH  37  39
ENDBRANCH  36  37
ENDBRANCH  35  36
ENDBRANCH  34  35
ENDBRANCH  33  34
ENDBRANCH  32  33
ENDBRANCH  31  32
ENDBRANCH   1  31
TORSDOF 28
ENDMDL
MODEL 2
REMARK VINA RESULT:      -8.1      8.520     15.254
REMARK SMILES N#C/C(=C\c1ccc(Oc2ccccc2Cl)c([N+](=O)[O-])c1)C(=O)OCCOCCOCCOCCOC(=O)c1ccc(-c2c3nc(c(-c4c(F)cc(S(=O)(=O)[O-])cc4F)c4ccc([nH]4)c(-c4c(F)cc(S(=O)(=O)[O-])cc4F)c4nc(c(-c5c(F)cc(S(=O)(=O)[O-])cc5F)c5ccc2[nH]5)C=C4)C=C3)cc1
REMARK SMILES IDX 30 1 29 2 28 3 27 4 26 5 25 6 24 7 22 8 23 9 3 10 4 11 2 12
REMARK SMILES IDX 1 13 5 14 6 15 21 16 7 17 17 18 8 19 18 20 19 21 20 22 9 23
REMARK SMILES IDX 10 24 11 25 15 26 12 27 14 28 16 29 13 30 31 31 32 32 33 33
REMARK SMILES IDX 34 34 35 35 36 36 37 37 38 38 39 39 40 40 104 41 41 42
REMARK SMILES IDX 103 43 42 44 43 45 44 46 97 47 45 48 102 49 96 50 98 51
REMARK SMILES IDX 46 52 101 53 95 54 94 55 47 57 81 58 60 59 80 60 61 61 64 62
REMARK SMILES IDX 79 63 99 64 62 65 63 66 78 68 100 69 65 70 48 71 49 72 58 73
REMARK SMILES IDX 50 74 51 75 57 76 59 77 52 78 53 79 54 80 55 81 56 82 82 83
REMARK SMILES IDX 83 84 92 85 84 86 85 87 91 88 93 89 86 90 87 91 88 92 89 93
REMARK SMILES IDX 90 94 66 95 67 96 76 97 68 98 69 99 75 100 77 101 70 102
REMARK SMILES IDX 71 103 72 104 73 105 74 106
REMARK H PARENT 98 56 64 67
REMARK Flexibility Score: inf
ROOT
ATOM      1  O   UNL A   1      36.819  22.848  24.039  1.00  0.00    -0.377 OA
ENDROOT
BRANCH   1   2
ATOM      2  C   UNL A   1      36.058  23.285  25.139  1.00  0.00     0.188 C 
BRANCH   2   3
ATOM      3  C   UNL A   1      36.855  24.088  26.188  1.00  0.00     0.188 C 
BRANCH   3   4
ATOM      4  O   UNL A   1      38.241  23.883  26.409  1.00  0.00    -0.376 OA
BRANCH   4   5
ATOM      5  C   UNL A   1      39.072  24.668  27.255  1.00  0.00     0.202 C 
BRANCH   5   6
ATOM      6  C   UNL A   1      40.165  25.641  26.784  1.00  0.00     0.261 C 
BRANCH   6   7
ATOM      7  O   UNL A   1      40.646  26.525  27.785  1.00  0.00    -0.459 OA
BRANCH   7   8
ATOM      8  C   UNL A   1      40.794  27.792  27.361  1.00  0.00     0.348 C 
ATOM      9  O   UNL A   1      41.385  28.156  26.355  1.00  0.00    -0.245 OA
BRANCH   8  10
ATOM     10  C   UNL A   1      40.001  28.717  28.200  1.00  0.00     0.138 C 
ATOM     11  C   UNL A   1      39.196  29.618  27.585  1.00  0.00     0.035 C 
BRANCH  10  12
ATOM     12  C   UNL A   1      39.628  28.170  29.568  1.00  0.00     0.107 C 
ATOM     13  N   UNL A   1      39.318  27.715  30.703  1.00  0.00    -0.192 NA
ENDBRANCH  10  12
BRANCH  11  14
ATOM     14  C   UNL A   1      37.932  30.116  28.175  1.00  0.00    -0.017 A 
ATOM     15  C   UNL A   1      37.965  31.249  28.995  1.00  0.00     0.012 A 
ATOM     16  C   UNL A   1      36.685  29.594  27.826  1.00  0.00     0.098 A 
ATOM     17  C   UNL A   1      36.775  31.862  29.422  1.00  0.00     0.055 A 
ATOM     18  C   UNL A   1      35.502  30.279  28.165  1.00  0.00     0.312 A 
ATOM     19  C   UNL A   1      35.517  31.394  29.007  1.00  0.00     0.204 A 
BRANCH  18  20
ATOM     20  N   UNL A   1      34.324  29.840  27.442  1.00  0.00     0.066 N 
ATOM     21  O   UNL A   1      33.624  30.714  26.915  1.00  0.00    -0.258 OA
ATOM     22  O   UNL A   1      34.147  28.618  27.341  1.00  0.00    -0.258 OA
ENDBRANCH  18  20
BRANCH  19  23
ATOM     23  O   UNL A   1      34.485  32.156  29.513  1.00  0.00    -0.449 OA
BRANCH  23  24
ATOM     24  C   UNL A   1      34.641  32.916  30.644  1.00  0.00     0.146 A 
ATOM     25  C   UNL A   1      34.953  32.206  31.809  1.00  0.00     0.049 A 
ATOM     26  C   UNL A   1      34.455  34.302  30.704  1.00  0.00     0.083 A 
ATOM     27  C   UNL A   1      35.190  32.885  33.003  1.00  0.00     0.004 A 
ATOM     28  C   UNL A   1      34.724  34.982  31.895  1.00  0.00     0.024 A 
ATOM     29  Cl  UNL A   1      33.914  35.218  29.346  1.00  0.00    -0.080 Cl
ATOM     30  C   UNL A   1      35.103  34.276  33.039  1.00  0.00     0.002 A 
ENDBRANCH  23  24
ENDBRANCH  19  23
ENDBRANCH  11  14
ENDBRANCH   8  10
ENDBRANCH   7   8
ENDBRANCH   6   7
ENDBRANCH   5   6
ENDBRANCH   4   5
ENDBRANCH   3   4
ENDBRANCH   2   3
ENDBRANCH   1   2
BRANCH   1  31
ATOM     31  C   UNL A   1      37.017  21.445  23.923  1.00  0.00     0.188 C 
BRANCH  31  32
ATOM     32  C   UNL A   1      37.435  20.625  25.169  1.00  0.00     0.188 C 
BRANCH  32  33
ATOM     33  O   UNL A   1      38.450  19.653  24.961  1.00  0.00    -0.376 OA
BRANCH  33  34
ATOM     34  C   UNL A   1      39.596  19.624  25.800  1.00  0.00     0.202 C 
BRANCH  34  35
ATOM     35  C   UNL A   1      40.079  20.933  26.452  1.00  0.00     0.261 C 
BRANCH  35  36
ATOM     36  O   UNL A   1      41.328  20.872  27.149  1.00  0.00    -0.460 OA
BRANCH  36  37
ATOM     37  C   UNL A   1      42.383  21.489  26.578  1.00  0.00     0.338 C 
ATOM     38  O   UNL A   1      42.691  21.469  25.396  1.00  0.00    -0.246 OA
BRANCH  37  39
ATOM     39  C   UNL A   1      42.987  22.378  27.589  1.00  0.00     0.060 A 
ATOM     40  C   UNL A   1      42.152  22.997  28.530  1.00  0.00     0.016 A 
ATOM     41  C   UNL A   1      44.367  22.587  27.617  1.00  0.00     0.016 A 
ATOM     42  C   UNL A   1      42.692  23.862  29.478  1.00  0.00     0.010 A 
ATOM     43  C   UNL A   1      44.903  23.478  28.550  1.00  0.00     0.010 A 
ATOM     44  C   UNL A   1      44.062  24.148  29.457  1.00  0.00    -0.014 A 
BRANCH  44  45
ATOM     45  C   UNL A   1      44.576  25.306  30.224  1.00  0.00     0.031 A 
ATOM     46  C   UNL A   1      44.966  25.086  31.660  1.00  0.00     0.074 A 
ATOM     47  C   UNL A   1      44.721  26.516  29.656  1.00  0.00     0.049 A 
ATOM     48  N   UNL A   1      45.381  25.947  32.550  1.00  0.00    -0.248 NA
ATOM     49  C   UNL A   1      44.869  23.704  32.157  1.00  0.00     0.031 C 
ATOM     50  C   UNL A   1      44.419  26.838  28.262  1.00  0.00     0.029 A 
ATOM     51  N   UNL A   1      45.147  27.705  30.193  1.00  0.00    -0.354 N 
ATOM     52  C   UNL A   1      45.590  25.215  33.712  1.00  0.00     0.074 A 
ATOM     53  C   UNL A   1      45.218  23.847  33.426  1.00  0.00     0.031 C 
ATOM     54  C   UNL A   1      44.648  28.148  28.060  1.00  0.00     0.029 A 
ATOM     55  C   UNL A   1      45.076  28.760  29.317  1.00  0.00     0.049 A 
ATOM     56  H   UNL A   1      45.472  27.792  31.119  1.00  0.00     0.167 HD
ATOM     57  C   UNL A   1      46.061  25.642  34.908  1.00  0.00     0.037 A 
ATOM     58  C   UNL A   1      45.301  30.075  29.519  1.00  0.00     0.037 A 
ATOM     59  C   UNL A   1      46.414  27.009  35.187  1.00  0.00     0.049 A 
ATOM     60  C   UNL A   1      45.748  30.546  30.880  1.00  0.00     0.074 A 
ATOM     61  C   UNL A   1      46.900  27.548  36.365  1.00  0.00     0.029 A 
ATOM     62  N   UNL A   1      46.310  28.054  34.281  1.00  0.00    -0.354 N 
ATOM     63  N   UNL A   1      45.957  29.843  31.969  1.00  0.00    -0.248 NA
ATOM     64  C   UNL A   1      45.995  31.985  31.040  1.00  0.00     0.031 C 
ATOM     65  C   UNL A   1      47.033  28.929  36.189  1.00  0.00     0.029 A 
ATOM     66  C   UNL A   1      46.698  29.242  34.881  1.00  0.00     0.049 A 
ATOM     67  H   UNL A   1      46.004  27.966  33.350  1.00  0.00     0.167 HD
ATOM     68  C   UNL A   1      46.387  30.751  32.934  1.00  0.00     0.074 A 
ATOM     69  C   UNL A   1      46.420  32.050  32.295  1.00  0.00     0.031 C 
ATOM     70  C   UNL A   1      46.728  30.529  34.228  1.00  0.00     0.037 A 
BRANCH  57  71
ATOM     71  C   UNL A   1      46.186  24.621  36.007  1.00  0.00     0.058 A 
ATOM     72  C   UNL A   1      47.376  23.906  36.223  1.00  0.00     0.135 A 
ATOM     73  C   UNL A   1      45.103  24.360  36.863  1.00  0.00     0.135 A 
ATOM     74  F   UNL A   1      48.436  24.100  35.421  1.00  0.00    -0.206 F 
ATOM     75  C   UNL A   1      47.476  22.945  37.223  1.00  0.00     0.059 A 
ATOM     76  C   UNL A   1      45.193  23.427  37.892  1.00  0.00     0.059 A 
ATOM     77  F   UNL A   1      43.940  25.010  36.700  1.00  0.00    -0.206 F 
ATOM     78  C   UNL A   1      46.378  22.712  38.053  1.00  0.00     0.060 A 
BRANCH  78  79
ATOM     79  S   UNL A   1      46.523  21.456  39.339  1.00  0.00     0.124 S 
ATOM     80  O   UNL A   1      45.892  20.307  38.698  1.00  0.00    -0.237 OA
ATOM     81  O   UNL A   1      47.968  21.365  39.524  1.00  0.00    -0.237 OA
ATOM     82  O   UNL A   1      45.786  22.030  40.461  1.00  0.00    -0.744 OA
ENDBRANCH  78  79
ENDBRANCH  57  71
BRANCH  58  83
ATOM     83  C   UNL A   1      45.083  31.041  28.408  1.00  0.00     0.058 A 
ATOM     84  C   UNL A   1      43.904  31.792  28.310  1.00  0.00     0.135 A 
ATOM     85  C   UNL A   1      46.065  31.238  27.423  1.00  0.00     0.135 A 
ATOM     86  F   UNL A   1      42.929  31.629  29.218  1.00  0.00    -0.206 F 
ATOM     87  C   UNL A   1      43.700  32.699  27.275  1.00  0.00     0.059 A 
ATOM     88  C   UNL A   1      45.898  32.160  26.395  1.00  0.00     0.059 A 
ATOM     89  F   UNL A   1      47.217  30.550  27.473  1.00  0.00    -0.206 F 
ATOM     90  C   UNL A   1      44.708  32.882  26.326  1.00  0.00     0.060 A 
BRANCH  90  91
ATOM     91  S   UNL A   1      44.463  34.113  25.028  1.00  0.00     0.124 S 
ATOM     92  O   UNL A   1      44.495  33.287  23.827  1.00  0.00    -0.237 OA
ATOM     93  O   UNL A   1      43.163  34.674  25.384  1.00  0.00    -0.237 OA
ATOM     94  O   UNL A   1      45.595  35.016  25.205  1.00  0.00    -0.744 OA
ENDBRANCH  90  91
ENDBRANCH  58  83
BRANCH  70  95
ATOM     95  C   UNL A   1      47.205  31.706  35.038  1.00  0.00     0.058 A 
ATOM     96  C   UNL A   1      48.557  32.085  35.073  1.00  0.00     0.135 A 
ATOM     97  C   UNL A   1      46.285  32.502  35.742  1.00  0.00     0.135 A 
ATOM     98  F   UNL A   1      49.479  31.359  34.423  1.00  0.00    -0.206 F 
ATOM     99  C   UNL A   1      48.982  33.196  35.797  1.00  0.00     0.059 A 
ATOM    100  C   UNL A   1      46.683  33.634  36.445  1.00  0.00     0.059 A 
ATOM    101  F   UNL A   1      44.978  32.193  35.734  1.00  0.00    -0.206 F 
ATOM    102  C   UNL A   1      48.036  33.967  36.477  1.00  0.00     0.060 A 
BRANCH 102 103
ATOM    103  S   UNL A   1      48.598  35.423  37.384  1.00  0.00     0.124 S 
ATOM    104  O   UNL A   1      49.503  36.039  36.420  1.00  0.00    -0.237 OA
ATOM    105  O   UNL A   1      47.349  36.137  37.630  1.00  0.00    -0.237 OA
ATOM    106  O   UNL A   1      49.236  34.860  38.571  1.00  0.00    -0.744 OA
ENDBRANCH 102 103
ENDBRANCH  70  95
ENDBRANCH  44  45
ENDBRANCH  37  39
ENDBRANCH  36  37
ENDBRANCH  35  36
ENDBRANCH  34  35
ENDBRANCH  33  34
ENDBRANCH  32  33
ENDBRANCH  31  32
ENDBRANCH   1  31
TORSDOF 28
ENDMDL
MODEL 3
REMARK VINA RESULT:      -7.9      6.139     14.427
REMARK SMILES N#C/C(=C\c1ccc(Oc2ccccc2Cl)c([N+](=O)[O-])c1)C(=O)OCCOCCOCCOCCOC(=O)c1ccc(-c2c3nc(c(-c4c(F)cc(S(=O)(=O)[O-])cc4F)c4ccc([nH]4)c(-c4c(F)cc(S(=O)(=O)[O-])cc4F)c4nc(c(-c5c(F)cc(S(=O)(=O)[O-])cc5F)c5ccc2[nH]5)C=C4)C=C3)cc1
REMARK SMILES IDX 30 1 29 2 28 3 27 4 26 5 25 6 24 7 22 8 23 9 3 10 4 11 2 12
REMARK SMILES IDX 1 13 5 14 6 15 21 16 7 17 17 18 8 19 18 20 19 21 20 22 9 23
REMARK SMILES IDX 10 24 11 25 15 26 12 27 14 28 16 29 13 30 31 31 32 32 33 33
REMARK SMILES IDX 34 34 35 35 36 36 37 37 38 38 39 39 40 40 104 41 41 42
REMARK SMILES IDX 103 43 42 44 43 45 44 46 97 47 45 48 102 49 96 50 98 51
REMARK SMILES IDX 46 52 101 53 95 54 94 55 47 57 81 58 60 59 80 60 61 61 64 62
REMARK SMILES IDX 79 63 99 64 62 65 63 66 78 68 100 69 65 70 48 71 49 72 58 73
REMARK SMILES IDX 50 74 51 75 57 76 59 77 52 78 53 79 54 80 55 81 56 82 82 83
REMARK SMILES IDX 83 84 92 85 84 86 85 87 91 88 93 89 86 90 87 91 88 92 89 93
REMARK SMILES IDX 90 94 66 95 67 96 76 97 68 98 69 99 75 100 77 101 70 102
REMARK SMILES IDX 71 103 72 104 73 105 74 106
REMARK H PARENT 98 56 64 67
REMARK Flexibility Score: inf
ROOT
ATOM      1  O   UNL A   1      41.546  20.070  25.982  1.00  0.00    -0.377 OA
ENDROOT
BRANCH   1   2
ATOM      2  C   UNL A   1      42.009  19.095  26.884  1.00  0.00     0.188 C 
BRANCH   2   3
ATOM      3  C   UNL A   1      43.226  18.289  26.382  1.00  0.00     0.188 C 
BRANCH   3   4
ATOM      4  O   UNL A   1      43.831  18.531  25.122  1.00  0.00    -0.376 OA
BRANCH   4   5
ATOM      5  C   UNL A   1      45.213  18.779  24.899  1.00  0.00     0.202 C 
BRANCH   5   6
ATOM      6  C   UNL A   1      45.913  20.140  25.036  1.00  0.00     0.261 C 
BRANCH   6   7
ATOM      7  O   UNL A   1      45.095  21.182  25.547  1.00  0.00    -0.459 OA
BRANCH   7   8
ATOM      8  C   UNL A   1      44.901  22.191  24.679  1.00  0.00     0.348 C 
ATOM      9  O   UNL A   1      44.509  22.090  23.526  1.00  0.00    -0.245 OA
BRANCH   8  10
ATOM     10  C   UNL A   1      45.076  23.496  25.353  1.00  0.00     0.138 C 
ATOM     11  C   UNL A   1      46.336  23.934  25.594  1.00  0.00     0.035 C 
BRANCH  10  12
ATOM     12  C   UNL A   1      43.956  24.493  25.104  1.00  0.00     0.107 C 
ATOM     13  N   UNL A   1      43.026  25.320  24.898  1.00  0.00    -0.192 NA
ENDBRANCH  10  12
BRANCH  11  14
ATOM     14  C   UNL A   1      46.706  25.368  25.627  1.00  0.00    -0.017 A 
ATOM     15  C   UNL A   1      46.430  26.115  26.777  1.00  0.00     0.012 A 
ATOM     16  C   UNL A   1      47.457  25.971  24.615  1.00  0.00     0.098 A 
ATOM     17  C   UNL A   1      46.929  27.421  26.921  1.00  0.00     0.055 A 
ATOM     18  C   UNL A   1      48.044  27.235  24.817  1.00  0.00     0.312 A 
ATOM     19  C   UNL A   1      47.755  28.005  25.948  1.00  0.00     0.204 A 
BRANCH  18  20
ATOM     20  N   UNL A   1      49.079  27.578  23.862  1.00  0.00     0.066 N 
ATOM     21  O   UNL A   1      48.714  28.033  22.769  1.00  0.00    -0.258 OA
ATOM     22  O   UNL A   1      50.254  27.463  24.237  1.00  0.00    -0.258 OA
ENDBRANCH  18  20
BRANCH  19  23
ATOM     23  O   UNL A   1      48.158  29.276  26.300  1.00  0.00    -0.449 OA
BRANCH  23  24
ATOM     24  C   UNL A   1      49.331  29.495  26.977  1.00  0.00     0.146 A 
ATOM     25  C   UNL A   1      49.964  28.349  27.472  1.00  0.00     0.049 A 
ATOM     26  C   UNL A   1      49.875  30.758  27.239  1.00  0.00     0.083 A 
ATOM     27  C   UNL A   1      51.190  28.452  28.126  1.00  0.00     0.004 A 
ATOM     28  C   UNL A   1      51.120  30.854  27.867  1.00  0.00     0.024 A 
ATOM     29  Cl  UNL A   1      49.068  32.218  26.800  1.00  0.00    -0.080 Cl
ATOM     30  C   UNL A   1      51.782  29.702  28.298  1.00  0.00     0.002 A 
ENDBRANCH  23  24
ENDBRANCH  19  23
ENDBRANCH  11  14
ENDBRANCH   8  10
ENDBRANCH   7   8
ENDBRANCH   6   7
ENDBRANCH   5   6
ENDBRANCH   4   5
ENDBRANCH   3   4
ENDBRANCH   2   3
ENDBRANCH   1   2
BRANCH   1  31
ATOM     31  C   UNL A   1      41.711  21.426  26.374  1.00  0.00     0.188 C 
BRANCH  31  32
ATOM     32  C   UNL A   1      41.251  21.878  27.782  1.00  0.00     0.188 C 
BRANCH  32  33
ATOM     33  O   UNL A   1      40.805  23.222  27.888  1.00  0.00    -0.376 OA
BRANCH  33  34
ATOM     34  C   UNL A   1      39.660  23.656  27.168  1.00  0.00     0.202 C 
BRANCH  34  35
ATOM     35  C   UNL A   1      39.222  25.128  27.274  1.00  0.00     0.261 C 
BRANCH  35  36
ATOM     36  O   UNL A   1      39.660  25.838  28.438  1.00  0.00    -0.460 OA
BRANCH  36  37
ATOM     37  C   UNL A   1      39.730  27.182  28.349  1.00  0.00     0.338 C 
ATOM     38  O   UNL A   1      38.796  27.956  28.207  1.00  0.00    -0.246 OA
BRANCH  37  39
ATOM     39  C   UNL A   1      41.113  27.583  28.669  1.00  0.00     0.060 A 
ATOM     40  C   UNL A   1      41.426  27.934  29.990  1.00  0.00     0.016 A 
ATOM     41  C   UNL A   1      42.096  27.600  27.677  1.00  0.00     0.016 A 
ATOM     42  C   UNL A   1      42.718  28.343  30.315  1.00  0.00     0.010 A 
ATOM     43  C   UNL A   1      43.383  28.038  27.998  1.00  0.00     0.010 A 
ATOM     44  C   UNL A   1      43.686  28.448  29.309  1.00  0.00    -0.014 A 
BRANCH  44  45
ATOM     45  C   UNL A   1      44.936  29.196  29.578  1.00  0.00     0.031 A 
ATOM     46  C   UNL A   1      46.087  28.450  30.195  1.00  0.00     0.074 A 
ATOM     47  C   UNL A   1      45.060  30.497  29.259  1.00  0.00     0.049 A 
ATOM     48  N   UNL A   1      47.255  28.892  30.580  1.00  0.00    -0.248 NA
ATOM     49  C   UNL A   1      45.888  27.007  30.411  1.00  0.00     0.031 C 
ATOM     50  C   UNL A   1      44.030  31.311  28.617  1.00  0.00     0.029 A 
ATOM     51  N   UNL A   1      46.108  31.362  29.447  1.00  0.00    -0.354 N 
ATOM     52  C   UNL A   1      47.927  27.787  31.086  1.00  0.00     0.074 A 
ATOM     53  C   UNL A   1      47.023  26.661  30.997  1.00  0.00     0.031 C 
ATOM     54  C   UNL A   1      44.490  32.568  28.487  1.00  0.00     0.029 A 
ATOM     55  C   UNL A   1      45.829  32.652  29.068  1.00  0.00     0.049 A 
ATOM     56  H   UNL A   1      46.976  31.084  29.820  1.00  0.00     0.167 HD
ATOM     57  C   UNL A   1      49.189  27.713  31.571  1.00  0.00     0.037 A 
ATOM     58  C   UNL A   1      46.562  33.777  29.205  1.00  0.00     0.037 A 
ATOM     59  C   UNL A   1      50.076  28.843  31.669  1.00  0.00     0.049 A 
ATOM     60  C   UNL A   1      47.936  33.691  29.821  1.00  0.00     0.074 A 
ATOM     61  C   UNL A   1      51.374  28.878  32.146  1.00  0.00     0.029 A 
ATOM     62  N   UNL A   1      49.752  30.138  31.293  1.00  0.00    -0.354 N 
ATOM     63  N   UNL A   1      48.569  32.638  30.283  1.00  0.00    -0.248 NA
ATOM     64  C   UNL A   1      48.696  34.943  29.930  1.00  0.00     0.031 C 
ATOM     65  C   UNL A   1      51.814  30.205  32.113  1.00  0.00     0.029 A 
ATOM     66  C   UNL A   1      50.816  30.987  31.551  1.00  0.00     0.049 A 
ATOM     67  H   UNL A   1      48.892  30.415  30.902  1.00  0.00     0.167 HD
ATOM     68  C   UNL A   1      49.812  33.096  30.711  1.00  0.00     0.074 A 
ATOM     69  C   UNL A   1      49.845  34.519  30.441  1.00  0.00     0.031 C 
ATOM     70  C   UNL A   1      50.834  32.403  31.272  1.00  0.00     0.037 A 
BRANCH  57  71
ATOM     71  C   UNL A   1      49.666  26.372  32.060  1.00  0.00     0.058 A 
ATOM     72  C   UNL A   1      50.390  25.496  31.235  1.00  0.00     0.135 A 
ATOM     73  C   UNL A   1      49.402  25.960  33.377  1.00  0.00     0.135 A 
ATOM     74  F   UNL A   1      50.652  25.829  29.961  1.00  0.00    -0.206 F 
ATOM     75  C   UNL A   1      50.804  24.247  31.685  1.00  0.00     0.059 A 
ATOM     76  C   UNL A   1      49.837  24.729  33.859  1.00  0.00     0.059 A 
ATOM     77  F   UNL A   1      48.711  26.755  34.209  1.00  0.00    -0.206 F 
ATOM     78  C   UNL A   1      50.522  23.872  33.000  1.00  0.00     0.060 A 
BRANCH  78  79
ATOM     79  S   UNL A   1      51.059  22.245  33.565  1.00  0.00     0.124 S 
ATOM     80  O   UNL A   1      51.932  22.597  34.680  1.00  0.00    -0.237 OA
ATOM     81  O   UNL A   1      49.796  21.609  33.924  1.00  0.00    -0.237 OA
ATOM     82  O   UNL A   1      51.731  21.683  32.397  1.00  0.00    -0.744 OA
ENDBRANCH  78  79
ENDBRANCH  57  71
BRANCH  58  83
ATOM     83  C   UNL A   1      45.998  35.083  28.769  1.00  0.00     0.058 A 
ATOM     84  C   UNL A   1      45.166  35.839  29.607  1.00  0.00     0.135 A 
ATOM     85  C   UNL A   1      46.293  35.607  27.499  1.00  0.00     0.135 A 
ATOM     86  F   UNL A   1      44.842  35.375  30.824  1.00  0.00    -0.206 F 
ATOM     87  C   UNL A   1      44.642  37.063  29.203  1.00  0.00     0.059 A 
ATOM     88  C   UNL A   1      45.805  36.842  27.084  1.00  0.00     0.059 A 
ATOM     89  F   UNL A   1      47.091  34.929  26.660  1.00  0.00    -0.206 F 
ATOM     90  C   UNL A   1      44.974  37.560  27.942  1.00  0.00     0.060 A 
BRANCH  90  91
ATOM     91  S   UNL A   1      44.347  39.182  27.457  1.00  0.00     0.124 S 
ATOM     92  O   UNL A   1      44.805  40.019  28.560  1.00  0.00    -0.237 OA
ATOM     93  O   UNL A   1      45.012  39.393  26.175  1.00  0.00    -0.237 OA
ATOM     94  O   UNL A   1      42.905  38.974  27.378  1.00  0.00    -0.744 OA
ENDBRANCH  90  91
ENDBRANCH  58  83
BRANCH  70  95
ATOM     95  C   UNL A   1      52.096  33.159  31.599  1.00  0.00     0.058 A 
ATOM     96  C   UNL A   1      52.318  33.723  32.865  1.00  0.00     0.135 A 
ATOM     97  C   UNL A   1      53.124  33.266  30.646  1.00  0.00     0.135 A 
ATOM     98  F   UNL A   1      51.369  33.654  33.812  1.00  0.00    -0.206 F 
ATOM     99  C   UNL A   1      53.503  34.389  33.167  1.00  0.00     0.059 A 
ATOM    100  C   UNL A   1      54.329  33.898  30.936  1.00  0.00     0.059 A 
ATOM    101  F   UNL A   1      52.971  32.734  29.423  1.00  0.00    -0.206 F 
ATOM    102  C   UNL A   1      54.505  34.467  32.196  1.00  0.00     0.060 A 
BRANCH 102 103
ATOM    103  S   UNL A   1      56.049  35.305  32.613  1.00  0.00     0.124 S 
ATOM    104  O   UNL A   1      55.574  36.393  33.461  1.00  0.00    -0.237 OA
ATOM    105  O   UNL A   1      56.800  34.252  33.292  1.00  0.00    -0.237 OA
ATOM    106  O   UNL A   1      56.580  35.708  31.315  1.00  0.00    -0.744 OA
ENDBRANCH 102 103
ENDBRANCH  70  95
ENDBRANCH  44  45
ENDBRANCH  37  39
ENDBRANCH  36  37
ENDBRANCH  35  36
ENDBRANCH  34  35
ENDBRANCH  33  34
ENDBRANCH  32  33
ENDBRANCH  31  32
ENDBRANCH   1  31
TORSDOF 28
ENDMDL
