MODEL 1
REMARK VINA RESULT:      -9.6      0.000      0.000
REMARK SMILES O=C(Cn1nc(C(=O)OCCOCCOCCOCCOC(=O)c2ccc(-c3c4nc(c(-c5c(F)cc(S(=O)(=O)[O-])cc5F)c5ccc([nH]5)c(-c5c(F)cc(S(=O)(=O)[O-])cc5F)c5nc(c(-c6c(F)cc(S(=O)(=O)[O-])cc6F)c6ccc3[nH]6)C=C5)C=C4)cc2)c2ccccc2c1=O)Nc1ccc2c(c1)C(=O)c1ccccc1C2=O
REMARK SMILES IDX 15 1 14 2 13 3 12 4 11 5 10 6 9 7 7 8 8 9 6 10 4 11 5 12
REMARK SMILES IDX 96 13 95 14 97 15 90 16 94 17 91 18 93 19 92 20 3 21 2 22
REMARK SMILES IDX 1 23 98 24 99 26 100 27 104 28 101 29 103 30 102 31 105 32
REMARK SMILES IDX 113 33 106 34 107 35 112 36 114 37 108 38 111 39 109 40
REMARK SMILES IDX 110 41 16 42 17 43 18 44 19 45 20 46 21 47 22 48 23 49 24 50
REMARK SMILES IDX 25 51 89 52 26 53 88 54 27 55 28 56 29 57 82 58 30 59 87 60
REMARK SMILES IDX 81 61 83 62 31 63 86 64 80 65 79 66 32 68 66 69 45 70 65 71
REMARK SMILES IDX 46 72 49 73 64 74 84 75 47 76 48 77 63 79 85 80 50 81 33 82
REMARK SMILES IDX 34 83 43 84 35 85 36 86 42 87 44 88 37 89 38 90 39 91 40 92
REMARK SMILES IDX 41 93 67 94 68 95 77 96 69 97 70 98 76 99 78 100 71 101
REMARK SMILES IDX 72 102 73 103 74 104 75 105 51 106 52 107 61 108 53 109
REMARK SMILES IDX 54 110 60 111 62 112 55 113 56 114 57 115 58 116 59 117
REMARK H PARENT 98 25 83 67 49 78
REMARK Flexibility Score: inf
ROOT
ATOM      1  O   UNL A   1      39.554  28.670  27.337  1.00  0.00    -0.377 OA
ENDROOT
BRANCH   1   2
ATOM      2  C   UNL A   1      39.136  28.718  28.687  1.00  0.00     0.188 C 
BRANCH   2   3
ATOM      3  C   UNL A   1      39.719  29.788  29.624  1.00  0.00     0.188 C 
BRANCH   3   4
ATOM      4  O   UNL A   1      39.282  29.724  30.978  1.00  0.00    -0.376 OA
BRANCH   4   5
ATOM      5  C   UNL A   1      37.905  29.413  31.173  1.00  0.00     0.202 C 
BRANCH   5   6
ATOM      6  C   UNL A   1      37.295  30.138  32.372  1.00  0.00     0.261 C 
BRANCH   6   7
ATOM      7  O   UNL A   1      37.145  31.544  32.137  1.00  0.00    -0.458 OA
BRANCH   7   8
ATOM      8  C   UNL A   1      35.948  32.088  32.416  1.00  0.00     0.359 C 
ATOM      9  O   UNL A   1      35.453  32.302  33.506  1.00  0.00    -0.244 OA
BRANCH   8  10
ATOM     10  C   UNL A   1      35.317  32.551  31.113  1.00  0.00     0.176 A 
ATOM     11  N   UNL A   1      35.100  32.276  28.836  1.00  0.00    -0.219 N 
ATOM     12  N   UNL A   1      35.612  31.872  30.044  1.00  0.00    -0.161 NA
ATOM     13  C   UNL A   1      34.141  33.274  28.696  1.00  0.00     0.275 A 
ATOM     14  C   UNL A   1      33.881  34.100  29.892  1.00  0.00     0.051 A 
ATOM     15  O   UNL A   1      33.544  33.519  27.650  1.00  0.00    -0.267 OA
ATOM     16  C   UNL A   1      34.459  33.750  31.107  1.00  0.00     0.022 A 
ATOM     17  C   UNL A   1      33.090  35.254  29.792  1.00  0.00     0.014 A 
ATOM     18  C   UNL A   1      34.235  34.550  32.236  1.00  0.00     0.011 A 
ATOM     19  C   UNL A   1      32.885  36.059  30.911  1.00  0.00     0.001 A 
ATOM     20  C   UNL A   1      33.456  35.706  32.133  1.00  0.00     0.001 A 
BRANCH  11  21
ATOM     21  C   UNL A   1      35.563  31.546  27.653  1.00  0.00     0.248 C 
BRANCH  21  22
ATOM     22  C   UNL A   1      34.780  30.229  27.559  1.00  0.00     0.246 C 
ATOM     23  O   UNL A   1      35.180  29.194  28.087  1.00  0.00    -0.273 OA
ATOM     24  N   UNL A   1      33.682  30.314  26.707  1.00  0.00    -0.324 N 
ATOM     25  H   UNL A   1      33.158  31.149  26.723  1.00  0.00     0.169 HD
BRANCH  24  26
ATOM     26  C   UNL A   1      33.259  29.297  25.821  1.00  0.00     0.042 A 
ATOM     27  C   UNL A   1      33.661  29.412  24.479  1.00  0.00     0.027 A 
ATOM     28  C   UNL A   1      32.691  28.104  26.270  1.00  0.00     0.039 A 
ATOM     29  C   UNL A   1      33.664  28.294  23.640  1.00  0.00     0.015 A 
ATOM     30  C   UNL A   1      32.759  26.979  25.454  1.00  0.00     0.036 A 
ATOM     31  C   UNL A   1      33.298  27.059  24.171  1.00  0.00     0.034 A 
ATOM     32  C   UNL A   1      32.548  25.652  26.061  1.00  0.00     0.194 C 
ATOM     33  C   UNL A   1      33.744  25.814  23.507  1.00  0.00     0.194 C 
ATOM     34  O   UNL A   1      31.695  25.437  26.908  1.00  0.00    -0.289 OA
ATOM     35  C   UNL A   1      33.528  24.626  25.673  1.00  0.00     0.034 A 
ATOM     36  C   UNL A   1      34.128  24.709  24.416  1.00  0.00     0.034 A 
ATOM     37  O   UNL A   1      33.922  25.747  22.300  1.00  0.00    -0.289 OA
ATOM     38  C   UNL A   1      33.964  23.693  26.614  1.00  0.00     0.013 A 
ATOM     39  C   UNL A   1      35.183  23.857  24.089  1.00  0.00     0.013 A 
ATOM     40  C   UNL A   1      35.042  22.868  26.302  1.00  0.00     0.001 A 
ATOM     41  C   UNL A   1      35.652  22.951  25.044  1.00  0.00     0.001 A 
ENDBRANCH  24  26
ENDBRANCH  21  22
ENDBRANCH  11  21
ENDBRANCH   8  10
ENDBRANCH   7   8
ENDBRANCH   6   7
ENDBRANCH   5   6
ENDBRANCH   4   5
ENDBRANCH   3   4
ENDBRANCH   2   3
ENDBRANCH   1   2
BRANCH   1  42
ATOM     42  C   UNL A   1      40.790  28.070  26.991  1.00  0.00     0.188 C 
BRANCH  42  43
ATOM     43  C   UNL A   1      41.467  27.088  27.960  1.00  0.00     0.188 C 
BRANCH  43  44
ATOM     44  O   UNL A   1      41.762  25.807  27.407  1.00  0.00    -0.376 OA
BRANCH  44  45
ATOM     45  C   UNL A   1      42.655  25.006  28.174  1.00  0.00     0.202 C 
BRANCH  45  46
ATOM     46  C   UNL A   1      44.082  25.012  27.618  1.00  0.00     0.261 C 
BRANCH  46  47
ATOM     47  O   UNL A   1      44.943  25.986  28.222  1.00  0.00    -0.460 OA
BRANCH  47  48
ATOM     48  C   UNL A   1      45.439  26.952  27.420  1.00  0.00     0.338 C 
ATOM     49  O   UNL A   1      45.880  26.822  26.292  1.00  0.00    -0.246 OA
BRANCH  48  50
ATOM     50  C   UNL A   1      45.199  28.248  28.085  1.00  0.00     0.060 A 
ATOM     51  C   UNL A   1      45.758  28.517  29.338  1.00  0.00     0.016 A 
ATOM     52  C   UNL A   1      44.377  29.187  27.452  1.00  0.00     0.016 A 
ATOM     53  C   UNL A   1      45.522  29.750  29.944  1.00  0.00     0.010 A 
ATOM     54  C   UNL A   1      44.131  30.415  28.067  1.00  0.00     0.010 A 
ATOM     55  C   UNL A   1      44.726  30.711  29.303  1.00  0.00    -0.014 A 
BRANCH  55  56
ATOM     56  C   UNL A   1      44.690  32.091  29.836  1.00  0.00     0.031 A 
ATOM     57  C   UNL A   1      43.695  32.520  30.866  1.00  0.00     0.074 A 
ATOM     58  C   UNL A   1      45.614  32.953  29.371  1.00  0.00     0.049 A 
ATOM     59  N   UNL A   1      43.617  33.663  31.496  1.00  0.00    -0.248 NA
ATOM     60  C   UNL A   1      42.655  31.550  31.235  1.00  0.00     0.031 C 
ATOM     61  C   UNL A   1      46.622  32.632  28.355  1.00  0.00     0.029 A 
ATOM     62  N   UNL A   1      45.866  34.259  29.693  1.00  0.00    -0.354 N 
ATOM     63  C   UNL A   1      42.537  33.548  32.360  1.00  0.00     0.074 A 
ATOM     64  C   UNL A   1      41.963  32.235  32.140  1.00  0.00     0.031 C 
ATOM     65  C   UNL A   1      47.392  33.709  28.148  1.00  0.00     0.029 A 
ATOM     66  C   UNL A   1      46.931  34.793  29.009  1.00  0.00     0.049 A 
ATOM     67  H   UNL A   1      45.335  34.766  30.349  1.00  0.00     0.167 HD
ATOM     68  C   UNL A   1      42.085  34.452  33.263  1.00  0.00     0.037 A 
ATOM     69  C   UNL A   1      47.485  36.017  29.078  1.00  0.00     0.037 A 
ATOM     70  C   UNL A   1      42.659  35.761  33.459  1.00  0.00     0.049 A 
ATOM     71  C   UNL A   1      46.940  37.011  30.059  1.00  0.00     0.074 A 
ATOM     72  C   UNL A   1      42.297  36.731  34.378  1.00  0.00     0.029 A 
ATOM     73  N   UNL A   1      43.708  36.288  32.718  1.00  0.00    -0.354 N 
ATOM     74  N   UNL A   1      45.958  36.865  30.915  1.00  0.00    -0.248 NA
ATOM     75  C   UNL A   1      47.581  38.331  30.090  1.00  0.00     0.031 C 
ATOM     76  C   UNL A   1      43.101  37.857  34.167  1.00  0.00     0.029 A 
ATOM     77  C   UNL A   1      43.988  37.578  33.140  1.00  0.00     0.049 A 
ATOM     78  H   UNL A   1      44.184  35.814  31.998  1.00  0.00     0.167 HD
ATOM     79  C   UNL A   1      45.871  38.070  31.599  1.00  0.00     0.074 A 
ATOM     80  C   UNL A   1      46.907  38.931  31.062  1.00  0.00     0.031 C 
ATOM     81  C   UNL A   1      45.011  38.428  32.584  1.00  0.00     0.037 A 
BRANCH  68  82
ATOM     82  C   UNL A   1      40.917  34.059  34.122  1.00  0.00     0.058 A 
ATOM     83  C   UNL A   1      41.108  33.466  35.379  1.00  0.00     0.135 A 
ATOM     84  C   UNL A   1      39.601  34.342  33.724  1.00  0.00     0.135 A 
ATOM     85  F   UNL A   1      42.346  33.169  35.805  1.00  0.00    -0.206 F 
ATOM     86  C   UNL A   1      40.034  33.154  36.208  1.00  0.00     0.059 A 
ATOM     87  C   UNL A   1      38.512  34.054  34.542  1.00  0.00     0.059 A 
ATOM     88  F   UNL A   1      39.363  34.910  32.531  1.00  0.00    -0.206 F 
ATOM     89  C   UNL A   1      38.738  33.452  35.780  1.00  0.00     0.060 A 
BRANCH  89  90
ATOM     90  S   UNL A   1      37.356  33.056  36.873  1.00  0.00     0.124 S 
ATOM     91  O   UNL A   1      37.379  31.596  36.852  1.00  0.00    -0.237 OA
ATOM     92  O   UNL A   1      37.763  33.677  38.130  1.00  0.00    -0.237 OA
ATOM     93  O   UNL A   1      36.212  33.676  36.213  1.00  0.00    -0.744 OA
ENDBRANCH  89  90
ENDBRANCH  68  82
BRANCH  69  94
ATOM     94  C   UNL A   1      48.647  36.334  28.216  1.00  0.00     0.058 A 
ATOM     95  C   UNL A   1      49.934  35.897  28.559  1.00  0.00     0.135 A 
ATOM     96  C   UNL A   1      48.484  37.020  27.003  1.00  0.00     0.135 A 
ATOM     97  F   UNL A   1      50.133  35.236  29.709  1.00  0.00    -0.206 F 
ATOM     98  C   UNL A   1      51.023  36.128  27.728  1.00  0.00     0.059 A 
ATOM     99  C   UNL A   1      49.555  37.249  26.147  1.00  0.00     0.059 A 
ATOM    100  F   UNL A   1      47.266  37.439  26.627  1.00  0.00    -0.206 F 
ATOM    101  C   UNL A   1      50.822  36.801  26.520  1.00  0.00     0.060 A 
BRANCH 101 102
ATOM    102  S   UNL A   1      52.231  37.033  25.414  1.00  0.00     0.124 S 
ATOM    103  O   UNL A   1      52.502  38.456  25.580  1.00  0.00    -0.237 OA
ATOM    104  O   UNL A   1      53.221  36.123  25.981  1.00  0.00    -0.237 OA
ATOM    105  O   UNL A   1      51.702  36.638  24.112  1.00  0.00    -0.744 OA
ENDBRANCH 101 102
ENDBRANCH  69  94
BRANCH  81 106
ATOM    106  C   UNL A   1      45.151  39.815  33.140  1.00  0.00     0.058 A 
ATOM    107  C   UNL A   1      45.981  40.079  34.240  1.00  0.00     0.135 A 
ATOM    108  C   UNL A   1      44.484  40.897  32.544  1.00  0.00     0.135 A 
ATOM    109  F   UNL A   1      46.631  39.075  34.851  1.00  0.00    -0.206 F 
ATOM    110  C   UNL A   1      46.137  41.368  34.738  1.00  0.00     0.059 A 
ATOM    111  C   UNL A   1      44.640  42.197  33.014  1.00  0.00     0.059 A 
ATOM    112  F   UNL A   1      43.681  40.697  31.486  1.00  0.00    -0.206 F 
ATOM    113  C   UNL A   1      45.463  42.421  34.118  1.00  0.00     0.060 A 
BRANCH 113 114
ATOM    114  S   UNL A   1      45.703  44.095  34.750  1.00  0.00     0.124 S 
ATOM    115  O   UNL A   1      46.808  44.566  33.922  1.00  0.00    -0.237 OA
ATOM    116  O   UNL A   1      44.408  44.717  34.493  1.00  0.00    -0.237 OA
ATOM    117  O   UNL A   1      46.020  43.883  36.160  1.00  0.00    -0.744 OA
ENDBRANCH 113 114
ENDBRANCH  81 106
ENDBRANCH  55  56
ENDBRANCH  48  50
ENDBRANCH  47  48
ENDBRANCH  46  47
ENDBRANCH  45  46
ENDBRANCH  44  45
ENDBRANCH  43  44
ENDBRANCH  42  43
ENDBRANCH   1  42
TORSDOF 26
ENDMDL
MODEL 2
REMARK VINA RESULT:      -9.4      0.750      7.495
REMARK SMILES O=C(Cn1nc(C(=O)OCCOCCOCCOCCOC(=O)c2ccc(-c3c4nc(c(-c5c(F)cc(S(=O)(=O)[O-])cc5F)c5ccc([nH]5)c(-c5c(F)cc(S(=O)(=O)[O-])cc5F)c5nc(c(-c6c(F)cc(S(=O)(=O)[O-])cc6F)c6ccc3[nH]6)C=C5)C=C4)cc2)c2ccccc2c1=O)Nc1ccc2c(c1)C(=O)c1ccccc1C2=O
REMARK SMILES IDX 15 1 14 2 13 3 12 4 11 5 10 6 9 7 7 8 8 9 6 10 4 11 5 12
REMARK SMILES IDX 96 13 95 14 97 15 90 16 94 17 91 18 93 19 92 20 3 21 2 22
REMARK SMILES IDX 1 23 98 24 99 26 100 27 104 28 101 29 103 30 102 31 105 32
REMARK SMILES IDX 113 33 106 34 107 35 112 36 114 37 108 38 111 39 109 40
REMARK SMILES IDX 110 41 16 42 17 43 18 44 19 45 20 46 21 47 22 48 23 49 24 50
REMARK SMILES IDX 25 51 89 52 26 53 88 54 27 55 28 56 29 57 82 58 30 59 87 60
REMARK SMILES IDX 81 61 83 62 31 63 86 64 80 65 79 66 32 68 66 69 45 70 65 71
REMARK SMILES IDX 46 72 49 73 64 74 84 75 47 76 48 77 63 79 85 80 50 81 33 82
REMARK SMILES IDX 34 83 43 84 35 85 36 86 42 87 44 88 37 89 38 90 39 91 40 92
REMARK SMILES IDX 41 93 67 94 68 95 77 96 69 97 70 98 76 99 78 100 71 101
REMARK SMILES IDX 72 102 73 103 74 104 75 105 51 106 52 107 61 108 53 109
REMARK SMILES IDX 54 110 60 111 62 112 55 113 56 114 57 115 58 116 59 117
REMARK H PARENT 98 25 83 67 49 78
REMARK Flexibility Score: inf
ROOT
ATOM      1  O   UNL A   1      39.017  29.151  27.715  1.00  0.00    -0.377 OA
ENDROOT
BRANCH   1   2
ATOM      2  C   UNL A   1      39.138  29.138  29.124  1.00  0.00     0.188 C 
BRANCH   2   3
ATOM      3  C   UNL A   1      39.795  30.329  29.839  1.00  0.00     0.188 C 
BRANCH   3   4
ATOM      4  O   UNL A   1      39.379  30.544  31.185  1.00  0.00    -0.376 OA
BRANCH   4   5
ATOM      5  C   UNL A   1      38.132  29.961  31.550  1.00  0.00     0.202 C 
BRANCH   5   6
ATOM      6  C   UNL A   1      37.422  30.726  32.667  1.00  0.00     0.261 C 
BRANCH   6   7
ATOM      7  O   UNL A   1      37.025  32.040  32.257  1.00  0.00    -0.458 OA
BRANCH   7   8
ATOM      8  C   UNL A   1      35.722  32.350  32.372  1.00  0.00     0.359 C 
ATOM      9  O   UNL A   1      35.054  32.437  33.385  1.00  0.00    -0.244 OA
BRANCH   8  10
ATOM     10  C   UNL A   1      35.199  32.733  30.997  1.00  0.00     0.176 A 
ATOM     11  N   UNL A   1      35.134  32.298  28.735  1.00  0.00    -0.219 N 
ATOM     12  N   UNL A   1      35.548  31.971  30.003  1.00  0.00    -0.161 NA
ATOM     13  C   UNL A   1      34.217  33.307  28.456  1.00  0.00     0.275 A 
ATOM     14  C   UNL A   1      33.899  34.223  29.569  1.00  0.00     0.051 A 
ATOM     15  O   UNL A   1      33.703  33.489  27.355  1.00  0.00    -0.267 OA
ATOM     16  C   UNL A   1      34.379  33.949  30.845  1.00  0.00     0.022 A 
ATOM     17  C   UNL A   1      33.151  35.386  29.331  1.00  0.00     0.014 A 
ATOM     18  C   UNL A   1      34.100  34.834  31.895  1.00  0.00     0.011 A 
ATOM     19  C   UNL A   1      32.892  36.275  30.373  1.00  0.00     0.001 A 
ATOM     20  C   UNL A   1      33.365  35.998  31.654  1.00  0.00     0.001 A 
BRANCH  11  21
ATOM     21  C   UNL A   1      35.658  31.473  27.644  1.00  0.00     0.248 C 
BRANCH  21  22
ATOM     22  C   UNL A   1      34.812  30.195  27.555  1.00  0.00     0.246 C 
ATOM     23  O   UNL A   1      35.146  29.153  28.115  1.00  0.00    -0.273 OA
ATOM     24  N   UNL A   1      33.743  30.315  26.671  1.00  0.00    -0.324 N 
ATOM     25  H   UNL A   1      33.262  31.174  26.655  1.00  0.00     0.169 HD
BRANCH  24  26
ATOM     26  C   UNL A   1      33.294  29.300  25.795  1.00  0.00     0.042 A 
ATOM     27  C   UNL A   1      33.677  29.406  24.447  1.00  0.00     0.027 A 
ATOM     28  C   UNL A   1      32.719  28.115  26.257  1.00  0.00     0.039 A 
ATOM     29  C   UNL A   1      33.654  28.285  23.611  1.00  0.00     0.015 A 
ATOM     30  C   UNL A   1      32.761  26.987  25.442  1.00  0.00     0.036 A 
ATOM     31  C   UNL A   1      33.281  27.057  24.151  1.00  0.00     0.034 A 
ATOM     32  C   UNL A   1      32.543  25.665  26.057  1.00  0.00     0.194 C 
ATOM     33  C   UNL A   1      33.701  25.805  23.485  1.00  0.00     0.194 C 
ATOM     34  O   UNL A   1      31.701  25.463  26.917  1.00  0.00    -0.289 OA
ATOM     35  C   UNL A   1      33.505  24.625  25.657  1.00  0.00     0.034 A 
ATOM     36  C   UNL A   1      34.086  24.697  24.390  1.00  0.00     0.034 A 
ATOM     37  O   UNL A   1      33.860  25.732  22.275  1.00  0.00    -0.289 OA
ATOM     38  C   UNL A   1      33.943  23.690  26.595  1.00  0.00     0.013 A 
ATOM     39  C   UNL A   1      35.125  23.832  24.050  1.00  0.00     0.013 A 
ATOM     40  C   UNL A   1      35.006  22.851  26.268  1.00  0.00     0.001 A 
ATOM     41  C   UNL A   1      35.597  22.923  25.001  1.00  0.00     0.001 A 
ENDBRANCH  24  26
ENDBRANCH  21  22
ENDBRANCH  11  21
ENDBRANCH   8  10
ENDBRANCH   7   8
ENDBRANCH   6   7
ENDBRANCH   5   6
ENDBRANCH   4   5
ENDBRANCH   3   4
ENDBRANCH   2   3
ENDBRANCH   1   2
BRANCH   1  42
ATOM     42  C   UNL A   1      40.121  28.806  26.897  1.00  0.00     0.188 C 
BRANCH  42  43
ATOM     43  C   UNL A   1      41.281  27.983  27.479  1.00  0.00     0.188 C 
BRANCH  43  44
ATOM     44  O   UNL A   1      41.176  26.575  27.280  1.00  0.00    -0.376 OA
BRANCH  44  45
ATOM     45  C   UNL A   1      42.062  25.783  28.064  1.00  0.00     0.202 C 
BRANCH  45  46
ATOM     46  C   UNL A   1      43.260  25.265  27.263  1.00  0.00     0.261 C 
BRANCH  46  47
ATOM     47  O   UNL A   1      44.525  25.770  27.709  1.00  0.00    -0.460 OA
BRANCH  47  48
ATOM     48  C   UNL A   1      45.150  26.661  26.909  1.00  0.00     0.338 C 
ATOM     49  O   UNL A   1      45.559  26.477  25.777  1.00  0.00    -0.246 OA
BRANCH  48  50
ATOM     50  C   UNL A   1      45.105  27.973  27.585  1.00  0.00     0.060 A 
ATOM     51  C   UNL A   1      45.686  28.142  28.846  1.00  0.00     0.016 A 
ATOM     52  C   UNL A   1      44.442  29.031  26.954  1.00  0.00     0.016 A 
ATOM     53  C   UNL A   1      45.636  29.391  29.462  1.00  0.00     0.010 A 
ATOM     54  C   UNL A   1      44.381  30.277  27.580  1.00  0.00     0.010 A 
ATOM     55  C   UNL A   1      45.002  30.469  28.824  1.00  0.00    -0.014 A 
BRANCH  55  56
ATOM     56  C   UNL A   1      45.173  31.833  29.369  1.00  0.00     0.031 A 
ATOM     57  C   UNL A   1      46.236  32.759  28.874  1.00  0.00     0.074 A 
ATOM     58  C   UNL A   1      44.310  32.225  30.326  1.00  0.00     0.049 A 
ATOM     59  N   UNL A   1      46.434  34.014  29.185  1.00  0.00    -0.248 NA
ATOM     60  C   UNL A   1      47.203  32.214  27.911  1.00  0.00     0.031 C 
ATOM     61  C   UNL A   1      43.244  31.388  30.885  1.00  0.00     0.029 A 
ATOM     62  N   UNL A   1      44.182  33.417  30.985  1.00  0.00    -0.354 N 
ATOM     63  C   UNL A   1      47.530  34.423  28.440  1.00  0.00     0.074 A 
ATOM     64  C   UNL A   1      47.982  33.268  27.690  1.00  0.00     0.031 C 
ATOM     65  C   UNL A   1      42.561  32.099  31.794  1.00  0.00     0.029 A 
ATOM     66  C   UNL A   1      43.143  33.434  31.884  1.00  0.00     0.049 A 
ATOM     67  H   UNL A   1      44.776  34.186  30.831  1.00  0.00     0.167 HD
ATOM     68  C   UNL A   1      48.088  35.657  28.377  1.00  0.00     0.037 A 
ATOM     69  C   UNL A   1      42.698  34.421  32.683  1.00  0.00     0.037 A 
ATOM     70  C   UNL A   1      47.635  36.794  29.141  1.00  0.00     0.049 A 
ATOM     71  C   UNL A   1      43.359  35.764  32.621  1.00  0.00     0.074 A 
ATOM     72  C   UNL A   1      48.110  38.094  29.115  1.00  0.00     0.029 A 
ATOM     73  N   UNL A   1      46.609  36.765  30.076  1.00  0.00    -0.354 N 
ATOM     74  N   UNL A   1      44.355  36.155  31.862  1.00  0.00    -0.248 NA
ATOM     75  C   UNL A   1      42.834  36.803  33.516  1.00  0.00     0.031 C 
ATOM     76  C   UNL A   1      47.397  38.841  30.060  1.00  0.00     0.029 A 
ATOM     77  C   UNL A   1      46.455  38.016  30.652  1.00  0.00     0.049 A 
ATOM     78  H   UNL A   1      46.070  35.972  30.298  1.00  0.00     0.167 HD
ATOM     79  C   UNL A   1      44.568  37.490  32.177  1.00  0.00     0.074 A 
ATOM     80  C   UNL A   1      43.590  37.843  33.189  1.00  0.00     0.031 C 
ATOM     81  C   UNL A   1      45.489  38.347  31.670  1.00  0.00     0.037 A 
BRANCH  68  82
ATOM     82  C   UNL A   1      49.248  35.854  27.443  1.00  0.00     0.058 A 
ATOM     83  C   UNL A   1      49.063  36.387  26.158  1.00  0.00     0.135 A 
ATOM     84  C   UNL A   1      50.562  35.579  27.855  1.00  0.00     0.135 A 
ATOM     85  F   UNL A   1      47.826  36.661  25.712  1.00  0.00    -0.206 F 
ATOM     86  C   UNL A   1      50.138  36.629  25.308  1.00  0.00     0.059 A 
ATOM     87  C   UNL A   1      51.654  35.828  27.029  1.00  0.00     0.059 A 
ATOM     88  F   UNL A   1      50.794  35.070  29.075  1.00  0.00    -0.206 F 
ATOM     89  C   UNL A   1      51.431  36.345  25.753  1.00  0.00     0.060 A 
BRANCH  89  90
ATOM     90  S   UNL A   1      52.817  36.680  24.644  1.00  0.00     0.124 S 
ATOM     91  O   UNL A   1      53.890  35.922  25.283  1.00  0.00    -0.237 OA
ATOM     92  O   UNL A   1      52.337  36.147  23.372  1.00  0.00    -0.237 OA
ATOM     93  O   UNL A   1      52.954  38.131  24.700  1.00  0.00    -0.744 OA
ENDBRANCH  89  90
ENDBRANCH  68  82
BRANCH  69  94
ATOM     94  C   UNL A   1      41.537  34.167  33.567  1.00  0.00     0.058 A 
ATOM     95  C   UNL A   1      40.231  34.421  33.127  1.00  0.00     0.135 A 
ATOM     96  C   UNL A   1      41.707  33.603  34.840  1.00  0.00     0.135 A 
ATOM     97  F   UNL A   1      40.025  34.958  31.914  1.00  0.00    -0.206 F 
ATOM     98  C   UNL A   1      39.128  34.124  33.918  1.00  0.00     0.059 A 
ATOM     99  C   UNL A   1      40.619  33.283  35.645  1.00  0.00     0.059 A 
ATOM    100  F   UNL A   1      42.939  33.325  35.294  1.00  0.00    -0.206 F 
ATOM    101  C   UNL A   1      39.333  33.551  35.176  1.00  0.00     0.060 A 
BRANCH 101 102
ATOM    102  S   UNL A   1      37.892  33.104  36.167  1.00  0.00     0.124 S 
ATOM    103  O   UNL A   1      37.854  31.657  35.994  1.00  0.00    -0.237 OA
ATOM    104  O   UNL A   1      38.271  33.579  37.494  1.00  0.00    -0.237 OA
ATOM    105  O   UNL A   1      36.806  33.844  35.532  1.00  0.00    -0.744 OA
ENDBRANCH 101 102
ENDBRANCH  69  94
BRANCH  81 106
ATOM    106  C   UNL A   1      45.487  39.747  32.209  1.00  0.00     0.058 A 
ATOM    107  C   UNL A   1      44.663  40.739  31.657  1.00  0.00     0.135 A 
ATOM    108  C   UNL A   1      46.283  40.091  33.314  1.00  0.00     0.135 A 
ATOM    109  F   UNL A   1      43.893  40.461  30.592  1.00  0.00    -0.206 F 
ATOM    110  C   UNL A   1      44.636  42.030  32.173  1.00  0.00     0.059 A 
ATOM    111  C   UNL A   1      46.257  41.371  33.859  1.00  0.00     0.059 A 
ATOM    112  F   UNL A   1      47.085  39.175  33.881  1.00  0.00    -0.206 F 
ATOM    113  C   UNL A   1      45.436  42.336  33.275  1.00  0.00     0.060 A 
BRANCH 113 114
ATOM    114  S   UNL A   1      45.364  44.004  33.961  1.00  0.00     0.124 S 
ATOM    115  O   UNL A   1      44.665  44.727  32.904  1.00  0.00    -0.237 OA
ATOM    116  O   UNL A   1      44.611  43.804  35.196  1.00  0.00    -0.237 OA
ATOM    117  O   UNL A   1      46.768  44.359  34.142  1.00  0.00    -0.744 OA
ENDBRANCH 113 114
ENDBRANCH  81 106
ENDBRANCH  55  56
ENDBRANCH  48  50
ENDBRANCH  47  48
ENDBRANCH  46  47
ENDBRANCH  45  46
ENDBRANCH  44  45
ENDBRANCH  43  44
ENDBRANCH  42  43
ENDBRANCH   1  42
TORSDOF 26
ENDMDL
MODEL 3
REMARK VINA RESULT:      -9.2      5.191     12.381
REMARK SMILES O=C(Cn1nc(C(=O)OCCOCCOCCOCCOC(=O)c2ccc(-c3c4nc(c(-c5c(F)cc(S(=O)(=O)[O-])cc5F)c5ccc([nH]5)c(-c5c(F)cc(S(=O)(=O)[O-])cc5F)c5nc(c(-c6c(F)cc(S(=O)(=O)[O-])cc6F)c6ccc3[nH]6)C=C5)C=C4)cc2)c2ccccc2c1=O)Nc1ccc2c(c1)C(=O)c1ccccc1C2=O
REMARK SMILES IDX 15 1 14 2 13 3 12 4 11 5 10 6 9 7 7 8 8 9 6 10 4 11 5 12
REMARK SMILES IDX 96 13 95 14 97 15 90 16 94 17 91 18 93 19 92 20 3 21 2 22
REMARK SMILES IDX 1 23 98 24 99 26 100 27 104 28 101 29 103 30 102 31 105 32
REMARK SMILES IDX 113 33 106 34 107 35 112 36 114 37 108 38 111 39 109 40
REMARK SMILES IDX 110 41 16 42 17 43 18 44 19 45 20 46 21 47 22 48 23 49 24 50
REMARK SMILES IDX 25 51 89 52 26 53 88 54 27 55 28 56 29 57 82 58 30 59 87 60
REMARK SMILES IDX 81 61 83 62 31 63 86 64 80 65 79 66 32 68 66 69 45 70 65 71
REMARK SMILES IDX 46 72 49 73 64 74 84 75 47 76 48 77 63 79 85 80 50 81 33 82
REMARK SMILES IDX 34 83 43 84 35 85 36 86 42 87 44 88 37 89 38 90 39 91 40 92
REMARK SMILES IDX 41 93 67 94 68 95 77 96 69 97 70 98 76 99 78 100 71 101
REMARK SMILES IDX 72 102 73 103 74 104 75 105 51 106 52 107 61 108 53 109
REMARK SMILES IDX 54 110 60 111 62 112 55 113 56 114 57 115 58 116 59 117
REMARK H PARENT 98 25 83 67 49 78
REMARK Flexibility Score: inf
ROOT
ATOM      1  O   UNL A   1      47.268  28.769  27.053  1.00  0.00    -0.377 OA
ENDROOT
BRANCH   1   2
ATOM      2  C   UNL A   1      47.028  30.133  26.769  1.00  0.00     0.188 C 
BRANCH   2   3
ATOM      3  C   UNL A   1      45.582  30.634  26.624  1.00  0.00     0.188 C 
BRANCH   3   4
ATOM      4  O   UNL A   1      45.413  31.800  25.822  1.00  0.00    -0.376 OA
BRANCH   4   5
ATOM      5  C   UNL A   1      44.514  32.780  26.333  1.00  0.00     0.202 C 
BRANCH   5   6
ATOM      6  C   UNL A   1      45.204  34.101  26.672  1.00  0.00     0.261 C 
BRANCH   6   7
ATOM      7  O   UNL A   1      44.489  35.233  26.162  1.00  0.00    -0.458 OA
BRANCH   7   8
ATOM      8  C   UNL A   1      43.290  35.499  26.709  1.00  0.00     0.359 C 
ATOM      9  O   UNL A   1      42.187  35.329  26.227  1.00  0.00    -0.244 OA
BRANCH   8  10
ATOM     10  C   UNL A   1      43.509  35.941  28.147  1.00  0.00     0.176 A 
ATOM     11  N   UNL A   1      44.521  37.400  29.616  1.00  0.00    -0.219 N 
ATOM     12  N   UNL A   1      44.260  36.986  28.333  1.00  0.00    -0.161 NA
ATOM     13  C   UNL A   1      43.895  36.874  30.741  1.00  0.00     0.275 A 
ATOM     14  C   UNL A   1      43.120  35.634  30.535  1.00  0.00     0.051 A 
ATOM     15  O   UNL A   1      43.981  37.354  31.869  1.00  0.00    -0.267 OA
ATOM     16  C   UNL A   1      42.916  35.157  29.245  1.00  0.00     0.022 A 
ATOM     17  C   UNL A   1      42.629  34.920  31.639  1.00  0.00     0.014 A 
ATOM     18  C   UNL A   1      42.205  33.964  29.053  1.00  0.00     0.011 A 
ATOM     19  C   UNL A   1      41.939  33.724  31.446  1.00  0.00     0.001 A 
ATOM     20  C   UNL A   1      41.727  33.248  30.153  1.00  0.00     0.001 A 
BRANCH  11  21
ATOM     21  C   UNL A   1      45.468  38.507  29.765  1.00  0.00     0.248 C 
BRANCH  21  22
ATOM     22  C   UNL A   1      45.495  39.303  28.452  1.00  0.00     0.246 C 
ATOM     23  O   UNL A   1      46.516  39.413  27.778  1.00  0.00    -0.273 OA
ATOM     24  N   UNL A   1      44.304  39.983  28.209  1.00  0.00    -0.324 N 
ATOM     25  H   UNL A   1      43.464  39.523  28.440  1.00  0.00     0.169 HD
BRANCH  24  26
ATOM     26  C   UNL A   1      44.206  41.280  27.657  1.00  0.00     0.042 A 
ATOM     27  C   UNL A   1      44.706  42.342  28.431  1.00  0.00     0.027 A 
ATOM     28  C   UNL A   1      43.874  41.500  26.320  1.00  0.00     0.039 A 
ATOM     29  C   UNL A   1      45.040  43.562  27.834  1.00  0.00     0.015 A 
ATOM     30  C   UNL A   1      44.269  42.690  25.716  1.00  0.00     0.036 A 
ATOM     31  C   UNL A   1      44.904  43.689  26.454  1.00  0.00     0.034 A 
ATOM     32  C   UNL A   1      44.295  42.760  24.244  1.00  0.00     0.194 C 
ATOM     33  C   UNL A   1      45.677  44.724  25.733  1.00  0.00     0.194 C 
ATOM     34  O   UNL A   1      43.430  42.264  23.540  1.00  0.00    -0.289 OA
ATOM     35  C   UNL A   1      45.512  43.358  23.670  1.00  0.00     0.034 A 
ATOM     36  C   UNL A   1      46.202  44.321  24.408  1.00  0.00     0.034 A 
ATOM     37  O   UNL A   1      45.985  45.787  26.252  1.00  0.00    -0.289 OA
ATOM     38  C   UNL A   1      46.046  42.842  22.489  1.00  0.00     0.013 A 
ATOM     39  C   UNL A   1      47.446  44.775  23.970  1.00  0.00     0.013 A 
ATOM     40  C   UNL A   1      47.305  43.267  22.071  1.00  0.00     0.001 A 
ATOM     41  C   UNL A   1      48.004  44.229  22.811  1.00  0.00     0.001 A 
ENDBRANCH  24  26
ENDBRANCH  21  22
ENDBRANCH  11  21
ENDBRANCH   8  10
ENDBRANCH   7   8
ENDBRANCH   6   7
ENDBRANCH   5   6
ENDBRANCH   4   5
ENDBRANCH   3   4
ENDBRANCH   2   3
ENDBRANCH   1   2
BRANCH   1  42
ATOM     42  C   UNL A   1      46.243  27.960  27.603  1.00  0.00     0.188 C 
BRANCH  42  43
ATOM     43  C   UNL A   1      45.979  26.559  27.030  1.00  0.00     0.188 C 
BRANCH  43  44
ATOM     44  O   UNL A   1      45.924  25.515  28.000  1.00  0.00    -0.376 OA
BRANCH  44  45
ATOM     45  C   UNL A   1      44.826  24.619  27.866  1.00  0.00     0.202 C 
BRANCH  45  46
ATOM     46  C   UNL A   1      44.300  24.536  26.430  1.00  0.00     0.261 C 
BRANCH  46  47
ATOM     47  O   UNL A   1      42.887  24.742  26.310  1.00  0.00    -0.460 OA
BRANCH  47  48
ATOM     48  C   UNL A   1      42.476  25.935  25.829  1.00  0.00     0.338 C 
ATOM     49  O   UNL A   1      42.350  26.256  24.661  1.00  0.00    -0.246 OA
BRANCH  48  50
ATOM     50  C   UNL A   1      42.034  26.750  26.978  1.00  0.00     0.060 A 
ATOM     51  C   UNL A   1      41.008  26.299  27.814  1.00  0.00     0.016 A 
ATOM     52  C   UNL A   1      42.639  27.993  27.193  1.00  0.00     0.016 A 
ATOM     53  C   UNL A   1      40.611  27.082  28.896  1.00  0.00     0.010 A 
ATOM     54  C   UNL A   1      42.230  28.782  28.269  1.00  0.00     0.010 A 
ATOM     55  C   UNL A   1      41.233  28.316  29.141  1.00  0.00    -0.014 A 
BRANCH  55  56
ATOM     56  C   UNL A   1      40.979  29.012  30.421  1.00  0.00     0.031 A 
ATOM     57  C   UNL A   1      41.802  28.755  31.643  1.00  0.00     0.074 A 
ATOM     58  C   UNL A   1      39.981  29.915  30.442  1.00  0.00     0.049 A 
ATOM     59  N   UNL A   1      41.759  29.367  32.798  1.00  0.00    -0.248 NA
ATOM     60  C   UNL A   1      42.796  27.676  31.564  1.00  0.00     0.031 C 
ATOM     61  C   UNL A   1      39.112  30.229  29.304  1.00  0.00     0.029 A 
ATOM     62  N   UNL A   1      39.536  30.739  31.440  1.00  0.00    -0.354 N 
ATOM     63  C   UNL A   1      42.736  28.770  33.581  1.00  0.00     0.074 A 
ATOM     64  C   UNL A   1      43.328  27.716  32.781  1.00  0.00     0.031 C 
ATOM     65  C   UNL A   1      38.247  31.187  29.664  1.00  0.00     0.029 A 
ATOM     66  C   UNL A   1      38.497  31.551  31.055  1.00  0.00     0.049 A 
ATOM     67  H   UNL A   1      39.922  30.748  32.346  1.00  0.00     0.167 HD
ATOM     68  C   UNL A   1      43.112  29.091  34.843  1.00  0.00     0.037 A 
ATOM     69  C   UNL A   1      37.828  32.494  31.742  1.00  0.00     0.037 A 
ATOM     70  C   UNL A   1      42.502  30.135  35.631  1.00  0.00     0.049 A 
ATOM     71  C   UNL A   1      38.239  32.803  33.149  1.00  0.00     0.074 A 
ATOM     72  C   UNL A   1      42.841  30.562  36.904  1.00  0.00     0.029 A 
ATOM     73  N   UNL A   1      41.421  30.907  35.228  1.00  0.00    -0.354 N 
ATOM     74  N   UNL A   1      39.209  32.274  33.856  1.00  0.00    -0.248 NA
ATOM     75  C   UNL A   1      37.473  33.840  33.852  1.00  0.00     0.031 C 
ATOM     76  C   UNL A   1      41.942  31.566  37.284  1.00  0.00     0.029 A 
ATOM     77  C   UNL A   1      41.064  31.789  36.235  1.00  0.00     0.049 A 
ATOM     78  H   UNL A   1      40.975  30.839  34.353  1.00  0.00     0.167 HD
ATOM     79  C   UNL A   1      39.180  32.922  35.083  1.00  0.00     0.074 A 
ATOM     80  C   UNL A   1      38.102  33.891  35.018  1.00  0.00     0.031 C 
ATOM     81  C   UNL A   1      39.978  32.735  36.163  1.00  0.00     0.037 A 
BRANCH  68  82
ATOM     82  C   UNL A   1      44.244  28.317  35.455  1.00  0.00     0.058 A 
ATOM     83  C   UNL A   1      44.007  27.154  36.204  1.00  0.00     0.135 A 
ATOM     84  C   UNL A   1      45.578  28.693  35.234  1.00  0.00     0.135 A 
ATOM     85  F   UNL A   1      42.749  26.753  36.450  1.00  0.00    -0.206 F 
ATOM     86  C   UNL A   1      45.053  26.396  36.723  1.00  0.00     0.059 A 
ATOM     87  C   UNL A   1      46.641  27.942  35.730  1.00  0.00     0.059 A 
ATOM     88  F   UNL A   1      45.860  29.796  34.523  1.00  0.00    -0.206 F 
ATOM     89  C   UNL A   1      46.368  26.800  36.481  1.00  0.00     0.060 A 
BRANCH  89  90
ATOM     90  S   UNL A   1      47.714  25.798  37.148  1.00  0.00     0.124 S 
ATOM     91  O   UNL A   1      47.896  26.397  38.468  1.00  0.00    -0.237 OA
ATOM     92  O   UNL A   1      47.141  24.455  37.137  1.00  0.00    -0.237 OA
ATOM     93  O   UNL A   1      48.803  26.019  36.203  1.00  0.00    -0.744 OA
ENDBRANCH  89  90
ENDBRANCH  68  82
BRANCH  69  94
ATOM     94  C   UNL A   1      36.733  33.235  31.073  1.00  0.00     0.058 A 
ATOM     95  C   UNL A   1      37.007  34.130  30.029  1.00  0.00     0.135 A 
ATOM     96  C   UNL A   1      35.392  33.013  31.418  1.00  0.00     0.135 A 
ATOM     97  F   UNL A   1      38.276  34.369  29.666  1.00  0.00    -0.206 F 
ATOM     98  C   UNL A   1      35.986  34.781  29.346  1.00  0.00     0.059 A 
ATOM     99  C   UNL A   1      34.353  33.641  30.740  1.00  0.00     0.059 A 
ATOM    100  F   UNL A   1      35.084  32.150  32.398  1.00  0.00    -0.206 F 
ATOM    101  C   UNL A   1      34.661  34.526  29.707  1.00  0.00     0.060 A 
BRANCH 101 102
ATOM    102  S   UNL A   1      33.341  35.322  28.767  1.00  0.00     0.124 S 
ATOM    103  O   UNL A   1      32.823  34.206  27.985  1.00  0.00    -0.237 OA
ATOM    104  O   UNL A   1      32.467  35.821  29.825  1.00  0.00    -0.237 OA
ATOM    105  O   UNL A   1      34.044  36.352  28.009  1.00  0.00    -0.744 OA
ENDBRANCH 101 102
ENDBRANCH  69  94
BRANCH  81 106
ATOM    106  C   UNL A   1      39.708  33.588  37.367  1.00  0.00     0.058 A 
ATOM    107  C   UNL A   1      38.747  33.219  38.320  1.00  0.00     0.135 A 
ATOM    108  C   UNL A   1      40.444  34.762  37.593  1.00  0.00     0.135 A 
ATOM    109  F   UNL A   1      38.010  32.111  38.142  1.00  0.00    -0.206 F 
ATOM    110  C   UNL A   1      38.516  33.992  39.453  1.00  0.00     0.059 A 
ATOM    111  C   UNL A   1      40.242  35.540  38.729  1.00  0.00     0.059 A 
ATOM    112  F   UNL A   1      41.378  35.155  36.712  1.00  0.00    -0.206 F 
ATOM    113  C   UNL A   1      39.269  35.150  39.649  1.00  0.00     0.060 A 
BRANCH 113 114
ATOM    114  S   UNL A   1      38.987  36.125  41.143  1.00  0.00     0.124 S 
ATOM    115  O   UNL A   1      38.864  37.472  40.597  1.00  0.00    -0.237 OA
ATOM    116  O   UNL A   1      37.758  35.541  41.671  1.00  0.00    -0.237 OA
ATOM    117  O   UNL A   1      40.184  35.877  41.941  1.00  0.00    -0.744 OA
ENDBRANCH 113 114
ENDBRANCH  81 106
ENDBRANCH  55  56
ENDBRANCH  48  50
ENDBRANCH  47  48
ENDBRANCH  46  47
ENDBRANCH  45  46
ENDBRANCH  44  45
ENDBRANCH  43  44
ENDBRANCH  42  43
ENDBRANCH   1  42
TORSDOF 26
ENDMDL
