MODEL 1
REMARK VINA RESULT:      -9.9      0.000      0.000
REMARK SMILES Cc1cnn(C2(C(=O)OCCOCCOCCOCCOC(=O)c3ccc(-c4c5nc(c(-c6c(F)cc(S(=O)(=O)[O-])cc6F)c6ccc([nH]6)c(-c6c(F)cc(S(=O)(=O)[O-])cc6F)c6nc(c(-c7c(F)cc(S(=O)(=O)[O-])cc7F)c7ccc4[nH]7)C=C6)C=C5)cc3)CCN(C(=O)c3cc4ccccc4[nH]3)CC2)c1
REMARK SMILES IDX 16 1 15 2 14 3 13 4 12 5 11 6 10 7 9 8 7 9 8 10 6 11 90 12
REMARK SMILES IDX 105 13 91 14 104 15 92 16 93 17 94 18 5 19 1 20 2 21 3 22
REMARK SMILES IDX 106 23 4 24 95 25 96 26 103 27 97 28 102 29 98 31 101 32
REMARK SMILES IDX 99 33 100 34 17 35 18 36 19 37 20 38 21 39 22 40 23 41 24 42
REMARK SMILES IDX 25 43 89 44 26 45 88 46 27 47 28 48 29 49 82 50 30 51 87 52
REMARK SMILES IDX 81 53 83 54 31 55 86 56 80 57 79 58 32 60 66 61 45 62 65 63
REMARK SMILES IDX 46 64 49 65 64 66 84 67 47 68 48 69 63 71 85 72 50 73 33 74
REMARK SMILES IDX 34 75 43 76 35 77 36 78 42 79 44 80 37 81 38 82 39 83 40 84
REMARK SMILES IDX 41 85 67 86 68 87 77 88 69 89 70 90 76 91 78 92 71 93 72 94
REMARK SMILES IDX 73 95 74 96 75 97 51 98 52 99 61 100 53 101 54 102 60 103
REMARK SMILES IDX 62 104 55 105 56 106 57 107 58 108 59 109
REMARK H PARENT 103 30 83 59 49 70
REMARK Flexibility Score: inf
ROOT
ATOM      1  C   UNL A   1      34.616  33.243  28.059  1.00  0.00     0.188 C 
ENDROOT
BRANCH   1   2
ATOM      2  O   UNL A   1      35.027  31.962  28.504  1.00  0.00    -0.377 OA
BRANCH   2   3
ATOM      3  C   UNL A   1      34.469  30.876  27.794  1.00  0.00     0.188 C 
BRANCH   3   4
ATOM      4  C   UNL A   1      33.140  31.173  27.080  1.00  0.00     0.188 C 
BRANCH   4   5
ATOM      5  O   UNL A   1      32.044  30.279  27.219  1.00  0.00    -0.376 OA
BRANCH   5   6
ATOM      6  C   UNL A   1      32.264  28.883  27.103  1.00  0.00     0.202 C 
BRANCH   6   7
ATOM      7  C   UNL A   1      31.165  27.915  26.614  1.00  0.00     0.261 C 
BRANCH   7   8
ATOM      8  O   UNL A   1      31.243  26.537  27.036  1.00  0.00    -0.461 OA
BRANCH   8   9
ATOM      9  C   UNL A   1      31.013  25.594  26.084  1.00  0.00     0.334 C 
ATOM     10  O   UNL A   1      29.907  25.079  25.918  1.00  0.00    -0.249 OA
BRANCH   9  11
ATOM     11  C   UNL A   1      32.299  25.095  25.352  1.00  0.00     0.163 C 
ATOM     12  C   UNL A   1      33.615  25.035  26.174  1.00  0.00     0.064 C 
ATOM     13  C   UNL A   1      31.839  23.667  24.993  1.00  0.00     0.064 C 
ATOM     14  C   UNL A   1      34.657  24.055  25.652  1.00  0.00     0.123 C 
ATOM     15  C   UNL A   1      32.920  22.729  24.513  1.00  0.00     0.123 C 
ATOM     16  N   UNL A   1      34.079  22.756  25.396  1.00  0.00    -0.337 N 
ATOM     17  C   UNL A   1      34.640  21.634  26.004  1.00  0.00     0.270 C 
ATOM     18  O   UNL A   1      35.450  21.710  26.921  1.00  0.00    -0.267 OA
BRANCH  11  19
ATOM     19  N   UNL A   1      32.531  25.975  24.187  1.00  0.00    -0.255 N 
ATOM     20  C   UNL A   1      34.064  28.622  22.182  1.00  0.00     0.048 C 
ATOM     21  C   UNL A   1      33.258  27.566  22.828  1.00  0.00    -0.013 A 
ATOM     22  C   UNL A   1      31.988  27.098  22.460  1.00  0.00     0.138 A 
ATOM     23  C   UNL A   1      33.572  26.835  23.954  1.00  0.00     0.113 A 
ATOM     24  N   UNL A   1      31.524  26.190  23.313  1.00  0.00    -0.180 NA
ENDBRANCH  11  19
BRANCH  17  25
ATOM     25  C   UNL A   1      34.160  20.365  25.529  1.00  0.00     0.105 A 
ATOM     26  C   UNL A   1      33.007  19.675  25.854  1.00  0.00     0.042 A 
ATOM     27  N   UNL A   1      34.859  19.591  24.637  1.00  0.00    -0.351 N 
ATOM     28  C   UNL A   1      33.111  18.376  25.297  1.00  0.00     0.000 A 
ATOM     29  C   UNL A   1      34.293  18.339  24.560  1.00  0.00     0.046 A 
ATOM     30  H   UNL A   1      35.648  19.888  24.129  1.00  0.00     0.167 HD
ATOM     31  C   UNL A   1      32.318  17.218  25.378  1.00  0.00     0.010 A 
ATOM     32  C   UNL A   1      34.734  17.190  23.900  1.00  0.00     0.026 A 
ATOM     33  C   UNL A   1      32.739  16.062  24.716  1.00  0.00     0.001 A 
ATOM     34  C   UNL A   1      33.931  16.050  23.993  1.00  0.00     0.002 A 
ENDBRANCH  17  25
ENDBRANCH   9  11
ENDBRANCH   8   9
ENDBRANCH   7   8
ENDBRANCH   6   7
ENDBRANCH   5   6
ENDBRANCH   4   5
ENDBRANCH   3   4
ENDBRANCH   2   3
ENDBRANCH   1   2
BRANCH   1  35
ATOM     35  C   UNL A   1      33.506  33.981  28.853  1.00  0.00     0.188 C 
BRANCH  35  36
ATOM     36  O   UNL A   1      33.787  35.331  29.216  1.00  0.00    -0.376 OA
BRANCH  36  37
ATOM     37  C   UNL A   1      32.947  36.144  30.025  1.00  0.00     0.202 C 
BRANCH  37  38
ATOM     38  C   UNL A   1      33.071  36.090  31.553  1.00  0.00     0.261 C 
BRANCH  38  39
ATOM     39  O   UNL A   1      33.227  34.780  32.046  1.00  0.00    -0.460 OA
BRANCH  39  40
ATOM     40  C   UNL A   1      34.325  34.611  32.797  1.00  0.00     0.338 C 
ATOM     41  O   UNL A   1      34.588  35.182  33.857  1.00  0.00    -0.246 OA
BRANCH  40  42
ATOM     42  C   UNL A   1      35.205  33.645  32.132  1.00  0.00     0.060 A 
ATOM     43  C   UNL A   1      35.273  32.429  32.801  1.00  0.00     0.016 A 
ATOM     44  C   UNL A   1      36.280  34.194  31.413  1.00  0.00     0.016 A 
ATOM     45  C   UNL A   1      36.519  32.056  33.204  1.00  0.00     0.010 A 
ATOM     46  C   UNL A   1      37.524  33.828  31.822  1.00  0.00     0.010 A 
ATOM     47  C   UNL A   1      37.596  32.861  32.817  1.00  0.00    -0.014 A 
BRANCH  47  48
ATOM     48  C   UNL A   1      38.856  32.626  33.457  1.00  0.00     0.031 A 
ATOM     49  C   UNL A   1      38.904  33.303  34.758  1.00  0.00     0.074 A 
ATOM     50  C   UNL A   1      39.790  31.841  32.899  1.00  0.00     0.049 A 
ATOM     51  N   UNL A   1      39.543  34.386  35.039  1.00  0.00    -0.248 NA
ATOM     52  C   UNL A   1      37.899  32.911  35.760  1.00  0.00     0.031 C 
ATOM     53  C   UNL A   1      39.696  30.978  31.720  1.00  0.00     0.029 A 
ATOM     54  N   UNL A   1      41.031  31.581  33.377  1.00  0.00    -0.354 N 
ATOM     55  C   UNL A   1      39.210  34.660  36.355  1.00  0.00     0.074 A 
ATOM     56  C   UNL A   1      38.019  33.908  36.636  1.00  0.00     0.031 C 
ATOM     57  C   UNL A   1      40.742  30.119  31.720  1.00  0.00     0.029 A 
ATOM     58  C   UNL A   1      41.621  30.447  32.828  1.00  0.00     0.049 A 
ATOM     59  H   UNL A   1      41.474  32.143  34.054  1.00  0.00     0.167 HD
ATOM     60  C   UNL A   1      40.108  35.244  37.189  1.00  0.00     0.037 A 
ATOM     61  C   UNL A   1      42.665  29.795  33.401  1.00  0.00     0.037 A 
ATOM     62  C   UNL A   1      41.179  35.861  36.443  1.00  0.00     0.049 A 
ATOM     63  C   UNL A   1      43.336  30.796  34.296  1.00  0.00     0.074 A 
ATOM     64  C   UNL A   1      41.226  36.864  35.494  1.00  0.00     0.029 A 
ATOM     65  N   UNL A   1      42.355  35.157  36.310  1.00  0.00    -0.354 N 
ATOM     66  N   UNL A   1      43.932  31.873  33.843  1.00  0.00    -0.248 NA
ATOM     67  C   UNL A   1      42.883  30.885  35.680  1.00  0.00     0.031 C 
ATOM     68  C   UNL A   1      42.192  36.432  34.541  1.00  0.00     0.029 A 
ATOM     69  C   UNL A   1      42.741  35.229  34.993  1.00  0.00     0.049 A 
ATOM     70  H   UNL A   1      42.835  34.686  37.030  1.00  0.00     0.167 HD
ATOM     71  C   UNL A   1      43.563  32.891  34.716  1.00  0.00     0.074 A 
ATOM     72  C   UNL A   1      42.963  32.208  35.862  1.00  0.00     0.031 C 
ATOM     73  C   UNL A   1      43.493  34.196  34.310  1.00  0.00     0.037 A 
BRANCH  60  74
ATOM     74  C   UNL A   1      40.201  34.921  38.656  1.00  0.00     0.058 A 
ATOM     75  C   UNL A   1      40.019  35.956  39.591  1.00  0.00     0.135 A 
ATOM     76  C   UNL A   1      40.709  33.708  39.178  1.00  0.00     0.135 A 
ATOM     77  F   UNL A   1      39.546  37.151  39.204  1.00  0.00    -0.206 F 
ATOM     78  C   UNL A   1      40.383  35.818  40.929  1.00  0.00     0.059 A 
ATOM     79  C   UNL A   1      41.020  33.531  40.517  1.00  0.00     0.059 A 
ATOM     80  F   UNL A   1      41.028  32.660  38.410  1.00  0.00    -0.206 F 
ATOM     81  C   UNL A   1      40.897  34.605  41.377  1.00  0.00     0.060 A 
BRANCH  81  82
ATOM     82  S   UNL A   1      41.472  34.457  43.073  1.00  0.00     0.124 S 
ATOM     83  O   UNL A   1      42.223  35.695  43.233  1.00  0.00    -0.237 OA
ATOM     84  O   UNL A   1      40.216  34.367  43.809  1.00  0.00    -0.237 OA
ATOM     85  O   UNL A   1      42.268  33.233  43.053  1.00  0.00    -0.744 OA
ENDBRANCH  81  82
ENDBRANCH  60  74
BRANCH  61  86
ATOM     86  C   UNL A   1      42.792  28.317  33.565  1.00  0.00     0.058 A 
ATOM     87  C   UNL A   1      43.838  27.602  32.955  1.00  0.00     0.135 A 
ATOM     88  C   UNL A   1      42.045  27.605  34.529  1.00  0.00     0.135 A 
ATOM     89  F   UNL A   1      44.615  28.198  32.037  1.00  0.00    -0.206 F 
ATOM     90  C   UNL A   1      44.159  26.286  33.319  1.00  0.00     0.059 A 
ATOM     91  C   UNL A   1      42.335  26.293  34.896  1.00  0.00     0.059 A 
ATOM     92  F   UNL A   1      41.059  28.187  35.225  1.00  0.00    -0.206 F 
ATOM     93  C   UNL A   1      43.413  25.647  34.310  1.00  0.00     0.060 A 
BRANCH  93  94
ATOM     94  S   UNL A   1      43.932  24.032  34.934  1.00  0.00     0.124 S 
ATOM     95  O   UNL A   1      42.838  23.172  34.495  1.00  0.00    -0.237 OA
ATOM     96  O   UNL A   1      45.210  23.837  34.259  1.00  0.00    -0.237 OA
ATOM     97  O   UNL A   1      44.020  24.239  36.378  1.00  0.00    -0.744 OA
ENDBRANCH  93  94
ENDBRANCH  61  86
BRANCH  73  98
ATOM     98  C   UNL A   1      44.033  34.555  32.945  1.00  0.00     0.058 A 
ATOM     99  C   UNL A   1      43.267  34.553  31.764  1.00  0.00     0.135 A 
ATOM    100  C   UNL A   1      45.323  35.098  32.860  1.00  0.00     0.135 A 
ATOM    101  F   UNL A   1      41.985  34.161  31.780  1.00  0.00    -0.206 F 
ATOM    102  C   UNL A   1      43.771  35.025  30.551  1.00  0.00     0.059 A 
ATOM    103  C   UNL A   1      45.837  35.606  31.668  1.00  0.00     0.059 A 
ATOM    104  F   UNL A   1      46.083  35.199  33.963  1.00  0.00    -0.206 F 
ATOM    105  C   UNL A   1      45.061  35.552  30.512  1.00  0.00     0.060 A 
BRANCH 105 106
ATOM    106  S   UNL A   1      45.692  36.227  28.960  1.00  0.00     0.124 S 
ATOM    107  O   UNL A   1      47.094  35.826  29.002  1.00  0.00    -0.237 OA
ATOM    108  O   UNL A   1      44.870  35.550  27.961  1.00  0.00    -0.237 OA
ATOM    109  O   UNL A   1      45.448  37.661  29.087  1.00  0.00    -0.744 OA
ENDBRANCH 105 106
ENDBRANCH  73  98
ENDBRANCH  47  48
ENDBRANCH  40  42
ENDBRANCH  39  40
ENDBRANCH  38  39
ENDBRANCH  37  38
ENDBRANCH  36  37
ENDBRANCH  35  36
ENDBRANCH   1  35
TORSDOF 25
ENDMDL
MODEL 2
REMARK VINA RESULT:      -9.5      5.595      8.263
REMARK SMILES Cc1cnn(C2(C(=O)OCCOCCOCCOCCOC(=O)c3ccc(-c4c5nc(c(-c6c(F)cc(S(=O)(=O)[O-])cc6F)c6ccc([nH]6)c(-c6c(F)cc(S(=O)(=O)[O-])cc6F)c6nc(c(-c7c(F)cc(S(=O)(=O)[O-])cc7F)c7ccc4[nH]7)C=C6)C=C5)cc3)CCN(C(=O)c3cc4ccccc4[nH]3)CC2)c1
REMARK SMILES IDX 16 1 15 2 14 3 13 4 12 5 11 6 10 7 9 8 7 9 8 10 6 11 90 12
REMARK SMILES IDX 105 13 91 14 104 15 92 16 93 17 94 18 5 19 1 20 2 21 3 22
REMARK SMILES IDX 106 23 4 24 95 25 96 26 103 27 97 28 102 29 98 31 101 32
REMARK SMILES IDX 99 33 100 34 17 35 18 36 19 37 20 38 21 39 22 40 23 41 24 42
REMARK SMILES IDX 25 43 89 44 26 45 88 46 27 47 28 48 29 49 82 50 30 51 87 52
REMARK SMILES IDX 81 53 83 54 31 55 86 56 80 57 79 58 32 60 66 61 45 62 65 63
REMARK SMILES IDX 46 64 49 65 64 66 84 67 47 68 48 69 63 71 85 72 50 73 33 74
REMARK SMILES IDX 34 75 43 76 35 77 36 78 42 79 44 80 37 81 38 82 39 83 40 84
REMARK SMILES IDX 41 85 67 86 68 87 77 88 69 89 70 90 76 91 78 92 71 93 72 94
REMARK SMILES IDX 73 95 74 96 75 97 51 98 52 99 61 100 53 101 54 102 60 103
REMARK SMILES IDX 62 104 55 105 56 106 57 107 58 108 59 109
REMARK H PARENT 103 30 83 59 49 70
REMARK Flexibility Score: inf
ROOT
ATOM      1  C   UNL A   1      36.510  30.449  29.413  1.00  0.00     0.188 C 
ENDROOT
BRANCH   1   2
ATOM      2  O   UNL A   1      35.465  29.765  28.741  1.00  0.00    -0.377 OA
BRANCH   2   3
ATOM      3  C   UNL A   1      35.661  29.593  27.353  1.00  0.00     0.188 C 
BRANCH   3   4
ATOM      4  C   UNL A   1      34.503  28.910  26.607  1.00  0.00     0.188 C 
BRANCH   4   5
ATOM      5  O   UNL A   1      33.208  29.497  26.617  1.00  0.00    -0.376 OA
BRANCH   5   6
ATOM      6  C   UNL A   1      32.234  29.022  27.530  1.00  0.00     0.202 C 
BRANCH   6   7
ATOM      7  C   UNL A   1      31.248  27.890  27.165  1.00  0.00     0.261 C 
BRANCH   7   8
ATOM      8  O   UNL A   1      31.698  26.528  27.317  1.00  0.00    -0.461 OA
BRANCH   8   9
ATOM      9  C   UNL A   1      31.270  25.637  26.384  1.00  0.00     0.334 C 
ATOM     10  O   UNL A   1      30.159  25.110  26.435  1.00  0.00    -0.249 OA
BRANCH   9  11
ATOM     11  C   UNL A   1      32.366  25.207  25.357  1.00  0.00     0.163 C 
ATOM     12  C   UNL A   1      33.850  25.427  25.756  1.00  0.00     0.064 C 
ATOM     13  C   UNL A   1      32.058  23.697  25.287  1.00  0.00     0.064 C 
ATOM     14  C   UNL A   1      34.849  24.524  25.047  1.00  0.00     0.123 C 
ATOM     15  C   UNL A   1      33.099  22.845  24.602  1.00  0.00     0.123 C 
ATOM     16  N   UNL A   1      34.438  23.139  25.098  1.00  0.00    -0.337 N 
ATOM     17  C   UNL A   1      35.317  22.191  25.618  1.00  0.00     0.270 C 
ATOM     18  O   UNL A   1      36.327  22.493  26.244  1.00  0.00    -0.267 OA
BRANCH  11  19
ATOM     19  N   UNL A   1      32.122  25.941  24.097  1.00  0.00    -0.255 N 
ATOM     20  C   UNL A   1      31.188  28.721  21.911  1.00  0.00     0.048 C 
ATOM     21  C   UNL A   1      31.538  27.457  22.590  1.00  0.00    -0.013 A 
ATOM     22  C   UNL A   1      31.564  26.162  22.052  1.00  0.00     0.138 A 
ATOM     23  C   UNL A   1      31.884  27.278  23.913  1.00  0.00     0.113 A 
ATOM     24  N   UNL A   1      31.850  25.245  22.971  1.00  0.00    -0.180 NA
ENDBRANCH  11  19
BRANCH  17  25
ATOM     25  C   UNL A   1      34.933  20.818  25.429  1.00  0.00     0.105 A 
ATOM     26  C   UNL A   1      35.514  19.834  24.650  1.00  0.00     0.042 A 
ATOM     27  N   UNL A   1      33.827  20.266  26.023  1.00  0.00    -0.351 N 
ATOM     28  C   UNL A   1      34.629  18.729  24.622  1.00  0.00     0.000 A 
ATOM     29  C   UNL A   1      33.566  19.033  25.471  1.00  0.00     0.046 A 
ATOM     30  H   UNL A   1      33.299  20.689  26.738  1.00  0.00     0.167 HD
ATOM     31  C   UNL A   1      34.623  17.506  23.929  1.00  0.00     0.010 A 
ATOM     32  C   UNL A   1      32.480  18.174  25.657  1.00  0.00     0.026 A 
ATOM     33  C   UNL A   1      33.550  16.630  24.110  1.00  0.00     0.001 A 
ATOM     34  C   UNL A   1      32.494  16.964  24.958  1.00  0.00     0.002 A 
ENDBRANCH  17  25
ENDBRANCH   9  11
ENDBRANCH   8   9
ENDBRANCH   7   8
ENDBRANCH   6   7
ENDBRANCH   5   6
ENDBRANCH   4   5
ENDBRANCH   3   4
ENDBRANCH   2   3
ENDBRANCH   1   2
BRANCH   1  35
ATOM     35  C   UNL A   1      36.133  31.589  30.396  1.00  0.00     0.188 C 
BRANCH  35  36
ATOM     36  O   UNL A   1      37.009  31.775  31.505  1.00  0.00    -0.376 OA
BRANCH  36  37
ATOM     37  C   UNL A   1      36.928  32.852  32.429  1.00  0.00     0.202 C 
BRANCH  37  38
ATOM     38  C   UNL A   1      37.784  34.107  32.221  1.00  0.00     0.261 C 
BRANCH  38  39
ATOM     39  O   UNL A   1      38.610  34.026  31.082  1.00  0.00    -0.460 OA
BRANCH  39  40
ATOM     40  C   UNL A   1      39.919  34.122  31.354  1.00  0.00     0.338 C 
ATOM     41  O   UNL A   1      40.433  34.259  32.465  1.00  0.00    -0.246 OA
BRANCH  40  42
ATOM     42  C   UNL A   1      40.666  34.074  30.093  1.00  0.00     0.060 A 
ATOM     43  C   UNL A   1      41.894  33.436  30.219  1.00  0.00     0.016 A 
ATOM     44  C   UNL A   1      40.434  35.138  29.206  1.00  0.00     0.016 A 
ATOM     45  C   UNL A   1      42.978  34.192  29.889  1.00  0.00     0.010 A 
ATOM     46  C   UNL A   1      41.515  35.898  28.884  1.00  0.00     0.010 A 
ATOM     47  C   UNL A   1      42.746  35.468  29.363  1.00  0.00    -0.014 A 
BRANCH  47  48
ATOM     48  C   UNL A   1      43.866  36.355  29.272  1.00  0.00     0.031 A 
ATOM     49  C   UNL A   1      44.061  37.069  30.539  1.00  0.00     0.074 A 
ATOM     50  C   UNL A   1      44.614  36.427  28.160  1.00  0.00     0.049 A 
ATOM     51  N   UNL A   1      43.759  38.297  30.784  1.00  0.00    -0.248 NA
ATOM     52  C   UNL A   1      44.327  36.255  31.737  1.00  0.00     0.031 C 
ATOM     53  C   UNL A   1      44.588  35.580  26.965  1.00  0.00     0.029 A 
ATOM     54  N   UNL A   1      45.663  37.255  27.932  1.00  0.00    -0.354 N 
ATOM     55  C   UNL A   1      44.053  38.470  32.126  1.00  0.00     0.074 A 
ATOM     56  C   UNL A   1      44.121  37.154  32.699  1.00  0.00     0.031 C 
ATOM     57  C   UNL A   1      45.723  35.786  26.257  1.00  0.00     0.029 A 
ATOM     58  C   UNL A   1      46.487  36.847  26.888  1.00  0.00     0.049 A 
ATOM     59  H   UNL A   1      45.827  38.070  28.459  1.00  0.00     0.167 HD
ATOM     60  C   UNL A   1      44.510  39.663  32.588  1.00  0.00     0.037 A 
ATOM     61  C   UNL A   1      47.759  37.291  26.723  1.00  0.00     0.037 A 
ATOM     62  C   UNL A   1      44.245  40.718  31.639  1.00  0.00     0.049 A 
ATOM     63  C   UNL A   1      47.838  38.600  27.452  1.00  0.00     0.074 A 
ATOM     64  C   UNL A   1      43.089  41.237  31.086  1.00  0.00     0.029 A 
ATOM     65  N   UNL A   1      45.270  41.097  30.800  1.00  0.00    -0.354 N 
ATOM     66  N   UNL A   1      47.155  39.660  27.092  1.00  0.00    -0.248 NA
ATOM     67  C   UNL A   1      48.235  38.576  28.856  1.00  0.00     0.031 C 
ATOM     68  C   UNL A   1      43.409  41.491  29.722  1.00  0.00     0.029 A 
ATOM     69  C   UNL A   1      44.759  41.189  29.528  1.00  0.00     0.049 A 
ATOM     70  H   UNL A   1      46.202  41.271  31.065  1.00  0.00     0.167 HD
ATOM     71  C   UNL A   1      46.685  40.213  28.279  1.00  0.00     0.074 A 
ATOM     72  C   UNL A   1      47.433  39.533  29.337  1.00  0.00     0.031 C 
ATOM     73  C   UNL A   1      45.528  40.942  28.324  1.00  0.00     0.037 A 
BRANCH  60  74
ATOM     74  C   UNL A   1      45.514  39.785  33.702  1.00  0.00     0.058 A 
ATOM     75  C   UNL A   1      45.144  40.461  34.878  1.00  0.00     0.135 A 
ATOM     76  C   UNL A   1      46.894  39.497  33.571  1.00  0.00     0.135 A 
ATOM     77  F   UNL A   1      43.861  40.788  35.102  1.00  0.00    -0.206 F 
ATOM     78  C   UNL A   1      46.083  40.883  35.817  1.00  0.00     0.059 A 
ATOM     79  C   UNL A   1      47.836  39.854  34.523  1.00  0.00     0.059 A 
ATOM     80  F   UNL A   1      47.423  38.945  32.473  1.00  0.00    -0.206 F 
ATOM     81  C   UNL A   1      47.428  40.587  35.621  1.00  0.00     0.060 A 
BRANCH  81  82
ATOM     82  S   UNL A   1      48.654  41.223  36.770  1.00  0.00     0.124 S 
ATOM     83  O   UNL A   1      47.814  41.947  37.717  1.00  0.00    -0.237 OA
ATOM     84  O   UNL A   1      49.269  39.996  37.263  1.00  0.00    -0.237 OA
ATOM     85  O   UNL A   1      49.510  42.050  35.925  1.00  0.00    -0.744 OA
ENDBRANCH  81  82
ENDBRANCH  60  74
BRANCH  61  86
ATOM     86  C   UNL A   1      48.947  36.447  26.400  1.00  0.00     0.058 A 
ATOM     87  C   UNL A   1      49.369  35.419  27.264  1.00  0.00     0.135 A 
ATOM     88  C   UNL A   1      49.543  36.453  25.120  1.00  0.00     0.135 A 
ATOM     89  F   UNL A   1      48.849  35.320  28.496  1.00  0.00    -0.206 F 
ATOM     90  C   UNL A   1      50.280  34.430  26.862  1.00  0.00     0.059 A 
ATOM     91  C   UNL A   1      50.461  35.491  24.705  1.00  0.00     0.059 A 
ATOM     92  F   UNL A   1      49.187  37.343  24.183  1.00  0.00    -0.206 F 
ATOM     93  C   UNL A   1      50.803  34.463  25.570  1.00  0.00     0.060 A 
BRANCH  93  94
ATOM     94  S   UNL A   1      51.817  33.092  24.969  1.00  0.00     0.124 S 
ATOM     95  O   UNL A   1      51.004  31.935  25.327  1.00  0.00    -0.237 OA
ATOM     96  O   UNL A   1      51.919  33.385  23.543  1.00  0.00    -0.237 OA
ATOM     97  O   UNL A   1      53.061  33.237  25.721  1.00  0.00    -0.744 OA
ENDBRANCH  93  94
ENDBRANCH  61  86
BRANCH  73  98
ATOM     98  C   UNL A   1      44.869  41.327  27.020  1.00  0.00     0.058 A 
ATOM     99  C   UNL A   1      43.833  40.594  26.410  1.00  0.00     0.135 A 
ATOM    100  C   UNL A   1      45.169  42.579  26.465  1.00  0.00     0.135 A 
ATOM    101  F   UNL A   1      43.401  39.443  26.943  1.00  0.00    -0.206 F 
ATOM    102  C   UNL A   1      43.160  41.061  25.279  1.00  0.00     0.059 A 
ATOM    103  C   UNL A   1      44.489  43.081  25.357  1.00  0.00     0.059 A 
ATOM    104  F   UNL A   1      46.096  43.363  27.039  1.00  0.00    -0.206 F 
ATOM    105  C   UNL A   1      43.495  42.310  24.758  1.00  0.00     0.060 A 
BRANCH 105 106
ATOM    106  S   UNL A   1      42.581  42.948  23.337  1.00  0.00     0.124 S 
ATOM    107  O   UNL A   1      43.248  42.283  22.223  1.00  0.00    -0.237 OA
ATOM    108  O   UNL A   1      41.216  42.506  23.613  1.00  0.00    -0.237 OA
ATOM    109  O   UNL A   1      42.787  44.391  23.418  1.00  0.00    -0.744 OA
ENDBRANCH 105 106
ENDBRANCH  73  98
ENDBRANCH  47  48
ENDBRANCH  40  42
ENDBRANCH  39  40
ENDBRANCH  38  39
ENDBRANCH  37  38
ENDBRANCH  36  37
ENDBRANCH  35  36
ENDBRANCH   1  35
TORSDOF 25
ENDMDL
MODEL 3
REMARK VINA RESULT:      -9.4      4.472     10.321
REMARK SMILES Cc1cnn(C2(C(=O)OCCOCCOCCOCCOC(=O)c3ccc(-c4c5nc(c(-c6c(F)cc(S(=O)(=O)[O-])cc6F)c6ccc([nH]6)c(-c6c(F)cc(S(=O)(=O)[O-])cc6F)c6nc(c(-c7c(F)cc(S(=O)(=O)[O-])cc7F)c7ccc4[nH]7)C=C6)C=C5)cc3)CCN(C(=O)c3cc4ccccc4[nH]3)CC2)c1
REMARK SMILES IDX 16 1 15 2 14 3 13 4 12 5 11 6 10 7 9 8 7 9 8 10 6 11 90 12
REMARK SMILES IDX 105 13 91 14 104 15 92 16 93 17 94 18 5 19 1 20 2 21 3 22
REMARK SMILES IDX 106 23 4 24 95 25 96 26 103 27 97 28 102 29 98 31 101 32
REMARK SMILES IDX 99 33 100 34 17 35 18 36 19 37 20 38 21 39 22 40 23 41 24 42
REMARK SMILES IDX 25 43 89 44 26 45 88 46 27 47 28 48 29 49 82 50 30 51 87 52
REMARK SMILES IDX 81 53 83 54 31 55 86 56 80 57 79 58 32 60 66 61 45 62 65 63
REMARK SMILES IDX 46 64 49 65 64 66 84 67 47 68 48 69 63 71 85 72 50 73 33 74
REMARK SMILES IDX 34 75 43 76 35 77 36 78 42 79 44 80 37 81 38 82 39 83 40 84
REMARK SMILES IDX 41 85 67 86 68 87 77 88 69 89 70 90 76 91 78 92 71 93 72 94
REMARK SMILES IDX 73 95 74 96 75 97 51 98 52 99 61 100 53 101 54 102 60 103
REMARK SMILES IDX 62 104 55 105 56 106 57 107 58 108 59 109
REMARK H PARENT 103 30 83 59 49 70
REMARK Flexibility Score: inf
ROOT
ATOM      1  C   UNL A   1      42.472  35.771  27.092  1.00  0.00     0.188 C 
ENDROOT
BRANCH   1   2
ATOM      2  O   UNL A   1      43.669  35.252  26.536  1.00  0.00    -0.377 OA
BRANCH   2   3
ATOM      3  C   UNL A   1      43.507  34.537  25.329  1.00  0.00     0.188 C 
BRANCH   3   4
ATOM      4  C   UNL A   1      44.440  33.328  25.153  1.00  0.00     0.188 C 
BRANCH   4   5
ATOM      5  O   UNL A   1      44.127  32.092  25.782  1.00  0.00    -0.376 OA
BRANCH   5   6
ATOM      6  C   UNL A   1      45.126  31.419  26.530  1.00  0.00     0.202 C 
BRANCH   6   7
ATOM      7  C   UNL A   1      44.787  30.276  27.512  1.00  0.00     0.261 C 
BRANCH   7   8
ATOM      8  O   UNL A   1      44.998  28.920  27.068  1.00  0.00    -0.461 OA
BRANCH   8   9
ATOM      9  C   UNL A   1      45.792  28.139  27.849  1.00  0.00     0.334 C 
ATOM     10  O   UNL A   1      46.501  28.603  28.741  1.00  0.00    -0.249 OA
BRANCH   9  11
ATOM     11  C   UNL A   1      45.862  26.645  27.400  1.00  0.00     0.163 C 
ATOM     12  C   UNL A   1      46.317  25.599  28.454  1.00  0.00     0.064 C 
ATOM     13  C   UNL A   1      44.377  26.424  27.047  1.00  0.00     0.064 C 
ATOM     14  C   UNL A   1      45.845  24.175  28.194  1.00  0.00     0.123 C 
ATOM     15  C   UNL A   1      43.959  24.990  26.833  1.00  0.00     0.123 C 
ATOM     16  N   UNL A   1      44.428  24.131  27.912  1.00  0.00    -0.337 N 
ATOM     17  C   UNL A   1      43.612  23.302  28.679  1.00  0.00     0.270 C 
ATOM     18  O   UNL A   1      43.986  22.782  29.725  1.00  0.00    -0.267 OA
BRANCH  11  19
ATOM     19  N   UNL A   1      46.785  26.559  26.248  1.00  0.00    -0.255 N 
ATOM     20  C   UNL A   1      49.959  26.575  24.429  1.00  0.00     0.048 C 
ATOM     21  C   UNL A   1      48.573  26.599  24.940  1.00  0.00    -0.013 A 
ATOM     22  C   UNL A   1      47.386  26.786  24.217  1.00  0.00     0.138 A 
ATOM     23  C   UNL A   1      48.153  26.474  26.247  1.00  0.00     0.113 A 
ATOM     24  N   UNL A   1      46.319  26.827  25.009  1.00  0.00    -0.180 NA
ENDBRANCH  11  19
BRANCH  17  25
ATOM     25  C   UNL A   1      42.266  23.139  28.199  1.00  0.00     0.105 A 
ATOM     26  C   UNL A   1      41.681  22.070  27.547  1.00  0.00     0.042 A 
ATOM     27  N   UNL A   1      41.314  24.120  28.307  1.00  0.00    -0.351 N 
ATOM     28  C   UNL A   1      40.411  22.492  27.081  1.00  0.00     0.000 A 
ATOM     29  C   UNL A   1      40.215  23.791  27.548  1.00  0.00     0.046 A 
ATOM     30  H   UNL A   1      41.404  24.938  28.847  1.00  0.00     0.167 HD
ATOM     31  C   UNL A   1      39.423  21.896  26.279  1.00  0.00     0.010 A 
ATOM     32  C   UNL A   1      39.073  24.536  27.244  1.00  0.00     0.026 A 
ATOM     33  C   UNL A   1      38.270  22.624  25.972  1.00  0.00     0.001 A 
ATOM     34  C   UNL A   1      38.103  23.924  26.446  1.00  0.00     0.002 A 
ENDBRANCH  17  25
ENDBRANCH   9  11
ENDBRANCH   8   9
ENDBRANCH   7   8
ENDBRANCH   6   7
ENDBRANCH   5   6
ENDBRANCH   4   5
ENDBRANCH   3   4
ENDBRANCH   2   3
ENDBRANCH   1   2
BRANCH   1  35
ATOM     35  C   UNL A   1      42.163  37.280  26.903  1.00  0.00     0.188 C 
BRANCH  35  36
ATOM     36  O   UNL A   1      43.289  38.128  26.690  1.00  0.00    -0.376 OA
BRANCH  36  37
ATOM     37  C   UNL A   1      43.678  39.190  27.551  1.00  0.00     0.202 C 
BRANCH  37  38
ATOM     38  C   UNL A   1      43.613  39.006  29.072  1.00  0.00     0.261 C 
BRANCH  38  39
ATOM     39  O   UNL A   1      44.026  37.724  29.489  1.00  0.00    -0.460 OA
BRANCH  39  40
ATOM     40  C   UNL A   1      44.300  37.643  30.799  1.00  0.00     0.338 C 
ATOM     41  O   UNL A   1      44.136  38.526  31.643  1.00  0.00    -0.246 OA
BRANCH  40  42
ATOM     42  C   UNL A   1      44.874  36.323  31.078  1.00  0.00     0.060 A 
ATOM     43  C   UNL A   1      44.499  35.365  30.144  1.00  0.00     0.016 A 
ATOM     44  C   UNL A   1      45.107  36.034  32.433  1.00  0.00     0.016 A 
ATOM     45  C   UNL A   1      43.842  34.285  30.651  1.00  0.00     0.010 A 
ATOM     46  C   UNL A   1      44.443  34.962  32.941  1.00  0.00     0.010 A 
ATOM     47  C   UNL A   1      43.710  34.198  32.042  1.00  0.00    -0.014 A 
BRANCH  47  48
ATOM     48  C   UNL A   1      42.797  33.221  32.555  1.00  0.00     0.031 A 
ATOM     49  C   UNL A   1      43.376  31.876  32.458  1.00  0.00     0.074 A 
ATOM     50  C   UNL A   1      41.614  33.575  33.081  1.00  0.00     0.049 A 
ATOM     51  N   UNL A   1      43.068  30.966  31.600  1.00  0.00    -0.248 NA
ATOM     52  C   UNL A   1      44.632  31.628  33.185  1.00  0.00     0.031 C 
ATOM     53  C   UNL A   1      41.099  34.909  33.395  1.00  0.00     0.029 A 
ATOM     54  N   UNL A   1      40.648  32.749  33.552  1.00  0.00    -0.354 N 
ATOM     55  C   UNL A   1      43.939  29.922  31.865  1.00  0.00     0.074 A 
ATOM     56  C   UNL A   1      45.021  30.483  32.628  1.00  0.00     0.031 C 
ATOM     57  C   UNL A   1      40.030  34.784  34.217  1.00  0.00     0.029 A 
ATOM     58  C   UNL A   1      39.731  33.375  34.389  1.00  0.00     0.049 A 
ATOM     59  H   UNL A   1      40.602  31.793  33.323  1.00  0.00     0.167 HD
ATOM     60  C   UNL A   1      43.549  28.633  31.694  1.00  0.00     0.037 A 
ATOM     61  C   UNL A   1      38.925  32.701  35.250  1.00  0.00     0.037 A 
ATOM     62  C   UNL A   1      42.369  28.558  30.866  1.00  0.00     0.049 A 
ATOM     63  C   UNL A   1      38.823  31.303  34.715  1.00  0.00     0.074 A 
ATOM     64  C   UNL A   1      42.087  28.942  29.569  1.00  0.00     0.029 A 
ATOM     65  N   UNL A   1      41.151  28.428  31.497  1.00  0.00    -0.354 N 
ATOM     66  N   UNL A   1      38.257  31.017  33.567  1.00  0.00    -0.248 NA
ATOM     67  C   UNL A   1      39.805  30.325  35.173  1.00  0.00     0.031 C 
ATOM     68  C   UNL A   1      40.768  29.475  29.615  1.00  0.00     0.029 A 
ATOM     69  C   UNL A   1      40.281  29.320  30.915  1.00  0.00     0.049 A 
ATOM     70  H   UNL A   1      40.941  27.808  32.232  1.00  0.00     0.167 HD
ATOM     71  C   UNL A   1      39.090  30.075  32.973  1.00  0.00     0.074 A 
ATOM     72  C   UNL A   1      39.997  29.645  34.037  1.00  0.00     0.031 C 
ATOM     73  C   UNL A   1      39.177  29.948  31.613  1.00  0.00     0.037 A 
BRANCH  60  74
ATOM     74  C   UNL A   1      44.011  27.509  32.581  1.00  0.00     0.058 A 
ATOM     75  C   UNL A   1      44.557  26.357  31.987  1.00  0.00     0.135 A 
ATOM     76  C   UNL A   1      43.710  27.401  33.960  1.00  0.00     0.135 A 
ATOM     77  F   UNL A   1      44.876  26.348  30.683  1.00  0.00    -0.206 F 
ATOM     78  C   UNL A   1      44.723  25.167  32.692  1.00  0.00     0.059 A 
ATOM     79  C   UNL A   1      43.925  26.244  34.694  1.00  0.00     0.059 A 
ATOM     80  F   UNL A   1      43.099  28.370  34.651  1.00  0.00    -0.206 F 
ATOM     81  C   UNL A   1      44.389  25.118  34.042  1.00  0.00     0.060 A 
BRANCH  81  82
ATOM     82  S   UNL A   1      44.496  23.559  34.927  1.00  0.00     0.124 S 
ATOM     83  O   UNL A   1      45.923  23.275  34.843  1.00  0.00    -0.237 OA
ATOM     84  O   UNL A   1      43.990  23.926  36.245  1.00  0.00    -0.237 OA
ATOM     85  O   UNL A   1      43.629  22.673  34.154  1.00  0.00    -0.744 OA
ENDBRANCH  81  82
ENDBRANCH  60  74
BRANCH  61  86
ATOM     86  C   UNL A   1      38.664  33.067  36.674  1.00  0.00     0.058 A 
ATOM     87  C   UNL A   1      37.358  33.319  37.135  1.00  0.00     0.135 A 
ATOM     88  C   UNL A   1      39.650  32.929  37.675  1.00  0.00     0.135 A 
ATOM     89  F   UNL A   1      36.349  33.450  36.260  1.00  0.00    -0.206 F 
ATOM     90  C   UNL A   1      37.044  33.372  38.501  1.00  0.00     0.059 A 
ATOM     91  C   UNL A   1      39.364  32.994  39.036  1.00  0.00     0.059 A 
ATOM     92  F   UNL A   1      40.921  32.631  37.372  1.00  0.00    -0.206 F 
ATOM     93  C   UNL A   1      38.053  33.185  39.445  1.00  0.00     0.060 A 
BRANCH  93  94
ATOM     94  S   UNL A   1      37.638  33.049  41.200  1.00  0.00     0.124 S 
ATOM     95  O   UNL A   1      38.278  34.237  41.755  1.00  0.00    -0.237 OA
ATOM     96  O   UNL A   1      36.179  33.062  41.173  1.00  0.00    -0.237 OA
ATOM     97  O   UNL A   1      38.239  31.776  41.592  1.00  0.00    -0.744 OA
ENDBRANCH  93  94
ENDBRANCH  61  86
BRANCH  73  98
ATOM     98  C   UNL A   1      38.190  30.705  30.755  1.00  0.00     0.058 A 
ATOM     99  C   UNL A   1      36.903  30.237  30.427  1.00  0.00     0.135 A 
ATOM    100  C   UNL A   1      38.487  32.031  30.408  1.00  0.00     0.135 A 
ATOM    101  F   UNL A   1      36.494  29.024  30.824  1.00  0.00    -0.206 F 
ATOM    102  C   UNL A   1      35.975  31.029  29.749  1.00  0.00     0.059 A 
ATOM    103  C   UNL A   1      37.566  32.852  29.760  1.00  0.00     0.059 A 
ATOM    104  F   UNL A   1      39.669  32.566  30.754  1.00  0.00    -0.206 F 
ATOM    105  C   UNL A   1      36.316  32.340  29.419  1.00  0.00     0.060 A 
BRANCH 105 106
ATOM    106  S   UNL A   1      35.094  33.391  28.603  1.00  0.00     0.124 S 
ATOM    107  O   UNL A   1      33.962  32.483  28.454  1.00  0.00    -0.237 OA
ATOM    108  O   UNL A   1      34.914  34.475  29.565  1.00  0.00    -0.237 OA
ATOM    109  O   UNL A   1      35.753  33.777  27.359  1.00  0.00    -0.744 OA
ENDBRANCH 105 106
ENDBRANCH  73  98
ENDBRANCH  47  48
ENDBRANCH  40  42
ENDBRANCH  39  40
ENDBRANCH  38  39
ENDBRANCH  37  38
ENDBRANCH  36  37
ENDBRANCH  35  36
ENDBRANCH   1  35
TORSDOF 25
ENDMDL
