MODEL 1
REMARK VINA RESULT:      -9.4      0.000      0.000
REMARK SMILES Cc1ccccc1OC1(C(=O)OCCOCCOCCOCCOC(=O)c2ccc(-c3c4nc(c(-c5c(F)cc(S(=O)(=O)[O-])cc5F)c5ccc([nH]5)c(-c5c(F)cc(S(=O)(=O)[O-])cc5F)c5nc(c(-c6c(F)cc(S(=O)(=O)[O-])cc6F)c6ccc3[nH]6)C=C5)C=C4)cc2)CCN(C(=O)[C@H]2CCCCO2)CC1
REMARK SMILES IDX 19 1 18 2 17 3 16 4 15 5 14 6 13 7 12 8 10 9 11 10 9 11
REMARK SMILES IDX 93 12 105 13 94 14 104 15 95 16 96 17 97 18 8 19 7 20 1 21
REMARK SMILES IDX 2 22 3 23 4 24 6 25 5 26 98 27 99 28 103 29 100 30 102 31
REMARK SMILES IDX 101 32 20 33 21 34 22 35 23 36 24 37 25 38 26 39 27 40 28 41
REMARK SMILES IDX 92 42 29 43 91 44 30 45 31 46 32 47 85 48 33 49 90 50 84 51
REMARK SMILES IDX 86 52 34 53 89 54 83 55 82 56 35 58 69 59 48 60 68 61 49 62
REMARK SMILES IDX 52 63 67 64 87 65 50 66 51 67 66 69 88 70 53 71 36 72 37 73
REMARK SMILES IDX 46 74 38 75 39 76 45 77 47 78 40 79 41 80 42 81 43 82 44 83
REMARK SMILES IDX 70 84 71 85 80 86 72 87 73 88 79 89 81 90 74 91 75 92 76 93
REMARK SMILES IDX 77 94 78 95 54 96 55 97 64 98 56 99 57 100 63 101 65 102
REMARK SMILES IDX 58 103 59 104 60 105 61 106 62 107
REMARK H PARENT 86 57 52 68
REMARK Flexibility Score: inf
ROOT
ATOM      1  C   UNL A   1      40.288  27.144  26.894  1.00  0.00     0.188 C 
ENDROOT
BRANCH   1   2
ATOM      2  O   UNL A   1      39.847  28.461  27.239  1.00  0.00    -0.377 OA
BRANCH   2   3
ATOM      3  C   UNL A   1      38.747  28.623  28.122  1.00  0.00     0.188 C 
BRANCH   3   4
ATOM      4  C   UNL A   1      37.953  29.950  28.123  1.00  0.00     0.188 C 
BRANCH   4   5
ATOM      5  O   UNL A   1      36.569  29.951  27.817  1.00  0.00    -0.376 OA
BRANCH   5   6
ATOM      6  C   UNL A   1      35.890  31.184  28.027  1.00  0.00     0.202 C 
BRANCH   6   7
ATOM      7  C   UNL A   1      34.397  31.228  27.736  1.00  0.00     0.261 C 
BRANCH   7   8
ATOM      8  O   UNL A   1      34.088  30.217  26.782  1.00  0.00    -0.460 OA
BRANCH   8   9
ATOM      9  C   UNL A   1      32.784  30.066  26.452  1.00  0.00     0.350 C 
ATOM     10  O   UNL A   1      31.915  30.841  26.768  1.00  0.00    -0.247 OA
BRANCH   9  11
ATOM     11  C   UNL A   1      32.628  28.795  25.574  1.00  0.00     0.209 C 
ATOM     12  C   UNL A   1      33.382  28.955  24.242  1.00  0.00     0.082 C 
ATOM     13  C   UNL A   1      33.303  27.641  26.334  1.00  0.00     0.082 C 
ATOM     14  C   UNL A   1      34.033  27.741  23.595  1.00  0.00     0.124 C 
ATOM     15  C   UNL A   1      33.288  26.341  25.534  1.00  0.00     0.124 C 
ATOM     16  N   UNL A   1      33.612  26.455  24.111  1.00  0.00    -0.340 N 
ATOM     17  C   UNL A   1      33.612  25.388  23.202  1.00  0.00     0.251 C 
ATOM     18  O   UNL A   1      34.002  25.528  22.038  1.00  0.00    -0.272 OA
BRANCH  11  19
ATOM     19  O   UNL A   1      31.256  28.403  25.427  1.00  0.00    -0.475 OA
BRANCH  19  20
ATOM     20  C   UNL A   1      30.518  28.639  24.292  1.00  0.00     0.123 A 
ATOM     21  C   UNL A   1      29.967  26.169  24.220  1.00  0.00     0.048 C 
ATOM     22  C   UNL A   1      29.689  27.590  23.869  1.00  0.00    -0.009 A 
ATOM     23  C   UNL A   1      28.530  27.861  23.131  1.00  0.00     0.007 A 
ATOM     24  C   UNL A   1      28.230  29.159  22.740  1.00  0.00     0.001 A 
ATOM     25  C   UNL A   1      30.255  29.927  23.819  1.00  0.00     0.047 A 
ATOM     26  C   UNL A   1      29.123  30.182  23.033  1.00  0.00     0.004 A 
ENDBRANCH  19  20
ENDBRANCH  11  19
BRANCH  17  27
ATOM     27  C   UNL A   1      33.017  24.042  23.671  1.00  0.00     0.207 C 
ATOM     28  C   UNL A   1      32.818  23.147  22.442  1.00  0.00     0.042 C 
ATOM     29  O   UNL A   1      33.907  23.387  24.586  1.00  0.00    -0.368 OA
ATOM     30  C   UNL A   1      32.340  21.757  22.821  1.00  0.00     0.006 C 
ATOM     31  C   UNL A   1      33.415  22.133  25.039  1.00  0.00     0.161 C 
ATOM     32  C   UNL A   1      33.256  21.162  23.877  1.00  0.00     0.029 C 
ENDBRANCH  17  27
ENDBRANCH   9  11
ENDBRANCH   8   9
ENDBRANCH   7   8
ENDBRANCH   6   7
ENDBRANCH   5   6
ENDBRANCH   4   5
ENDBRANCH   3   4
ENDBRANCH   2   3
ENDBRANCH   1   2
BRANCH   1  33
ATOM     33  C   UNL A   1      39.721  25.983  27.691  1.00  0.00     0.188 C 
BRANCH  33  34
ATOM     34  O   UNL A   1      39.525  24.911  26.764  1.00  0.00    -0.376 OA
BRANCH  34  35
ATOM     35  C   UNL A   1      38.765  23.806  27.212  1.00  0.00     0.202 C 
BRANCH  35  36
ATOM     36  C   UNL A   1      38.600  22.699  26.177  1.00  0.00     0.261 C 
BRANCH  36  37
ATOM     37  O   UNL A   1      39.778  21.856  26.036  1.00  0.00    -0.460 OA
BRANCH  37  38
ATOM     38  C   UNL A   1      40.543  21.448  27.095  1.00  0.00     0.338 C 
ATOM     39  O   UNL A   1      40.404  20.347  27.611  1.00  0.00    -0.246 OA
BRANCH  38  40
ATOM     40  C   UNL A   1      41.756  22.268  27.362  1.00  0.00     0.060 A 
ATOM     41  C   UNL A   1      42.284  22.435  28.651  1.00  0.00     0.016 A 
ATOM     42  C   UNL A   1      42.391  22.893  26.311  1.00  0.00     0.016 A 
ATOM     43  C   UNL A   1      43.279  23.405  28.915  1.00  0.00     0.010 A 
ATOM     44  C   UNL A   1      43.313  23.891  26.581  1.00  0.00     0.010 A 
ATOM     45  C   UNL A   1      43.749  24.208  27.880  1.00  0.00    -0.014 A 
BRANCH  45  46
ATOM     46  C   UNL A   1      44.573  25.443  28.003  1.00  0.00     0.031 A 
ATOM     47  C   UNL A   1      45.932  25.481  27.330  1.00  0.00     0.074 A 
ATOM     48  C   UNL A   1      43.956  26.605  28.351  1.00  0.00     0.049 A 
ATOM     49  N   UNL A   1      46.662  26.530  27.145  1.00  0.00    -0.248 NA
ATOM     50  C   UNL A   1      46.580  24.293  26.762  1.00  0.00     0.031 C 
ATOM     51  C   UNL A   1      44.276  27.942  27.834  1.00  0.00     0.029 A 
ATOM     52  N   UNL A   1      42.831  26.872  29.119  1.00  0.00    -0.354 N 
ATOM     53  C   UNL A   1      47.640  26.249  26.199  1.00  0.00     0.074 A 
ATOM     54  C   UNL A   1      47.588  24.819  26.052  1.00  0.00     0.031 C 
ATOM     55  C   UNL A   1      43.408  28.854  28.299  1.00  0.00     0.029 A 
ATOM     56  C   UNL A   1      42.735  28.239  29.407  1.00  0.00     0.049 A 
ATOM     57  H   UNL A   1      42.187  26.191  29.419  1.00  0.00     0.167 HD
ATOM     58  C   UNL A   1      48.288  27.282  25.566  1.00  0.00     0.037 A 
ATOM     59  C   UNL A   1      42.935  28.723  30.674  1.00  0.00     0.037 A 
ATOM     60  C   UNL A   1      47.956  28.571  26.202  1.00  0.00     0.049 A 
ATOM     61  C   UNL A   1      44.286  29.441  30.808  1.00  0.00     0.074 A 
ATOM     62  C   UNL A   1      47.460  29.782  25.751  1.00  0.00     0.029 A 
ATOM     63  N   UNL A   1      47.988  28.668  27.594  1.00  0.00    -0.354 N 
ATOM     64  N   UNL A   1      45.294  29.218  29.991  1.00  0.00    -0.248 NA
ATOM     65  C   UNL A   1      44.587  30.545  31.720  1.00  0.00     0.031 C 
ATOM     66  C   UNL A   1      47.055  30.538  26.892  1.00  0.00     0.029 A 
ATOM     67  C   UNL A   1      47.381  29.822  28.037  1.00  0.00     0.049 A 
ATOM     68  H   UNL A   1      48.396  27.996  28.185  1.00  0.00     0.167 HD
ATOM     69  C   UNL A   1      46.297  30.120  30.195  1.00  0.00     0.074 A 
ATOM     70  C   UNL A   1      45.820  30.914  31.313  1.00  0.00     0.031 C 
ATOM     71  C   UNL A   1      47.442  30.179  29.448  1.00  0.00     0.037 A 
BRANCH  58  72
ATOM     72  C   UNL A   1      49.105  27.217  24.259  1.00  0.00     0.058 A 
ATOM     73  C   UNL A   1      50.499  26.953  24.304  1.00  0.00     0.135 A 
ATOM     74  C   UNL A   1      48.628  27.514  22.961  1.00  0.00     0.135 A 
ATOM     75  F   UNL A   1      51.103  26.627  25.455  1.00  0.00    -0.206 F 
ATOM     76  C   UNL A   1      51.343  27.010  23.183  1.00  0.00     0.059 A 
ATOM     77  C   UNL A   1      49.448  27.526  21.813  1.00  0.00     0.059 A 
ATOM     78  F   UNL A   1      47.351  27.851  22.744  1.00  0.00    -0.206 F 
ATOM     79  C   UNL A   1      50.811  27.293  21.934  1.00  0.00     0.060 A 
BRANCH  79  80
ATOM     80  S   UNL A   1      51.910  27.314  20.495  1.00  0.00     0.124 S 
ATOM     81  O   UNL A   1      52.202  25.896  20.307  1.00  0.00    -0.237 OA
ATOM     82  O   UNL A   1      51.072  27.928  19.469  1.00  0.00    -0.237 OA
ATOM     83  O   UNL A   1      53.039  28.129  20.938  1.00  0.00    -0.744 OA
ENDBRANCH  79  80
ENDBRANCH  58  72
BRANCH  59  84
ATOM     84  C   UNL A   1      42.044  28.017  31.656  1.00  0.00     0.058 A 
ATOM     85  C   UNL A   1      42.769  27.369  32.686  1.00  0.00     0.135 A 
ATOM     86  C   UNL A   1      40.841  28.640  32.036  1.00  0.00     0.135 A 
ATOM     87  F   UNL A   1      43.888  26.691  32.381  1.00  0.00    -0.206 F 
ATOM     88  C   UNL A   1      42.516  27.627  34.033  1.00  0.00     0.059 A 
ATOM     89  C   UNL A   1      40.560  28.901  33.386  1.00  0.00     0.059 A 
ATOM     90  F   UNL A   1      40.073  29.233  31.108  1.00  0.00    -0.206 F 
ATOM     91  C   UNL A   1      41.457  28.466  34.367  1.00  0.00     0.060 A 
BRANCH  91  92
ATOM     92  S   UNL A   1      41.447  29.203  36.029  1.00  0.00     0.124 S 
ATOM     93  O   UNL A   1      40.029  29.452  36.248  1.00  0.00    -0.237 OA
ATOM     94  O   UNL A   1      42.053  28.149  36.840  1.00  0.00    -0.237 OA
ATOM     95  O   UNL A   1      42.278  30.387  35.861  1.00  0.00    -0.744 OA
ENDBRANCH  91  92
ENDBRANCH  59  84
BRANCH  71  96
ATOM     96  C   UNL A   1      48.782  30.607  30.005  1.00  0.00     0.058 A 
ATOM     97  C   UNL A   1      49.337  31.870  29.746  1.00  0.00     0.135 A 
ATOM     98  C   UNL A   1      49.443  29.846  31.006  1.00  0.00     0.135 A 
ATOM     99  F   UNL A   1      48.739  32.748  28.929  1.00  0.00    -0.206 F 
ATOM    100  C   UNL A   1      50.507  32.309  30.355  1.00  0.00     0.059 A 
ATOM    101  C   UNL A   1      50.575  30.295  31.677  1.00  0.00     0.059 A 
ATOM    102  F   UNL A   1      48.996  28.644  31.397  1.00  0.00    -0.206 F 
ATOM    103  C   UNL A   1      51.123  31.513  31.314  1.00  0.00     0.060 A 
BRANCH 103 104
ATOM    104  S   UNL A   1      52.635  32.100  32.085  1.00  0.00     0.124 S 
ATOM    105  O   UNL A   1      53.446  30.886  32.074  1.00  0.00    -0.237 OA
ATOM    106  O   UNL A   1      53.066  33.156  31.173  1.00  0.00    -0.237 OA
ATOM    107  O   UNL A   1      52.195  32.556  33.399  1.00  0.00    -0.744 OA
ENDBRANCH 103 104
ENDBRANCH  71  96
ENDBRANCH  45  46
ENDBRANCH  38  40
ENDBRANCH  37  38
ENDBRANCH  36  37
ENDBRANCH  35  36
ENDBRANCH  34  35
ENDBRANCH  33  34
ENDBRANCH   1  33
TORSDOF 26
ENDMDL
MODEL 2
REMARK VINA RESULT:      -8.9      4.640      8.918
REMARK SMILES Cc1ccccc1OC1(C(=O)OCCOCCOCCOCCOC(=O)c2ccc(-c3c4nc(c(-c5c(F)cc(S(=O)(=O)[O-])cc5F)c5ccc([nH]5)c(-c5c(F)cc(S(=O)(=O)[O-])cc5F)c5nc(c(-c6c(F)cc(S(=O)(=O)[O-])cc6F)c6ccc3[nH]6)C=C5)C=C4)cc2)CCN(C(=O)[C@H]2CCCCO2)CC1
REMARK SMILES IDX 19 1 18 2 17 3 16 4 15 5 14 6 13 7 12 8 10 9 11 10 9 11
REMARK SMILES IDX 93 12 105 13 94 14 104 15 95 16 96 17 97 18 8 19 7 20 1 21
REMARK SMILES IDX 2 22 3 23 4 24 6 25 5 26 98 27 99 28 103 29 100 30 102 31
REMARK SMILES IDX 101 32 20 33 21 34 22 35 23 36 24 37 25 38 26 39 27 40 28 41
REMARK SMILES IDX 92 42 29 43 91 44 30 45 31 46 32 47 85 48 33 49 90 50 84 51
REMARK SMILES IDX 86 52 34 53 89 54 83 55 82 56 35 58 69 59 48 60 68 61 49 62
REMARK SMILES IDX 52 63 67 64 87 65 50 66 51 67 66 69 88 70 53 71 36 72 37 73
REMARK SMILES IDX 46 74 38 75 39 76 45 77 47 78 40 79 41 80 42 81 43 82 44 83
REMARK SMILES IDX 70 84 71 85 80 86 72 87 73 88 79 89 81 90 74 91 75 92 76 93
REMARK SMILES IDX 77 94 78 95 54 96 55 97 64 98 56 99 57 100 63 101 65 102
REMARK SMILES IDX 58 103 59 104 60 105 61 106 62 107
REMARK H PARENT 86 57 52 68
REMARK Flexibility Score: inf
ROOT
ATOM      1  C   UNL A   1      40.072  27.047  27.439  1.00  0.00     0.188 C 
ENDROOT
BRANCH   1   2
ATOM      2  O   UNL A   1      39.369  28.263  27.709  1.00  0.00    -0.377 OA
BRANCH   2   3
ATOM      3  C   UNL A   1      38.061  28.209  28.258  1.00  0.00     0.188 C 
BRANCH   3   4
ATOM      4  C   UNL A   1      37.482  29.446  28.984  1.00  0.00     0.188 C 
BRANCH   4   5
ATOM      5  O   UNL A   1      36.109  29.772  28.848  1.00  0.00    -0.376 OA
BRANCH   5   6
ATOM      6  C   UNL A   1      35.829  31.013  28.210  1.00  0.00     0.202 C 
BRANCH   6   7
ATOM      7  C   UNL A   1      34.413  31.242  27.700  1.00  0.00     0.261 C 
BRANCH   7   8
ATOM      8  O   UNL A   1      33.932  30.030  27.127  1.00  0.00    -0.460 OA
BRANCH   8   9
ATOM      9  C   UNL A   1      32.767  30.099  26.441  1.00  0.00     0.350 C 
ATOM     10  O   UNL A   1      32.010  31.037  26.491  1.00  0.00    -0.247 OA
BRANCH   9  11
ATOM     11  C   UNL A   1      32.622  28.826  25.563  1.00  0.00     0.209 C 
ATOM     12  C   UNL A   1      33.373  28.992  24.231  1.00  0.00     0.082 C 
ATOM     13  C   UNL A   1      33.306  27.678  26.323  1.00  0.00     0.082 C 
ATOM     14  C   UNL A   1      34.034  27.783  23.584  1.00  0.00     0.124 C 
ATOM     15  C   UNL A   1      33.302  26.377  25.524  1.00  0.00     0.124 C 
ATOM     16  N   UNL A   1      33.624  26.493  24.101  1.00  0.00    -0.340 N 
ATOM     17  C   UNL A   1      33.632  25.426  23.192  1.00  0.00     0.251 C 
ATOM     18  O   UNL A   1      34.020  25.569  22.028  1.00  0.00    -0.272 OA
BRANCH  11  19
ATOM     19  O   UNL A   1      31.252  28.422  25.418  1.00  0.00    -0.475 OA
BRANCH  19  20
ATOM     20  C   UNL A   1      30.518  28.634  24.276  1.00  0.00     0.123 A 
ATOM     21  C   UNL A   1      29.973  26.163  24.250  1.00  0.00     0.048 C 
ATOM     22  C   UNL A   1      29.693  27.576  23.870  1.00  0.00    -0.009 A 
ATOM     23  C   UNL A   1      28.536  27.829  23.124  1.00  0.00     0.007 A 
ATOM     24  C   UNL A   1      28.234  29.119  22.707  1.00  0.00     0.001 A 
ATOM     25  C   UNL A   1      30.253  29.912  23.778  1.00  0.00     0.047 A 
ATOM     26  C   UNL A   1      29.122  30.149  22.983  1.00  0.00     0.004 A 
ENDBRANCH  19  20
ENDBRANCH  11  19
BRANCH  17  27
ATOM     27  C   UNL A   1      33.049  24.075  23.663  1.00  0.00     0.207 C 
ATOM     28  C   UNL A   1      32.663  23.258  22.424  1.00  0.00     0.042 C 
ATOM     29  O   UNL A   1      34.020  23.342  24.422  1.00  0.00    -0.368 OA
ATOM     30  C   UNL A   1      32.182  21.865  22.787  1.00  0.00     0.006 C 
ATOM     31  C   UNL A   1      33.540  22.080  24.868  1.00  0.00     0.161 C 
ATOM     32  C   UNL A   1      33.199  21.182  23.686  1.00  0.00     0.029 C 
ENDBRANCH  17  27
ENDBRANCH   9  11
ENDBRANCH   8   9
ENDBRANCH   7   8
ENDBRANCH   6   7
ENDBRANCH   5   6
ENDBRANCH   4   5
ENDBRANCH   3   4
ENDBRANCH   2   3
ENDBRANCH   1   2
BRANCH   1  33
ATOM     33  C   UNL A   1      39.252  25.777  27.301  1.00  0.00     0.188 C 
BRANCH  33  34
ATOM     34  O   UNL A   1      39.849  24.810  28.169  1.00  0.00    -0.376 OA
BRANCH  34  35
ATOM     35  C   UNL A   1      40.174  23.555  27.605  1.00  0.00     0.202 C 
BRANCH  35  36
ATOM     36  C   UNL A   1      41.477  23.543  26.814  1.00  0.00     0.261 C 
BRANCH  36  37
ATOM     37  O   UNL A   1      42.417  24.575  27.226  1.00  0.00    -0.460 OA
BRANCH  37  38
ATOM     38  C   UNL A   1      42.923  24.668  28.495  1.00  0.00     0.338 C 
ATOM     39  O   UNL A   1      43.182  23.678  29.166  1.00  0.00    -0.246 OA
BRANCH  38  40
ATOM     40  C   UNL A   1      43.446  26.007  28.878  1.00  0.00     0.060 A 
ATOM     41  C   UNL A   1      43.531  26.430  30.213  1.00  0.00     0.016 A 
ATOM     42  C   UNL A   1      43.865  26.874  27.891  1.00  0.00     0.016 A 
ATOM     43  C   UNL A   1      43.796  27.781  30.537  1.00  0.00     0.010 A 
ATOM     44  C   UNL A   1      44.054  28.209  28.206  1.00  0.00     0.010 A 
ATOM     45  C   UNL A   1      43.982  28.710  29.519  1.00  0.00    -0.014 A 
BRANCH  45  46
ATOM     46  C   UNL A   1      43.997  30.195  29.647  1.00  0.00     0.031 A 
ATOM     47  C   UNL A   1      42.673  30.930  29.742  1.00  0.00     0.074 A 
ATOM     48  C   UNL A   1      45.141  30.801  30.066  1.00  0.00     0.049 A 
ATOM     49  N   UNL A   1      42.510  32.166  30.081  1.00  0.00    -0.248 NA
ATOM     50  C   UNL A   1      41.378  30.289  29.483  1.00  0.00     0.031 C 
ATOM     51  C   UNL A   1      45.225  31.971  30.948  1.00  0.00     0.029 A 
ATOM     52  N   UNL A   1      46.480  30.459  29.937  1.00  0.00    -0.354 N 
ATOM     53  C   UNL A   1      41.176  32.381  30.404  1.00  0.00     0.074 A 
ATOM     54  C   UNL A   1      40.505  31.197  29.941  1.00  0.00     0.031 C 
ATOM     55  C   UNL A   1      46.503  32.248  31.254  1.00  0.00     0.029 A 
ATOM     56  C   UNL A   1      47.306  31.528  30.308  1.00  0.00     0.049 A 
ATOM     57  H   UNL A   1      46.805  29.583  29.627  1.00  0.00     0.167 HD
ATOM     58  C   UNL A   1      40.828  33.489  31.139  1.00  0.00     0.037 A 
ATOM     59  C   UNL A   1      48.048  32.218  29.385  1.00  0.00     0.037 A 
ATOM     60  C   UNL A   1      41.976  34.407  31.271  1.00  0.00     0.049 A 
ATOM     61  C   UNL A   1      47.459  33.607  29.098  1.00  0.00     0.074 A 
ATOM     62  C   UNL A   1      42.629  35.004  32.335  1.00  0.00     0.029 A 
ATOM     63  N   UNL A   1      42.734  34.711  30.140  1.00  0.00    -0.354 N 
ATOM     64  N   UNL A   1      46.198  33.906  29.328  1.00  0.00    -0.248 NA
ATOM     65  C   UNL A   1      48.214  34.796  28.698  1.00  0.00     0.031 C 
ATOM     66  C   UNL A   1      43.861  35.533  31.847  1.00  0.00     0.029 A 
ATOM     67  C   UNL A   1      43.918  35.330  30.474  1.00  0.00     0.049 A 
ATOM     68  H   UNL A   1      42.456  34.509  29.218  1.00  0.00     0.167 HD
ATOM     69  C   UNL A   1      45.979  35.245  29.184  1.00  0.00     0.074 A 
ATOM     70  C   UNL A   1      47.269  35.757  28.756  1.00  0.00     0.031 C 
ATOM     71  C   UNL A   1      44.781  35.859  29.426  1.00  0.00     0.037 A 
BRANCH  58  72
ATOM     72  C   UNL A   1      39.515  33.727  31.912  1.00  0.00     0.058 A 
ATOM     73  C   UNL A   1      39.397  33.303  33.261  1.00  0.00     0.135 A 
ATOM     74  C   UNL A   1      38.312  34.244  31.376  1.00  0.00     0.135 A 
ATOM     75  F   UNL A   1      40.453  32.813  33.926  1.00  0.00    -0.206 F 
ATOM     76  C   UNL A   1      38.202  33.353  33.996  1.00  0.00     0.059 A 
ATOM     77  C   UNL A   1      37.113  34.352  32.113  1.00  0.00     0.059 A 
ATOM     78  F   UNL A   1      38.223  34.631  30.098  1.00  0.00    -0.206 F 
ATOM     79  C   UNL A   1      37.059  33.885  33.418  1.00  0.00     0.060 A 
BRANCH  79  80
ATOM     80  S   UNL A   1      35.542  33.985  34.401  1.00  0.00     0.124 S 
ATOM     81  O   UNL A   1      36.006  33.598  35.730  1.00  0.00    -0.237 OA
ATOM     82  O   UNL A   1      35.160  35.386  34.249  1.00  0.00    -0.237 OA
ATOM     83  O   UNL A   1      34.649  33.029  33.751  1.00  0.00    -0.744 OA
ENDBRANCH  79  80
ENDBRANCH  58  72
BRANCH  59  84
ATOM     84  C   UNL A   1      48.902  31.277  28.584  1.00  0.00     0.058 A 
ATOM     85  C   UNL A   1      49.794  30.527  29.390  1.00  0.00     0.135 A 
ATOM     86  C   UNL A   1      48.315  30.596  27.502  1.00  0.00     0.135 A 
ATOM     87  F   UNL A   1      50.447  31.134  30.395  1.00  0.00    -0.206 F 
ATOM     88  C   UNL A   1      49.820  29.133  29.350  1.00  0.00     0.059 A 
ATOM     89  C   UNL A   1      48.338  29.194  27.436  1.00  0.00     0.059 A 
ATOM     90  F   UNL A   1      47.497  31.252  26.665  1.00  0.00    -0.206 F 
ATOM     91  C   UNL A   1      49.020  28.474  28.421  1.00  0.00     0.060 A 
BRANCH  91  92
ATOM     92  S   UNL A   1      48.659  26.715  28.705  1.00  0.00     0.124 S 
ATOM     93  O   UNL A   1      49.488  26.413  29.863  1.00  0.00    -0.237 OA
ATOM     94  O   UNL A   1      47.215  26.727  28.927  1.00  0.00    -0.237 OA
ATOM     95  O   UNL A   1      49.071  26.095  27.453  1.00  0.00    -0.744 OA
ENDBRANCH  91  92
ENDBRANCH  59  84
BRANCH  71  96
ATOM     96  C   UNL A   1      44.297  37.075  28.667  1.00  0.00     0.058 A 
ATOM     97  C   UNL A   1      44.237  38.352  29.248  1.00  0.00     0.135 A 
ATOM     98  C   UNL A   1      44.098  37.037  27.261  1.00  0.00     0.135 A 
ATOM     99  F   UNL A   1      44.541  38.553  30.538  1.00  0.00    -0.206 F 
ATOM    100  C   UNL A   1      43.910  39.488  28.518  1.00  0.00     0.059 A 
ATOM    101  C   UNL A   1      43.837  38.173  26.501  1.00  0.00     0.059 A 
ATOM    102  F   UNL A   1      44.178  35.897  26.561  1.00  0.00    -0.206 F 
ATOM    103  C   UNL A   1      43.705  39.389  27.147  1.00  0.00     0.060 A 
BRANCH 103 104
ATOM    104  S   UNL A   1      43.280  40.871  26.226  1.00  0.00     0.124 S 
ATOM    105  O   UNL A   1      43.414  41.893  27.260  1.00  0.00    -0.237 OA
ATOM    106  O   UNL A   1      44.298  40.895  25.179  1.00  0.00    -0.237 OA
ATOM    107  O   UNL A   1      41.921  40.610  25.765  1.00  0.00    -0.744 OA
ENDBRANCH 103 104
ENDBRANCH  71  96
ENDBRANCH  45  46
ENDBRANCH  38  40
ENDBRANCH  37  38
ENDBRANCH  36  37
ENDBRANCH  35  36
ENDBRANCH  34  35
ENDBRANCH  33  34
ENDBRANCH   1  33
TORSDOF 26
ENDMDL
MODEL 3
REMARK VINA RESULT:      -8.6      5.357     10.716
REMARK SMILES Cc1ccccc1OC1(C(=O)OCCOCCOCCOCCOC(=O)c2ccc(-c3c4nc(c(-c5c(F)cc(S(=O)(=O)[O-])cc5F)c5ccc([nH]5)c(-c5c(F)cc(S(=O)(=O)[O-])cc5F)c5nc(c(-c6c(F)cc(S(=O)(=O)[O-])cc6F)c6ccc3[nH]6)C=C5)C=C4)cc2)CCN(C(=O)[C@H]2CCCCO2)CC1
REMARK SMILES IDX 19 1 18 2 17 3 16 4 15 5 14 6 13 7 12 8 10 9 11 10 9 11
REMARK SMILES IDX 93 12 105 13 94 14 104 15 95 16 96 17 97 18 8 19 7 20 1 21
REMARK SMILES IDX 2 22 3 23 4 24 6 25 5 26 98 27 99 28 103 29 100 30 102 31
REMARK SMILES IDX 101 32 20 33 21 34 22 35 23 36 24 37 25 38 26 39 27 40 28 41
REMARK SMILES IDX 92 42 29 43 91 44 30 45 31 46 32 47 85 48 33 49 90 50 84 51
REMARK SMILES IDX 86 52 34 53 89 54 83 55 82 56 35 58 69 59 48 60 68 61 49 62
REMARK SMILES IDX 52 63 67 64 87 65 50 66 51 67 66 69 88 70 53 71 36 72 37 73
REMARK SMILES IDX 46 74 38 75 39 76 45 77 47 78 40 79 41 80 42 81 43 82 44 83
REMARK SMILES IDX 70 84 71 85 80 86 72 87 73 88 79 89 81 90 74 91 75 92 76 93
REMARK SMILES IDX 77 94 78 95 54 96 55 97 64 98 56 99 57 100 63 101 65 102
REMARK SMILES IDX 58 103 59 104 60 105 61 106 62 107
REMARK H PARENT 86 57 52 68
REMARK Flexibility Score: inf
ROOT
ATOM      1  C   UNL A   1      42.552  22.267  27.579  1.00  0.00     0.188 C 
ENDROOT
BRANCH   1   2
ATOM      2  O   UNL A   1      41.522  21.403  27.089  1.00  0.00    -0.377 OA
BRANCH   2   3
ATOM      3  C   UNL A   1      40.670  21.849  26.044  1.00  0.00     0.188 C 
BRANCH   3   4
ATOM      4  C   UNL A   1      39.161  22.045  26.315  1.00  0.00     0.188 C 
BRANCH   4   5
ATOM      5  O   UNL A   1      38.203  21.582  25.378  1.00  0.00    -0.376 OA
BRANCH   5   6
ATOM      6  C   UNL A   1      36.953  22.263  25.384  1.00  0.00     0.202 C 
BRANCH   6   7
ATOM      7  C   UNL A   1      36.909  23.666  24.797  1.00  0.00     0.261 C 
BRANCH   7   8
ATOM      8  O   UNL A   1      35.565  24.136  24.837  1.00  0.00    -0.460 OA
BRANCH   8   9
ATOM      9  C   UNL A   1      34.889  24.156  23.665  1.00  0.00     0.350 C 
ATOM     10  O   UNL A   1      35.152  23.448  22.724  1.00  0.00    -0.247 OA
BRANCH   9  11
ATOM     11  C   UNL A   1      33.721  25.174  23.772  1.00  0.00     0.209 C 
ATOM     12  C   UNL A   1      34.057  26.286  24.781  1.00  0.00     0.082 C 
ATOM     13  C   UNL A   1      33.585  25.845  22.395  1.00  0.00     0.082 C 
ATOM     14  C   UNL A   1      33.546  27.699  24.541  1.00  0.00     0.124 C 
ATOM     15  C   UNL A   1      32.515  26.933  22.391  1.00  0.00     0.124 C 
ATOM     16  N   UNL A   1      32.497  27.827  23.550  1.00  0.00    -0.340 N 
ATOM     17  C   UNL A   1      31.570  28.858  23.753  1.00  0.00     0.251 C 
ATOM     18  O   UNL A   1      31.674  29.648  24.696  1.00  0.00    -0.272 OA
BRANCH  11  19
ATOM     19  O   UNL A   1      32.461  24.530  24.007  1.00  0.00    -0.475 OA
BRANCH  19  20
ATOM     20  C   UNL A   1      32.001  24.201  25.259  1.00  0.00     0.123 A 
ATOM     21  C   UNL A   1      30.032  25.742  24.865  1.00  0.00     0.048 C 
ATOM     22  C   UNL A   1      30.689  24.596  25.556  1.00  0.00    -0.009 A 
ATOM     23  C   UNL A   1      29.932  23.883  26.492  1.00  0.00     0.007 A 
ATOM     24  C   UNL A   1      30.494  22.827  27.196  1.00  0.00     0.001 A 
ATOM     25  C   UNL A   1      32.584  23.196  26.035  1.00  0.00     0.047 A 
ATOM     26  C   UNL A   1      31.835  22.522  27.011  1.00  0.00     0.004 A 
ENDBRANCH  19  20
ENDBRANCH  11  19
BRANCH  17  27
ATOM     27  C   UNL A   1      30.348  28.923  22.809  1.00  0.00     0.207 C 
ATOM     28  C   UNL A   1      29.079  28.741  23.649  1.00  0.00     0.042 C 
ATOM     29  O   UNL A   1      30.290  30.193  22.144  1.00  0.00    -0.368 OA
ATOM     30  C   UNL A   1      27.818  28.904  22.820  1.00  0.00     0.006 C 
ATOM     31  C   UNL A   1      29.173  30.314  21.273  1.00  0.00     0.161 C 
ATOM     32  C   UNL A   1      27.867  30.212  22.050  1.00  0.00     0.029 C 
ENDBRANCH  17  27
ENDBRANCH   9  11
ENDBRANCH   8   9
ENDBRANCH   7   8
ENDBRANCH   6   7
ENDBRANCH   5   6
ENDBRANCH   4   5
ENDBRANCH   3   4
ENDBRANCH   2   3
ENDBRANCH   1   2
BRANCH   1  33
ATOM     33  C   UNL A   1      43.533  22.833  26.568  1.00  0.00     0.188 C 
BRANCH  33  34
ATOM     34  O   UNL A   1      43.078  24.151  26.252  1.00  0.00    -0.376 OA
BRANCH  34  35
ATOM     35  C   UNL A   1      43.792  25.231  26.821  1.00  0.00     0.202 C 
BRANCH  35  36
ATOM     36  C   UNL A   1      42.968  26.098  27.765  1.00  0.00     0.261 C 
BRANCH  36  37
ATOM     37  O   UNL A   1      43.776  26.913  28.660  1.00  0.00    -0.460 OA
BRANCH  37  38
ATOM     38  C   UNL A   1      44.016  28.245  28.455  1.00  0.00     0.338 C 
ATOM     39  O   UNL A   1      44.689  28.647  27.515  1.00  0.00    -0.246 OA
BRANCH  38  40
ATOM     40  C   UNL A   1      43.154  29.178  29.230  1.00  0.00     0.060 A 
ATOM     41  C   UNL A   1      43.012  30.532  28.891  1.00  0.00     0.016 A 
ATOM     42  C   UNL A   1      42.466  28.704  30.327  1.00  0.00     0.016 A 
ATOM     43  C   UNL A   1      42.391  31.446  29.773  1.00  0.00     0.010 A 
ATOM     44  C   UNL A   1      41.922  29.611  31.221  1.00  0.00     0.010 A 
ATOM     45  C   UNL A   1      41.907  31.000  30.999  1.00  0.00    -0.014 A 
BRANCH  45  46
ATOM     46  C   UNL A   1      41.480  31.836  32.157  1.00  0.00     0.031 A 
ATOM     47  C   UNL A   1      42.512  32.209  33.204  1.00  0.00     0.074 A 
ATOM     48  C   UNL A   1      40.330  32.555  32.051  1.00  0.00     0.049 A 
ATOM     49  N   UNL A   1      42.371  33.098  34.130  1.00  0.00    -0.248 NA
ATOM     50  C   UNL A   1      43.848  31.605  33.266  1.00  0.00     0.031 C 
ATOM     51  C   UNL A   1      40.099  33.899  32.595  1.00  0.00     0.029 A 
ATOM     52  N   UNL A   1      39.160  32.345  31.335  1.00  0.00    -0.354 N 
ATOM     53  C   UNL A   1      43.617  33.417  34.655  1.00  0.00     0.074 A 
ATOM     54  C   UNL A   1      44.490  32.401  34.132  1.00  0.00     0.031 C 
ATOM     55  C   UNL A   1      38.897  34.367  32.219  1.00  0.00     0.029 A 
ATOM     56  C   UNL A   1      38.156  33.232  31.747  1.00  0.00     0.049 A 
ATOM     57  H   UNL A   1      39.050  31.665  30.633  1.00  0.00     0.167 HD
ATOM     58  C   UNL A   1      43.774  34.579  35.371  1.00  0.00     0.037 A 
ATOM     59  C   UNL A   1      37.058  32.802  32.445  1.00  0.00     0.037 A 
ATOM     60  C   UNL A   1      42.464  35.201  35.646  1.00  0.00     0.049 A 
ATOM     61  C   UNL A   1      37.128  33.198  33.927  1.00  0.00     0.074 A 
ATOM     62  C   UNL A   1      41.915  36.453  35.431  1.00  0.00     0.029 A 
ATOM     63  N   UNL A   1      41.419  34.402  36.112  1.00  0.00    -0.354 N 
ATOM     64  N   UNL A   1      38.261  33.480  34.535  1.00  0.00    -0.248 NA
ATOM     65  C   UNL A   1      35.985  33.468  34.801  1.00  0.00     0.031 C 
ATOM     66  C   UNL A   1      40.505  36.348  35.626  1.00  0.00     0.029 A 
ATOM     67  C   UNL A   1      40.209  35.055  36.039  1.00  0.00     0.049 A 
ATOM     68  H   UNL A   1      41.533  33.485  36.451  1.00  0.00     0.167 HD
ATOM     69  C   UNL A   1      38.034  33.995  35.777  1.00  0.00     0.074 A 
ATOM     70  C   UNL A   1      36.590  33.938  35.912  1.00  0.00     0.031 C 
ATOM     71  C   UNL A   1      39.018  34.444  36.616  1.00  0.00     0.037 A 
BRANCH  58  72
ATOM     72  C   UNL A   1      45.093  35.301  35.710  1.00  0.00     0.058 A 
ATOM     73  C   UNL A   1      45.749  35.044  36.943  1.00  0.00     0.135 A 
ATOM     74  C   UNL A   1      45.704  36.326  34.950  1.00  0.00     0.135 A 
ATOM     75  F   UNL A   1      45.313  34.083  37.770  1.00  0.00    -0.206 F 
ATOM     76  C   UNL A   1      46.875  35.752  37.394  1.00  0.00     0.059 A 
ATOM     77  C   UNL A   1      46.866  37.014  35.360  1.00  0.00     0.059 A 
ATOM     78  F   UNL A   1      45.182  36.744  33.791  1.00  0.00    -0.206 F 
ATOM     79  C   UNL A   1      47.435  36.736  36.594  1.00  0.00     0.060 A 
BRANCH  79  80
ATOM     80  S   UNL A   1      48.916  37.602  37.174  1.00  0.00     0.124 S 
ATOM     81  O   UNL A   1      48.820  38.881  36.477  1.00  0.00    -0.237 OA
ATOM     82  O   UNL A   1      48.706  37.652  38.618  1.00  0.00    -0.237 OA
ATOM     83  O   UNL A   1      50.010  36.737  36.740  1.00  0.00    -0.744 OA
ENDBRANCH  79  80
ENDBRANCH  58  72
BRANCH  59  84
ATOM     84  C   UNL A   1      36.367  31.689  31.710  1.00  0.00     0.058 A 
ATOM     85  C   UNL A   1      36.111  32.006  30.353  1.00  0.00     0.135 A 
ATOM     86  C   UNL A   1      36.759  30.364  31.978  1.00  0.00     0.135 A 
ATOM     87  F   UNL A   1      35.662  33.231  30.033  1.00  0.00    -0.206 F 
ATOM     88  C   UNL A   1      36.556  31.189  29.313  1.00  0.00     0.059 A 
ATOM     89  C   UNL A   1      37.201  29.521  30.947  1.00  0.00     0.059 A 
ATOM     90  F   UNL A   1      36.972  29.975  33.245  1.00  0.00    -0.206 F 
ATOM     91  C   UNL A   1      37.178  29.984  29.628  1.00  0.00     0.060 A 
BRANCH  91  92
ATOM     92  S   UNL A   1      38.196  29.193  28.347  1.00  0.00     0.124 S 
ATOM     93  O   UNL A   1      38.125  27.788  28.719  1.00  0.00    -0.237 OA
ATOM     94  O   UNL A   1      37.501  29.574  27.119  1.00  0.00    -0.237 OA
ATOM     95  O   UNL A   1      39.493  29.830  28.527  1.00  0.00    -0.744 OA
ENDBRANCH  91  92
ENDBRANCH  59  84
BRANCH  71  96
ATOM     96  C   UNL A   1      38.939  34.351  38.124  1.00  0.00     0.058 A 
ATOM     97  C   UNL A   1      39.021  35.479  38.954  1.00  0.00     0.135 A 
ATOM     98  C   UNL A   1      38.544  33.148  38.769  1.00  0.00     0.135 A 
ATOM     99  F   UNL A   1      39.247  36.704  38.458  1.00  0.00    -0.206 F 
ATOM    100  C   UNL A   1      38.826  35.409  40.328  1.00  0.00     0.059 A 
ATOM    101  C   UNL A   1      38.277  33.071  40.132  1.00  0.00     0.059 A 
ATOM    102  F   UNL A   1      38.371  32.002  38.095  1.00  0.00    -0.206 F 
ATOM    103  C   UNL A   1      38.460  34.201  40.910  1.00  0.00     0.060 A 
BRANCH 103 104
ATOM    104  S   UNL A   1      38.216  34.134  42.688  1.00  0.00     0.124 S 
ATOM    105  O   UNL A   1      37.388  35.317  42.903  1.00  0.00    -0.237 OA
ATOM    106  O   UNL A   1      37.544  32.851  42.867  1.00  0.00    -0.237 OA
ATOM    107  O   UNL A   1      39.572  34.205  43.222  1.00  0.00    -0.744 OA
ENDBRANCH 103 104
ENDBRANCH  71  96
ENDBRANCH  45  46
ENDBRANCH  38  40
ENDBRANCH  37  38
ENDBRANCH  36  37
ENDBRANCH  35  36
ENDBRANCH  34  35
ENDBRANCH  33  34
ENDBRANCH   1  33
TORSDOF 26
ENDMDL
