MODEL 1
REMARK VINA RESULT:      -9.9      0.000      0.000
REMARK SMILES O=C(CCn1c(N2CC[NH2+]CC2)nc2ccccc2c1=O)OCCOCCOCCOCCOC(=O)c1ccc(-c2c3nc(c(-c4c(F)cc(S(=O)(=O)[O-])cc4F)c4ccc([nH]4)c(-c4c(F)cc(S(=O)(=O)[O-])cc4F)c4nc(c(-c5c(F)cc(S(=O)(=O)[O-])cc5F)c5ccc2[nH]5)C=C4)C=C3)cc1
REMARK SMILES IDX 28 1 27 2 26 3 25 4 24 5 23 6 22 7 2 8 1 9 3 10 4 11 5 12
REMARK SMILES IDX 6 13 20 14 13 15 19 16 21 17 14 18 18 19 15 20 17 21 16 22
REMARK SMILES IDX 7 23 8 24 12 25 9 26 11 27 10 28 29 31 30 32 31 33 32 34
REMARK SMILES IDX 33 35 34 36 35 37 36 38 37 39 38 40 102 41 39 42 101 43
REMARK SMILES IDX 40 44 41 45 42 46 95 47 43 48 100 49 94 50 96 51 44 52 99 53
REMARK SMILES IDX 93 54 92 55 45 57 79 58 58 59 78 60 59 61 62 62 77 63 97 64
REMARK SMILES IDX 60 65 61 66 76 68 98 69 63 70 46 71 47 72 56 73 48 74 49 75
REMARK SMILES IDX 55 76 57 77 50 78 51 79 52 80 53 81 54 82 80 83 81 84 90 85
REMARK SMILES IDX 82 86 83 87 89 88 91 89 84 90 85 91 86 92 87 93 88 94 64 95
REMARK SMILES IDX 65 96 74 97 66 98 67 99 73 100 75 101 68 102 69 103 70 104
REMARK SMILES IDX 71 105 72 106
REMARK H PARENT 10 29 10 30 96 56 62 67
REMARK Flexibility Score: inf
ROOT
ATOM      1  O   UNL A   1      34.475  31.094  27.132  1.00  0.00    -0.377 OA
ENDROOT
BRANCH   1   2
ATOM      2  C   UNL A   1      33.541  30.068  27.416  1.00  0.00     0.188 C 
BRANCH   2   3
ATOM      3  C   UNL A   1      33.959  28.724  26.827  1.00  0.00     0.188 C 
BRANCH   3   4
ATOM      4  O   UNL A   1      33.020  28.094  25.974  1.00  0.00    -0.376 OA
BRANCH   4   5
ATOM      5  C   UNL A   1      33.428  27.761  24.649  1.00  0.00     0.202 C 
BRANCH   5   6
ATOM      6  C   UNL A   1      33.338  26.320  24.168  1.00  0.00     0.261 C 
BRANCH   6   7
ATOM      7  O   UNL A   1      34.556  25.591  23.908  1.00  0.00    -0.463 OA
BRANCH   7   8
ATOM      8  C   UNL A   1      34.788  24.303  23.623  1.00  0.00     0.307 C 
ATOM      9  O   UNL A   1      34.289  23.815  22.607  1.00  0.00    -0.252 OA
BRANCH   8  10
ATOM     10  C   UNL A   1      35.556  23.421  24.562  1.00  0.00     0.145 C 
BRANCH  10  11
ATOM     11  C   UNL A   1      34.709  22.550  25.475  1.00  0.00     0.141 C 
BRANCH  11  12
ATOM     12  N   UNL A   1      34.137  21.343  24.863  1.00  0.00    -0.278 N 
ATOM     13  C   UNL A   1      32.816  21.220  24.402  1.00  0.00     0.209 A 
ATOM     14  C   UNL A   1      35.019  20.250  24.839  1.00  0.00     0.262 A 
ATOM     15  N   UNL A   1      32.366  20.074  23.959  1.00  0.00    -0.214 NA
ATOM     16  C   UNL A   1      34.458  18.945  24.474  1.00  0.00     0.066 A 
ATOM     17  O   UNL A   1      36.200  20.319  25.171  1.00  0.00    -0.269 OA
ATOM     18  C   UNL A   1      33.147  18.923  24.028  1.00  0.00     0.080 A 
ATOM     19  C   UNL A   1      35.174  17.759  24.684  1.00  0.00     0.016 A 
ATOM     20  C   UNL A   1      32.553  17.688  23.752  1.00  0.00     0.029 A 
ATOM     21  C   UNL A   1      34.564  16.530  24.429  1.00  0.00     0.001 A 
ATOM     22  C   UNL A   1      33.255  16.496  23.953  1.00  0.00     0.002 A 
BRANCH  13  23
ATOM     23  N   UNL A   1      31.867  22.230  24.513  1.00  0.00    -0.331 N 
ATOM     24  C   UNL A   1      31.192  22.408  25.830  1.00  0.00     0.181 C 
ATOM     25  C   UNL A   1      31.053  22.775  23.426  1.00  0.00     0.181 C 
ATOM     26  C   UNL A   1      30.816  23.885  26.074  1.00  0.00     0.282 C 
ATOM     27  C   UNL A   1      30.769  24.271  23.704  1.00  0.00     0.282 C 
ATOM     28  N   UNL A   1      30.038  24.493  24.970  1.00  0.00    -0.343 N 
ATOM     29  H   UNL A   1      29.930  25.494  25.135  1.00  0.00     0.346 HD
ATOM     30  H   UNL A   1      29.114  24.066  24.919  1.00  0.00     0.346 HD
ENDBRANCH  13  23
ENDBRANCH  11  12
ENDBRANCH  10  11
ENDBRANCH   8  10
ENDBRANCH   7   8
ENDBRANCH   6   7
ENDBRANCH   5   6
ENDBRANCH   4   5
ENDBRANCH   3   4
ENDBRANCH   2   3
ENDBRANCH   1   2
BRANCH   1  31
ATOM     31  C   UNL A   1      34.592  32.071  28.156  1.00  0.00     0.188 C 
BRANCH  31  32
ATOM     32  C   UNL A   1      35.625  33.208  27.972  1.00  0.00     0.188 C 
BRANCH  32  33
ATOM     33  O   UNL A   1      36.360  33.727  29.066  1.00  0.00    -0.376 OA
BRANCH  33  34
ATOM     34  C   UNL A   1      35.840  33.871  30.373  1.00  0.00     0.202 C 
BRANCH  34  35
ATOM     35  C   UNL A   1      35.705  32.721  31.384  1.00  0.00     0.261 C 
BRANCH  35  36
ATOM     36  O   UNL A   1      36.304  31.483  30.999  1.00  0.00    -0.460 OA
BRANCH  36  37
ATOM     37  C   UNL A   1      37.161  30.933  31.896  1.00  0.00     0.338 C 
ATOM     38  O   UNL A   1      36.925  30.683  33.067  1.00  0.00    -0.246 OA
BRANCH  37  39
ATOM     39  C   UNL A   1      38.355  30.436  31.169  1.00  0.00     0.060 A 
ATOM     40  C   UNL A   1      38.393  30.381  29.772  1.00  0.00     0.016 A 
ATOM     41  C   UNL A   1      39.428  29.935  31.921  1.00  0.00     0.016 A 
ATOM     42  C   UNL A   1      39.519  29.861  29.132  1.00  0.00     0.010 A 
ATOM     43  C   UNL A   1      40.556  29.416  31.280  1.00  0.00     0.010 A 
ATOM     44  C   UNL A   1      40.622  29.409  29.881  1.00  0.00    -0.014 A 
BRANCH  44  45
ATOM     45  C   UNL A   1      41.922  29.211  29.195  1.00  0.00     0.031 A 
ATOM     46  C   UNL A   1      42.960  30.281  29.077  1.00  0.00     0.074 A 
ATOM     47  C   UNL A   1      42.144  27.987  28.676  1.00  0.00     0.049 A 
ATOM     48  N   UNL A   1      44.191  30.175  28.645  1.00  0.00    -0.248 NA
ATOM     49  C   UNL A   1      42.574  31.640  29.476  1.00  0.00     0.031 C 
ATOM     50  C   UNL A   1      41.175  26.889  28.690  1.00  0.00     0.029 A 
ATOM     51  N   UNL A   1      43.246  27.454  28.063  1.00  0.00    -0.354 N 
ATOM     52  C   UNL A   1      44.743  31.444  28.744  1.00  0.00     0.074 A 
ATOM     53  C   UNL A   1      43.691  32.316  29.229  1.00  0.00     0.031 C 
ATOM     54  C   UNL A   1      41.739  25.799  28.157  1.00  0.00     0.029 A 
ATOM     55  C   UNL A   1      43.101  26.125  27.746  1.00  0.00     0.049 A 
ATOM     56  H   UNL A   1      44.061  27.970  27.868  1.00  0.00     0.167 HD
ATOM     57  C   UNL A   1      46.013  31.830  28.469  1.00  0.00     0.037 A 
ATOM     58  C   UNL A   1      43.971  25.253  27.207  1.00  0.00     0.037 A 
ATOM     59  C   UNL A   1      47.040  30.950  27.962  1.00  0.00     0.049 A 
ATOM     60  C   UNL A   1      45.365  25.708  26.897  1.00  0.00     0.074 A 
ATOM     61  C   UNL A   1      48.372  31.235  27.710  1.00  0.00     0.029 A 
ATOM     62  N   UNL A   1      46.847  29.622  27.609  1.00  0.00    -0.354 N 
ATOM     63  N   UNL A   1      45.905  26.887  27.097  1.00  0.00    -0.248 NA
ATOM     64  C   UNL A   1      46.269  24.721  26.296  1.00  0.00     0.031 C 
ATOM     65  C   UNL A   1      48.968  30.096  27.157  1.00  0.00     0.029 A 
ATOM     66  C   UNL A   1      48.023  29.085  27.107  1.00  0.00     0.049 A 
ATOM     67  H   UNL A   1      45.998  29.131  27.702  1.00  0.00     0.167 HD
ATOM     68  C   UNL A   1      47.216  26.782  26.653  1.00  0.00     0.074 A 
ATOM     69  C   UNL A   1      47.392  25.419  26.191  1.00  0.00     0.031 C 
ATOM     70  C   UNL A   1      48.183  27.732  26.630  1.00  0.00     0.037 A 
BRANCH  57  71
ATOM     71  C   UNL A   1      46.377  33.270  28.716  1.00  0.00     0.058 A 
ATOM     72  C   UNL A   1      46.204  34.247  27.722  1.00  0.00     0.135 A 
ATOM     73  C   UNL A   1      46.848  33.691  29.971  1.00  0.00     0.135 A 
ATOM     74  F   UNL A   1      45.756  33.900  26.505  1.00  0.00    -0.206 F 
ATOM     75  C   UNL A   1      46.520  35.582  27.950  1.00  0.00     0.059 A 
ATOM     76  C   UNL A   1      47.149  35.026  30.229  1.00  0.00     0.059 A 
ATOM     77  F   UNL A   1      47.023  32.802  30.961  1.00  0.00    -0.206 F 
ATOM     78  C   UNL A   1      46.999  35.960  29.206  1.00  0.00     0.060 A 
BRANCH  78  79
ATOM     79  S   UNL A   1      47.446  37.689  29.469  1.00  0.00     0.124 S 
ATOM     80  O   UNL A   1      46.139  38.335  29.389  1.00  0.00    -0.237 OA
ATOM     81  O   UNL A   1      48.060  37.657  30.791  1.00  0.00    -0.237 OA
ATOM     82  O   UNL A   1      48.355  37.977  28.364  1.00  0.00    -0.744 OA
ENDBRANCH  78  79
ENDBRANCH  57  71
BRANCH  58  83
ATOM     83  C   UNL A   1      43.542  23.848  26.997  1.00  0.00     0.058 A 
ATOM     84  C   UNL A   1      43.365  22.983  28.085  1.00  0.00     0.135 A 
ATOM     85  C   UNL A   1      43.209  23.375  25.718  1.00  0.00     0.135 A 
ATOM     86  F   UNL A   1      43.667  23.396  29.327  1.00  0.00    -0.206 F 
ATOM     87  C   UNL A   1      42.864  21.698  27.917  1.00  0.00     0.059 A 
ATOM     88  C   UNL A   1      42.686  22.101  25.526  1.00  0.00     0.059 A 
ATOM     89  F   UNL A   1      43.340  24.177  24.650  1.00  0.00    -0.206 F 
ATOM     90  C   UNL A   1      42.517  21.270  26.633  1.00  0.00     0.060 A 
BRANCH  90  91
ATOM     91  S   UNL A   1      41.783  19.632  26.440  1.00  0.00     0.124 S 
ATOM     92  O   UNL A   1      42.279  18.947  27.628  1.00  0.00    -0.237 OA
ATOM     93  O   UNL A   1      40.356  19.939  26.429  1.00  0.00    -0.237 OA
ATOM     94  O   UNL A   1      42.326  19.167  25.169  1.00  0.00    -0.744 OA
ENDBRANCH  90  91
ENDBRANCH  58  83
BRANCH  70  95
ATOM     95  C   UNL A   1      49.522  27.341  26.068  1.00  0.00     0.058 A 
ATOM     96  C   UNL A   1      49.782  27.413  24.690  1.00  0.00     0.135 A 
ATOM     97  C   UNL A   1      50.574  26.964  26.917  1.00  0.00     0.135 A 
ATOM     98  F   UNL A   1      48.806  27.755  23.835  1.00  0.00    -0.206 F 
ATOM     99  C   UNL A   1      51.040  27.120  24.173  1.00  0.00     0.059 A 
ATOM    100  C   UNL A   1      51.846  26.688  26.423  1.00  0.00     0.059 A 
ATOM    101  F   UNL A   1      50.378  26.883  28.242  1.00  0.00    -0.206 F 
ATOM    102  C   UNL A   1      52.068  26.767  25.049  1.00  0.00     0.060 A 
BRANCH 102 103
ATOM    103  S   UNL A   1      53.710  26.453  24.366  1.00  0.00     0.124 S 
ATOM    104  O   UNL A   1      53.408  25.509  23.294  1.00  0.00    -0.237 OA
ATOM    105  O   UNL A   1      54.129  27.784  23.940  1.00  0.00    -0.237 OA
ATOM    106  O   UNL A   1      54.450  25.901  25.496  1.00  0.00    -0.744 OA
ENDBRANCH 102 103
ENDBRANCH  70  95
ENDBRANCH  44  45
ENDBRANCH  37  39
ENDBRANCH  36  37
ENDBRANCH  35  36
ENDBRANCH  34  35
ENDBRANCH  33  34
ENDBRANCH  32  33
ENDBRANCH  31  32
ENDBRANCH   1  31
TORSDOF 26
ENDMDL
MODEL 2
REMARK VINA RESULT:      -9.4      5.662      8.386
REMARK SMILES O=C(CCn1c(N2CC[NH2+]CC2)nc2ccccc2c1=O)OCCOCCOCCOCCOC(=O)c1ccc(-c2c3nc(c(-c4c(F)cc(S(=O)(=O)[O-])cc4F)c4ccc([nH]4)c(-c4c(F)cc(S(=O)(=O)[O-])cc4F)c4nc(c(-c5c(F)cc(S(=O)(=O)[O-])cc5F)c5ccc2[nH]5)C=C4)C=C3)cc1
REMARK SMILES IDX 28 1 27 2 26 3 25 4 24 5 23 6 22 7 2 8 1 9 3 10 4 11 5 12
REMARK SMILES IDX 6 13 20 14 13 15 19 16 21 17 14 18 18 19 15 20 17 21 16 22
REMARK SMILES IDX 7 23 8 24 12 25 9 26 11 27 10 28 29 31 30 32 31 33 32 34
REMARK SMILES IDX 33 35 34 36 35 37 36 38 37 39 38 40 102 41 39 42 101 43
REMARK SMILES IDX 40 44 41 45 42 46 95 47 43 48 100 49 94 50 96 51 44 52 99 53
REMARK SMILES IDX 93 54 92 55 45 57 79 58 58 59 78 60 59 61 62 62 77 63 97 64
REMARK SMILES IDX 60 65 61 66 76 68 98 69 63 70 46 71 47 72 56 73 48 74 49 75
REMARK SMILES IDX 55 76 57 77 50 78 51 79 52 80 53 81 54 82 80 83 81 84 90 85
REMARK SMILES IDX 82 86 83 87 89 88 91 89 84 90 85 91 86 92 87 93 88 94 64 95
REMARK SMILES IDX 65 96 74 97 66 98 67 99 73 100 75 101 68 102 69 103 70 104
REMARK SMILES IDX 71 105 72 106
REMARK H PARENT 10 29 10 30 96 56 62 67
REMARK Flexibility Score: inf
ROOT
ATOM      1  O   UNL A   1      33.297  29.956  25.972  1.00  0.00    -0.377 OA
ENDROOT
BRANCH   1   2
ATOM      2  C   UNL A   1      32.292  29.033  25.594  1.00  0.00     0.188 C 
BRANCH   2   3
ATOM      3  C   UNL A   1      32.726  27.586  25.803  1.00  0.00     0.188 C 
BRANCH   3   4
ATOM      4  O   UNL A   1      32.277  26.650  24.837  1.00  0.00    -0.376 OA
BRANCH   4   5
ATOM      5  C   UNL A   1      33.097  26.414  23.694  1.00  0.00     0.202 C 
BRANCH   5   6
ATOM      6  C   UNL A   1      32.647  25.420  22.633  1.00  0.00     0.261 C 
BRANCH   6   7
ATOM      7  O   UNL A   1      33.042  24.038  22.758  1.00  0.00    -0.463 OA
BRANCH   7   8
ATOM      8  C   UNL A   1      32.379  22.949  23.171  1.00  0.00     0.307 C 
ATOM      9  O   UNL A   1      32.289  21.980  22.415  1.00  0.00    -0.252 OA
BRANCH   8  10
ATOM     10  C   UNL A   1      31.661  22.923  24.488  1.00  0.00     0.145 C 
BRANCH  10  11
ATOM     11  C   UNL A   1      32.423  22.275  25.631  1.00  0.00     0.141 C 
BRANCH  11  12
ATOM     12  N   UNL A   1      33.839  21.978  25.373  1.00  0.00    -0.278 N 
ATOM     13  C   UNL A   1      34.347  20.720  25.009  1.00  0.00     0.209 A 
ATOM     14  C   UNL A   1      34.695  23.068  25.600  1.00  0.00     0.262 A 
ATOM     15  N   UNL A   1      35.636  20.527  24.894  1.00  0.00    -0.214 NA
ATOM     16  C   UNL A   1      36.136  22.799  25.605  1.00  0.00     0.066 A 
ATOM     17  O   UNL A   1      34.300  24.203  25.859  1.00  0.00    -0.269 OA
ATOM     18  C   UNL A   1      36.543  21.530  25.229  1.00  0.00     0.080 A 
ATOM     19  C   UNL A   1      37.053  23.742  26.088  1.00  0.00     0.016 A 
ATOM     20  C   UNL A   1      37.903  21.211  25.303  1.00  0.00     0.029 A 
ATOM     21  C   UNL A   1      38.404  23.407  26.181  1.00  0.00     0.001 A 
ATOM     22  C   UNL A   1      38.830  22.143  25.779  1.00  0.00     0.002 A 
BRANCH  13  23
ATOM     23  N   UNL A   1      33.561  19.579  24.890  1.00  0.00    -0.331 N 
ATOM     24  C   UNL A   1      33.043  19.229  23.537  1.00  0.00     0.181 C 
ATOM     25  C   UNL A   1      32.733  18.987  25.941  1.00  0.00     0.181 C 
ATOM     26  C   UNL A   1      32.900  17.701  23.368  1.00  0.00     0.282 C 
ATOM     27  C   UNL A   1      32.686  17.451  25.746  1.00  0.00     0.282 C 
ATOM     28  N   UNL A   1      32.114  17.054  24.443  1.00  0.00    -0.343 N 
ATOM     29  H   UNL A   1      32.162  16.039  24.341  1.00  0.00     0.346 HD
ATOM     30  H   UNL A   1      31.139  17.345  24.385  1.00  0.00     0.346 HD
ENDBRANCH  13  23
ENDBRANCH  11  12
ENDBRANCH  10  11
ENDBRANCH   8  10
ENDBRANCH   7   8
ENDBRANCH   6   7
ENDBRANCH   5   6
ENDBRANCH   4   5
ENDBRANCH   3   4
ENDBRANCH   2   3
ENDBRANCH   1   2
BRANCH   1  31
ATOM     31  C   UNL A   1      33.021  30.654  27.177  1.00  0.00     0.188 C 
BRANCH  31  32
ATOM     32  C   UNL A   1      34.142  31.520  27.799  1.00  0.00     0.188 C 
BRANCH  32  33
ATOM     33  O   UNL A   1      33.849  32.628  28.631  1.00  0.00    -0.376 OA
BRANCH  33  34
ATOM     34  C   UNL A   1      33.806  33.967  28.180  1.00  0.00     0.202 C 
BRANCH  34  35
ATOM     35  C   UNL A   1      33.124  35.116  28.939  1.00  0.00     0.261 C 
BRANCH  35  36
ATOM     36  O   UNL A   1      32.427  34.747  30.129  1.00  0.00    -0.460 OA
BRANCH  36  37
ATOM     37  C   UNL A   1      32.925  35.244  31.290  1.00  0.00     0.338 C 
ATOM     38  O   UNL A   1      32.325  35.924  32.106  1.00  0.00    -0.246 OA
BRANCH  37  39
ATOM     39  C   UNL A   1      34.245  34.615  31.547  1.00  0.00     0.060 A 
ATOM     40  C   UNL A   1      35.437  35.216  31.131  1.00  0.00     0.016 A 
ATOM     41  C   UNL A   1      34.269  33.346  32.146  1.00  0.00     0.016 A 
ATOM     42  C   UNL A   1      36.652  34.565  31.352  1.00  0.00     0.010 A 
ATOM     43  C   UNL A   1      35.485  32.695  32.368  1.00  0.00     0.010 A 
ATOM     44  C   UNL A   1      36.686  33.318  32.004  1.00  0.00    -0.014 A 
BRANCH  44  45
ATOM     45  C   UNL A   1      37.976  32.828  32.547  1.00  0.00     0.031 A 
ATOM     46  C   UNL A   1      38.447  33.120  33.936  1.00  0.00     0.074 A 
ATOM     47  C   UNL A   1      38.727  32.075  31.719  1.00  0.00     0.049 A 
ATOM     48  N   UNL A   1      39.474  32.614  34.570  1.00  0.00    -0.248 NA
ATOM     49  C   UNL A   1      37.688  34.111  34.709  1.00  0.00     0.031 C 
ATOM     50  C   UNL A   1      38.383  31.775  30.326  1.00  0.00     0.029 A 
ATOM     51  N   UNL A   1      39.907  31.412  31.923  1.00  0.00    -0.354 N 
ATOM     52  C   UNL A   1      39.475  33.198  35.828  1.00  0.00     0.074 A 
ATOM     53  C   UNL A   1      38.372  34.140  35.848  1.00  0.00     0.031 C 
ATOM     54  C   UNL A   1      39.305  30.949  29.816  1.00  0.00     0.029 A 
ATOM     55  C   UNL A   1      40.312  30.677  30.836  1.00  0.00     0.049 A 
ATOM     56  H   UNL A   1      40.415  31.455  32.765  1.00  0.00     0.167 HD
ATOM     57  C   UNL A   1      40.311  32.952  36.867  1.00  0.00     0.037 A 
ATOM     58  C   UNL A   1      41.364  29.853  30.677  1.00  0.00     0.037 A 
ATOM     59  C   UNL A   1      41.419  32.028  36.818  1.00  0.00     0.049 A 
ATOM     60  C   UNL A   1      42.283  29.610  31.836  1.00  0.00     0.074 A 
ATOM     61  C   UNL A   1      42.286  31.667  37.837  1.00  0.00     0.029 A 
ATOM     62  N   UNL A   1      41.830  31.335  35.688  1.00  0.00    -0.354 N 
ATOM     63  N   UNL A   1      42.208  30.088  33.055  1.00  0.00    -0.248 NA
ATOM     64  C   UNL A   1      43.423  28.716  31.604  1.00  0.00     0.031 C 
ATOM     65  C   UNL A   1      43.248  30.799  37.309  1.00  0.00     0.029 A 
ATOM     66  C   UNL A   1      42.957  30.579  35.973  1.00  0.00     0.049 A 
ATOM     67  H   UNL A   1      41.385  31.374  34.810  1.00  0.00     0.167 HD
ATOM     68  C   UNL A   1      43.287  29.548  33.740  1.00  0.00     0.074 A 
ATOM     69  C   UNL A   1      43.988  28.691  32.804  1.00  0.00     0.031 C 
ATOM     70  C   UNL A   1      43.661  29.745  35.028  1.00  0.00     0.037 A 
BRANCH  57  71
ATOM     71  C   UNL A   1      40.061  33.687  38.157  1.00  0.00     0.058 A 
ATOM     72  C   UNL A   1      40.795  34.835  38.497  1.00  0.00     0.135 A 
ATOM     73  C   UNL A   1      39.044  33.278  39.035  1.00  0.00     0.135 A 
ATOM     74  F   UNL A   1      41.778  35.271  37.692  1.00  0.00    -0.206 F 
ATOM     75  C   UNL A   1      40.556  35.529  39.678  1.00  0.00     0.059 A 
ATOM     76  C   UNL A   1      38.771  33.971  40.212  1.00  0.00     0.059 A 
ATOM     77  F   UNL A   1      38.304  32.193  38.756  1.00  0.00    -0.206 F 
ATOM     78  C   UNL A   1      39.545  35.084  40.533  1.00  0.00     0.060 A 
BRANCH  78  79
ATOM     79  S   UNL A   1      39.280  35.972  42.082  1.00  0.00     0.124 S 
ATOM     80  O   UNL A   1      37.959  35.482  42.467  1.00  0.00    -0.237 OA
ATOM     81  O   UNL A   1      40.394  35.510  42.903  1.00  0.00    -0.237 OA
ATOM     82  O   UNL A   1      39.335  37.374  41.685  1.00  0.00    -0.744 OA
ENDBRANCH  78  79
ENDBRANCH  57  71
BRANCH  58  83
ATOM     83  C   UNL A   1      41.542  29.160  29.377  1.00  0.00     0.058 A 
ATOM     84  C   UNL A   1      42.378  29.696  28.389  1.00  0.00     0.135 A 
ATOM     85  C   UNL A   1      40.960  27.905  29.139  1.00  0.00     0.135 A 
ATOM     86  F   UNL A   1      42.959  30.891  28.577  1.00  0.00    -0.206 F 
ATOM     87  C   UNL A   1      42.639  29.009  27.209  1.00  0.00     0.059 A 
ATOM     88  C   UNL A   1      41.222  27.189  27.977  1.00  0.00     0.059 A 
ATOM     89  F   UNL A   1      40.173  27.342  30.069  1.00  0.00    -0.206 F 
ATOM     90  C   UNL A   1      42.065  27.751  27.018  1.00  0.00     0.060 A 
BRANCH  90  91
ATOM     91  S   UNL A   1      42.485  26.831  25.522  1.00  0.00     0.124 S 
ATOM     92  O   UNL A   1      43.711  26.154  25.928  1.00  0.00    -0.237 OA
ATOM     93  O   UNL A   1      41.311  25.980  25.349  1.00  0.00    -0.237 OA
ATOM     94  O   UNL A   1      42.644  27.877  24.517  1.00  0.00    -0.744 OA
ENDBRANCH  90  91
ENDBRANCH  58  83
BRANCH  70  95
ATOM     95  C   UNL A   1      44.900  29.039  35.504  1.00  0.00     0.058 A 
ATOM     96  C   UNL A   1      44.842  27.735  36.021  1.00  0.00     0.135 A 
ATOM     97  C   UNL A   1      46.162  29.640  35.375  1.00  0.00     0.135 A 
ATOM     98  F   UNL A   1      43.659  27.122  36.177  1.00  0.00    -0.206 F 
ATOM     99  C   UNL A   1      45.994  27.052  36.397  1.00  0.00     0.059 A 
ATOM    100  C   UNL A   1      47.329  28.966  35.723  1.00  0.00     0.059 A 
ATOM    101  F   UNL A   1      46.272  30.884  34.884  1.00  0.00    -0.206 F 
ATOM    102  C   UNL A   1      47.234  27.673  36.236  1.00  0.00     0.060 A 
BRANCH 102 103
ATOM    103  S   UNL A   1      48.722  26.747  36.669  1.00  0.00     0.124 S 
ATOM    104  O   UNL A   1      49.194  26.316  35.357  1.00  0.00    -0.237 OA
ATOM    105  O   UNL A   1      49.535  27.759  37.336  1.00  0.00    -0.237 OA
ATOM    106  O   UNL A   1      48.222  25.683  37.535  1.00  0.00    -0.744 OA
ENDBRANCH 102 103
ENDBRANCH  70  95
ENDBRANCH  44  45
ENDBRANCH  37  39
ENDBRANCH  36  37
ENDBRANCH  35  36
ENDBRANCH  34  35
ENDBRANCH  33  34
ENDBRANCH  32  33
ENDBRANCH  31  32
ENDBRANCH   1  31
TORSDOF 26
ENDMDL
MODEL 3
REMARK VINA RESULT:      -9.2      1.300      2.380
REMARK SMILES O=C(CCn1c(N2CC[NH2+]CC2)nc2ccccc2c1=O)OCCOCCOCCOCCOC(=O)c1ccc(-c2c3nc(c(-c4c(F)cc(S(=O)(=O)[O-])cc4F)c4ccc([nH]4)c(-c4c(F)cc(S(=O)(=O)[O-])cc4F)c4nc(c(-c5c(F)cc(S(=O)(=O)[O-])cc5F)c5ccc2[nH]5)C=C4)C=C3)cc1
REMARK SMILES IDX 28 1 27 2 26 3 25 4 24 5 23 6 22 7 2 8 1 9 3 10 4 11 5 12
REMARK SMILES IDX 6 13 20 14 13 15 19 16 21 17 14 18 18 19 15 20 17 21 16 22
REMARK SMILES IDX 7 23 8 24 12 25 9 26 11 27 10 28 29 31 30 32 31 33 32 34
REMARK SMILES IDX 33 35 34 36 35 37 36 38 37 39 38 40 102 41 39 42 101 43
REMARK SMILES IDX 40 44 41 45 42 46 95 47 43 48 100 49 94 50 96 51 44 52 99 53
REMARK SMILES IDX 93 54 92 55 45 57 79 58 58 59 78 60 59 61 62 62 77 63 97 64
REMARK SMILES IDX 60 65 61 66 76 68 98 69 63 70 46 71 47 72 56 73 48 74 49 75
REMARK SMILES IDX 55 76 57 77 50 78 51 79 52 80 53 81 54 82 80 83 81 84 90 85
REMARK SMILES IDX 82 86 83 87 89 88 91 89 84 90 85 91 86 92 87 93 88 94 64 95
REMARK SMILES IDX 65 96 74 97 66 98 67 99 73 100 75 101 68 102 69 103 70 104
REMARK SMILES IDX 71 105 72 106
REMARK H PARENT 10 29 10 30 96 56 62 67
REMARK Flexibility Score: inf
ROOT
ATOM      1  O   UNL A   1      34.398  30.032  26.845  1.00  0.00    -0.377 OA
ENDROOT
BRANCH   1   2
ATOM      2  C   UNL A   1      33.904  28.706  26.913  1.00  0.00     0.188 C 
BRANCH   2   3
ATOM      3  C   UNL A   1      32.384  28.659  27.025  1.00  0.00     0.188 C 
BRANCH   3   4
ATOM      4  O   UNL A   1      31.704  27.917  26.026  1.00  0.00    -0.376 OA
BRANCH   4   5
ATOM      5  C   UNL A   1      32.234  27.924  24.702  1.00  0.00     0.202 C 
BRANCH   5   6
ATOM      6  C   UNL A   1      32.032  26.715  23.800  1.00  0.00     0.261 C 
BRANCH   6   7
ATOM      7  O   UNL A   1      31.157  25.654  24.237  1.00  0.00    -0.463 OA
BRANCH   7   8
ATOM      8  C   UNL A   1      31.026  24.380  23.846  1.00  0.00     0.307 C 
ATOM      9  O   UNL A   1      30.162  24.093  23.015  1.00  0.00    -0.252 OA
BRANCH   8  10
ATOM     10  C   UNL A   1      31.838  23.283  24.470  1.00  0.00     0.145 C 
BRANCH  10  11
ATOM     11  C   UNL A   1      32.897  22.667  23.571  1.00  0.00     0.141 C 
BRANCH  11  12
ATOM     12  N   UNL A   1      33.429  21.367  24.003  1.00  0.00    -0.278 N 
ATOM     13  C   UNL A   1      34.633  21.179  24.701  1.00  0.00     0.209 A 
ATOM     14  C   UNL A   1      32.653  20.273  23.586  1.00  0.00     0.262 A 
ATOM     15  N   UNL A   1      35.075  19.974  24.959  1.00  0.00    -0.214 NA
ATOM     16  C   UNL A   1      33.231  18.937  23.758  1.00  0.00     0.066 A 
ATOM     17  O   UNL A   1      31.563  20.382  23.029  1.00  0.00    -0.269 OA
ATOM     18  C   UNL A   1      34.421  18.849  24.462  1.00  0.00     0.080 A 
ATOM     19  C   UNL A   1      32.673  17.813  23.135  1.00  0.00     0.016 A 
ATOM     20  C   UNL A   1      35.045  17.603  24.574  1.00  0.00     0.029 A 
ATOM     21  C   UNL A   1      33.316  16.579  23.231  1.00  0.00     0.001 A 
ATOM     22  C   UNL A   1      34.498  16.472  23.960  1.00  0.00     0.002 A 
BRANCH  13  23
ATOM     23  N   UNL A   1      35.499  22.214  25.031  1.00  0.00    -0.331 N 
ATOM     24  C   UNL A   1      35.329  22.866  26.361  1.00  0.00     0.181 C 
ATOM     25  C   UNL A   1      36.179  23.107  24.092  1.00  0.00     0.181 C 
ATOM     26  C   UNL A   1      36.679  23.371  26.917  1.00  0.00     0.282 C 
ATOM     27  C   UNL A   1      37.549  23.521  24.684  1.00  0.00     0.282 C 
ATOM     28  N   UNL A   1      37.426  24.233  25.973  1.00  0.00    -0.343 N 
ATOM     29  H   UNL A   1      38.355  24.429  26.348  1.00  0.00     0.346 HD
ATOM     30  H   UNL A   1      36.932  25.115  25.840  1.00  0.00     0.346 HD
ENDBRANCH  13  23
ENDBRANCH  11  12
ENDBRANCH  10  11
ENDBRANCH   8  10
ENDBRANCH   7   8
ENDBRANCH   6   7
ENDBRANCH   5   6
ENDBRANCH   4   5
ENDBRANCH   3   4
ENDBRANCH   2   3
ENDBRANCH   1   2
BRANCH   1  31
ATOM     31  C   UNL A   1      33.549  30.998  27.448  1.00  0.00     0.188 C 
BRANCH  31  32
ATOM     32  C   UNL A   1      34.193  32.268  28.052  1.00  0.00     0.188 C 
BRANCH  32  33
ATOM     33  O   UNL A   1      34.229  32.488  29.451  1.00  0.00    -0.376 OA
BRANCH  33  34
ATOM     34  C   UNL A   1      35.361  32.247  30.262  1.00  0.00     0.202 C 
BRANCH  34  35
ATOM     35  C   UNL A   1      35.797  30.856  30.751  1.00  0.00     0.261 C 
BRANCH  35  36
ATOM     36  O   UNL A   1      36.621  30.839  31.917  1.00  0.00    -0.460 OA
BRANCH  36  37
ATOM     37  C   UNL A   1      37.668  31.703  31.918  1.00  0.00     0.338 C 
ATOM     38  O   UNL A   1      37.761  32.732  32.569  1.00  0.00    -0.246 OA
BRANCH  37  39
ATOM     39  C   UNL A   1      38.804  31.073  31.201  1.00  0.00     0.060 A 
ATOM     40  C   UNL A   1      38.943  31.176  29.813  1.00  0.00     0.016 A 
ATOM     41  C   UNL A   1      39.701  30.288  31.941  1.00  0.00     0.016 A 
ATOM     42  C   UNL A   1      40.001  30.525  29.176  1.00  0.00     0.010 A 
ATOM     43  C   UNL A   1      40.761  29.638  31.303  1.00  0.00     0.010 A 
ATOM     44  C   UNL A   1      40.937  29.783  29.920  1.00  0.00    -0.014 A 
BRANCH  44  45
ATOM     45  C   UNL A   1      42.228  29.418  29.289  1.00  0.00     0.031 A 
ATOM     46  C   UNL A   1      43.397  30.347  29.213  1.00  0.00     0.074 A 
ATOM     47  C   UNL A   1      42.315  28.173  28.781  1.00  0.00     0.049 A 
ATOM     48  N   UNL A   1      44.621  30.083  28.832  1.00  0.00    -0.248 NA
ATOM     49  C   UNL A   1      43.170  31.746  29.594  1.00  0.00     0.031 C 
ATOM     50  C   UNL A   1      41.214  27.206  28.756  1.00  0.00     0.029 A 
ATOM     51  N   UNL A   1      43.364  27.501  28.214  1.00  0.00    -0.354 N 
ATOM     52  C   UNL A   1      45.326  31.273  28.952  1.00  0.00     0.074 A 
ATOM     53  C   UNL A   1      44.373  32.274  29.393  1.00  0.00     0.031 C 
ATOM     54  C   UNL A   1      41.657  26.050  28.247  1.00  0.00     0.029 A 
ATOM     55  C   UNL A   1      43.065  26.199  27.893  1.00  0.00     0.049 A 
ATOM     56  H   UNL A   1      44.245  27.908  28.052  1.00  0.00     0.167 HD
ATOM     57  C   UNL A   1      46.645  31.494  28.730  1.00  0.00     0.037 A 
ATOM     58  C   UNL A   1      43.839  25.220  27.391  1.00  0.00     0.037 A 
ATOM     59  C   UNL A   1      47.571  30.488  28.267  1.00  0.00     0.049 A 
ATOM     60  C   UNL A   1      45.291  25.494  27.138  1.00  0.00     0.074 A 
ATOM     61  C   UNL A   1      48.938  30.601  28.070  1.00  0.00     0.029 A 
ATOM     62  N   UNL A   1      47.226  29.193  27.908  1.00  0.00    -0.354 N 
ATOM     63  N   UNL A   1      45.967  26.596  27.359  1.00  0.00    -0.248 NA
ATOM     64  C   UNL A   1      46.087  24.397  26.576  1.00  0.00     0.031 C 
ATOM     65  C   UNL A   1      49.407  29.392  27.543  1.00  0.00     0.029 A 
ATOM     66  C   UNL A   1      48.344  28.508  27.455  1.00  0.00     0.049 A 
ATOM     67  H   UNL A   1      46.319  28.814  27.965  1.00  0.00     0.167 HD
ATOM     68  C   UNL A   1      47.271  26.323  26.969  1.00  0.00     0.074 A 
ATOM     69  C   UNL A   1      47.292  24.946  26.517  1.00  0.00     0.031 C 
ATOM     70  C   UNL A   1      48.351  27.143  26.986  1.00  0.00     0.037 A 
BRANCH  57  71
ATOM     71  C   UNL A   1      47.177  32.878  28.991  1.00  0.00     0.058 A 
ATOM     72  C   UNL A   1      47.770  33.212  30.219  1.00  0.00     0.135 A 
ATOM     73  C   UNL A   1      47.147  33.863  27.990  1.00  0.00     0.135 A 
ATOM     74  F   UNL A   1      47.826  32.307  31.211  1.00  0.00    -0.206 F 
ATOM     75  C   UNL A   1      48.280  34.483  30.460  1.00  0.00     0.059 A 
ATOM     76  C   UNL A   1      47.673  35.135  28.201  1.00  0.00     0.059 A 
ATOM     77  F   UNL A   1      46.601  33.596  26.794  1.00  0.00    -0.206 F 
ATOM     78  C   UNL A   1      48.221  35.441  29.446  1.00  0.00     0.060 A 
BRANCH  78  79
ATOM     79  S   UNL A   1      48.847  37.097  29.792  1.00  0.00     0.124 S 
ATOM     80  O   UNL A   1      47.715  37.687  30.500  1.00  0.00    -0.237 OA
ATOM     81  O   UNL A   1      50.030  36.823  30.600  1.00  0.00    -0.237 OA
ATOM     82  O   UNL A   1      49.110  37.646  28.465  1.00  0.00    -0.744 OA
ENDBRANCH  78  79
ENDBRANCH  57  71
BRANCH  58  83
ATOM     83  C   UNL A   1      43.245  23.879  27.165  1.00  0.00     0.058 A 
ATOM     84  C   UNL A   1      42.822  23.490  25.887  1.00  0.00     0.135 A 
ATOM     85  C   UNL A   1      43.178  22.932  28.199  1.00  0.00     0.135 A 
ATOM     86  F   UNL A   1      42.872  24.363  24.868  1.00  0.00    -0.206 F 
ATOM     87  C   UNL A   1      42.360  22.203  25.637  1.00  0.00     0.059 A 
ATOM     88  C   UNL A   1      42.740  21.632  27.969  1.00  0.00     0.059 A 
ATOM     89  F   UNL A   1      43.596  23.254  29.433  1.00  0.00    -0.206 F 
ATOM     90  C   UNL A   1      42.334  21.278  26.683  1.00  0.00     0.060 A 
BRANCH  90  91
ATOM     91  S   UNL A   1      41.818  19.586  26.323  1.00  0.00     0.124 S 
ATOM     92  O   UNL A   1      40.386  19.756  26.104  1.00  0.00    -0.237 OA
ATOM     93  O   UNL A   1      42.613  19.271  25.141  1.00  0.00    -0.237 OA
ATOM     94  O   UNL A   1      42.189  18.857  27.531  1.00  0.00    -0.744 OA
ENDBRANCH  90  91
ENDBRANCH  58  83
BRANCH  70  95
ATOM     95  C   UNL A   1      49.651  26.583  26.480  1.00  0.00     0.058 A 
ATOM     96  C   UNL A   1      50.040  26.740  25.140  1.00  0.00     0.135 A 
ATOM     97  C   UNL A   1      50.548  25.949  27.354  1.00  0.00     0.135 A 
ATOM     98  F   UNL A   1      49.213  27.327  24.261  1.00  0.00    -0.206 F 
ATOM     99  C   UNL A   1      51.273  26.285  24.684  1.00  0.00     0.059 A 
ATOM    100  C   UNL A   1      51.796  25.506  26.924  1.00  0.00     0.059 A 
ATOM    101  F   UNL A   1      50.226  25.776  28.646  1.00  0.00    -0.206 F 
ATOM    102  C   UNL A   1      52.147  25.677  25.585  1.00  0.00     0.060 A 
BRANCH 102 103
ATOM    103  S   UNL A   1      53.769  25.151  24.989  1.00  0.00     0.124 S 
ATOM    104  O   UNL A   1      53.576  23.713  24.839  1.00  0.00    -0.237 OA
ATOM    105  O   UNL A   1      53.904  25.907  23.748  1.00  0.00    -0.237 OA
ATOM    106  O   UNL A   1      54.674  25.553  26.062  1.00  0.00    -0.744 OA
ENDBRANCH 102 103
ENDBRANCH  70  95
ENDBRANCH  44  45
ENDBRANCH  37  39
ENDBRANCH  36  37
ENDBRANCH  35  36
ENDBRANCH  34  35
ENDBRANCH  33  34
ENDBRANCH  32  33
ENDBRANCH  31  32
ENDBRANCH   1  31
TORSDOF 26
ENDMDL
