MODEL 1
REMARK VINA RESULT:     -10.1      0.000      0.000
REMARK SMILES O=C(OCCOCCOCCOCCOC(=O)c1ncoc1-c1cc(F)cc(F)c1)c1ccc(-c2c3nc(c(-c4c(F)cc(S(=O)(=O)[O-])cc4F)c4ccc([nH]4)c(-c4c(F)cc(S(=O)(=O)[O-])cc4F)c4nc(c(-c5c(F)cc(S(=O)(=O)[O-])cc5F)c5ccc2[nH]5)C=C4)C=C3)cc1
REMARK SMILES IDX 8 1 7 2 6 3 5 4 4 5 3 6 2 7 1 8 31 9 32 10 96 11 33 12 95 13
REMARK SMILES IDX 34 14 35 15 36 16 89 17 37 18 94 19 88 20 90 21 38 22 93 23
REMARK SMILES IDX 87 24 86 25 39 27 73 28 52 29 72 30 53 31 56 32 71 33 91 34
REMARK SMILES IDX 54 35 55 36 70 38 92 39 57 40 40 41 41 42 50 43 42 44 43 45
REMARK SMILES IDX 49 46 51 47 44 48 45 49 46 50 47 51 48 52 74 53 75 54 84 55
REMARK SMILES IDX 76 56 77 57 83 58 85 59 78 60 79 61 80 62 81 63 82 64 58 65
REMARK SMILES IDX 59 66 68 67 60 68 61 69 67 70 69 71 62 72 63 73 64 74 65 75
REMARK SMILES IDX 66 76 9 77 10 78 11 79 12 80 13 81 14 82 15 83 16 84 17 85
REMARK SMILES IDX 18 86 19 87 22 88 20 89 21 90 23 91 24 92 30 93 25 94 28 95
REMARK SMILES IDX 26 96 27 97 29 98
REMARK H PARENT 90 26 56 37
REMARK Flexibility Score: inf
ROOT
ATOM      1  C   UNL A   1      35.984  20.889  25.336  1.00  0.00     0.188 C 
ENDROOT
BRANCH   1   2
ATOM      2  C   UNL A   1      36.789  21.643  24.282  1.00  0.00     0.188 C 
BRANCH   2   3
ATOM      3  O   UNL A   1      37.717  22.498  24.952  1.00  0.00    -0.376 OA
BRANCH   3   4
ATOM      4  C   UNL A   1      38.653  21.846  25.803  1.00  0.00     0.202 C 
BRANCH   4   5
ATOM      5  C   UNL A   1      39.569  22.801  26.572  1.00  0.00     0.261 C 
BRANCH   5   6
ATOM      6  O   UNL A   1      39.355  24.165  26.172  1.00  0.00    -0.460 OA
BRANCH   6   7
ATOM      7  C   UNL A   1      40.198  25.217  26.337  1.00  0.00     0.338 C 
ATOM      8  O   UNL A   1      40.924  25.544  25.400  1.00  0.00    -0.246 OA
BRANCH   7   9
ATOM      9  C   UNL A   1      40.252  26.034  27.585  1.00  0.00     0.060 A 
ATOM     10  C   UNL A   1      39.420  25.859  28.693  1.00  0.00     0.016 A 
ATOM     11  C   UNL A   1      41.251  27.017  27.657  1.00  0.00     0.016 A 
ATOM     12  C   UNL A   1      39.471  26.728  29.776  1.00  0.00     0.010 A 
ATOM     13  C   UNL A   1      41.351  27.857  28.770  1.00  0.00     0.010 A 
ATOM     14  C   UNL A   1      40.420  27.748  29.810  1.00  0.00    -0.014 A 
BRANCH  14  15
ATOM     15  C   UNL A   1      40.308  28.788  30.854  1.00  0.00     0.031 A 
ATOM     16  C   UNL A   1      41.346  28.812  31.939  1.00  0.00     0.074 A 
ATOM     17  C   UNL A   1      39.380  29.757  30.755  1.00  0.00     0.049 A 
ATOM     18  N   UNL A   1      41.408  29.550  33.013  1.00  0.00    -0.248 NA
ATOM     19  C   UNL A   1      42.474  27.875  31.786  1.00  0.00     0.031 C 
ATOM     20  C   UNL A   1      38.414  29.891  29.663  1.00  0.00     0.029 A 
ATOM     21  N   UNL A   1      39.121  30.832  31.563  1.00  0.00    -0.354 N 
ATOM     22  C   UNL A   1      42.549  29.131  33.688  1.00  0.00     0.074 A 
ATOM     23  C   UNL A   1      43.154  28.080  32.902  1.00  0.00     0.031 C 
ATOM     24  C   UNL A   1      37.698  31.013  29.846  1.00  0.00     0.029 A 
ATOM     25  C   UNL A   1      38.102  31.632  31.104  1.00  0.00     0.049 A 
ATOM     26  H   UNL A   1      39.619  31.015  32.392  1.00  0.00     0.167 HD
ATOM     27  C   UNL A   1      43.034  29.582  34.868  1.00  0.00     0.037 A 
ATOM     28  C   UNL A   1      37.544  32.725  31.662  1.00  0.00     0.037 A 
ATOM     29  C   UNL A   1      42.417  30.643  35.614  1.00  0.00     0.049 A 
ATOM     30  C   UNL A   1      38.064  33.180  32.998  1.00  0.00     0.074 A 
ATOM     31  C   UNL A   1      42.741  31.131  36.865  1.00  0.00     0.029 A 
ATOM     32  N   UNL A   1      41.343  31.397  35.152  1.00  0.00    -0.354 N 
ATOM     33  N   UNL A   1      39.058  32.688  33.703  1.00  0.00    -0.248 NA
ATOM     34  C   UNL A   1      37.377  34.309  33.631  1.00  0.00     0.031 C 
ATOM     35  C   UNL A   1      41.849  32.169  37.167  1.00  0.00     0.029 A 
ATOM     36  C   UNL A   1      40.994  32.349  36.089  1.00  0.00     0.049 A 
ATOM     37  H   UNL A   1      40.899  31.269  34.283  1.00  0.00     0.167 HD
ATOM     38  C   UNL A   1      39.114  33.446  34.866  1.00  0.00     0.074 A 
ATOM     39  C   UNL A   1      38.068  34.446  34.756  1.00  0.00     0.031 C 
ATOM     40  C   UNL A   1      39.943  33.326  35.932  1.00  0.00     0.037 A 
BRANCH  27  41
ATOM     41  C   UNL A   1      44.230  28.865  35.428  1.00  0.00     0.058 A 
ATOM     42  C   UNL A   1      45.526  29.300  35.108  1.00  0.00     0.135 A 
ATOM     43  C   UNL A   1      44.104  27.803  36.339  1.00  0.00     0.135 A 
ATOM     44  F   UNL A   1      45.704  30.320  34.252  1.00  0.00    -0.206 F 
ATOM     45  C   UNL A   1      46.655  28.728  35.686  1.00  0.00     0.059 A 
ATOM     46  C   UNL A   1      45.219  27.230  36.946  1.00  0.00     0.059 A 
ATOM     47  F   UNL A   1      42.888  27.368  36.706  1.00  0.00    -0.206 F 
ATOM     48  C   UNL A   1      46.489  27.711  36.624  1.00  0.00     0.060 A 
BRANCH  48  49
ATOM     49  S   UNL A   1      47.921  27.007  37.471  1.00  0.00     0.124 S 
ATOM     50  O   UNL A   1      47.571  27.237  38.870  1.00  0.00    -0.237 OA
ATOM     51  O   UNL A   1      47.893  25.615  37.033  1.00  0.00    -0.237 OA
ATOM     52  O   UNL A   1      49.038  27.799  36.966  1.00  0.00    -0.744 OA
ENDBRANCH  48  49
ENDBRANCH  27  41
BRANCH  28  53
ATOM     53  C   UNL A   1      36.423  33.423  30.975  1.00  0.00     0.058 A 
ATOM     54  C   UNL A   1      36.644  34.204  29.828  1.00  0.00     0.135 A 
ATOM     55  C   UNL A   1      35.113  33.361  31.473  1.00  0.00     0.135 A 
ATOM     56  F   UNL A   1      37.879  34.303  29.310  1.00  0.00    -0.206 F 
ATOM     57  C   UNL A   1      35.620  34.921  29.217  1.00  0.00     0.059 A 
ATOM     58  C   UNL A   1      34.067  34.052  30.867  1.00  0.00     0.059 A 
ATOM     59  F   UNL A   1      34.843  32.619  32.558  1.00  0.00    -0.206 F 
ATOM     60  C   UNL A   1      34.332  34.838  29.743  1.00  0.00     0.060 A 
BRANCH  60  61
ATOM     61  S   UNL A   1      32.984  35.789  29.007  1.00  0.00     0.124 S 
ATOM     62  O   UNL A   1      33.711  36.863  28.340  1.00  0.00    -0.237 OA
ATOM     63  O   UNL A   1      32.354  34.805  28.133  1.00  0.00    -0.237 OA
ATOM     64  O   UNL A   1      32.185  36.191  30.162  1.00  0.00    -0.744 OA
ENDBRANCH  60  61
ENDBRANCH  28  53
BRANCH  40  65
ATOM     65  C   UNL A   1      39.755  34.304  37.051  1.00  0.00     0.058 A 
ATOM     66  C   UNL A   1      40.402  35.549  37.020  1.00  0.00     0.135 A 
ATOM     67  C   UNL A   1      38.998  33.977  38.185  1.00  0.00     0.135 A 
ATOM     68  F   UNL A   1      41.145  35.898  35.958  1.00  0.00    -0.206 F 
ATOM     69  C   UNL A   1      40.312  36.440  38.084  1.00  0.00     0.059 A 
ATOM     70  C   UNL A   1      38.879  34.860  39.252  1.00  0.00     0.059 A 
ATOM     71  F   UNL A   1      38.359  32.799  38.256  1.00  0.00    -0.206 F 
ATOM     72  C   UNL A   1      39.543  36.088  39.193  1.00  0.00     0.060 A 
BRANCH  72  73
ATOM     73  S   UNL A   1      39.422  37.204  40.605  1.00  0.00     0.124 S 
ATOM     74  O   UNL A   1      38.852  38.397  39.986  1.00  0.00    -0.237 OA
ATOM     75  O   UNL A   1      38.537  36.473  41.506  1.00  0.00    -0.237 OA
ATOM     76  O   UNL A   1      40.803  37.329  41.058  1.00  0.00    -0.744 OA
ENDBRANCH  72  73
ENDBRANCH  40  65
ENDBRANCH  14  15
ENDBRANCH   7   9
ENDBRANCH   6   7
ENDBRANCH   5   6
ENDBRANCH   4   5
ENDBRANCH   3   4
ENDBRANCH   2   3
ENDBRANCH   1   2
BRANCH   1  77
ATOM     77  O   UNL A   1      34.686  21.441  25.540  1.00  0.00    -0.377 OA
BRANCH  77  78
ATOM     78  C   UNL A   1      33.815  21.450  24.414  1.00  0.00     0.188 C 
BRANCH  78  79
ATOM     79  C   UNL A   1      32.419  20.805  24.548  1.00  0.00     0.188 C 
BRANCH  79  80
ATOM     80  O   UNL A   1      31.461  21.349  25.441  1.00  0.00    -0.376 OA
BRANCH  80  81
ATOM     81  C   UNL A   1      31.212  22.746  25.441  1.00  0.00     0.202 C 
BRANCH  81  82
ATOM     82  C   UNL A   1      31.732  23.540  26.644  1.00  0.00     0.261 C 
BRANCH  82  83
ATOM     83  O   UNL A   1      31.845  24.947  26.368  1.00  0.00    -0.458 OA
BRANCH  83  84
ATOM     84  C   UNL A   1      30.733  25.577  25.892  1.00  0.00     0.361 C 
ATOM     85  O   UNL A   1      29.663  25.664  26.483  1.00  0.00    -0.244 OA
BRANCH  84  86
ATOM     86  C   UNL A   1      31.004  26.276  24.644  1.00  0.00     0.194 A 
ATOM     87  N   UNL A   1      30.850  25.718  23.382  1.00  0.00    -0.209 NA
ATOM     88  C   UNL A   1      31.599  27.522  24.522  1.00  0.00     0.169 A 
ATOM     89  C   UNL A   1      31.316  26.642  22.575  1.00  0.00     0.309 A 
ATOM     90  O   UNL A   1      31.798  27.756  23.185  1.00  0.00    -0.443 OA
BRANCH  88  91
ATOM     91  C   UNL A   1      32.149  28.522  25.421  1.00  0.00     0.026 A 
ATOM     92  C   UNL A   1      33.312  28.231  26.152  1.00  0.00     0.051 A 
ATOM     93  C   UNL A   1      31.526  29.758  25.615  1.00  0.00     0.051 A 
ATOM     94  C   UNL A   1      33.820  29.155  27.061  1.00  0.00     0.126 A 
ATOM     95  C   UNL A   1      32.066  30.675  26.518  1.00  0.00     0.126 A 
ATOM     96  F   UNL A   1      34.915  28.842  27.768  1.00  0.00    -0.207 F 
ATOM     97  C   UNL A   1      33.208  30.383  27.251  1.00  0.00     0.078 A 
ATOM     98  F   UNL A   1      31.473  31.865  26.677  1.00  0.00    -0.207 F 
ENDBRANCH  88  91
ENDBRANCH  84  86
ENDBRANCH  83  84
ENDBRANCH  82  83
ENDBRANCH  81  82
ENDBRANCH  80  81
ENDBRANCH  79  80
ENDBRANCH  78  79
ENDBRANCH  77  78
ENDBRANCH   1  77
TORSDOF 24
ENDMDL
MODEL 2
REMARK VINA RESULT:      -9.7      5.270      9.574
REMARK SMILES O=C(OCCOCCOCCOCCOC(=O)c1ncoc1-c1cc(F)cc(F)c1)c1ccc(-c2c3nc(c(-c4c(F)cc(S(=O)(=O)[O-])cc4F)c4ccc([nH]4)c(-c4c(F)cc(S(=O)(=O)[O-])cc4F)c4nc(c(-c5c(F)cc(S(=O)(=O)[O-])cc5F)c5ccc2[nH]5)C=C4)C=C3)cc1
REMARK SMILES IDX 8 1 7 2 6 3 5 4 4 5 3 6 2 7 1 8 31 9 32 10 96 11 33 12 95 13
REMARK SMILES IDX 34 14 35 15 36 16 89 17 37 18 94 19 88 20 90 21 38 22 93 23
REMARK SMILES IDX 87 24 86 25 39 27 73 28 52 29 72 30 53 31 56 32 71 33 91 34
REMARK SMILES IDX 54 35 55 36 70 38 92 39 57 40 40 41 41 42 50 43 42 44 43 45
REMARK SMILES IDX 49 46 51 47 44 48 45 49 46 50 47 51 48 52 74 53 75 54 84 55
REMARK SMILES IDX 76 56 77 57 83 58 85 59 78 60 79 61 80 62 81 63 82 64 58 65
REMARK SMILES IDX 59 66 68 67 60 68 61 69 67 70 69 71 62 72 63 73 64 74 65 75
REMARK SMILES IDX 66 76 9 77 10 78 11 79 12 80 13 81 14 82 15 83 16 84 17 85
REMARK SMILES IDX 18 86 19 87 22 88 20 89 21 90 23 91 24 92 30 93 25 94 28 95
REMARK SMILES IDX 26 96 27 97 29 98
REMARK H PARENT 90 26 56 37
REMARK Flexibility Score: inf
ROOT
ATOM      1  C   UNL A   1      33.358  20.895  25.741  1.00  0.00     0.188 C 
ENDROOT
BRANCH   1   2
ATOM      2  C   UNL A   1      34.218  20.291  24.634  1.00  0.00     0.188 C 
BRANCH   2   3
ATOM      3  O   UNL A   1      35.590  20.529  24.952  1.00  0.00    -0.376 OA
BRANCH   3   4
ATOM      4  C   UNL A   1      35.831  21.508  25.957  1.00  0.00     0.202 C 
BRANCH   4   5
ATOM      5  C   UNL A   1      36.939  22.503  25.606  1.00  0.00     0.261 C 
BRANCH   5   6
ATOM      6  O   UNL A   1      38.204  21.841  25.445  1.00  0.00    -0.460 OA
BRANCH   6   7
ATOM      7  C   UNL A   1      39.308  21.966  26.228  1.00  0.00     0.338 C 
ATOM      8  O   UNL A   1      39.962  20.959  26.491  1.00  0.00    -0.246 OA
BRANCH   7   9
ATOM      9  C   UNL A   1      39.800  23.278  26.744  1.00  0.00     0.060 A 
ATOM     10  C   UNL A   1      39.439  24.526  26.232  1.00  0.00     0.016 A 
ATOM     11  C   UNL A   1      40.651  23.241  27.860  1.00  0.00     0.016 A 
ATOM     12  C   UNL A   1      40.021  25.695  26.708  1.00  0.00     0.010 A 
ATOM     13  C   UNL A   1      41.193  24.417  28.385  1.00  0.00     0.010 A 
ATOM     14  C   UNL A   1      40.920  25.645  27.771  1.00  0.00    -0.014 A 
BRANCH  14  15
ATOM     15  C   UNL A   1      41.690  26.861  28.106  1.00  0.00     0.031 A 
ATOM     16  C   UNL A   1      40.982  27.964  28.840  1.00  0.00     0.074 A 
ATOM     17  C   UNL A   1      43.014  26.916  27.875  1.00  0.00     0.049 A 
ATOM     18  N   UNL A   1      41.403  29.158  29.153  1.00  0.00    -0.248 NA
ATOM     19  C   UNL A   1      39.607  27.674  29.288  1.00  0.00     0.031 C 
ATOM     20  C   UNL A   1      43.813  25.839  27.288  1.00  0.00     0.029 A 
ATOM     21  N   UNL A   1      43.927  27.902  28.138  1.00  0.00    -0.354 N 
ATOM     22  C   UNL A   1      40.331  29.779  29.784  1.00  0.00     0.074 A 
ATOM     23  C   UNL A   1      39.243  28.829  29.818  1.00  0.00     0.031 C 
ATOM     24  C   UNL A   1      45.106  26.206  27.279  1.00  0.00     0.029 A 
ATOM     25  C   UNL A   1      45.213  27.570  27.786  1.00  0.00     0.049 A 
ATOM     26  H   UNL A   1      43.685  28.766  28.543  1.00  0.00     0.167 HD
ATOM     27  C   UNL A   1      40.267  31.037  30.278  1.00  0.00     0.037 A 
ATOM     28  C   UNL A   1      46.342  28.304  27.844  1.00  0.00     0.037 A 
ATOM     29  C   UNL A   1      41.377  31.949  30.244  1.00  0.00     0.049 A 
ATOM     30  C   UNL A   1      46.240  29.718  28.349  1.00  0.00     0.074 A 
ATOM     31  C   UNL A   1      41.423  33.278  30.616  1.00  0.00     0.029 A 
ATOM     32  N   UNL A   1      42.655  31.602  29.823  1.00  0.00    -0.354 N 
ATOM     33  N   UNL A   1      45.186  30.349  28.815  1.00  0.00    -0.248 NA
ATOM     34  C   UNL A   1      47.461  30.529  28.308  1.00  0.00     0.031 C 
ATOM     35  C   UNL A   1      42.728  33.741  30.400  1.00  0.00     0.029 A 
ATOM     36  C   UNL A   1      43.501  32.690  29.927  1.00  0.00     0.049 A 
ATOM     37  H   UNL A   1      42.919  30.711  29.497  1.00  0.00     0.167 HD
ATOM     38  C   UNL A   1      45.615  31.634  29.122  1.00  0.00     0.074 A 
ATOM     39  C   UNL A   1      47.032  31.681  28.810  1.00  0.00     0.031 C 
ATOM     40  C   UNL A   1      44.908  32.685  29.606  1.00  0.00     0.037 A 
BRANCH  27  41
ATOM     41  C   UNL A   1      38.936  31.490  30.809  1.00  0.00     0.058 A 
ATOM     42  C   UNL A   1      38.650  31.380  32.179  1.00  0.00     0.135 A 
ATOM     43  C   UNL A   1      37.975  32.103  29.988  1.00  0.00     0.135 A 
ATOM     44  F   UNL A   1      39.539  30.813  33.012  1.00  0.00    -0.206 F 
ATOM     45  C   UNL A   1      37.472  31.882  32.724  1.00  0.00     0.059 A 
ATOM     46  C   UNL A   1      36.800  32.631  30.515  1.00  0.00     0.059 A 
ATOM     47  F   UNL A   1      38.211  32.264  28.676  1.00  0.00    -0.206 F 
ATOM     48  C   UNL A   1      36.565  32.529  31.887  1.00  0.00     0.060 A 
BRANCH  48  49
ATOM     49  S   UNL A   1      35.069  33.280  32.568  1.00  0.00     0.124 S 
ATOM     50  O   UNL A   1      35.368  33.274  33.998  1.00  0.00    -0.237 OA
ATOM     51  O   UNL A   1      35.059  34.592  31.930  1.00  0.00    -0.237 OA
ATOM     52  O   UNL A   1      34.009  32.370  32.145  1.00  0.00    -0.744 OA
ENDBRANCH  48  49
ENDBRANCH  27  41
BRANCH  28  53
ATOM     53  C   UNL A   1      47.633  27.725  27.381  1.00  0.00     0.058 A 
ATOM     54  C   UNL A   1      48.508  27.087  28.276  1.00  0.00     0.135 A 
ATOM     55  C   UNL A   1      48.042  27.834  26.043  1.00  0.00     0.135 A 
ATOM     56  F   UNL A   1      48.170  26.959  29.569  1.00  0.00    -0.206 F 
ATOM     57  C   UNL A   1      49.751  26.606  27.875  1.00  0.00     0.059 A 
ATOM     58  C   UNL A   1      49.270  27.341  25.612  1.00  0.00     0.059 A 
ATOM     59  F   UNL A   1      47.239  28.422  25.144  1.00  0.00    -0.206 F 
ATOM     60  C   UNL A   1      50.123  26.736  26.538  1.00  0.00     0.060 A 
BRANCH  60  61
ATOM     61  S   UNL A   1      51.746  26.165  25.985  1.00  0.00     0.124 S 
ATOM     62  O   UNL A   1      52.637  27.069  26.703  1.00  0.00    -0.237 OA
ATOM     63  O   UNL A   1      51.752  24.775  26.432  1.00  0.00    -0.237 OA
ATOM     64  O   UNL A   1      51.692  26.349  24.537  1.00  0.00    -0.744 OA
ENDBRANCH  60  61
ENDBRANCH  28  53
BRANCH  40  65
ATOM     65  C   UNL A   1      45.659  33.961  29.835  1.00  0.00     0.058 A 
ATOM     66  C   UNL A   1      46.143  34.278  31.113  1.00  0.00     0.135 A 
ATOM     67  C   UNL A   1      45.830  34.900  28.808  1.00  0.00     0.135 A 
ATOM     68  F   UNL A   1      45.992  33.411  32.127  1.00  0.00    -0.206 F 
ATOM     69  C   UNL A   1      46.769  35.492  31.371  1.00  0.00     0.059 A 
ATOM     70  C   UNL A   1      46.468  36.112  29.039  1.00  0.00     0.059 A 
ATOM     71  F   UNL A   1      45.385  34.637  27.569  1.00  0.00    -0.206 F 
ATOM     72  C   UNL A   1      46.932  36.401  30.325  1.00  0.00     0.060 A 
BRANCH  72  73
ATOM     73  S   UNL A   1      47.715  37.998  30.624  1.00  0.00     0.124 S 
ATOM     74  O   UNL A   1      48.899  37.907  29.775  1.00  0.00    -0.237 OA
ATOM     75  O   UNL A   1      46.689  38.937  30.182  1.00  0.00    -0.237 OA
ATOM     76  O   UNL A   1      47.969  37.988  32.061  1.00  0.00    -0.744 OA
ENDBRANCH  72  73
ENDBRANCH  40  65
ENDBRANCH  14  15
ENDBRANCH   7   9
ENDBRANCH   6   7
ENDBRANCH   5   6
ENDBRANCH   4   5
ENDBRANCH   3   4
ENDBRANCH   2   3
ENDBRANCH   1   2
BRANCH   1  77
ATOM     77  O   UNL A   1      32.306  21.715  25.238  1.00  0.00    -0.377 OA
BRANCH  77  78
ATOM     78  C   UNL A   1      32.683  22.751  24.338  1.00  0.00     0.188 C 
BRANCH  78  79
ATOM     79  C   UNL A   1      33.456  23.970  24.887  1.00  0.00     0.188 C 
BRANCH  79  80
ATOM     80  O   UNL A   1      33.741  25.075  24.047  1.00  0.00    -0.376 OA
BRANCH  80  81
ATOM     81  C   UNL A   1      33.400  25.021  22.670  1.00  0.00     0.202 C 
BRANCH  81  82
ATOM     82  C   UNL A   1      33.081  26.353  21.984  1.00  0.00     0.261 C 
BRANCH  82  83
ATOM     83  O   UNL A   1      32.646  27.360  22.913  1.00  0.00    -0.458 OA
BRANCH  83  84
ATOM     84  C   UNL A   1      31.307  27.441  23.158  1.00  0.00     0.361 C 
ATOM     85  O   UNL A   1      30.469  27.870  22.372  1.00  0.00    -0.244 OA
BRANCH  84  86
ATOM     86  C   UNL A   1      30.954  26.815  24.424  1.00  0.00     0.194 A 
ATOM     87  N   UNL A   1      30.004  25.811  24.565  1.00  0.00    -0.209 NA
ATOM     88  C   UNL A   1      31.377  27.221  25.679  1.00  0.00     0.169 A 
ATOM     89  C   UNL A   1      29.926  25.639  25.864  1.00  0.00     0.309 A 
ATOM     90  O   UNL A   1      30.713  26.459  26.607  1.00  0.00    -0.443 OA
BRANCH  88  91
ATOM     91  C   UNL A   1      32.206  28.284  26.220  1.00  0.00     0.026 A 
ATOM     92  C   UNL A   1      31.679  29.580  26.343  1.00  0.00     0.051 A 
ATOM     93  C   UNL A   1      33.538  28.064  26.585  1.00  0.00     0.051 A 
ATOM     94  C   UNL A   1      32.478  30.623  26.805  1.00  0.00     0.126 A 
ATOM     95  C   UNL A   1      34.312  29.122  27.064  1.00  0.00     0.126 A 
ATOM     96  F   UNL A   1      31.960  31.856  26.885  1.00  0.00    -0.207 F 
ATOM     97  C   UNL A   1      33.795  30.406  27.172  1.00  0.00     0.078 A 
ATOM     98  F   UNL A   1      35.579  28.894  27.431  1.00  0.00    -0.207 F 
ENDBRANCH  88  91
ENDBRANCH  84  86
ENDBRANCH  83  84
ENDBRANCH  82  83
ENDBRANCH  81  82
ENDBRANCH  80  81
ENDBRANCH  79  80
ENDBRANCH  78  79
ENDBRANCH  77  78
ENDBRANCH   1  77
TORSDOF 24
ENDMDL
MODEL 3
REMARK VINA RESULT:      -9.7      3.004      4.114
REMARK SMILES O=C(OCCOCCOCCOCCOC(=O)c1ncoc1-c1cc(F)cc(F)c1)c1ccc(-c2c3nc(c(-c4c(F)cc(S(=O)(=O)[O-])cc4F)c4ccc([nH]4)c(-c4c(F)cc(S(=O)(=O)[O-])cc4F)c4nc(c(-c5c(F)cc(S(=O)(=O)[O-])cc5F)c5ccc2[nH]5)C=C4)C=C3)cc1
REMARK SMILES IDX 8 1 7 2 6 3 5 4 4 5 3 6 2 7 1 8 31 9 32 10 96 11 33 12 95 13
REMARK SMILES IDX 34 14 35 15 36 16 89 17 37 18 94 19 88 20 90 21 38 22 93 23
REMARK SMILES IDX 87 24 86 25 39 27 73 28 52 29 72 30 53 31 56 32 71 33 91 34
REMARK SMILES IDX 54 35 55 36 70 38 92 39 57 40 40 41 41 42 50 43 42 44 43 45
REMARK SMILES IDX 49 46 51 47 44 48 45 49 46 50 47 51 48 52 74 53 75 54 84 55
REMARK SMILES IDX 76 56 77 57 83 58 85 59 78 60 79 61 80 62 81 63 82 64 58 65
REMARK SMILES IDX 59 66 68 67 60 68 61 69 67 70 69 71 62 72 63 73 64 74 65 75
REMARK SMILES IDX 66 76 9 77 10 78 11 79 12 80 13 81 14 82 15 83 16 84 17 85
REMARK SMILES IDX 18 86 19 87 22 88 20 89 21 90 23 91 24 92 30 93 25 94 28 95
REMARK SMILES IDX 26 96 27 97 29 98
REMARK H PARENT 90 26 56 37
REMARK Flexibility Score: inf
ROOT
ATOM      1  C   UNL A   1      33.748  21.452  25.176  1.00  0.00     0.188 C 
ENDROOT
BRANCH   1   2
ATOM      2  C   UNL A   1      35.002  20.604  24.982  1.00  0.00     0.188 C 
BRANCH   2   3
ATOM      3  O   UNL A   1      36.037  21.137  25.810  1.00  0.00    -0.376 OA
BRANCH   3   4
ATOM      4  C   UNL A   1      35.926  22.522  26.121  1.00  0.00     0.202 C 
BRANCH   4   5
ATOM      5  C   UNL A   1      37.074  23.378  25.581  1.00  0.00     0.261 C 
BRANCH   5   6
ATOM      6  O   UNL A   1      38.324  22.673  25.642  1.00  0.00    -0.460 OA
BRANCH   6   7
ATOM      7  C   UNL A   1      39.435  23.019  26.345  1.00  0.00     0.338 C 
ATOM      8  O   UNL A   1      40.344  22.198  26.454  1.00  0.00    -0.246 OA
BRANCH   7   9
ATOM      9  C   UNL A   1      39.631  24.369  26.950  1.00  0.00     0.060 A 
ATOM     10  C   UNL A   1      40.210  25.461  26.301  1.00  0.00     0.016 A 
ATOM     11  C   UNL A   1      39.149  24.556  28.256  1.00  0.00     0.016 A 
ATOM     12  C   UNL A   1      40.446  26.656  26.971  1.00  0.00     0.010 A 
ATOM     13  C   UNL A   1      39.326  25.774  28.917  1.00  0.00     0.010 A 
ATOM     14  C   UNL A   1      40.027  26.811  28.291  1.00  0.00    -0.014 A 
BRANCH  14  15
ATOM     15  C   UNL A   1      40.487  27.995  29.046  1.00  0.00     0.031 A 
ATOM     16  C   UNL A   1      41.932  28.055  29.451  1.00  0.00     0.074 A 
ATOM     17  C   UNL A   1      39.663  29.039  29.247  1.00  0.00     0.049 A 
ATOM     18  N   UNL A   1      42.550  28.926  30.200  1.00  0.00    -0.248 NA
ATOM     19  C   UNL A   1      42.802  26.983  28.931  1.00  0.00     0.031 C 
ATOM     20  C   UNL A   1      38.281  29.126  28.773  1.00  0.00     0.029 A 
ATOM     21  N   UNL A   1      39.878  30.241  29.868  1.00  0.00    -0.354 N 
ATOM     22  C   UNL A   1      43.864  28.480  30.285  1.00  0.00     0.074 A 
ATOM     23  C   UNL A   1      43.959  27.267  29.507  1.00  0.00     0.031 C 
ATOM     24  C   UNL A   1      37.786  30.337  29.080  1.00  0.00     0.029 A 
ATOM     25  C   UNL A   1      38.789  31.078  29.838  1.00  0.00     0.049 A 
ATOM     26  H   UNL A   1      40.732  30.482  30.294  1.00  0.00     0.167 HD
ATOM     27  C   UNL A   1      44.893  29.036  30.967  1.00  0.00     0.037 A 
ATOM     28  C   UNL A   1      38.620  32.295  30.392  1.00  0.00     0.037 A 
ATOM     29  C   UNL A   1      44.767  30.256  31.716  1.00  0.00     0.049 A 
ATOM     30  C   UNL A   1      39.758  32.873  31.189  1.00  0.00     0.074 A 
ATOM     31  C   UNL A   1      45.694  30.876  32.530  1.00  0.00     0.029 A 
ATOM     32  N   UNL A   1      43.628  31.053  31.718  1.00  0.00    -0.354 N 
ATOM     33  N   UNL A   1      40.958  32.377  31.385  1.00  0.00    -0.248 NA
ATOM     34  C   UNL A   1      39.516  34.153  31.864  1.00  0.00     0.031 C 
ATOM     35  C   UNL A   1      45.106  32.041  33.041  1.00  0.00     0.029 A 
ATOM     36  C   UNL A   1      43.827  32.163  32.516  1.00  0.00     0.049 A 
ATOM     37  H   UNL A   1      42.800  30.855  31.223  1.00  0.00     0.167 HD
ATOM     38  C   UNL A   1      41.616  33.282  32.209  1.00  0.00     0.074 A 
ATOM     39  C   UNL A   1      40.686  34.368  32.453  1.00  0.00     0.031 C 
ATOM     40  C   UNL A   1      42.868  33.220  32.727  1.00  0.00     0.037 A 
BRANCH  27  41
ATOM     41  C   UNL A   1      46.188  28.274  30.980  1.00  0.00     0.058 A 
ATOM     42  C   UNL A   1      47.210  28.608  30.078  1.00  0.00     0.135 A 
ATOM     43  C   UNL A   1      46.454  27.272  31.928  1.00  0.00     0.135 A 
ATOM     44  F   UNL A   1      47.013  29.567  29.158  1.00  0.00    -0.206 F 
ATOM     45  C   UNL A   1      48.459  27.996  30.127  1.00  0.00     0.059 A 
ATOM     46  C   UNL A   1      47.703  26.662  32.009  1.00  0.00     0.059 A 
ATOM     47  F   UNL A   1      45.524  26.937  32.836  1.00  0.00    -0.206 F 
ATOM     48  C   UNL A   1      48.704  27.042  31.113  1.00  0.00     0.060 A 
BRANCH  48  49
ATOM     49  S   UNL A   1      50.340  26.294  31.274  1.00  0.00     0.124 S 
ATOM     50  O   UNL A   1      51.073  26.970  30.207  1.00  0.00    -0.237 OA
ATOM     51  O   UNL A   1      50.721  26.661  32.634  1.00  0.00    -0.237 OA
ATOM     52  O   UNL A   1      50.087  24.873  31.058  1.00  0.00    -0.744 OA
ENDBRANCH  48  49
ENDBRANCH  27  41
BRANCH  28  53
ATOM     53  C   UNL A   1      37.324  33.012  30.237  1.00  0.00     0.058 A 
ATOM     54  C   UNL A   1      36.298  32.875  31.188  1.00  0.00     0.135 A 
ATOM     55  C   UNL A   1      37.066  33.815  29.117  1.00  0.00     0.135 A 
ATOM     56  F   UNL A   1      36.489  32.114  32.277  1.00  0.00    -0.206 F 
ATOM     57  C   UNL A   1      35.055  33.479  31.021  1.00  0.00     0.059 A 
ATOM     58  C   UNL A   1      35.838  34.449  28.939  1.00  0.00     0.059 A 
ATOM     59  F   UNL A   1      38.015  33.992  28.186  1.00  0.00    -0.206 F 
ATOM     60  C   UNL A   1      34.835  34.267  29.893  1.00  0.00     0.060 A 
BRANCH  60  61
ATOM     61  S   UNL A   1      33.221  35.032  29.618  1.00  0.00     0.124 S 
ATOM     62  O   UNL A   1      32.654  34.163  28.593  1.00  0.00    -0.237 OA
ATOM     63  O   UNL A   1      32.609  34.944  30.940  1.00  0.00    -0.237 OA
ATOM     64  O   UNL A   1      33.559  36.384  29.182  1.00  0.00    -0.744 OA
ENDBRANCH  60  61
ENDBRANCH  28  53
BRANCH  40  65
ATOM     65  C   UNL A   1      43.300  34.363  33.595  1.00  0.00     0.058 A 
ATOM     66  C   UNL A   1      42.999  34.364  34.965  1.00  0.00     0.135 A 
ATOM     67  C   UNL A   1      43.940  35.486  33.055  1.00  0.00     0.135 A 
ATOM     68  F   UNL A   1      42.377  33.312  35.522  1.00  0.00    -0.206 F 
ATOM     69  C   UNL A   1      43.314  35.448  35.776  1.00  0.00     0.059 A 
ATOM     70  C   UNL A   1      44.281  36.574  33.849  1.00  0.00     0.059 A 
ATOM     71  F   UNL A   1      44.250  35.526  31.749  1.00  0.00    -0.206 F 
ATOM     72  C   UNL A   1      43.960  36.547  35.209  1.00  0.00     0.060 A 
BRANCH  72  73
ATOM     73  S   UNL A   1      44.362  37.986  36.220  1.00  0.00     0.124 S 
ATOM     74  O   UNL A   1      44.030  39.082  35.316  1.00  0.00    -0.237 OA
ATOM     75  O   UNL A   1      43.475  37.819  37.367  1.00  0.00    -0.237 OA
ATOM     76  O   UNL A   1      45.783  37.813  36.505  1.00  0.00    -0.744 OA
ENDBRANCH  72  73
ENDBRANCH  40  65
ENDBRANCH  14  15
ENDBRANCH   7   9
ENDBRANCH   6   7
ENDBRANCH   5   6
ENDBRANCH   4   5
ENDBRANCH   3   4
ENDBRANCH   2   3
ENDBRANCH   1   2
BRANCH   1  77
ATOM     77  O   UNL A   1      32.855  21.380  24.067  1.00  0.00    -0.377 OA
BRANCH  77  78
ATOM     78  C   UNL A   1      32.941  22.432  23.114  1.00  0.00     0.188 C 
BRANCH  78  79
ATOM     79  C   UNL A   1      33.966  23.564  23.345  1.00  0.00     0.188 C 
BRANCH  79  80
ATOM     80  O   UNL A   1      33.836  24.799  22.662  1.00  0.00    -0.376 OA
BRANCH  80  81
ATOM     81  C   UNL A   1      32.809  24.966  21.696  1.00  0.00     0.202 C 
BRANCH  81  82
ATOM     82  C   UNL A   1      32.272  26.386  21.497  1.00  0.00     0.261 C 
BRANCH  82  83
ATOM     83  O   UNL A   1      32.091  27.086  22.741  1.00  0.00    -0.458 OA
BRANCH  83  84
ATOM     84  C   UNL A   1      30.909  26.896  23.394  1.00  0.00     0.361 C 
ATOM     85  O   UNL A   1      29.809  27.242  22.977  1.00  0.00    -0.244 OA
BRANCH  84  86
ATOM     86  C   UNL A   1      31.080  26.093  24.595  1.00  0.00     0.194 A 
ATOM     87  N   UNL A   1      30.503  24.846  24.795  1.00  0.00    -0.209 NA
ATOM     88  C   UNL A   1      31.698  26.502  25.766  1.00  0.00     0.169 A 
ATOM     89  C   UNL A   1      30.818  24.553  26.034  1.00  0.00     0.309 A 
ATOM     90  O   UNL A   1      31.527  25.506  26.694  1.00  0.00    -0.443 OA
BRANCH  88  91
ATOM     91  C   UNL A   1      32.329  27.715  26.259  1.00  0.00     0.026 A 
ATOM     92  C   UNL A   1      31.586  28.904  26.326  1.00  0.00     0.051 A 
ATOM     93  C   UNL A   1      33.676  27.743  26.631  1.00  0.00     0.051 A 
ATOM     94  C   UNL A   1      32.191  30.088  26.740  1.00  0.00     0.126 A 
ATOM     95  C   UNL A   1      34.254  28.938  27.061  1.00  0.00     0.126 A 
ATOM     96  F   UNL A   1      31.468  31.216  26.767  1.00  0.00    -0.207 F 
ATOM     97  C   UNL A   1      33.524  30.118  27.114  1.00  0.00     0.078 A 
ATOM     98  F   UNL A   1      35.539  28.947  27.436  1.00  0.00    -0.207 F 
ENDBRANCH  88  91
ENDBRANCH  84  86
ENDBRANCH  83  84
ENDBRANCH  82  83
ENDBRANCH  81  82
ENDBRANCH  80  81
ENDBRANCH  79  80
ENDBRANCH  78  79
ENDBRANCH  77  78
ENDBRANCH   1  77
TORSDOF 24
ENDMDL
