MODEL 1
REMARK VINA RESULT:      -9.0      0.000      0.000
REMARK SMILES COc1cccc(OCC(=O)N/N=C/c2ccccc2C(=O)OCCOCCOCCOCCOC(=O)c2ccc(-c3c4nc(c(-c5c(F)cc(S(=O)(=O)[O-])cc5F)c5ccc([nH]5)c(-c5c(F)cc(S(=O)(=O)[O-])cc5F)c5nc(c(-c6c(F)cc(S(=O)(=O)[O-])cc6F)c6ccc3[nH]6)C=C5)C=C4)cc2)c1
REMARK SMILES IDX 27 1 26 2 25 3 24 4 23 5 21 6 22 7 20 8 15 9 16 10 17 11
REMARK SMILES IDX 19 12 18 13 14 14 13 15 12 16 10 17 11 18 9 20 8 21 7 22
REMARK SMILES IDX 3 23 4 24 104 25 5 26 6 27 2 28 1 29 28 30 29 31 30 32 31 33
REMARK SMILES IDX 32 34 33 35 34 36 35 37 36 38 37 39 38 40 39 41 103 42 40 43
REMARK SMILES IDX 102 44 41 45 42 46 43 47 96 48 44 49 101 50 95 51 97 52
REMARK SMILES IDX 45 53 100 54 94 55 93 56 46 58 80 59 59 60 79 61 60 62 63 63
REMARK SMILES IDX 78 64 98 65 61 66 62 67 77 69 99 70 64 71 47 72 48 73 57 74
REMARK SMILES IDX 49 75 50 76 56 77 58 78 51 79 52 80 53 81 54 82 55 83 81 84
REMARK SMILES IDX 82 85 91 86 83 87 84 88 90 89 92 90 85 91 86 92 87 93 88 94
REMARK SMILES IDX 89 95 65 96 66 97 75 98 67 99 68 100 74 101 76 102 69 103
REMARK SMILES IDX 70 104 71 105 72 106 73 107
REMARK H PARENT 12 19 97 57 63 68
REMARK Flexibility Score: inf
ROOT
ATOM      1  C   UNL A   1      35.077  32.189  27.755  1.00  0.00     0.188 C 
ENDROOT
BRANCH   1   2
ATOM      2  O   UNL A   1      35.652  31.024  28.336  1.00  0.00    -0.376 OA
BRANCH   2   3
ATOM      3  C   UNL A   1      35.003  29.795  28.023  1.00  0.00     0.202 C 
BRANCH   3   4
ATOM      4  C   UNL A   1      33.993  29.924  26.885  1.00  0.00     0.261 C 
BRANCH   4   5
ATOM      5  O   UNL A   1      32.998  28.895  26.933  1.00  0.00    -0.460 OA
BRANCH   5   6
ATOM      6  C   UNL A   1      33.128  27.844  26.105  1.00  0.00     0.338 C 
ATOM      7  O   UNL A   1      33.716  26.801  26.351  1.00  0.00    -0.246 OA
BRANCH   6   8
ATOM      8  C   UNL A   1      32.250  28.041  24.922  1.00  0.00     0.068 A 
ATOM      9  C   UNL A   1      30.996  27.434  24.757  1.00  0.00     0.009 A 
ATOM     10  C   UNL A   1      30.274  27.589  23.567  1.00  0.00     0.010 A 
ATOM     11  C   UNL A   1      30.811  28.339  22.522  1.00  0.00     0.001 A 
ATOM     12  C   UNL A   1      32.780  28.787  23.857  1.00  0.00     0.016 A 
ATOM     13  C   UNL A   1      32.068  28.923  22.661  1.00  0.00     0.001 A 
BRANCH   9  14
ATOM     14  C   UNL A   1      30.471  26.445  25.702  1.00  0.00     0.142 C 
ATOM     15  N   UNL A   1      30.153  25.245  25.352  1.00  0.00    -0.181 NA
BRANCH  15  16
ATOM     16  N   UNL A   1      29.630  24.442  26.328  1.00  0.00    -0.244 N 
ATOM     17  C   UNL A   1      30.142  23.312  26.923  1.00  0.00     0.277 C 
ATOM     18  O   UNL A   1      29.562  22.840  27.907  1.00  0.00    -0.269 OA
ATOM     19  H   UNL A   1      28.744  24.717  26.658  1.00  0.00     0.193 HD
BRANCH  17  20
ATOM     20  C   UNL A   1      31.418  22.641  26.390  1.00  0.00     0.331 C 
BRANCH  20  21
ATOM     21  O   UNL A   1      32.672  23.013  26.945  1.00  0.00    -0.484 OA
BRANCH  21  22
ATOM     22  C   UNL A   1      33.669  23.281  26.041  1.00  0.00     0.123 A 
ATOM     23  C   UNL A   1      34.558  24.069  23.933  1.00  0.00     0.122 A 
ATOM     24  C   UNL A   1      35.847  23.752  24.362  1.00  0.00     0.046 A 
ATOM     25  C   UNL A   1      33.468  23.819  24.768  1.00  0.00     0.092 A 
ATOM     26  C   UNL A   1      36.051  23.198  25.624  1.00  0.00     0.008 A 
ATOM     27  C   UNL A   1      34.961  22.958  26.460  1.00  0.00     0.047 A 
BRANCH  23  28
ATOM     28  O   UNL A   1      34.472  24.587  22.670  1.00  0.00    -0.497 OA
ATOM     29  C   UNL A   1      33.291  25.337  22.399  1.00  0.00     0.278 C 
ENDBRANCH  23  28
ENDBRANCH  21  22
ENDBRANCH  20  21
ENDBRANCH  17  20
ENDBRANCH  15  16
ENDBRANCH   9  14
ENDBRANCH   6   8
ENDBRANCH   5   6
ENDBRANCH   4   5
ENDBRANCH   3   4
ENDBRANCH   2   3
ENDBRANCH   1   2
BRANCH   1  30
ATOM     30  C   UNL A   1      34.087  32.950  28.657  1.00  0.00     0.188 C 
BRANCH  30  31
ATOM     31  O   UNL A   1      33.392  34.071  28.139  1.00  0.00    -0.377 OA
BRANCH  31  32
ATOM     32  C   UNL A   1      33.071  35.159  29.002  1.00  0.00     0.188 C 
BRANCH  32  33
ATOM     33  C   UNL A   1      33.705  35.273  30.406  1.00  0.00     0.188 C 
BRANCH  33  34
ATOM     34  O   UNL A   1      32.773  35.337  31.479  1.00  0.00    -0.376 OA
BRANCH  34  35
ATOM     35  C   UNL A   1      33.287  35.787  32.724  1.00  0.00     0.202 C 
BRANCH  35  36
ATOM     36  C   UNL A   1      34.721  35.326  33.004  1.00  0.00     0.261 C 
BRANCH  36  37
ATOM     37  O   UNL A   1      34.827  34.045  33.646  1.00  0.00    -0.460 OA
BRANCH  37  38
ATOM     38  C   UNL A   1      34.887  32.958  32.843  1.00  0.00     0.338 C 
ATOM     39  O   UNL A   1      33.961  32.397  32.288  1.00  0.00    -0.246 OA
BRANCH  38  40
ATOM     40  C   UNL A   1      36.311  32.659  32.617  1.00  0.00     0.060 A 
ATOM     41  C   UNL A   1      37.247  32.998  33.602  1.00  0.00     0.016 A 
ATOM     42  C   UNL A   1      36.710  32.032  31.435  1.00  0.00     0.016 A 
ATOM     43  C   UNL A   1      38.598  32.720  33.397  1.00  0.00     0.010 A 
ATOM     44  C   UNL A   1      38.064  31.773  31.224  1.00  0.00     0.010 A 
ATOM     45  C   UNL A   1      39.015  32.134  32.194  1.00  0.00    -0.014 A 
BRANCH  45  46
ATOM     46  C   UNL A   1      40.454  32.043  31.859  1.00  0.00     0.031 A 
ATOM     47  C   UNL A   1      41.067  33.142  31.039  1.00  0.00     0.074 A 
ATOM     48  C   UNL A   1      41.195  30.991  32.251  1.00  0.00     0.049 A 
ATOM     49  N   UNL A   1      42.265  33.222  30.524  1.00  0.00    -0.248 NA
ATOM     50  C   UNL A   1      40.208  34.304  30.756  1.00  0.00     0.031 C 
ATOM     51  C   UNL A   1      40.722  29.882  33.076  1.00  0.00     0.029 A 
ATOM     52  N   UNL A   1      42.505  30.678  31.987  1.00  0.00    -0.354 N 
ATOM     53  C   UNL A   1      42.304  34.437  29.850  1.00  0.00     0.074 A 
ATOM     54  C   UNL A   1      41.004  35.052  30.005  1.00  0.00     0.031 C 
ATOM     55  C   UNL A   1      41.723  29.001  33.240  1.00  0.00     0.029 A 
ATOM     56  C   UNL A   1      42.896  29.465  32.501  1.00  0.00     0.049 A 
ATOM     57  H   UNL A   1      43.107  31.267  31.476  1.00  0.00     0.167 HD
ATOM     58  C   UNL A   1      43.332  34.987  29.165  1.00  0.00     0.037 A 
ATOM     59  C   UNL A   1      44.053  28.791  32.355  1.00  0.00     0.037 A 
ATOM     60  C   UNL A   1      44.620  34.364  29.006  1.00  0.00     0.049 A 
ATOM     61  C   UNL A   1      45.139  29.369  31.488  1.00  0.00     0.074 A 
ATOM     62  C   UNL A   1      45.743  34.858  28.366  1.00  0.00     0.029 A 
ATOM     63  N   UNL A   1      44.949  33.102  29.478  1.00  0.00    -0.354 N 
ATOM     64  N   UNL A   1      45.171  30.521  30.862  1.00  0.00    -0.248 NA
ATOM     65  C   UNL A   1      46.336  28.540  31.284  1.00  0.00     0.031 C 
ATOM     66  C   UNL A   1      46.735  33.873  28.406  1.00  0.00     0.029 A 
ATOM     67  C   UNL A   1      46.245  32.783  29.108  1.00  0.00     0.049 A 
ATOM     68  H   UNL A   1      44.350  32.520  29.998  1.00  0.00     0.167 HD
ATOM     69  C   UNL A   1      46.391  30.559  30.197  1.00  0.00     0.074 A 
ATOM     70  C   UNL A   1      47.074  29.318  30.503  1.00  0.00     0.031 C 
ATOM     71  C   UNL A   1      46.902  31.536  29.406  1.00  0.00     0.037 A 
BRANCH  58  72
ATOM     72  C   UNL A   1      43.092  36.316  28.508  1.00  0.00     0.058 A 
ATOM     73  C   UNL A   1      43.420  37.523  29.146  1.00  0.00     0.135 A 
ATOM     74  C   UNL A   1      42.540  36.380  27.220  1.00  0.00     0.135 A 
ATOM     75  F   UNL A   1      43.931  37.517  30.387  1.00  0.00    -0.206 F 
ATOM     76  C   UNL A   1      43.185  38.751  28.536  1.00  0.00     0.059 A 
ATOM     77  C   UNL A   1      42.319  37.598  26.582  1.00  0.00     0.059 A 
ATOM     78  F   UNL A   1      42.204  35.255  26.571  1.00  0.00    -0.206 F 
ATOM     79  C   UNL A   1      42.631  38.778  27.255  1.00  0.00     0.060 A 
BRANCH  79  80
ATOM     80  S   UNL A   1      42.327  40.379  26.478  1.00  0.00     0.124 S 
ATOM     81  O   UNL A   1      43.441  40.460  25.537  1.00  0.00    -0.237 OA
ATOM     82  O   UNL A   1      41.008  40.194  25.883  1.00  0.00    -0.237 OA
ATOM     83  O   UNL A   1      42.381  41.315  27.597  1.00  0.00    -0.744 OA
ENDBRANCH  79  80
ENDBRANCH  58  72
BRANCH  59  84
ATOM     84  C   UNL A   1      44.231  27.461  32.992  1.00  0.00     0.058 A 
ATOM     85  C   UNL A   1      44.626  27.342  34.332  1.00  0.00     0.135 A 
ATOM     86  C   UNL A   1      44.028  26.282  32.263  1.00  0.00     0.135 A 
ATOM     87  F   UNL A   1      44.859  28.444  35.061  1.00  0.00    -0.206 F 
ATOM     88  C   UNL A   1      44.810  26.099  34.930  1.00  0.00     0.059 A 
ATOM     89  C   UNL A   1      44.190  25.028  32.845  1.00  0.00     0.059 A 
ATOM     90  F   UNL A   1      43.663  26.346  30.973  1.00  0.00    -0.206 F 
ATOM     91  C   UNL A   1      44.586  24.945  34.177  1.00  0.00     0.060 A 
BRANCH  91  92
ATOM     92  S   UNL A   1      44.763  23.329  34.963  1.00  0.00     0.124 S 
ATOM     93  O   UNL A   1      45.485  22.583  33.939  1.00  0.00    -0.237 OA
ATOM     94  O   UNL A   1      45.518  23.651  36.170  1.00  0.00    -0.237 OA
ATOM     95  O   UNL A   1      43.381  22.918  35.191  1.00  0.00    -0.744 OA
ENDBRANCH  91  92
ENDBRANCH  59  84
BRANCH  71  96
ATOM     96  C   UNL A   1      48.267  31.309  28.823  1.00  0.00     0.058 A 
ATOM     97  C   UNL A   1      49.428  31.738  29.483  1.00  0.00     0.135 A 
ATOM     98  C   UNL A   1      48.419  30.603  27.618  1.00  0.00     0.135 A 
ATOM     99  F   UNL A   1      49.335  32.426  30.632  1.00  0.00    -0.206 F 
ATOM    100  C   UNL A   1      50.694  31.484  28.965  1.00  0.00     0.059 A 
ATOM    101  C   UNL A   1      49.675  30.319  27.093  1.00  0.00     0.059 A 
ATOM    102  F   UNL A   1      47.339  30.165  26.951  1.00  0.00    -0.206 F 
ATOM    103  C   UNL A   1      50.806  30.771  27.769  1.00  0.00     0.060 A 
BRANCH 103 104
ATOM    104  S   UNL A   1      52.456  30.410  27.129  1.00  0.00     0.124 S 
ATOM    105  O   UNL A   1      53.297  31.203  28.018  1.00  0.00    -0.237 OA
ATOM    106  O   UNL A   1      52.546  28.962  27.295  1.00  0.00    -0.237 OA
ATOM    107  O   UNL A   1      52.391  30.872  25.745  1.00  0.00    -0.744 OA
ENDBRANCH 103 104
ENDBRANCH  71  96
ENDBRANCH  45  46
ENDBRANCH  38  40
ENDBRANCH  37  38
ENDBRANCH  36  37
ENDBRANCH  35  36
ENDBRANCH  34  35
ENDBRANCH  33  34
ENDBRANCH  32  33
ENDBRANCH  31  32
ENDBRANCH  30  31
ENDBRANCH   1  30
TORSDOF 29
ENDMDL
MODEL 2
REMARK VINA RESULT:      -7.8      6.075     10.707
REMARK SMILES COc1cccc(OCC(=O)N/N=C/c2ccccc2C(=O)OCCOCCOCCOCCOC(=O)c2ccc(-c3c4nc(c(-c5c(F)cc(S(=O)(=O)[O-])cc5F)c5ccc([nH]5)c(-c5c(F)cc(S(=O)(=O)[O-])cc5F)c5nc(c(-c6c(F)cc(S(=O)(=O)[O-])cc6F)c6ccc3[nH]6)C=C5)C=C4)cc2)c1
REMARK SMILES IDX 27 1 26 2 25 3 24 4 23 5 21 6 22 7 20 8 15 9 16 10 17 11
REMARK SMILES IDX 19 12 18 13 14 14 13 15 12 16 10 17 11 18 9 20 8 21 7 22
REMARK SMILES IDX 3 23 4 24 104 25 5 26 6 27 2 28 1 29 28 30 29 31 30 32 31 33
REMARK SMILES IDX 32 34 33 35 34 36 35 37 36 38 37 39 38 40 39 41 103 42 40 43
REMARK SMILES IDX 102 44 41 45 42 46 43 47 96 48 44 49 101 50 95 51 97 52
REMARK SMILES IDX 45 53 100 54 94 55 93 56 46 58 80 59 59 60 79 61 60 62 63 63
REMARK SMILES IDX 78 64 98 65 61 66 62 67 77 69 99 70 64 71 47 72 48 73 57 74
REMARK SMILES IDX 49 75 50 76 56 77 58 78 51 79 52 80 53 81 54 82 55 83 81 84
REMARK SMILES IDX 82 85 91 86 83 87 84 88 90 89 92 90 85 91 86 92 87 93 88 94
REMARK SMILES IDX 89 95 65 96 66 97 75 98 67 99 68 100 74 101 76 102 69 103
REMARK SMILES IDX 70 104 71 105 72 106 73 107
REMARK H PARENT 12 19 97 57 63 68
REMARK Flexibility Score: inf
ROOT
ATOM      1  C   UNL A   1      44.241  32.533  28.664  1.00  0.00     0.188 C 
ENDROOT
BRANCH   1   2
ATOM      2  O   UNL A   1      43.859  32.767  30.015  1.00  0.00    -0.376 OA
BRANCH   2   3
ATOM      3  C   UNL A   1      44.505  33.864  30.656  1.00  0.00     0.202 C 
BRANCH   3   4
ATOM      4  C   UNL A   1      43.894  34.207  32.013  1.00  0.00     0.261 C 
BRANCH   4   5
ATOM      5  O   UNL A   1      42.585  34.772  31.883  1.00  0.00    -0.460 OA
BRANCH   5   6
ATOM      6  C   UNL A   1      41.531  34.035  32.278  1.00  0.00     0.338 C 
ATOM      7  O   UNL A   1      41.420  33.451  33.345  1.00  0.00    -0.246 OA
BRANCH   6   8
ATOM      8  C   UNL A   1      40.414  34.224  31.317  1.00  0.00     0.068 A 
ATOM      9  C   UNL A   1      39.056  34.204  31.666  1.00  0.00     0.009 A 
ATOM     10  C   UNL A   1      38.060  34.287  30.685  1.00  0.00     0.010 A 
ATOM     11  C   UNL A   1      38.415  34.372  29.340  1.00  0.00     0.001 A 
ATOM     12  C   UNL A   1      40.756  34.303  29.957  1.00  0.00     0.016 A 
ATOM     13  C   UNL A   1      39.760  34.364  28.975  1.00  0.00     0.001 A 
BRANCH   9  14
ATOM     14  C   UNL A   1      38.597  33.880  33.020  1.00  0.00     0.142 C 
ATOM     15  N   UNL A   1      38.132  34.768  33.831  1.00  0.00    -0.181 NA
BRANCH  15  16
ATOM     16  N   UNL A   1      37.785  34.332  35.080  1.00  0.00    -0.244 N 
ATOM     17  C   UNL A   1      36.567  33.936  35.581  1.00  0.00     0.277 C 
ATOM     18  O   UNL A   1      36.521  33.420  36.703  1.00  0.00    -0.269 OA
ATOM     19  H   UNL A   1      38.528  34.296  35.726  1.00  0.00     0.193 HD
BRANCH  17  20
ATOM     20  C   UNL A   1      35.276  34.115  34.766  1.00  0.00     0.331 C 
BRANCH  20  21
ATOM     21  O   UNL A   1      34.851  33.062  33.912  1.00  0.00    -0.484 OA
BRANCH  21  22
ATOM     22  C   UNL A   1      34.636  33.406  32.602  1.00  0.00     0.123 A 
ATOM     23  C   UNL A   1      33.918  34.867  30.811  1.00  0.00     0.122 A 
ATOM     24  C   UNL A   1      34.296  33.903  29.877  1.00  0.00     0.046 A 
ATOM     25  C   UNL A   1      34.075  34.611  32.174  1.00  0.00     0.092 A 
ATOM     26  C   UNL A   1      34.841  32.691  30.299  1.00  0.00     0.008 A 
ATOM     27  C   UNL A   1      35.005  32.442  31.661  1.00  0.00     0.047 A 
BRANCH  23  28
ATOM     28  O   UNL A   1      33.376  36.009  30.289  1.00  0.00    -0.497 OA
ATOM     29  C   UNL A   1      33.200  37.078  31.214  1.00  0.00     0.278 C 
ENDBRANCH  23  28
ENDBRANCH  21  22
ENDBRANCH  20  21
ENDBRANCH  17  20
ENDBRANCH  15  16
ENDBRANCH   9  14
ENDBRANCH   6   8
ENDBRANCH   5   6
ENDBRANCH   4   5
ENDBRANCH   3   4
ENDBRANCH   2   3
ENDBRANCH   1   2
BRANCH   1  30
ATOM     30  C   UNL A   1      44.220  31.057  28.224  1.00  0.00     0.188 C 
BRANCH  30  31
ATOM     31  O   UNL A   1      42.984  30.369  28.151  1.00  0.00    -0.377 OA
BRANCH  31  32
ATOM     32  C   UNL A   1      42.969  28.944  28.197  1.00  0.00     0.188 C 
BRANCH  32  33
ATOM     33  C   UNL A   1      41.647  28.168  28.381  1.00  0.00     0.188 C 
BRANCH  33  34
ATOM     34  O   UNL A   1      40.493  28.983  28.548  1.00  0.00    -0.376 OA
BRANCH  34  35
ATOM     35  C   UNL A   1      39.291  28.486  27.978  1.00  0.00     0.202 C 
BRANCH  35  36
ATOM     36  C   UNL A   1      38.022  29.105  28.572  1.00  0.00     0.261 C 
BRANCH  36  37
ATOM     37  O   UNL A   1      38.246  29.984  29.686  1.00  0.00    -0.460 OA
BRANCH  37  38
ATOM     38  C   UNL A   1      37.512  29.763  30.801  1.00  0.00     0.338 C 
ATOM     39  O   UNL A   1      36.357  29.385  30.864  1.00  0.00    -0.246 OA
BRANCH  38  40
ATOM     40  C   UNL A   1      38.417  29.901  31.954  1.00  0.00     0.060 A 
ATOM     41  C   UNL A   1      39.793  30.050  31.731  1.00  0.00     0.016 A 
ATOM     42  C   UNL A   1      37.898  29.896  33.250  1.00  0.00     0.016 A 
ATOM     43  C   UNL A   1      40.658  30.180  32.817  1.00  0.00     0.010 A 
ATOM     44  C   UNL A   1      38.768  30.007  34.334  1.00  0.00     0.010 A 
ATOM     45  C   UNL A   1      40.153  30.129  34.123  1.00  0.00    -0.014 A 
BRANCH  45  46
ATOM     46  C   UNL A   1      41.068  30.033  35.283  1.00  0.00     0.031 A 
ATOM     47  C   UNL A   1      41.096  31.169  36.265  1.00  0.00     0.074 A 
ATOM     48  C   UNL A   1      41.878  28.972  35.445  1.00  0.00     0.049 A 
ATOM     49  N   UNL A   1      41.892  31.366  37.282  1.00  0.00    -0.248 NA
ATOM     50  C   UNL A   1      40.095  32.230  36.068  1.00  0.00     0.031 C 
ATOM     51  C   UNL A   1      41.917  27.796  34.578  1.00  0.00     0.029 A 
ATOM     52  N   UNL A   1      42.840  28.724  36.391  1.00  0.00    -0.354 N 
ATOM     53  C   UNL A   1      41.496  32.573  37.843  1.00  0.00     0.074 A 
ATOM     54  C   UNL A   1      40.400  33.075  37.042  1.00  0.00     0.031 C 
ATOM     55  C   UNL A   1      42.866  26.956  35.024  1.00  0.00     0.029 A 
ATOM     56  C   UNL A   1      43.526  27.551  36.185  1.00  0.00     0.049 A 
ATOM     57  H   UNL A   1      43.023  29.330  37.145  1.00  0.00     0.167 HD
ATOM     58  C   UNL A   1      42.001  33.205  38.927  1.00  0.00     0.037 A 
ATOM     59  C   UNL A   1      44.591  27.041  36.834  1.00  0.00     0.037 A 
ATOM     60  C   UNL A   1      43.099  32.705  39.712  1.00  0.00     0.049 A 
ATOM     61  C   UNL A   1      45.211  27.821  37.962  1.00  0.00     0.074 A 
ATOM     62  C   UNL A   1      43.658  33.249  40.854  1.00  0.00     0.029 A 
ATOM     63  N   UNL A   1      43.814  31.552  39.424  1.00  0.00    -0.354 N 
ATOM     64  N   UNL A   1      44.824  28.958  38.490  1.00  0.00    -0.248 NA
ATOM     65  C   UNL A   1      46.431  27.262  38.561  1.00  0.00     0.031 C 
ATOM     66  C   UNL A   1      44.746  32.452  41.227  1.00  0.00     0.029 A 
ATOM     67  C   UNL A   1      44.837  31.388  40.343  1.00  0.00     0.049 A 
ATOM     68  H   UNL A   1      43.623  30.942  38.676  1.00  0.00     0.167 HD
ATOM     69  C   UNL A   1      45.748  29.246  39.489  1.00  0.00     0.074 A 
ATOM     70  C   UNL A   1      46.707  28.160  39.497  1.00  0.00     0.031 C 
ATOM     71  C   UNL A   1      45.794  30.312  40.326  1.00  0.00     0.037 A 
BRANCH  58  72
ATOM     72  C   UNL A   1      41.391  34.524  39.304  1.00  0.00     0.058 A 
ATOM     73  C   UNL A   1      40.306  34.607  40.192  1.00  0.00     0.135 A 
ATOM     74  C   UNL A   1      41.907  35.720  38.783  1.00  0.00     0.135 A 
ATOM     75  F   UNL A   1      39.762  33.491  40.702  1.00  0.00    -0.206 F 
ATOM     76  C   UNL A   1      39.738  35.831  40.530  1.00  0.00     0.059 A 
ATOM     77  C   UNL A   1      41.369  36.957  39.126  1.00  0.00     0.059 A 
ATOM     78  F   UNL A   1      42.940  35.694  37.926  1.00  0.00    -0.206 F 
ATOM     79  C   UNL A   1      40.275  37.000  39.989  1.00  0.00     0.060 A 
BRANCH  79  80
ATOM     80  S   UNL A   1      39.525  38.582  40.433  1.00  0.00     0.124 S 
ATOM     81  O   UNL A   1      40.563  39.521  40.019  1.00  0.00    -0.237 OA
ATOM     82  O   UNL A   1      38.309  38.589  39.626  1.00  0.00    -0.237 OA
ATOM     83  O   UNL A   1      39.318  38.467  41.873  1.00  0.00    -0.744 OA
ENDBRANCH  79  80
ENDBRANCH  58  72
BRANCH  59  84
ATOM     84  C   UNL A   1      45.185  25.750  36.399  1.00  0.00     0.058 A 
ATOM     85  C   UNL A   1      46.109  25.692  35.346  1.00  0.00     0.135 A 
ATOM     86  C   UNL A   1      44.822  24.547  37.018  1.00  0.00     0.135 A 
ATOM     87  F   UNL A   1      46.465  26.816  34.706  1.00  0.00    -0.206 F 
ATOM     88  C   UNL A   1      46.657  24.484  34.923  1.00  0.00     0.059 A 
ATOM     89  C   UNL A   1      45.368  23.330  36.622  1.00  0.00     0.059 A 
ATOM     90  F   UNL A   1      43.930  24.552  38.021  1.00  0.00    -0.206 F 
ATOM     91  C   UNL A   1      46.281  23.307  35.572  1.00  0.00     0.060 A 
BRANCH  91  92
ATOM     92  S   UNL A   1      47.034  21.743  35.069  1.00  0.00     0.124 S 
ATOM     93  O   UNL A   1      46.068  21.254  34.092  1.00  0.00    -0.237 OA
ATOM     94  O   UNL A   1      48.321  22.176  34.534  1.00  0.00    -0.237 OA
ATOM     95  O   UNL A   1      47.106  20.994  36.320  1.00  0.00    -0.744 OA
ENDBRANCH  91  92
ENDBRANCH  59  84
BRANCH  71  96
ATOM     96  C   UNL A   1      46.913  30.356  41.327  1.00  0.00     0.058 A 
ATOM     97  C   UNL A   1      46.814  29.704  42.565  1.00  0.00     0.135 A 
ATOM     98  C   UNL A   1      48.118  31.009  41.022  1.00  0.00     0.135 A 
ATOM     99  F   UNL A   1      45.679  29.075  42.909  1.00  0.00    -0.206 F 
ATOM    100  C   UNL A   1      47.869  29.705  43.472  1.00  0.00     0.059 A 
ATOM    101  C   UNL A   1      49.193  31.005  41.904  1.00  0.00     0.059 A 
ATOM    102  F   UNL A   1      48.264  31.642  39.847  1.00  0.00    -0.206 F 
ATOM    103  C   UNL A   1      49.056  30.357  43.130  1.00  0.00     0.060 A 
BRANCH 103 104
ATOM    104  S   UNL A   1      50.435  30.314  44.296  1.00  0.00     0.124 S 
ATOM    105  O   UNL A   1      49.760  30.591  45.559  1.00  0.00    -0.237 OA
ATOM    106  O   UNL A   1      50.942  28.955  44.133  1.00  0.00    -0.237 OA
ATOM    107  O   UNL A   1      51.321  31.369  43.812  1.00  0.00    -0.744 OA
ENDBRANCH 103 104
ENDBRANCH  71  96
ENDBRANCH  45  46
ENDBRANCH  38  40
ENDBRANCH  37  38
ENDBRANCH  36  37
ENDBRANCH  35  36
ENDBRANCH  34  35
ENDBRANCH  33  34
ENDBRANCH  32  33
ENDBRANCH  31  32
ENDBRANCH  30  31
ENDBRANCH   1  30
TORSDOF 29
ENDMDL
MODEL 3
REMARK VINA RESULT:      -7.7      4.370     10.573
REMARK SMILES COc1cccc(OCC(=O)N/N=C/c2ccccc2C(=O)OCCOCCOCCOCCOC(=O)c2ccc(-c3c4nc(c(-c5c(F)cc(S(=O)(=O)[O-])cc5F)c5ccc([nH]5)c(-c5c(F)cc(S(=O)(=O)[O-])cc5F)c5nc(c(-c6c(F)cc(S(=O)(=O)[O-])cc6F)c6ccc3[nH]6)C=C5)C=C4)cc2)c1
REMARK SMILES IDX 27 1 26 2 25 3 24 4 23 5 21 6 22 7 20 8 15 9 16 10 17 11
REMARK SMILES IDX 19 12 18 13 14 14 13 15 12 16 10 17 11 18 9 20 8 21 7 22
REMARK SMILES IDX 3 23 4 24 104 25 5 26 6 27 2 28 1 29 28 30 29 31 30 32 31 33
REMARK SMILES IDX 32 34 33 35 34 36 35 37 36 38 37 39 38 40 39 41 103 42 40 43
REMARK SMILES IDX 102 44 41 45 42 46 43 47 96 48 44 49 101 50 95 51 97 52
REMARK SMILES IDX 45 53 100 54 94 55 93 56 46 58 80 59 59 60 79 61 60 62 63 63
REMARK SMILES IDX 78 64 98 65 61 66 62 67 77 69 99 70 64 71 47 72 48 73 57 74
REMARK SMILES IDX 49 75 50 76 56 77 58 78 51 79 52 80 53 81 54 82 55 83 81 84
REMARK SMILES IDX 82 85 91 86 83 87 84 88 90 89 92 90 85 91 86 92 87 93 88 94
REMARK SMILES IDX 89 95 65 96 66 97 75 98 67 99 68 100 74 101 76 102 69 103
REMARK SMILES IDX 70 104 71 105 72 106 73 107
REMARK H PARENT 12 19 97 57 63 68
REMARK Flexibility Score: inf
ROOT
ATOM      1  C   UNL A   1      40.048  24.736  26.831  1.00  0.00     0.188 C 
ENDROOT
BRANCH   1   2
ATOM      2  O   UNL A   1      40.485  26.018  27.266  1.00  0.00    -0.376 OA
BRANCH   2   3
ATOM      3  C   UNL A   1      39.453  26.926  27.644  1.00  0.00     0.202 C 
BRANCH   3   4
ATOM      4  C   UNL A   1      39.769  27.691  28.927  1.00  0.00     0.261 C 
BRANCH   4   5
ATOM      5  O   UNL A   1      39.222  29.014  28.910  1.00  0.00    -0.460 OA
BRANCH   5   6
ATOM      6  C   UNL A   1      38.240  29.309  29.780  1.00  0.00     0.338 C 
ATOM      7  O   UNL A   1      37.997  28.716  30.820  1.00  0.00    -0.246 OA
BRANCH   6   8
ATOM      8  C   UNL A   1      37.629  30.611  29.406  1.00  0.00     0.068 A 
ATOM      9  C   UNL A   1      36.427  30.749  28.698  1.00  0.00     0.009 A 
ATOM     10  C   UNL A   1      35.971  32.010  28.294  1.00  0.00     0.010 A 
ATOM     11  C   UNL A   1      36.725  33.146  28.580  1.00  0.00     0.001 A 
ATOM     12  C   UNL A   1      38.382  31.765  29.681  1.00  0.00     0.016 A 
ATOM     13  C   UNL A   1      37.937  33.022  29.257  1.00  0.00     0.001 A 
BRANCH   9  14
ATOM     14  C   UNL A   1      35.700  29.599  28.153  1.00  0.00     0.142 C 
ATOM     15  N   UNL A   1      35.128  29.617  26.998  1.00  0.00    -0.181 NA
BRANCH  15  16
ATOM     16  N   UNL A   1      34.443  28.490  26.636  1.00  0.00    -0.244 N 
ATOM     17  C   UNL A   1      33.438  28.313  25.714  1.00  0.00     0.277 C 
ATOM     18  O   UNL A   1      33.078  27.164  25.433  1.00  0.00    -0.269 OA
ATOM     19  H   UNL A   1      34.715  27.672  27.112  1.00  0.00     0.193 HD
BRANCH  17  20
ATOM     20  C   UNL A   1      32.768  29.515  25.028  1.00  0.00     0.331 C 
BRANCH  20  21
ATOM     21  O   UNL A   1      31.427  29.840  25.368  1.00  0.00    -0.484 OA
BRANCH  21  22
ATOM     22  C   UNL A   1      30.527  29.818  24.333  1.00  0.00     0.123 A 
ATOM     23  C   UNL A   1      28.773  30.730  22.938  1.00  0.00     0.122 A 
ATOM     24  C   UNL A   1      28.781  29.565  22.172  1.00  0.00     0.046 A 
ATOM     25  C   UNL A   1      29.637  30.850  24.028  1.00  0.00     0.092 A 
ATOM     26  C   UNL A   1      29.655  28.525  22.482  1.00  0.00     0.008 A 
ATOM     27  C   UNL A   1      30.523  28.651  23.566  1.00  0.00     0.047 A 
BRANCH  23  28
ATOM     28  O   UNL A   1      27.862  31.677  22.557  1.00  0.00    -0.497 OA
ATOM     29  C   UNL A   1      28.379  32.995  22.407  1.00  0.00     0.278 C 
ENDBRANCH  23  28
ENDBRANCH  21  22
ENDBRANCH  20  21
ENDBRANCH  17  20
ENDBRANCH  15  16
ENDBRANCH   9  14
ENDBRANCH   6   8
ENDBRANCH   5   6
ENDBRANCH   4   5
ENDBRANCH   3   4
ENDBRANCH   2   3
ENDBRANCH   1   2
BRANCH   1  30
ATOM     30  C   UNL A   1      40.548  23.551  27.680  1.00  0.00     0.188 C 
BRANCH  30  31
ATOM     31  O   UNL A   1      41.796  22.954  27.375  1.00  0.00    -0.377 OA
BRANCH  31  32
ATOM     32  C   UNL A   1      42.060  22.521  26.043  1.00  0.00     0.188 C 
BRANCH  32  33
ATOM     33  C   UNL A   1      43.073  23.270  25.150  1.00  0.00     0.188 C 
BRANCH  33  34
ATOM     34  O   UNL A   1      44.439  22.974  25.416  1.00  0.00    -0.376 OA
BRANCH  34  35
ATOM     35  C   UNL A   1      45.360  24.032  25.192  1.00  0.00     0.202 C 
BRANCH  35  36
ATOM     36  C   UNL A   1      45.674  24.854  26.447  1.00  0.00     0.261 C 
BRANCH  36  37
ATOM     37  O   UNL A   1      44.642  25.773  26.838  1.00  0.00    -0.460 OA
BRANCH  37  38
ATOM     38  C   UNL A   1      44.175  25.673  28.103  1.00  0.00     0.338 C 
ATOM     39  O   UNL A   1      43.905  24.655  28.714  1.00  0.00    -0.246 OA
BRANCH  38  40
ATOM     40  C   UNL A   1      44.207  27.023  28.689  1.00  0.00     0.060 A 
ATOM     41  C   UNL A   1      43.463  28.047  28.089  1.00  0.00     0.016 A 
ATOM     42  C   UNL A   1      44.962  27.265  29.838  1.00  0.00     0.016 A 
ATOM     43  C   UNL A   1      43.487  29.330  28.637  1.00  0.00     0.010 A 
ATOM     44  C   UNL A   1      44.999  28.553  30.372  1.00  0.00     0.010 A 
ATOM     45  C   UNL A   1      44.279  29.595  29.762  1.00  0.00    -0.014 A 
BRANCH  45  46
ATOM     46  C   UNL A   1      44.501  30.986  30.218  1.00  0.00     0.031 A 
ATOM     47  C   UNL A   1      43.627  31.525  31.314  1.00  0.00     0.074 A 
ATOM     48  C   UNL A   1      45.439  31.763  29.650  1.00  0.00     0.049 A 
ATOM     49  N   UNL A   1      43.553  32.738  31.794  1.00  0.00    -0.248 NA
ATOM     50  C   UNL A   1      42.709  30.566  31.951  1.00  0.00     0.031 C 
ATOM     51  C   UNL A   1      46.367  31.343  28.603  1.00  0.00     0.029 A 
ATOM     52  N   UNL A   1      45.752  33.082  29.866  1.00  0.00    -0.354 N 
ATOM     53  C   UNL A   1      42.577  32.693  32.781  1.00  0.00     0.074 A 
ATOM     54  C   UNL A   1      42.073  31.337  32.821  1.00  0.00     0.031 C 
ATOM     55  C   UNL A   1      47.138  32.388  28.256  1.00  0.00     0.029 A 
ATOM     56  C   UNL A   1      46.733  33.560  29.030  1.00  0.00     0.049 A 
ATOM     57  H   UNL A   1      45.314  33.634  30.554  1.00  0.00     0.167 HD
ATOM     58  C   UNL A   1      42.142  33.693  33.582  1.00  0.00     0.037 A 
ATOM     59  C   UNL A   1      47.215  34.809  28.880  1.00  0.00     0.037 A 
ATOM     60  C   UNL A   1      42.640  35.041  33.529  1.00  0.00     0.049 A 
ATOM     61  C   UNL A   1      46.629  35.929  29.698  1.00  0.00     0.074 A 
ATOM     62  C   UNL A   1      42.295  36.119  34.326  1.00  0.00     0.029 A 
ATOM     63  N   UNL A   1      43.578  35.501  32.617  1.00  0.00    -0.354 N 
ATOM     64  N   UNL A   1      45.713  35.875  30.635  1.00  0.00    -0.248 NA
ATOM     65  C   UNL A   1      47.124  37.284  29.416  1.00  0.00     0.031 C 
ATOM     66  C   UNL A   1      42.986  37.243  33.861  1.00  0.00     0.029 A 
ATOM     67  C   UNL A   1      43.795  36.856  32.803  1.00  0.00     0.049 A 
ATOM     68  H   UNL A   1      44.023  34.946  31.937  1.00  0.00     0.167 HD
ATOM     69  C   UNL A   1      45.527  37.186  31.060  1.00  0.00     0.074 A 
ATOM     70  C   UNL A   1      46.432  38.010  30.284  1.00  0.00     0.031 C 
ATOM     71  C   UNL A   1      44.685  37.664  32.010  1.00  0.00     0.037 A 
BRANCH  58  72
ATOM     72  C   UNL A   1      41.049  33.369  34.559  1.00  0.00     0.058 A 
ATOM     73  C   UNL A   1      39.698  33.612  34.261  1.00  0.00     0.135 A 
ATOM     74  C   UNL A   1      41.356  32.796  35.802  1.00  0.00     0.135 A 
ATOM     75  F   UNL A   1      39.353  34.178  33.095  1.00  0.00    -0.206 F 
ATOM     76  C   UNL A   1      38.691  33.320  35.176  1.00  0.00     0.059 A 
ATOM     77  C   UNL A   1      40.362  32.474  36.722  1.00  0.00     0.059 A 
ATOM     78  F   UNL A   1      42.632  32.550  36.137  1.00  0.00    -0.206 F 
ATOM     79  C   UNL A   1      39.034  32.754  36.405  1.00  0.00     0.060 A 
BRANCH  79  80
ATOM     80  S   UNL A   1      37.716  32.384  37.583  1.00  0.00     0.124 S 
ATOM     81  O   UNL A   1      36.605  33.151  37.025  1.00  0.00    -0.237 OA
ATOM     82  O   UNL A   1      37.599  30.933  37.476  1.00  0.00    -0.237 OA
ATOM     83  O   UNL A   1      38.245  32.877  38.850  1.00  0.00    -0.744 OA
ENDBRANCH  79  80
ENDBRANCH  58  72
BRANCH  59  84
ATOM     84  C   UNL A   1      48.270  35.089  27.873  1.00  0.00     0.058 A 
ATOM     85  C   UNL A   1      47.944  35.427  26.551  1.00  0.00     0.135 A 
ATOM     86  C   UNL A   1      49.627  35.001  28.209  1.00  0.00     0.135 A 
ATOM     87  F   UNL A   1      46.657  35.496  26.176  1.00  0.00    -0.206 F 
ATOM     88  C   UNL A   1      48.927  35.674  25.598  1.00  0.00     0.059 A 
ATOM     89  C   UNL A   1      50.627  35.260  27.277  1.00  0.00     0.059 A 
ATOM     90  F   UNL A   1      49.987  34.666  29.458  1.00  0.00    -0.206 F 
ATOM     91  C   UNL A   1      50.269  35.591  25.973  1.00  0.00     0.060 A 
BRANCH  91  92
ATOM     92  S   UNL A   1      51.551  35.970  24.758  1.00  0.00     0.124 S 
ATOM     93  O   UNL A   1      50.820  36.804  23.811  1.00  0.00    -0.237 OA
ATOM     94  O   UNL A   1      52.555  36.652  25.568  1.00  0.00    -0.237 OA
ATOM     95  O   UNL A   1      51.944  34.652  24.270  1.00  0.00    -0.744 OA
ENDBRANCH  91  92
ENDBRANCH  59  84
BRANCH  71  96
ATOM     96  C   UNL A   1      44.706  39.143  32.271  1.00  0.00     0.058 A 
ATOM     97  C   UNL A   1      43.887  40.026  31.553  1.00  0.00     0.135 A 
ATOM     98  C   UNL A   1      45.512  39.675  33.291  1.00  0.00     0.135 A 
ATOM     99  F   UNL A   1      43.107  39.568  30.561  1.00  0.00    -0.206 F 
ATOM    100  C   UNL A   1      43.872  41.389  31.829  1.00  0.00     0.059 A 
ATOM    101  C   UNL A   1      45.498  41.031  33.599  1.00  0.00     0.059 A 
ATOM    102  F   UNL A   1      46.309  38.870  34.011  1.00  0.00    -0.206 F 
ATOM    103  C   UNL A   1      44.680  41.882  32.857  1.00  0.00     0.060 A 
BRANCH 103 104
ATOM    104  S   UNL A   1      44.620  43.647  33.236  1.00  0.00     0.124 S 
ATOM    105  O   UNL A   1      43.859  44.165  32.104  1.00  0.00    -0.237 OA
ATOM    106  O   UNL A   1      43.932  43.667  34.524  1.00  0.00    -0.237 OA
ATOM    107  O   UNL A   1      46.027  44.033  33.278  1.00  0.00    -0.744 OA
ENDBRANCH 103 104
ENDBRANCH  71  96
ENDBRANCH  45  46
ENDBRANCH  38  40
ENDBRANCH  37  38
ENDBRANCH  36  37
ENDBRANCH  35  36
ENDBRANCH  34  35
ENDBRANCH  33  34
ENDBRANCH  32  33
ENDBRANCH  31  32
ENDBRANCH  30  31
ENDBRANCH   1  30
TORSDOF 29
ENDMDL
