MODEL 1
REMARK VINA RESULT:     -11.0      0.000      0.000
REMARK SMILES Cc1ccnc(C(=O)c2[nH]c3cc(Cl)c(F)cc3c2CC(=O)OCCOCCOCCOCCOC(=O)c2ccc(-c3c4nc(c(-c5c(F)cc(S(=O)(=O)[O-])cc5F)c5ccc([nH]5)c(-c5c(F)cc(S(=O)(=O)[O-])cc5F)c5nc(c(-c6c(F)cc(S(=O)(=O)[O-])cc6F)c6ccc3[nH]6)C=C5)C=C4)cc2)c1
REMARK SMILES IDX 29 1 28 2 27 3 26 4 25 5 24 6 23 7 21 8 22 9 20 10 19 11
REMARK SMILES IDX 9 12 10 13 11 14 18 16 12 17 17 18 13 19 15 20 14 21 16 22
REMARK SMILES IDX 7 23 8 24 6 25 1 26 2 27 3 28 104 29 4 30 5 31 30 32 31 33
REMARK SMILES IDX 32 34 33 35 34 36 35 37 36 38 37 39 38 40 39 41 103 42 40 43
REMARK SMILES IDX 102 44 41 45 42 46 43 47 96 48 44 49 101 50 95 51 97 52
REMARK SMILES IDX 45 53 100 54 94 55 93 56 46 58 80 59 59 60 79 61 60 62 63 63
REMARK SMILES IDX 78 64 98 65 61 66 62 67 77 69 99 70 64 71 47 72 48 73 57 74
REMARK SMILES IDX 49 75 50 76 56 77 58 78 51 79 52 80 53 81 54 82 55 83 81 84
REMARK SMILES IDX 82 85 91 86 83 87 84 88 90 89 92 90 85 91 86 92 87 93 88 94
REMARK SMILES IDX 89 95 65 96 66 97 75 98 67 99 68 100 74 101 76 102 69 103
REMARK SMILES IDX 70 104 71 105 72 106 73 107
REMARK H PARENT 10 15 97 57 63 68
REMARK Flexibility Score: inf
ROOT
ATOM      1  O   UNL A   1      33.591  31.868  27.878  1.00  0.00    -0.377 OA
ENDROOT
BRANCH   1   2
ATOM      2  C   UNL A   1      33.329  30.651  27.186  1.00  0.00     0.188 C 
BRANCH   2   3
ATOM      3  C   UNL A   1      31.957  30.710  26.515  1.00  0.00     0.188 C 
BRANCH   3   4
ATOM      4  O   UNL A   1      31.753  29.635  25.634  1.00  0.00    -0.376 OA
BRANCH   4   5
ATOM      5  C   UNL A   1      32.554  28.518  25.995  1.00  0.00     0.202 C 
BRANCH   5   6
ATOM      6  C   UNL A   1      31.698  27.393  26.605  1.00  0.00     0.261 C 
BRANCH   6   7
ATOM      7  O   UNL A   1      31.880  26.110  25.914  1.00  0.00    -0.463 OA
BRANCH   7   8
ATOM      8  C   UNL A   1      30.755  25.378  25.708  1.00  0.00     0.310 C 
ATOM      9  O   UNL A   1      30.130  24.823  26.607  1.00  0.00    -0.252 OA
BRANCH   8  10
ATOM     10  C   UNL A   1      30.223  25.358  24.272  1.00  0.00     0.161 C 
BRANCH  10  11
ATOM     11  C   UNL A   1      30.609  26.420  23.246  1.00  0.00     0.000 A 
ATOM     12  C   UNL A   1      31.826  26.646  22.537  1.00  0.00     0.093 A 
ATOM     13  N   UNL A   1      31.707  27.939  22.035  1.00  0.00    -0.351 N 
ATOM     14  C   UNL A   1      30.479  28.500  22.280  1.00  0.00     0.048 A 
ATOM     15  H   UNL A   1      32.430  28.402  21.553  1.00  0.00     0.167 HD
ATOM     16  C   UNL A   1      29.746  27.567  23.004  1.00  0.00     0.007 A 
ATOM     17  C   UNL A   1      29.982  29.775  21.954  1.00  0.00     0.050 A 
ATOM     18  C   UNL A   1      28.432  27.917  23.403  1.00  0.00     0.051 A 
ATOM     19  C   UNL A   1      28.681  30.093  22.358  1.00  0.00     0.078 A 
ATOM     20  C   UNL A   1      27.916  29.173  23.065  1.00  0.00     0.142 A 
ATOM     21  Cl  UNL A   1      28.045  31.652  21.979  1.00  0.00    -0.081 Cl
ATOM     22  F   UNL A   1      26.671  29.485  23.456  1.00  0.00    -0.205 F 
BRANCH  12  23
ATOM     23  C   UNL A   1      33.188  26.027  22.492  1.00  0.00     0.227 C 
ATOM     24  O   UNL A   1      34.016  26.530  21.730  1.00  0.00    -0.285 OA
BRANCH  23  25
ATOM     25  C   UNL A   1      33.591  24.692  23.150  1.00  0.00     0.113 A 
ATOM     26  C   UNL A   1      36.468  23.096  25.102  1.00  0.00     0.044 C 
ATOM     27  C   UNL A   1      35.118  23.298  24.453  1.00  0.00    -0.047 A 
ATOM     28  C   UNL A   1      34.386  22.182  24.107  1.00  0.00     0.023 A 
ATOM     29  C   UNL A   1      34.623  24.566  24.055  1.00  0.00     0.036 A 
ATOM     30  C   UNL A   1      33.263  22.385  23.329  1.00  0.00     0.112 A 
ATOM     31  N   UNL A   1      32.870  23.588  22.815  1.00  0.00    -0.253 NA
ENDBRANCH  23  25
ENDBRANCH  12  23
ENDBRANCH  10  11
ENDBRANCH   8  10
ENDBRANCH   7   8
ENDBRANCH   6   7
ENDBRANCH   5   6
ENDBRANCH   4   5
ENDBRANCH   3   4
ENDBRANCH   2   3
ENDBRANCH   1   2
BRANCH   1  32
ATOM     32  C   UNL A   1      32.650  32.902  27.598  1.00  0.00     0.188 C 
BRANCH  32  33
ATOM     33  C   UNL A   1      33.259  34.240  28.026  1.00  0.00     0.188 C 
BRANCH  33  34
ATOM     34  O   UNL A   1      32.537  34.950  29.026  1.00  0.00    -0.376 OA
BRANCH  34  35
ATOM     35  C   UNL A   1      33.280  35.297  30.191  1.00  0.00     0.202 C 
BRANCH  35  36
ATOM     36  C   UNL A   1      34.468  34.378  30.541  1.00  0.00     0.261 C 
BRANCH  36  37
ATOM     37  O   UNL A   1      34.066  33.272  31.383  1.00  0.00    -0.460 OA
BRANCH  37  38
ATOM     38  C   UNL A   1      34.640  33.256  32.642  1.00  0.00     0.338 C 
ATOM     39  O   UNL A   1      34.112  33.540  33.662  1.00  0.00    -0.246 OA
BRANCH  38  40
ATOM     40  C   UNL A   1      35.917  32.457  32.531  1.00  0.00     0.060 A 
ATOM     41  C   UNL A   1      37.165  33.075  32.579  1.00  0.00     0.016 A 
ATOM     42  C   UNL A   1      35.809  31.144  32.030  1.00  0.00     0.016 A 
ATOM     43  C   UNL A   1      38.269  32.420  32.023  1.00  0.00     0.010 A 
ATOM     44  C   UNL A   1      36.924  30.491  31.476  1.00  0.00     0.010 A 
ATOM     45  C   UNL A   1      38.161  31.136  31.442  1.00  0.00    -0.014 A 
BRANCH  45  46
ATOM     46  C   UNL A   1      39.431  30.435  31.133  1.00  0.00     0.031 A 
ATOM     47  C   UNL A   1      40.247  30.251  32.361  1.00  0.00     0.074 A 
ATOM     48  C   UNL A   1      39.890  29.845  30.004  1.00  0.00     0.049 A 
ATOM     49  N   UNL A   1      41.406  30.758  32.621  1.00  0.00    -0.248 NA
ATOM     50  C   UNL A   1      39.609  29.557  33.491  1.00  0.00     0.031 C 
ATOM     51  C   UNL A   1      39.196  29.677  28.736  1.00  0.00     0.029 A 
ATOM     52  N   UNL A   1      41.080  29.184  29.782  1.00  0.00    -0.354 N 
ATOM     53  C   UNL A   1      41.734  30.284  33.882  1.00  0.00     0.074 A 
ATOM     54  C   UNL A   1      40.536  29.702  34.435  1.00  0.00     0.031 C 
ATOM     55  C   UNL A   1      39.873  28.808  27.950  1.00  0.00     0.029 A 
ATOM     56  C   UNL A   1      41.103  28.416  28.616  1.00  0.00     0.049 A 
ATOM     57  H   UNL A   1      41.850  29.250  30.393  1.00  0.00     0.167 HD
ATOM     58  C   UNL A   1      43.019  30.192  34.306  1.00  0.00     0.037 A 
ATOM     59  C   UNL A   1      42.024  27.490  28.232  1.00  0.00     0.037 A 
ATOM     60  C   UNL A   1      43.921  31.002  33.533  1.00  0.00     0.049 A 
ATOM     61  C   UNL A   1      43.294  27.783  28.941  1.00  0.00     0.074 A 
ATOM     62  C   UNL A   1      43.989  32.347  33.226  1.00  0.00     0.029 A 
ATOM     63  N   UNL A   1      44.774  30.380  32.655  1.00  0.00    -0.354 N 
ATOM     64  N   UNL A   1      44.069  28.797  28.679  1.00  0.00    -0.248 NA
ATOM     65  C   UNL A   1      43.527  27.139  30.223  1.00  0.00     0.031 C 
ATOM     66  C   UNL A   1      44.501  32.407  31.899  1.00  0.00     0.029 A 
ATOM     67  C   UNL A   1      44.753  31.099  31.485  1.00  0.00     0.049 A 
ATOM     68  H   UNL A   1      45.303  29.569  32.831  1.00  0.00     0.167 HD
ATOM     69  C   UNL A   1      44.542  29.204  29.914  1.00  0.00     0.074 A 
ATOM     70  C   UNL A   1      44.270  28.080  30.807  1.00  0.00     0.031 C 
ATOM     71  C   UNL A   1      44.860  30.509  30.164  1.00  0.00     0.037 A 
BRANCH  58  72
ATOM     72  C   UNL A   1      43.464  29.095  35.227  1.00  0.00     0.058 A 
ATOM     73  C   UNL A   1      44.079  29.401  36.450  1.00  0.00     0.135 A 
ATOM     74  C   UNL A   1      43.505  27.739  34.827  1.00  0.00     0.135 A 
ATOM     75  F   UNL A   1      44.133  30.668  36.888  1.00  0.00    -0.206 F 
ATOM     76  C   UNL A   1      44.710  28.424  37.219  1.00  0.00     0.059 A 
ATOM     77  C   UNL A   1      44.067  26.741  35.606  1.00  0.00     0.059 A 
ATOM     78  F   UNL A   1      43.081  27.343  33.619  1.00  0.00    -0.206 F 
ATOM     79  C   UNL A   1      44.701  27.098  36.785  1.00  0.00     0.060 A 
BRANCH  79  80
ATOM     80  S   UNL A   1      45.590  25.850  37.728  1.00  0.00     0.124 S 
ATOM     81  O   UNL A   1      46.937  25.986  37.184  1.00  0.00    -0.237 OA
ATOM     82  O   UNL A   1      45.401  26.314  39.098  1.00  0.00    -0.237 OA
ATOM     83  O   UNL A   1      44.892  24.613  37.389  1.00  0.00    -0.744 OA
ENDBRANCH  79  80
ENDBRANCH  58  72
BRANCH  59  84
ATOM     84  C   UNL A   1      41.817  26.208  27.490  1.00  0.00     0.058 A 
ATOM     85  C   UNL A   1      42.729  25.759  26.512  1.00  0.00     0.135 A 
ATOM     86  C   UNL A   1      40.879  25.252  27.932  1.00  0.00     0.135 A 
ATOM     87  F   UNL A   1      43.671  26.587  26.035  1.00  0.00    -0.206 F 
ATOM     88  C   UNL A   1      42.749  24.435  26.051  1.00  0.00     0.059 A 
ATOM     89  C   UNL A   1      40.873  23.931  27.480  1.00  0.00     0.059 A 
ATOM     90  F   UNL A   1      39.996  25.545  28.897  1.00  0.00    -0.206 F 
ATOM     91  C   UNL A   1      41.833  23.519  26.564  1.00  0.00     0.060 A 
BRANCH  91  92
ATOM     92  S   UNL A   1      41.987  21.765  26.141  1.00  0.00     0.124 S 
ATOM     93  O   UNL A   1      42.880  21.806  24.989  1.00  0.00    -0.237 OA
ATOM     94  O   UNL A   1      42.550  21.203  27.365  1.00  0.00    -0.237 OA
ATOM     95  O   UNL A   1      40.613  21.364  25.853  1.00  0.00    -0.744 OA
ENDBRANCH  91  92
ENDBRANCH  59  84
BRANCH  71  96
ATOM     96  C   UNL A   1      45.099  31.453  29.006  1.00  0.00     0.058 A 
ATOM     97  C   UNL A   1      44.112  32.190  28.332  1.00  0.00     0.135 A 
ATOM     98  C   UNL A   1      46.433  31.705  28.632  1.00  0.00     0.135 A 
ATOM     99  F   UNL A   1      42.819  32.122  28.684  1.00  0.00    -0.206 F 
ATOM    100  C   UNL A   1      44.440  33.078  27.303  1.00  0.00     0.059 A 
ATOM    101  C   UNL A   1      46.780  32.650  27.668  1.00  0.00     0.059 A 
ATOM    102  F   UNL A   1      47.437  31.055  29.242  1.00  0.00    -0.206 F 
ATOM    103  C   UNL A   1      45.775  33.338  27.008  1.00  0.00     0.060 A 
BRANCH 103 104
ATOM    104  S   UNL A   1      46.185  34.585  25.769  1.00  0.00     0.124 S 
ATOM    105  O   UNL A   1      47.585  34.299  25.479  1.00  0.00    -0.237 OA
ATOM    106  O   UNL A   1      45.239  34.270  24.704  1.00  0.00    -0.237 OA
ATOM    107  O   UNL A   1      45.934  35.847  26.459  1.00  0.00    -0.744 OA
ENDBRANCH 103 104
ENDBRANCH  71  96
ENDBRANCH  45  46
ENDBRANCH  38  40
ENDBRANCH  37  38
ENDBRANCH  36  37
ENDBRANCH  35  36
ENDBRANCH  34  35
ENDBRANCH  33  34
ENDBRANCH  32  33
ENDBRANCH   1  32
TORSDOF 26
ENDMDL
MODEL 2
REMARK VINA RESULT:     -10.2      1.812      6.993
REMARK SMILES Cc1ccnc(C(=O)c2[nH]c3cc(Cl)c(F)cc3c2CC(=O)OCCOCCOCCOCCOC(=O)c2ccc(-c3c4nc(c(-c5c(F)cc(S(=O)(=O)[O-])cc5F)c5ccc([nH]5)c(-c5c(F)cc(S(=O)(=O)[O-])cc5F)c5nc(c(-c6c(F)cc(S(=O)(=O)[O-])cc6F)c6ccc3[nH]6)C=C5)C=C4)cc2)c1
REMARK SMILES IDX 29 1 28 2 27 3 26 4 25 5 24 6 23 7 21 8 22 9 20 10 19 11
REMARK SMILES IDX 9 12 10 13 11 14 18 16 12 17 17 18 13 19 15 20 14 21 16 22
REMARK SMILES IDX 7 23 8 24 6 25 1 26 2 27 3 28 104 29 4 30 5 31 30 32 31 33
REMARK SMILES IDX 32 34 33 35 34 36 35 37 36 38 37 39 38 40 39 41 103 42 40 43
REMARK SMILES IDX 102 44 41 45 42 46 43 47 96 48 44 49 101 50 95 51 97 52
REMARK SMILES IDX 45 53 100 54 94 55 93 56 46 58 80 59 59 60 79 61 60 62 63 63
REMARK SMILES IDX 78 64 98 65 61 66 62 67 77 69 99 70 64 71 47 72 48 73 57 74
REMARK SMILES IDX 49 75 50 76 56 77 58 78 51 79 52 80 53 81 54 82 55 83 81 84
REMARK SMILES IDX 82 85 91 86 83 87 84 88 90 89 92 90 85 91 86 92 87 93 88 94
REMARK SMILES IDX 89 95 65 96 66 97 75 98 67 99 68 100 74 101 76 102 69 103
REMARK SMILES IDX 70 104 71 105 72 106 73 107
REMARK H PARENT 10 15 97 57 63 68
REMARK Flexibility Score: inf
ROOT
ATOM      1  O   UNL A   1      34.053  31.287  28.151  1.00  0.00    -0.377 OA
ENDROOT
BRANCH   1   2
ATOM      2  C   UNL A   1      33.087  30.881  27.187  1.00  0.00     0.188 C 
BRANCH   2   3
ATOM      3  C   UNL A   1      33.013  29.355  27.122  1.00  0.00     0.188 C 
BRANCH   3   4
ATOM      4  O   UNL A   1      33.500  28.854  25.904  1.00  0.00    -0.376 OA
BRANCH   4   5
ATOM      5  C   UNL A   1      32.770  27.706  25.494  1.00  0.00     0.202 C 
BRANCH   5   6
ATOM      6  C   UNL A   1      32.019  27.071  26.677  1.00  0.00     0.261 C 
BRANCH   6   7
ATOM      7  O   UNL A   1      30.645  26.687  26.331  1.00  0.00    -0.463 OA
BRANCH   7   8
ATOM      8  C   UNL A   1      30.480  25.425  25.857  1.00  0.00     0.310 C 
ATOM      9  O   UNL A   1      30.614  24.417  26.545  1.00  0.00    -0.252 OA
BRANCH   8  10
ATOM     10  C   UNL A   1      30.004  25.312  24.405  1.00  0.00     0.161 C 
BRANCH  10  11
ATOM     11  C   UNL A   1      30.509  26.245  23.308  1.00  0.00     0.000 A 
ATOM     12  C   UNL A   1      31.709  26.227  22.536  1.00  0.00     0.093 A 
ATOM     13  N   UNL A   1      31.783  27.496  21.970  1.00  0.00    -0.351 N 
ATOM     14  C   UNL A   1      30.682  28.270  22.239  1.00  0.00     0.048 A 
ATOM     15  H   UNL A   1      32.548  27.807  21.433  1.00  0.00     0.167 HD
ATOM     16  C   UNL A   1      29.840  27.510  23.043  1.00  0.00     0.007 A 
ATOM     17  C   UNL A   1      30.391  29.595  21.866  1.00  0.00     0.050 A 
ATOM     18  C   UNL A   1      28.627  28.097  23.479  1.00  0.00     0.051 A 
ATOM     19  C   UNL A   1      29.184  30.148  22.309  1.00  0.00     0.078 A 
ATOM     20  C   UNL A   1      28.313  29.406  23.096  1.00  0.00     0.142 A 
ATOM     21  Cl  UNL A   1      28.801  31.775  21.875  1.00  0.00    -0.081 Cl
ATOM     22  F   UNL A   1      27.161  29.944  23.524  1.00  0.00    -0.205 F 
BRANCH  12  23
ATOM     23  C   UNL A   1      32.943  25.383  22.465  1.00  0.00     0.227 C 
ATOM     24  O   UNL A   1      33.711  25.577  21.521  1.00  0.00    -0.285 OA
BRANCH  23  25
ATOM     25  C   UNL A   1      33.241  24.150  23.342  1.00  0.00     0.113 A 
ATOM     26  C   UNL A   1      32.401  20.428  23.612  1.00  0.00     0.044 C 
ATOM     27  C   UNL A   1      33.046  21.771  23.866  1.00  0.00    -0.047 A 
ATOM     28  C   UNL A   1      33.606  22.003  25.104  1.00  0.00     0.023 A 
ATOM     29  C   UNL A   1      32.985  22.853  22.952  1.00  0.00     0.036 A 
ATOM     30  C   UNL A   1      33.996  23.299  25.384  1.00  0.00     0.112 A 
ATOM     31  N   UNL A   1      33.797  24.373  24.563  1.00  0.00    -0.253 NA
ENDBRANCH  23  25
ENDBRANCH  12  23
ENDBRANCH  10  11
ENDBRANCH   8  10
ENDBRANCH   7   8
ENDBRANCH   6   7
ENDBRANCH   5   6
ENDBRANCH   4   5
ENDBRANCH   3   4
ENDBRANCH   2   3
ENDBRANCH   1   2
BRANCH   1  32
ATOM     32  C   UNL A   1      34.196  32.700  28.262  1.00  0.00     0.188 C 
BRANCH  32  33
ATOM     33  C   UNL A   1      34.467  33.047  29.727  1.00  0.00     0.188 C 
BRANCH  33  34
ATOM     34  O   UNL A   1      33.711  34.135  30.250  1.00  0.00    -0.376 OA
BRANCH  34  35
ATOM     35  C   UNL A   1      34.471  35.171  30.864  1.00  0.00     0.202 C 
BRANCH  35  36
ATOM     36  C   UNL A   1      34.991  34.884  32.288  1.00  0.00     0.261 C 
BRANCH  36  37
ATOM     37  O   UNL A   1      36.309  34.287  32.270  1.00  0.00    -0.460 OA
BRANCH  37  38
ATOM     38  C   UNL A   1      36.367  32.982  32.730  1.00  0.00     0.338 C 
ATOM     39  O   UNL A   1      35.459  32.328  33.113  1.00  0.00    -0.246 OA
BRANCH  38  40
ATOM     40  C   UNL A   1      37.705  32.426  32.303  1.00  0.00     0.060 A 
ATOM     41  C   UNL A   1      37.850  31.728  31.107  1.00  0.00     0.016 A 
ATOM     42  C   UNL A   1      38.701  32.324  33.295  1.00  0.00     0.016 A 
ATOM     43  C   UNL A   1      38.930  30.850  30.960  1.00  0.00     0.010 A 
ATOM     44  C   UNL A   1      39.786  31.443  33.139  1.00  0.00     0.010 A 
ATOM     45  C   UNL A   1      39.895  30.674  31.979  1.00  0.00    -0.014 A 
BRANCH  45  46
ATOM     46  C   UNL A   1      41.126  29.934  31.612  1.00  0.00     0.031 A 
ATOM     47  C   UNL A   1      41.921  30.692  30.611  1.00  0.00     0.074 A 
ATOM     48  C   UNL A   1      41.688  28.806  32.107  1.00  0.00     0.049 A 
ATOM     49  N   UNL A   1      42.193  30.348  29.396  1.00  0.00    -0.248 NA
ATOM     50  C   UNL A   1      42.307  32.068  30.964  1.00  0.00     0.031 C 
ATOM     51  C   UNL A   1      41.242  28.006  33.236  1.00  0.00     0.029 A 
ATOM     52  N   UNL A   1      42.855  28.173  31.735  1.00  0.00    -0.354 N 
ATOM     53  C   UNL A   1      42.957  31.387  28.888  1.00  0.00     0.074 A 
ATOM     54  C   UNL A   1      42.851  32.481  29.821  1.00  0.00     0.031 C 
ATOM     55  C   UNL A   1      42.206  27.124  33.588  1.00  0.00     0.029 A 
ATOM     56  C   UNL A   1      43.314  27.227  32.653  1.00  0.00     0.049 A 
ATOM     57  H   UNL A   1      43.325  28.370  30.892  1.00  0.00     0.167 HD
ATOM     58  C   UNL A   1      43.814  31.211  27.850  1.00  0.00     0.037 A 
ATOM     59  C   UNL A   1      44.524  26.602  32.692  1.00  0.00     0.037 A 
ATOM     60  C   UNL A   1      43.536  30.023  27.092  1.00  0.00     0.049 A 
ATOM     61  C   UNL A   1      45.102  26.637  31.326  1.00  0.00     0.074 A 
ATOM     62  C   UNL A   1      42.428  29.545  26.419  1.00  0.00     0.029 A 
ATOM     63  N   UNL A   1      44.382  28.949  27.219  1.00  0.00    -0.354 N 
ATOM     64  N   UNL A   1      44.665  25.931  30.321  1.00  0.00    -0.248 NA
ATOM     65  C   UNL A   1      45.955  27.759  30.971  1.00  0.00     0.031 C 
ATOM     66  C   UNL A   1      42.459  28.132  26.596  1.00  0.00     0.029 A 
ATOM     67  C   UNL A   1      43.603  27.824  27.334  1.00  0.00     0.049 A 
ATOM     68  H   UNL A   1      45.366  28.980  27.227  1.00  0.00     0.167 HD
ATOM     69  C   UNL A   1      44.788  26.769  29.226  1.00  0.00     0.074 A 
ATOM     70  C   UNL A   1      45.691  27.829  29.665  1.00  0.00     0.031 C 
ATOM     71  C   UNL A   1      43.939  26.681  28.159  1.00  0.00     0.037 A 
BRANCH  58  72
ATOM     72  C   UNL A   1      45.099  31.979  27.758  1.00  0.00     0.058 A 
ATOM     73  C   UNL A   1      45.400  32.724  26.608  1.00  0.00     0.135 A 
ATOM     74  C   UNL A   1      46.151  31.812  28.688  1.00  0.00     0.135 A 
ATOM     75  F   UNL A   1      44.481  32.894  25.645  1.00  0.00    -0.206 F 
ATOM     76  C   UNL A   1      46.671  33.255  26.388  1.00  0.00     0.059 A 
ATOM     77  C   UNL A   1      47.402  32.386  28.523  1.00  0.00     0.059 A 
ATOM     78  F   UNL A   1      46.034  31.006  29.753  1.00  0.00    -0.206 F 
ATOM     79  C   UNL A   1      47.664  33.075  27.351  1.00  0.00     0.060 A 
BRANCH  79  80
ATOM     80  S   UNL A   1      49.328  33.681  27.032  1.00  0.00     0.124 S 
ATOM     81  O   UNL A   1      49.166  35.109  27.283  1.00  0.00    -0.237 OA
ATOM     82  O   UNL A   1      50.114  32.941  28.013  1.00  0.00    -0.237 OA
ATOM     83  O   UNL A   1      49.560  33.305  25.640  1.00  0.00    -0.744 OA
ENDBRANCH  79  80
ENDBRANCH  58  72
BRANCH  59  84
ATOM     84  C   UNL A   1      45.340  26.202  33.879  1.00  0.00     0.058 A 
ATOM     85  C   UNL A   1      45.585  27.091  34.946  1.00  0.00     0.135 A 
ATOM     86  C   UNL A   1      45.648  24.849  34.130  1.00  0.00     0.135 A 
ATOM     87  F   UNL A   1      45.313  28.398  34.814  1.00  0.00    -0.206 F 
ATOM     88  C   UNL A   1      46.045  26.657  36.198  1.00  0.00     0.059 A 
ATOM     89  C   UNL A   1      46.116  24.395  35.365  1.00  0.00     0.059 A 
ATOM     90  F   UNL A   1      45.408  23.903  33.211  1.00  0.00    -0.206 F 
ATOM     91  C   UNL A   1      46.281  25.300  36.407  1.00  0.00     0.060 A 
BRANCH  91  92
ATOM     92  S   UNL A   1      46.663  24.702  38.073  1.00  0.00     0.124 S 
ATOM     93  O   UNL A   1      45.562  25.253  38.855  1.00  0.00    -0.237 OA
ATOM     94  O   UNL A   1      46.654  23.255  37.889  1.00  0.00    -0.237 OA
ATOM     95  O   UNL A   1      47.975  25.282  38.347  1.00  0.00    -0.744 OA
ENDBRANCH  91  92
ENDBRANCH  59  84
BRANCH  71  96
ATOM     96  C   UNL A   1      43.122  25.423  27.958  1.00  0.00     0.058 A 
ATOM     97  C   UNL A   1      41.798  25.229  28.382  1.00  0.00     0.135 A 
ATOM     98  C   UNL A   1      43.690  24.390  27.188  1.00  0.00     0.135 A 
ATOM     99  F   UNL A   1      41.114  26.192  29.018  1.00  0.00    -0.206 F 
ATOM    100  C   UNL A   1      41.109  24.045  28.102  1.00  0.00     0.059 A 
ATOM    101  C   UNL A   1      42.986  23.242  26.830  1.00  0.00     0.059 A 
ATOM    102  F   UNL A   1      44.947  24.507  26.729  1.00  0.00    -0.206 F 
ATOM    103  C   UNL A   1      41.689  23.077  27.290  1.00  0.00     0.060 A 
BRANCH 103 104
ATOM    104  S   UNL A   1      40.738  21.614  26.829  1.00  0.00     0.124 S 
ATOM    105  O   UNL A   1      41.478  21.100  25.682  1.00  0.00    -0.237 OA
ATOM    106  O   UNL A   1      40.816  20.812  28.045  1.00  0.00    -0.237 OA
ATOM    107  O   UNL A   1      39.412  22.148  26.530  1.00  0.00    -0.744 OA
ENDBRANCH 103 104
ENDBRANCH  71  96
ENDBRANCH  45  46
ENDBRANCH  38  40
ENDBRANCH  37  38
ENDBRANCH  36  37
ENDBRANCH  35  36
ENDBRANCH  34  35
ENDBRANCH  33  34
ENDBRANCH  32  33
ENDBRANCH   1  32
TORSDOF 26
ENDMDL
MODEL 3
REMARK VINA RESULT:      -9.7      4.567     11.093
REMARK SMILES Cc1ccnc(C(=O)c2[nH]c3cc(Cl)c(F)cc3c2CC(=O)OCCOCCOCCOCCOC(=O)c2ccc(-c3c4nc(c(-c5c(F)cc(S(=O)(=O)[O-])cc5F)c5ccc([nH]5)c(-c5c(F)cc(S(=O)(=O)[O-])cc5F)c5nc(c(-c6c(F)cc(S(=O)(=O)[O-])cc6F)c6ccc3[nH]6)C=C5)C=C4)cc2)c1
REMARK SMILES IDX 29 1 28 2 27 3 26 4 25 5 24 6 23 7 21 8 22 9 20 10 19 11
REMARK SMILES IDX 9 12 10 13 11 14 18 16 12 17 17 18 13 19 15 20 14 21 16 22
REMARK SMILES IDX 7 23 8 24 6 25 1 26 2 27 3 28 104 29 4 30 5 31 30 32 31 33
REMARK SMILES IDX 32 34 33 35 34 36 35 37 36 38 37 39 38 40 39 41 103 42 40 43
REMARK SMILES IDX 102 44 41 45 42 46 43 47 96 48 44 49 101 50 95 51 97 52
REMARK SMILES IDX 45 53 100 54 94 55 93 56 46 58 80 59 59 60 79 61 60 62 63 63
REMARK SMILES IDX 78 64 98 65 61 66 62 67 77 69 99 70 64 71 47 72 48 73 57 74
REMARK SMILES IDX 49 75 50 76 56 77 58 78 51 79 52 80 53 81 54 82 55 83 81 84
REMARK SMILES IDX 82 85 91 86 83 87 84 88 90 89 92 90 85 91 86 92 87 93 88 94
REMARK SMILES IDX 89 95 65 96 66 97 75 98 67 99 68 100 74 101 76 102 69 103
REMARK SMILES IDX 70 104 71 105 72 106 73 107
REMARK H PARENT 10 15 97 57 63 68
REMARK Flexibility Score: inf
ROOT
ATOM      1  O   UNL A   1      32.862  25.119  24.759  1.00  0.00    -0.377 OA
ENDROOT
BRANCH   1   2
ATOM      2  C   UNL A   1      33.214  24.234  25.819  1.00  0.00     0.188 C 
BRANCH   2   3
ATOM      3  C   UNL A   1      33.501  22.838  25.267  1.00  0.00     0.188 C 
BRANCH   3   4
ATOM      4  O   UNL A   1      34.858  22.664  24.951  1.00  0.00    -0.376 OA
BRANCH   4   5
ATOM      5  C   UNL A   1      35.488  21.778  25.866  1.00  0.00     0.202 C 
BRANCH   5   6
ATOM      6  C   UNL A   1      36.776  21.183  25.269  1.00  0.00     0.261 C 
BRANCH   6   7
ATOM      7  O   UNL A   1      37.725  22.217  24.836  1.00  0.00    -0.463 OA
BRANCH   7   8
ATOM      8  C   UNL A   1      38.312  22.939  25.825  1.00  0.00     0.310 C 
ATOM      9  O   UNL A   1      37.984  24.085  26.117  1.00  0.00    -0.252 OA
BRANCH   8  10
ATOM     10  C   UNL A   1      39.368  22.203  26.655  1.00  0.00     0.161 C 
BRANCH  10  11
ATOM     11  C   UNL A   1      40.861  22.492  26.514  1.00  0.00     0.000 A 
ATOM     12  C   UNL A   1      41.577  23.722  26.419  1.00  0.00     0.093 A 
ATOM     13  N   UNL A   1      42.837  23.360  25.951  1.00  0.00    -0.351 N 
ATOM     14  C   UNL A   1      43.003  22.002  25.846  1.00  0.00     0.048 A 
ATOM     15  H   UNL A   1      43.537  24.013  25.720  1.00  0.00     0.167 HD
ATOM     16  C   UNL A   1      41.800  21.418  26.226  1.00  0.00     0.007 A 
ATOM     17  C   UNL A   1      44.109  21.254  25.404  1.00  0.00     0.050 A 
ATOM     18  C   UNL A   1      41.705  20.005  26.187  1.00  0.00     0.051 A 
ATOM     19  C   UNL A   1      43.988  19.861  25.377  1.00  0.00     0.078 A 
ATOM     20  C   UNL A   1      42.805  19.247  25.771  1.00  0.00     0.142 A 
ATOM     21  Cl  UNL A   1      45.325  18.915  24.832  1.00  0.00    -0.081 Cl
ATOM     22  F   UNL A   1      42.691  17.910  25.737  1.00  0.00    -0.205 F 
BRANCH  12  23
ATOM     23  C   UNL A   1      41.234  25.178  26.380  1.00  0.00     0.227 C 
ATOM     24  O   UNL A   1      41.181  25.721  25.275  1.00  0.00    -0.285 OA
BRANCH  23  25
ATOM     25  C   UNL A   1      41.149  26.114  27.603  1.00  0.00     0.113 A 
ATOM     26  C   UNL A   1      38.575  27.771  29.897  1.00  0.00     0.044 C 
ATOM     27  C   UNL A   1      39.897  27.306  29.330  1.00  0.00    -0.047 A 
ATOM     28  C   UNL A   1      41.033  28.014  29.658  1.00  0.00     0.023 A 
ATOM     29  C   UNL A   1      40.015  26.269  28.371  1.00  0.00     0.036 A 
ATOM     30  C   UNL A   1      42.188  27.704  28.966  1.00  0.00     0.112 A 
ATOM     31  N   UNL A   1      42.269  26.812  27.934  1.00  0.00    -0.253 NA
ENDBRANCH  23  25
ENDBRANCH  12  23
ENDBRANCH  10  11
ENDBRANCH   8  10
ENDBRANCH   7   8
ENDBRANCH   6   7
ENDBRANCH   5   6
ENDBRANCH   4   5
ENDBRANCH   3   4
ENDBRANCH   2   3
ENDBRANCH   1   2
BRANCH   1  32
ATOM     32  C   UNL A   1      33.679  26.284  24.687  1.00  0.00     0.188 C 
BRANCH  32  33
ATOM     33  C   UNL A   1      32.912  27.454  25.308  1.00  0.00     0.188 C 
BRANCH  33  34
ATOM     34  O   UNL A   1      33.141  27.669  26.697  1.00  0.00    -0.376 OA
BRANCH  34  35
ATOM     35  C   UNL A   1      32.626  28.889  27.222  1.00  0.00     0.202 C 
BRANCH  35  36
ATOM     36  C   UNL A   1      33.313  30.183  26.740  1.00  0.00     0.261 C 
BRANCH  36  37
ATOM     37  O   UNL A   1      34.245  30.697  27.721  1.00  0.00    -0.460 OA
BRANCH  37  38
ATOM     38  C   UNL A   1      34.186  32.065  27.925  1.00  0.00     0.338 C 
ATOM     39  O   UNL A   1      33.243  32.762  27.765  1.00  0.00    -0.246 OA
BRANCH  38  40
ATOM     40  C   UNL A   1      35.401  32.440  28.739  1.00  0.00     0.060 A 
ATOM     41  C   UNL A   1      36.562  31.672  28.702  1.00  0.00     0.016 A 
ATOM     42  C   UNL A   1      35.209  33.363  29.787  1.00  0.00     0.016 A 
ATOM     43  C   UNL A   1      37.464  31.753  29.769  1.00  0.00     0.010 A 
ATOM     44  C   UNL A   1      36.122  33.442  30.853  1.00  0.00     0.010 A 
ATOM     45  C   UNL A   1      37.246  32.615  30.869  1.00  0.00    -0.014 A 
BRANCH  45  46
ATOM     46  C   UNL A   1      38.386  32.816  31.796  1.00  0.00     0.031 A 
ATOM     47  C   UNL A   1      39.581  33.310  31.066  1.00  0.00     0.074 A 
ATOM     48  C   UNL A   1      38.479  32.756  33.145  1.00  0.00     0.049 A 
ATOM     49  N   UNL A   1      40.717  32.713  30.916  1.00  0.00    -0.248 NA
ATOM     50  C   UNL A   1      39.421  34.539  30.271  1.00  0.00     0.031 C 
ATOM     51  C   UNL A   1      37.411  32.527  34.106  1.00  0.00     0.029 A 
ATOM     52  N   UNL A   1      39.570  32.976  33.959  1.00  0.00    -0.354 N 
ATOM     53  C   UNL A   1      41.489  33.585  30.165  1.00  0.00     0.074 A 
ATOM     54  C   UNL A   1      40.600  34.599  29.655  1.00  0.00     0.031 C 
ATOM     55  C   UNL A   1      37.845  32.808  35.356  1.00  0.00     0.029 A 
ATOM     56  C   UNL A   1      39.256  33.156  35.307  1.00  0.00     0.049 A 
ATOM     57  H   UNL A   1      40.494  33.002  33.619  1.00  0.00     0.167 HD
ATOM     58  C   UNL A   1      42.845  33.555  30.193  1.00  0.00     0.037 A 
ATOM     59  C   UNL A   1      40.060  33.602  36.311  1.00  0.00     0.037 A 
ATOM     60  C   UNL A   1      43.365  32.316  30.703  1.00  0.00     0.049 A 
ATOM     61  C   UNL A   1      41.468  33.356  35.914  1.00  0.00     0.074 A 
ATOM     62  C   UNL A   1      43.220  30.989  30.345  1.00  0.00     0.029 A 
ATOM     63  N   UNL A   1      43.915  32.302  31.961  1.00  0.00    -0.354 N 
ATOM     64  N   UNL A   1      42.028  32.180  35.864  1.00  0.00    -0.248 NA
ATOM     65  C   UNL A   1      42.172  34.409  35.200  1.00  0.00     0.031 C 
ATOM     66  C   UNL A   1      43.245  30.264  31.571  1.00  0.00     0.029 A 
ATOM     67  C   UNL A   1      43.442  31.183  32.601  1.00  0.00     0.049 A 
ATOM     68  H   UNL A   1      44.534  32.970  32.334  1.00  0.00     0.167 HD
ATOM     69  C   UNL A   1      42.858  32.236  34.758  1.00  0.00     0.074 A 
ATOM     70  C   UNL A   1      42.994  33.660  34.463  1.00  0.00     0.031 C 
ATOM     71  C   UNL A   1      43.140  31.122  34.018  1.00  0.00     0.037 A 
BRANCH  58  72
ATOM     72  C   UNL A   1      43.659  34.807  30.052  1.00  0.00     0.058 A 
ATOM     73  C   UNL A   1      43.580  35.819  31.021  1.00  0.00     0.135 A 
ATOM     74  C   UNL A   1      44.347  35.134  28.860  1.00  0.00     0.135 A 
ATOM     75  F   UNL A   1      42.906  35.618  32.163  1.00  0.00    -0.206 F 
ATOM     76  C   UNL A   1      44.135  37.081  30.811  1.00  0.00     0.059 A 
ATOM     77  C   UNL A   1      44.963  36.359  28.657  1.00  0.00     0.059 A 
ATOM     78  F   UNL A   1      44.370  34.307  27.805  1.00  0.00    -0.206 F 
ATOM     79  C   UNL A   1      44.819  37.340  29.623  1.00  0.00     0.060 A 
BRANCH  79  80
ATOM     80  S   UNL A   1      45.458  38.993  29.311  1.00  0.00     0.124 S 
ATOM     81  O   UNL A   1      46.535  39.073  30.292  1.00  0.00    -0.237 OA
ATOM     82  O   UNL A   1      45.868  38.901  27.914  1.00  0.00    -0.237 OA
ATOM     83  O   UNL A   1      44.305  39.851  29.565  1.00  0.00    -0.744 OA
ENDBRANCH  79  80
ENDBRANCH  58  72
BRANCH  59  84
ATOM     84  C   UNL A   1      39.714  34.463  37.483  1.00  0.00     0.058 A 
ATOM     85  C   UNL A   1      39.758  33.973  38.805  1.00  0.00     0.135 A 
ATOM     86  C   UNL A   1      39.618  35.864  37.356  1.00  0.00     0.135 A 
ATOM     87  F   UNL A   1      39.864  32.656  39.035  1.00  0.00    -0.206 F 
ATOM     88  C   UNL A   1      39.771  34.820  39.923  1.00  0.00     0.059 A 
ATOM     89  C   UNL A   1      39.618  36.727  38.454  1.00  0.00     0.059 A 
ATOM     90  F   UNL A   1      39.621  36.451  36.150  1.00  0.00    -0.206 F 
ATOM     91  C   UNL A   1      39.729  36.200  39.735  1.00  0.00     0.060 A 
BRANCH  91  92
ATOM     92  S   UNL A   1      39.964  37.304  41.151  1.00  0.00     0.124 S 
ATOM     93  O   UNL A   1      39.581  38.597  40.596  1.00  0.00    -0.237 OA
ATOM     94  O   UNL A   1      39.051  36.737  42.138  1.00  0.00    -0.237 OA
ATOM     95  O   UNL A   1      41.383  37.155  41.464  1.00  0.00    -0.744 OA
ENDBRANCH  91  92
ENDBRANCH  59  84
BRANCH  71  96
ATOM     96  C   UNL A   1      42.898  29.752  34.612  1.00  0.00     0.058 A 
ATOM     97  C   UNL A   1      43.801  29.034  35.413  1.00  0.00     0.135 A 
ATOM     98  C   UNL A   1      41.621  29.182  34.446  1.00  0.00     0.135 A 
ATOM     99  F   UNL A   1      45.003  29.533  35.739  1.00  0.00    -0.206 F 
ATOM    100  C   UNL A   1      43.464  27.792  35.960  1.00  0.00     0.059 A 
ATOM    101  C   UNL A   1      41.242  27.987  35.055  1.00  0.00     0.059 A 
ATOM    102  F   UNL A   1      40.693  29.816  33.710  1.00  0.00    -0.206 F 
ATOM    103  C   UNL A   1      42.172  27.297  35.816  1.00  0.00     0.060 A 
BRANCH 103 104
ATOM    104  S   UNL A   1      41.713  25.757  36.640  1.00  0.00     0.124 S 
ATOM    105  O   UNL A   1      41.419  24.871  35.519  1.00  0.00    -0.237 OA
ATOM    106  O   UNL A   1      42.925  25.449  37.391  1.00  0.00    -0.237 OA
ATOM    107  O   UNL A   1      40.564  26.135  37.456  1.00  0.00    -0.744 OA
ENDBRANCH 103 104
ENDBRANCH  71  96
ENDBRANCH  45  46
ENDBRANCH  38  40
ENDBRANCH  37  38
ENDBRANCH  36  37
ENDBRANCH  35  36
ENDBRANCH  34  35
ENDBRANCH  33  34
ENDBRANCH  32  33
ENDBRANCH   1  32
TORSDOF 26
ENDMDL
