MODEL 1
REMARK VINA RESULT:      -6.8      0.000      0.000
REMARK SMILES Cc1ccc(C#N)cc1Nc1cc(C)c(N)c(C(=O)OCCOCCOCCOCCOC(=O)c2ccc(-c3c4nc(c(-c5c(F)cc(S(=O)(=O)[O-])cc5F)c5ccc([nH]5)c(-c5c(F)cc(S(=O)(=O)[O-])cc5F)c5nc(c(-c6c(F)cc(S(=O)(=O)[O-])cc6F)c6ccc3[nH]6)C=C5)C=C4)cc2)c1
REMARK SMILES IDX 26 1 25 2 24 3 23 4 22 5 21 6 20 7 18 8 19 9 17 10 11 11
REMARK SMILES IDX 12 12 101 13 13 14 14 15 15 16 10 17 9 19 1 20 2 21 3 22
REMARK SMILES IDX 4 23 8 24 5 25 6 26 7 27 16 28 27 31 28 32 29 33 30 34 31 35
REMARK SMILES IDX 32 36 33 37 34 38 35 39 36 40 100 41 37 42 99 43 38 44 39 45
REMARK SMILES IDX 40 46 93 47 41 48 98 49 92 50 94 51 42 52 97 53 91 54 90 55
REMARK SMILES IDX 43 57 77 58 56 59 76 60 57 61 60 62 75 63 95 64 58 65 59 66
REMARK SMILES IDX 74 68 96 69 61 70 44 71 45 72 54 73 46 74 47 75 53 76 55 77
REMARK SMILES IDX 48 78 49 79 50 80 51 81 52 82 78 83 79 84 88 85 80 86 81 87
REMARK SMILES IDX 87 88 89 89 82 90 83 91 84 92 85 93 86 94 62 95 63 96 72 97
REMARK SMILES IDX 64 98 65 99 71 100 73 101 66 102 67 103 68 104 69 105 70 106
REMARK H PARENT 10 18 16 29 16 30 94 56 60 67
REMARK Flexibility Score: inf
ROOT
ATOM      1  O   UNL A   1      52.584  26.712  30.923  1.00  0.00    -0.377 OA
ENDROOT
BRANCH   1   2
ATOM      2  C   UNL A   1      51.410  27.507  30.840  1.00  0.00     0.188 C 
BRANCH   2   3
ATOM      3  C   UNL A   1      50.039  26.911  30.441  1.00  0.00     0.188 C 
BRANCH   3   4
ATOM      4  O   UNL A   1      48.938  27.317  31.226  1.00  0.00    -0.376 OA
BRANCH   4   5
ATOM      5  C   UNL A   1      48.123  26.384  31.904  1.00  0.00     0.202 C 
BRANCH   5   6
ATOM      6  C   UNL A   1      47.041  25.574  31.173  1.00  0.00     0.261 C 
BRANCH   6   7
ATOM      7  O   UNL A   1      45.715  25.681  31.688  1.00  0.00    -0.460 OA
BRANCH   7   8
ATOM      8  C   UNL A   1      45.060  26.839  31.443  1.00  0.00     0.340 C 
ATOM      9  O   UNL A   1      45.017  27.435  30.379  1.00  0.00    -0.246 OA
BRANCH   8  10
ATOM     10  C   UNL A   1      44.208  27.153  32.622  1.00  0.00     0.085 A 
ATOM     11  C   UNL A   1      42.983  26.325  34.544  1.00  0.00     0.040 A 
ATOM     12  C   UNL A   1      42.697  27.644  34.899  1.00  0.00     0.031 A 
ATOM     13  C   UNL A   1      43.676  26.090  33.357  1.00  0.00     0.044 A 
ATOM     14  C   UNL A   1      43.148  28.732  34.125  1.00  0.00    -0.025 A 
ATOM     15  C   UNL A   1      42.872  30.110  34.664  1.00  0.00     0.047 C 
ATOM     16  C   UNL A   1      43.950  28.496  32.990  1.00  0.00     0.049 A 
BRANCH  11  17
ATOM     17  N   UNL A   1      42.806  25.298  35.489  1.00  0.00    -0.355 N 
ATOM     18  H   UNL A   1      41.882  25.101  35.764  1.00  0.00     0.167 HD
BRANCH  17  19
ATOM     19  C   UNL A   1      43.829  24.522  36.085  1.00  0.00     0.043 A 
ATOM     20  C   UNL A   1      43.977  26.116  38.062  1.00  0.00     0.046 C 
ATOM     21  C   UNL A   1      44.377  24.860  37.336  1.00  0.00    -0.027 A 
ATOM     22  C   UNL A   1      45.350  24.021  37.915  1.00  0.00     0.007 A 
ATOM     23  C   UNL A   1      45.791  22.862  37.268  1.00  0.00     0.020 A 
ATOM     24  C   UNL A   1      44.314  23.363  35.448  1.00  0.00     0.045 A 
ATOM     25  C   UNL A   1      45.278  22.536  36.022  1.00  0.00     0.054 A 
BRANCH  25  26
ATOM     26  C   UNL A   1      45.739  21.395  35.280  1.00  0.00     0.099 C 
ATOM     27  N   UNL A   1      46.134  20.447  34.752  1.00  0.00    -0.192 NA
ENDBRANCH  25  26
ENDBRANCH  17  19
ENDBRANCH  11  17
BRANCH  16  28
ATOM     28  N   UNL A   1      44.340  29.544  32.157  1.00  0.00    -0.398 N 
ATOM     29  H   UNL A   1      44.559  30.424  32.542  1.00  0.00     0.156 HD
ATOM     30  H   UNL A   1      44.398  29.406  31.184  1.00  0.00     0.156 HD
ENDBRANCH  16  28
ENDBRANCH   8  10
ENDBRANCH   7   8
ENDBRANCH   6   7
ENDBRANCH   5   6
ENDBRANCH   4   5
ENDBRANCH   3   4
ENDBRANCH   2   3
ENDBRANCH   1   2
BRANCH   1  31
ATOM     31  C   UNL A   1      53.766  27.102  30.245  1.00  0.00     0.188 C 
BRANCH  31  32
ATOM     32  C   UNL A   1      54.404  26.172  29.186  1.00  0.00     0.188 C 
BRANCH  32  33
ATOM     33  O   UNL A   1      55.558  26.682  28.552  1.00  0.00    -0.376 OA
BRANCH  33  34
ATOM     34  C   UNL A   1      55.980  26.199  27.296  1.00  0.00     0.202 C 
BRANCH  34  35
ATOM     35  C   UNL A   1      55.602  26.872  25.968  1.00  0.00     0.261 C 
BRANCH  35  36
ATOM     36  O   UNL A   1      54.223  27.159  25.727  1.00  0.00    -0.460 OA
BRANCH  36  37
ATOM     37  C   UNL A   1      53.502  26.253  25.030  1.00  0.00     0.338 C 
ATOM     38  O   UNL A   1      53.928  25.322  24.374  1.00  0.00    -0.246 OA
BRANCH  37  39
ATOM     39  C   UNL A   1      52.083  26.485  25.391  1.00  0.00     0.060 A 
ATOM     40  C   UNL A   1      51.658  26.252  26.700  1.00  0.00     0.016 A 
ATOM     41  C   UNL A   1      51.161  26.851  24.400  1.00  0.00     0.016 A 
ATOM     42  C   UNL A   1      50.310  26.406  27.021  1.00  0.00     0.010 A 
ATOM     43  C   UNL A   1      49.806  26.985  24.721  1.00  0.00     0.010 A 
ATOM     44  C   UNL A   1      49.375  26.790  26.040  1.00  0.00    -0.014 A 
BRANCH  44  45
ATOM     45  C   UNL A   1      48.001  27.169  26.449  1.00  0.00     0.031 A 
ATOM     46  C   UNL A   1      46.875  26.182  26.507  1.00  0.00     0.074 A 
ATOM     47  C   UNL A   1      47.788  28.457  26.782  1.00  0.00     0.049 A 
ATOM     48  N   UNL A   1      45.652  26.362  26.939  1.00  0.00    -0.248 NA
ATOM     49  C   UNL A   1      47.148  24.826  26.011  1.00  0.00     0.031 C 
ATOM     50  C   UNL A   1      48.805  29.509  26.727  1.00  0.00     0.029 A 
ATOM     51  N   UNL A   1      46.668  29.097  27.244  1.00  0.00    -0.354 N 
ATOM     52  C   UNL A   1      45.011  25.138  26.795  1.00  0.00     0.074 A 
ATOM     53  C   UNL A   1      45.968  24.240  26.179  1.00  0.00     0.031 C 
ATOM     54  C   UNL A   1      48.277  30.652  27.185  1.00  0.00     0.029 A 
ATOM     55  C   UNL A   1      46.876  30.427  27.526  1.00  0.00     0.049 A 
ATOM     56  H   UNL A   1      45.800  28.650  27.363  1.00  0.00     0.167 HD
ATOM     57  C   UNL A   1      43.751  24.798  27.165  1.00  0.00     0.037 A 
ATOM     58  C   UNL A   1      46.037  31.363  28.011  1.00  0.00     0.037 A 
ATOM     59  C   UNL A   1      42.802  25.714  27.753  1.00  0.00     0.049 A 
ATOM     60  C   UNL A   1      44.629  30.973  28.358  1.00  0.00     0.074 A 
ATOM     61  C   UNL A   1      41.511  25.456  28.185  1.00  0.00     0.029 A 
ATOM     62  N   UNL A   1      43.027  27.067  27.975  1.00  0.00    -0.354 N 
ATOM     63  N   UNL A   1      44.060  29.792  28.290  1.00  0.00    -0.248 NA
ATOM     64  C   UNL A   1      43.749  32.038  28.854  1.00  0.00     0.031 C 
ATOM     65  C   UNL A   1      40.937  26.660  28.604  1.00  0.00     0.029 A 
ATOM     66  C   UNL A   1      41.889  27.661  28.502  1.00  0.00     0.049 A 
ATOM     67  H   UNL A   1      43.872  27.536  27.786  1.00  0.00     0.167 HD
ATOM     68  C   UNL A   1      42.760  29.970  28.749  1.00  0.00     0.074 A 
ATOM     69  C   UNL A   1      42.635  31.366  29.115  1.00  0.00     0.031 C 
ATOM     70  C   UNL A   1      41.763  29.055  28.856  1.00  0.00     0.037 A 
BRANCH  57  71
ATOM     71  C   UNL A   1      43.316  23.370  26.949  1.00  0.00     0.058 A 
ATOM     72  C   UNL A   1      43.157  22.481  28.025  1.00  0.00     0.135 A 
ATOM     73  C   UNL A   1      42.993  22.900  25.665  1.00  0.00     0.135 A 
ATOM     74  F   UNL A   1      43.450  22.873  29.275  1.00  0.00    -0.206 F 
ATOM     75  C   UNL A   1      42.731  21.171  27.832  1.00  0.00     0.059 A 
ATOM     76  C   UNL A   1      42.532  21.602  25.452  1.00  0.00     0.059 A 
ATOM     77  F   UNL A   1      43.114  23.706  24.599  1.00  0.00    -0.206 F 
ATOM     78  C   UNL A   1      42.421  20.740  26.541  1.00  0.00     0.060 A 
BRANCH  78  79
ATOM     79  S   UNL A   1      41.887  19.031  26.315  1.00  0.00     0.124 S 
ATOM     80  O   UNL A   1      41.941  18.528  27.684  1.00  0.00    -0.237 OA
ATOM     81  O   UNL A   1      40.551  19.197  25.753  1.00  0.00    -0.237 OA
ATOM     82  O   UNL A   1      42.886  18.478  25.406  1.00  0.00    -0.744 OA
ENDBRANCH  78  79
ENDBRANCH  57  71
BRANCH  58  83
ATOM     83  C   UNL A   1      46.538  32.745  28.227  1.00  0.00     0.058 A 
ATOM     84  C   UNL A   1      47.230  33.085  29.397  1.00  0.00     0.135 A 
ATOM     85  C   UNL A   1      46.390  33.736  27.243  1.00  0.00     0.135 A 
ATOM     86  F   UNL A   1      47.392  32.174  30.370  1.00  0.00    -0.206 F 
ATOM     87  C   UNL A   1      47.760  34.356  29.586  1.00  0.00     0.059 A 
ATOM     88  C   UNL A   1      46.937  35.005  27.395  1.00  0.00     0.059 A 
ATOM     89  F   UNL A   1      45.749  33.456  26.097  1.00  0.00    -0.206 F 
ATOM     90  C   UNL A   1      47.620  35.306  28.572  1.00  0.00     0.060 A 
BRANCH  90  91
ATOM     91  S   UNL A   1      48.380  36.927  28.801  1.00  0.00     0.124 S 
ATOM     92  O   UNL A   1      47.580  37.479  29.888  1.00  0.00    -0.237 OA
ATOM     93  O   UNL A   1      49.755  36.571  29.137  1.00  0.00    -0.237 OA
ATOM     94  O   UNL A   1      48.205  37.568  27.501  1.00  0.00    -0.744 OA
ENDBRANCH  90  91
ENDBRANCH  58  83
BRANCH  70  95
ATOM     95  C   UNL A   1      40.437  29.527  29.395  1.00  0.00     0.058 A 
ATOM     96  C   UNL A   1      40.239  29.759  30.766  1.00  0.00     0.135 A 
ATOM     97  C   UNL A   1      39.372  29.816  28.526  1.00  0.00     0.135 A 
ATOM     98  F   UNL A   1      41.218  29.494  31.646  1.00  0.00    -0.206 F 
ATOM     99  C   UNL A   1      39.029  30.241  31.256  1.00  0.00     0.059 A 
ATOM    100  C   UNL A   1      38.164  30.332  28.990  1.00  0.00     0.059 A 
ATOM    101  F   UNL A   1      39.506  29.621  27.204  1.00  0.00    -0.206 F 
ATOM    102  C   UNL A   1      37.999  30.533  30.359  1.00  0.00     0.060 A 
BRANCH 102 103
ATOM    103  S   UNL A   1      36.451  31.193  31.010  1.00  0.00     0.124 S 
ATOM    104  O   UNL A   1      36.895  32.442  31.620  1.00  0.00    -0.237 OA
ATOM    105  O   UNL A   1      35.642  31.328  29.803  1.00  0.00    -0.237 OA
ATOM    106  O   UNL A   1      36.007  30.164  31.946  1.00  0.00    -0.744 OA
ENDBRANCH 102 103
ENDBRANCH  70  95
ENDBRANCH  44  45
ENDBRANCH  37  39
ENDBRANCH  36  37
ENDBRANCH  35  36
ENDBRANCH  34  35
ENDBRANCH  33  34
ENDBRANCH  32  33
ENDBRANCH  31  32
ENDBRANCH   1  31
TORSDOF 27
ENDMDL
MODEL 2
REMARK VINA RESULT:      -6.7      5.563     11.019
REMARK SMILES Cc1ccc(C#N)cc1Nc1cc(C)c(N)c(C(=O)OCCOCCOCCOCCOC(=O)c2ccc(-c3c4nc(c(-c5c(F)cc(S(=O)(=O)[O-])cc5F)c5ccc([nH]5)c(-c5c(F)cc(S(=O)(=O)[O-])cc5F)c5nc(c(-c6c(F)cc(S(=O)(=O)[O-])cc6F)c6ccc3[nH]6)C=C5)C=C4)cc2)c1
REMARK SMILES IDX 26 1 25 2 24 3 23 4 22 5 21 6 20 7 18 8 19 9 17 10 11 11
REMARK SMILES IDX 12 12 101 13 13 14 14 15 15 16 10 17 9 19 1 20 2 21 3 22
REMARK SMILES IDX 4 23 8 24 5 25 6 26 7 27 16 28 27 31 28 32 29 33 30 34 31 35
REMARK SMILES IDX 32 36 33 37 34 38 35 39 36 40 100 41 37 42 99 43 38 44 39 45
REMARK SMILES IDX 40 46 93 47 41 48 98 49 92 50 94 51 42 52 97 53 91 54 90 55
REMARK SMILES IDX 43 57 77 58 56 59 76 60 57 61 60 62 75 63 95 64 58 65 59 66
REMARK SMILES IDX 74 68 96 69 61 70 44 71 45 72 54 73 46 74 47 75 53 76 55 77
REMARK SMILES IDX 48 78 49 79 50 80 51 81 52 82 78 83 79 84 88 85 80 86 81 87
REMARK SMILES IDX 87 88 89 89 82 90 83 91 84 92 85 93 86 94 62 95 63 96 72 97
REMARK SMILES IDX 64 98 65 99 71 100 73 101 66 102 67 103 68 104 69 105 70 106
REMARK H PARENT 10 18 16 29 16 30 94 56 60 67
REMARK Flexibility Score: inf
ROOT
ATOM      1  O   UNL A   1      52.765  24.890  34.217  1.00  0.00    -0.377 OA
ENDROOT
BRANCH   1   2
ATOM      2  C   UNL A   1      52.696  23.702  33.443  1.00  0.00     0.188 C 
BRANCH   2   3
ATOM      3  C   UNL A   1      52.074  22.396  33.993  1.00  0.00     0.188 C 
BRANCH   3   4
ATOM      4  O   UNL A   1      51.113  21.774  33.166  1.00  0.00    -0.376 OA
BRANCH   4   5
ATOM      5  C   UNL A   1      50.849  20.389  33.244  1.00  0.00     0.202 C 
BRANCH   5   6
ATOM      6  C   UNL A   1      51.111  19.587  34.528  1.00  0.00     0.261 C 
BRANCH   6   7
ATOM      7  O   UNL A   1      50.084  19.625  35.517  1.00  0.00    -0.460 OA
BRANCH   7   8
ATOM      8  C   UNL A   1      50.437  20.080  36.742  1.00  0.00     0.340 C 
ATOM      9  O   UNL A   1      51.554  20.424  37.091  1.00  0.00    -0.246 OA
BRANCH   8  10
ATOM     10  C   UNL A   1      49.197  20.311  37.531  1.00  0.00     0.085 A 
ATOM     11  C   UNL A   1      47.785  19.622  39.378  1.00  0.00     0.040 A 
ATOM     12  C   UNL A   1      46.960  20.718  39.124  1.00  0.00     0.031 A 
ATOM     13  C   UNL A   1      48.860  19.385  38.523  1.00  0.00     0.044 A 
ATOM     14  C   UNL A   1      47.229  21.619  38.074  1.00  0.00    -0.025 A 
ATOM     15  C   UNL A   1      46.333  22.823  37.965  1.00  0.00     0.047 C 
ATOM     16  C   UNL A   1      48.385  21.444  37.285  1.00  0.00     0.049 A 
BRANCH  11  17
ATOM     17  N   UNL A   1      47.680  18.944  40.607  1.00  0.00    -0.355 N 
ATOM     18  H   UNL A   1      48.413  19.073  41.250  1.00  0.00     0.167 HD
BRANCH  17  19
ATOM     19  C   UNL A   1      46.621  18.094  41.007  1.00  0.00     0.043 A 
ATOM     20  C   UNL A   1      47.178  18.449  43.463  1.00  0.00     0.046 C 
ATOM     21  C   UNL A   1      46.326  17.873  42.364  1.00  0.00    -0.027 A 
ATOM     22  C   UNL A   1      45.224  17.066  42.712  1.00  0.00     0.007 A 
ATOM     23  C   UNL A   1      44.420  16.470  41.733  1.00  0.00     0.020 A 
ATOM     24  C   UNL A   1      45.809  17.458  40.047  1.00  0.00     0.045 A 
ATOM     25  C   UNL A   1      44.721  16.659  40.393  1.00  0.00     0.054 A 
BRANCH  25  26
ATOM     26  C   UNL A   1      43.973  16.020  39.346  1.00  0.00     0.099 C 
ATOM     27  N   UNL A   1      43.358  15.447  38.553  1.00  0.00    -0.192 NA
ENDBRANCH  25  26
ENDBRANCH  17  19
ENDBRANCH  11  17
BRANCH  16  28
ATOM     28  N   UNL A   1      48.633  22.266  36.186  1.00  0.00    -0.398 N 
ATOM     29  H   UNL A   1      48.381  23.218  36.216  1.00  0.00     0.156 HD
ATOM     30  H   UNL A   1      49.061  21.896  35.380  1.00  0.00     0.156 HD
ENDBRANCH  16  28
ENDBRANCH   8  10
ENDBRANCH   7   8
ENDBRANCH   6   7
ENDBRANCH   5   6
ENDBRANCH   4   5
ENDBRANCH   3   4
ENDBRANCH   2   3
ENDBRANCH   1   2
BRANCH   1  31
ATOM     31  C   UNL A   1      51.861  25.105  35.288  1.00  0.00     0.188 C 
BRANCH  31  32
ATOM     32  C   UNL A   1      50.912  26.326  35.278  1.00  0.00     0.188 C 
BRANCH  32  33
ATOM     33  O   UNL A   1      51.499  27.549  35.670  1.00  0.00    -0.376 OA
BRANCH  33  34
ATOM     34  C   UNL A   1      51.294  28.081  36.960  1.00  0.00     0.202 C 
BRANCH  34  35
ATOM     35  C   UNL A   1      50.169  27.608  37.893  1.00  0.00     0.261 C 
BRANCH  35  36
ATOM     36  O   UNL A   1      48.884  28.217  37.763  1.00  0.00    -0.460 OA
BRANCH  36  37
ATOM     37  C   UNL A   1      47.810  27.529  38.212  1.00  0.00     0.338 C 
ATOM     38  O   UNL A   1      47.762  26.791  39.178  1.00  0.00    -0.246 OA
BRANCH  37  39
ATOM     39  C   UNL A   1      46.650  28.010  37.425  1.00  0.00     0.060 A 
ATOM     40  C   UNL A   1      45.422  27.358  37.540  1.00  0.00     0.016 A 
ATOM     41  C   UNL A   1      46.814  29.058  36.508  1.00  0.00     0.016 A 
ATOM     42  C   UNL A   1      44.350  27.771  36.749  1.00  0.00     0.010 A 
ATOM     43  C   UNL A   1      45.743  29.455  35.701  1.00  0.00     0.010 A 
ATOM     44  C   UNL A   1      44.495  28.833  35.836  1.00  0.00    -0.014 A 
BRANCH  44  45
ATOM     45  C   UNL A   1      43.293  29.400  35.179  1.00  0.00     0.031 A 
ATOM     46  C   UNL A   1      42.434  30.443  35.828  1.00  0.00     0.074 A 
ATOM     47  C   UNL A   1      42.989  28.946  33.947  1.00  0.00     0.049 A 
ATOM     48  N   UNL A   1      41.413  31.090  35.325  1.00  0.00    -0.248 NA
ATOM     49  C   UNL A   1      42.751  30.800  37.217  1.00  0.00     0.031 C 
ATOM     50  C   UNL A   1      43.736  27.906  33.237  1.00  0.00     0.029 A 
ATOM     51  N   UNL A   1      41.996  29.302  33.073  1.00  0.00    -0.354 N 
ATOM     52  C   UNL A   1      40.978  31.953  36.322  1.00  0.00     0.074 A 
ATOM     53  C   UNL A   1      41.811  31.701  37.481  1.00  0.00     0.031 C 
ATOM     54  C   UNL A   1      43.206  27.743  32.017  1.00  0.00     0.029 A 
ATOM     55  C   UNL A   1      42.058  28.633  31.874  1.00  0.00     0.049 A 
ATOM     56  H   UNL A   1      41.306  29.971  33.282  1.00  0.00     0.167 HD
ATOM     57  C   UNL A   1      39.989  32.881  36.262  1.00  0.00     0.037 A 
ATOM     58  C   UNL A   1      41.284  28.726  30.776  1.00  0.00     0.037 A 
ATOM     59  C   UNL A   1      39.151  33.099  35.106  1.00  0.00     0.049 A 
ATOM     60  C   UNL A   1      40.159  29.721  30.756  1.00  0.00     0.074 A 
ATOM     61  C   UNL A   1      38.141  34.033  34.941  1.00  0.00     0.029 A 
ATOM     62  N   UNL A   1      39.205  32.367  33.927  1.00  0.00    -0.354 N 
ATOM     63  N   UNL A   1      39.808  30.585  31.679  1.00  0.00    -0.248 NA
ATOM     64  C   UNL A   1      39.329  29.759  29.546  1.00  0.00     0.031 C 
ATOM     65  C   UNL A   1      37.545  33.822  33.694  1.00  0.00     0.029 A 
ATOM     66  C   UNL A   1      38.224  32.804  33.048  1.00  0.00     0.049 A 
ATOM     67  H   UNL A   1      39.846  31.643  33.742  1.00  0.00     0.167 HD
ATOM     68  C   UNL A   1      38.725  31.282  31.154  1.00  0.00     0.074 A 
ATOM     69  C   UNL A   1      38.496  30.754  29.824  1.00  0.00     0.031 C 
ATOM     70  C   UNL A   1      37.991  32.269  31.726  1.00  0.00     0.037 A 
BRANCH  57  71
ATOM     71  C   UNL A   1      39.755  33.739  37.479  1.00  0.00     0.058 A 
ATOM     72  C   UNL A   1      40.332  35.014  37.600  1.00  0.00     0.135 A 
ATOM     73  C   UNL A   1      38.897  33.314  38.508  1.00  0.00     0.135 A 
ATOM     74  F   UNL A   1      41.161  35.475  36.649  1.00  0.00    -0.206 F 
ATOM     75  C   UNL A   1      40.097  35.819  38.710  1.00  0.00     0.059 A 
ATOM     76  C   UNL A   1      38.621  34.117  39.612  1.00  0.00     0.059 A 
ATOM     77  F   UNL A   1      38.307  32.111  38.443  1.00  0.00    -0.206 F 
ATOM     78  C   UNL A   1      39.240  35.362  39.712  1.00  0.00     0.060 A 
BRANCH  78  79
ATOM     79  S   UNL A   1      38.965  36.418  41.150  1.00  0.00     0.124 S 
ATOM     80  O   UNL A   1      37.936  35.669  41.864  1.00  0.00    -0.237 OA
ATOM     81  O   UNL A   1      40.283  36.437  41.774  1.00  0.00    -0.237 OA
ATOM     82  O   UNL A   1      38.528  37.682  40.567  1.00  0.00    -0.744 OA
ENDBRANCH  78  79
ENDBRANCH  57  71
BRANCH  58  83
ATOM     83  C   UNL A   1      41.587  27.871  29.598  1.00  0.00     0.058 A 
ATOM     84  C   UNL A   1      40.767  26.785  29.266  1.00  0.00     0.135 A 
ATOM     85  C   UNL A   1      42.667  28.161  28.747  1.00  0.00     0.135 A 
ATOM     86  F   UNL A   1      39.727  26.463  30.052  1.00  0.00    -0.206 F 
ATOM     87  C   UNL A   1      41.001  26.016  28.132  1.00  0.00     0.059 A 
ATOM     88  C   UNL A   1      42.903  27.426  27.591  1.00  0.00     0.059 A 
ATOM     89  F   UNL A   1      43.472  29.202  29.012  1.00  0.00    -0.206 F 
ATOM     90  C   UNL A   1      42.066  26.354  27.292  1.00  0.00     0.060 A 
BRANCH  90  91
ATOM     91  S   UNL A   1      42.309  25.393  25.784  1.00  0.00     0.124 S 
ATOM     92  O   UNL A   1      42.412  24.037  26.310  1.00  0.00    -0.237 OA
ATOM     93  O   UNL A   1      41.095  25.696  25.034  1.00  0.00    -0.237 OA
ATOM     94  O   UNL A   1      43.539  25.947  25.226  1.00  0.00    -0.744 OA
ENDBRANCH  90  91
ENDBRANCH  58  83
BRANCH  70  95
ATOM     95  C   UNL A   1      36.860  32.857  30.920  1.00  0.00     0.058 A 
ATOM     96  C   UNL A   1      35.526  32.475  31.134  1.00  0.00     0.135 A 
ATOM     97  C   UNL A   1      37.106  33.862  29.969  1.00  0.00     0.135 A 
ATOM     98  F   UNL A   1      35.231  31.515  32.024  1.00  0.00    -0.206 F 
ATOM     99  C   UNL A   1      34.480  33.054  30.422  1.00  0.00     0.059 A 
ATOM    100  C   UNL A   1      36.072  34.480  29.271  1.00  0.00     0.059 A 
ATOM    101  F   UNL A   1      38.361  34.273  29.728  1.00  0.00    -0.206 F 
ATOM    102  C   UNL A   1      34.762  34.063  29.498  1.00  0.00     0.060 A 
BRANCH 102 103
ATOM    103  S   UNL A   1      33.387  34.828  28.613  1.00  0.00     0.124 S 
ATOM    104  O   UNL A   1      32.901  33.716  27.803  1.00  0.00    -0.237 OA
ATOM    105  O   UNL A   1      32.514  35.248  29.704  1.00  0.00    -0.237 OA
ATOM    106  O   UNL A   1      34.021  35.913  27.870  1.00  0.00    -0.744 OA
ENDBRANCH 102 103
ENDBRANCH  70  95
ENDBRANCH  44  45
ENDBRANCH  37  39
ENDBRANCH  36  37
ENDBRANCH  35  36
ENDBRANCH  34  35
ENDBRANCH  33  34
ENDBRANCH  32  33
ENDBRANCH  31  32
ENDBRANCH   1  31
TORSDOF 27
ENDMDL
MODEL 3
REMARK VINA RESULT:      -6.6      3.908     13.436
REMARK SMILES Cc1ccc(C#N)cc1Nc1cc(C)c(N)c(C(=O)OCCOCCOCCOCCOC(=O)c2ccc(-c3c4nc(c(-c5c(F)cc(S(=O)(=O)[O-])cc5F)c5ccc([nH]5)c(-c5c(F)cc(S(=O)(=O)[O-])cc5F)c5nc(c(-c6c(F)cc(S(=O)(=O)[O-])cc6F)c6ccc3[nH]6)C=C5)C=C4)cc2)c1
REMARK SMILES IDX 26 1 25 2 24 3 23 4 22 5 21 6 20 7 18 8 19 9 17 10 11 11
REMARK SMILES IDX 12 12 101 13 13 14 14 15 15 16 10 17 9 19 1 20 2 21 3 22
REMARK SMILES IDX 4 23 8 24 5 25 6 26 7 27 16 28 27 31 28 32 29 33 30 34 31 35
REMARK SMILES IDX 32 36 33 37 34 38 35 39 36 40 100 41 37 42 99 43 38 44 39 45
REMARK SMILES IDX 40 46 93 47 41 48 98 49 92 50 94 51 42 52 97 53 91 54 90 55
REMARK SMILES IDX 43 57 77 58 56 59 76 60 57 61 60 62 75 63 95 64 58 65 59 66
REMARK SMILES IDX 74 68 96 69 61 70 44 71 45 72 54 73 46 74 47 75 53 76 55 77
REMARK SMILES IDX 48 78 49 79 50 80 51 81 52 82 78 83 79 84 88 85 80 86 81 87
REMARK SMILES IDX 87 88 89 89 82 90 83 91 84 92 85 93 86 94 62 95 63 96 72 97
REMARK SMILES IDX 64 98 65 99 71 100 73 101 66 102 67 103 68 104 69 105 70 106
REMARK H PARENT 10 18 16 29 16 30 94 56 60 67
REMARK Flexibility Score: inf
ROOT
ATOM      1  O   UNL A   1      38.320  29.026  28.962  1.00  0.00    -0.377 OA
ENDROOT
BRANCH   1   2
ATOM      2  C   UNL A   1      38.099  30.127  28.093  1.00  0.00     0.188 C 
BRANCH   2   3
ATOM      3  C   UNL A   1      37.163  31.300  28.473  1.00  0.00     0.188 C 
BRANCH   3   4
ATOM      4  O   UNL A   1      37.792  32.548  28.677  1.00  0.00    -0.376 OA
BRANCH   4   5
ATOM      5  C   UNL A   1      37.656  33.260  29.889  1.00  0.00     0.202 C 
BRANCH   5   6
ATOM      6  C   UNL A   1      38.843  33.467  30.843  1.00  0.00     0.261 C 
BRANCH   6   7
ATOM      7  O   UNL A   1      38.815  34.650  31.640  1.00  0.00    -0.460 OA
BRANCH   7   8
ATOM      8  C   UNL A   1      39.324  34.553  32.889  1.00  0.00     0.340 C 
ATOM      9  O   UNL A   1      40.482  34.757  33.216  1.00  0.00    -0.246 OA
BRANCH   8  10
ATOM     10  C   UNL A   1      38.195  34.381  33.843  1.00  0.00     0.085 A 
ATOM     11  C   UNL A   1      35.799  34.436  34.214  1.00  0.00     0.040 A 
ATOM     12  C   UNL A   1      36.015  33.989  35.518  1.00  0.00     0.031 A 
ATOM     13  C   UNL A   1      36.905  34.703  33.409  1.00  0.00     0.044 A 
ATOM     14  C   UNL A   1      37.313  33.740  36.009  1.00  0.00    -0.025 A 
ATOM     15  C   UNL A   1      37.416  33.158  37.392  1.00  0.00     0.047 C 
ATOM     16  C   UNL A   1      38.423  33.897  35.153  1.00  0.00     0.049 A 
BRANCH  11  17
ATOM     17  N   UNL A   1      34.508  34.362  33.660  1.00  0.00    -0.355 N 
ATOM     18  H   UNL A   1      33.826  33.881  34.183  1.00  0.00     0.167 HD
BRANCH  17  19
ATOM     19  C   UNL A   1      34.093  34.911  32.423  1.00  0.00     0.043 A 
ATOM     20  C   UNL A   1      33.448  37.103  33.538  1.00  0.00     0.046 C 
ATOM     21  C   UNL A   1      33.625  36.234  32.324  1.00  0.00    -0.027 A 
ATOM     22  C   UNL A   1      33.282  36.754  31.060  1.00  0.00     0.007 A 
ATOM     23  C   UNL A   1      33.388  35.979  29.899  1.00  0.00     0.020 A 
ATOM     24  C   UNL A   1      34.162  34.149  31.240  1.00  0.00     0.045 A 
ATOM     25  C   UNL A   1      33.820  34.665  29.992  1.00  0.00     0.054 A 
BRANCH  25  26
ATOM     26  C   UNL A   1      33.886  33.801  28.846  1.00  0.00     0.099 C 
ATOM     27  N   UNL A   1      33.943  33.045  27.973  1.00  0.00    -0.192 NA
ENDBRANCH  25  26
ENDBRANCH  17  19
ENDBRANCH  11  17
BRANCH  16  28
ATOM     28  N   UNL A   1      39.724  33.742  35.633  1.00  0.00    -0.398 N 
ATOM     29  H   UNL A   1      40.236  32.929  35.413  1.00  0.00     0.156 HD
ATOM     30  H   UNL A   1      40.131  34.444  36.190  1.00  0.00     0.156 HD
ENDBRANCH  16  28
ENDBRANCH   8  10
ENDBRANCH   7   8
ENDBRANCH   6   7
ENDBRANCH   5   6
ENDBRANCH   4   5
ENDBRANCH   3   4
ENDBRANCH   2   3
ENDBRANCH   1   2
BRANCH   1  31
ATOM     31  C   UNL A   1      37.409  28.742  30.010  1.00  0.00     0.188 C 
BRANCH  31  32
ATOM     32  C   UNL A   1      36.575  29.876  30.651  1.00  0.00     0.188 C 
BRANCH  32  33
ATOM     33  O   UNL A   1      36.379  29.767  32.045  1.00  0.00    -0.376 OA
BRANCH  33  34
ATOM     34  C   UNL A   1      36.664  30.843  32.912  1.00  0.00     0.202 C 
BRANCH  34  35
ATOM     35  C   UNL A   1      38.006  30.999  33.642  1.00  0.00     0.261 C 
BRANCH  35  36
ATOM     36  O   UNL A   1      38.604  29.833  34.211  1.00  0.00    -0.460 OA
BRANCH  36  37
ATOM     37  C   UNL A   1      39.840  29.954  34.744  1.00  0.00     0.338 C 
ATOM     38  O   UNL A   1      40.123  30.094  35.919  1.00  0.00    -0.246 OA
BRANCH  37  39
ATOM     39  C   UNL A   1      40.795  29.670  33.647  1.00  0.00     0.060 A 
ATOM     40  C   UNL A   1      40.532  30.150  32.363  1.00  0.00     0.016 A 
ATOM     41  C   UNL A   1      41.908  28.851  33.883  1.00  0.00     0.016 A 
ATOM     42  C   UNL A   1      41.397  29.825  31.319  1.00  0.00     0.010 A 
ATOM     43  C   UNL A   1      42.762  28.510  32.830  1.00  0.00     0.010 A 
ATOM     44  C   UNL A   1      42.528  29.018  31.545  1.00  0.00    -0.014 A 
BRANCH  44  45
ATOM     45  C   UNL A   1      43.550  28.877  30.480  1.00  0.00     0.031 A 
ATOM     46  C   UNL A   1      44.629  29.893  30.257  1.00  0.00     0.074 A 
ATOM     47  C   UNL A   1      43.483  27.779  29.701  1.00  0.00     0.049 A 
ATOM     48  N   UNL A   1      45.639  29.843  29.425  1.00  0.00    -0.248 NA
ATOM     49  C   UNL A   1      44.566  31.122  31.058  1.00  0.00     0.031 C 
ATOM     50  C   UNL A   1      42.453  26.745  29.808  1.00  0.00     0.029 A 
ATOM     51  N   UNL A   1      44.295  27.341  28.687  1.00  0.00    -0.354 N 
ATOM     52  C   UNL A   1      46.351  31.019  29.617  1.00  0.00     0.074 A 
ATOM     53  C   UNL A   1      45.621  31.789  30.605  1.00  0.00     0.031 C 
ATOM     54  C   UNL A   1      42.721  25.768  28.930  1.00  0.00     0.029 A 
ATOM     55  C   UNL A   1      43.915  26.125  28.171  1.00  0.00     0.049 A 
ATOM     56  H   UNL A   1      45.073  27.847  28.361  1.00  0.00     0.167 HD
ATOM     57  C   UNL A   1      47.517  31.404  29.037  1.00  0.00     0.037 A 
ATOM     58  C   UNL A   1      44.467  25.374  27.198  1.00  0.00     0.037 A 
ATOM     59  C   UNL A   1      48.216  30.635  28.034  1.00  0.00     0.049 A 
ATOM     60  C   UNL A   1      45.725  25.850  26.532  1.00  0.00     0.074 A 
ATOM     61  C   UNL A   1      49.416  30.929  27.407  1.00  0.00     0.029 A 
ATOM     62  N   UNL A   1      47.775  29.433  27.494  1.00  0.00    -0.354 N 
ATOM     63  N   UNL A   1      46.431  26.928  26.778  1.00  0.00    -0.248 NA
ATOM     64  C   UNL A   1      46.266  25.008  25.458  1.00  0.00     0.031 C 
ATOM     65  C   UNL A   1      49.665  29.944  26.446  1.00  0.00     0.029 A 
ATOM     66  C   UNL A   1      48.660  28.995  26.518  1.00  0.00     0.049 A 
ATOM     67  H   UNL A   1      46.955  28.961  27.764  1.00  0.00     0.167 HD
ATOM     68  C   UNL A   1      47.509  26.885  25.902  1.00  0.00     0.074 A 
ATOM     69  C   UNL A   1      47.375  25.662  25.136  1.00  0.00     0.031 C 
ATOM     70  C   UNL A   1      48.518  27.780  25.749  1.00  0.00     0.037 A 
BRANCH  57  71
ATOM     71  C   UNL A   1      48.118  32.717  29.470  1.00  0.00     0.058 A 
ATOM     72  C   UNL A   1      47.902  33.898  28.741  1.00  0.00     0.135 A 
ATOM     73  C   UNL A   1      48.864  32.813  30.657  1.00  0.00     0.135 A 
ATOM     74  F   UNL A   1      47.198  33.869  27.598  1.00  0.00    -0.206 F 
ATOM     75  C   UNL A   1      48.434  35.116  29.151  1.00  0.00     0.059 A 
ATOM     76  C   UNL A   1      49.377  34.028  31.105  1.00  0.00     0.059 A 
ATOM     77  F   UNL A   1      49.093  31.721  31.402  1.00  0.00    -0.206 F 
ATOM     78  C   UNL A   1      49.171  35.171  30.335  1.00  0.00     0.060 A 
BRANCH  78  79
ATOM     79  S   UNL A   1      49.865  36.760  30.838  1.00  0.00     0.124 S 
ATOM     80  O   UNL A   1      51.296  36.482  30.777  1.00  0.00    -0.237 OA
ATOM     81  O   UNL A   1      49.350  37.660  29.811  1.00  0.00    -0.237 OA
ATOM     82  O   UNL A   1      49.322  36.961  32.178  1.00  0.00    -0.744 OA
ENDBRANCH  78  79
ENDBRANCH  57  71
BRANCH  58  83
ATOM     83  C   UNL A   1      43.839  24.075  26.840  1.00  0.00     0.058 A 
ATOM     84  C   UNL A   1      44.381  22.864  27.293  1.00  0.00     0.135 A 
ATOM     85  C   UNL A   1      42.652  24.021  26.091  1.00  0.00     0.135 A 
ATOM     86  F   UNL A   1      45.518  22.862  28.006  1.00  0.00    -0.206 F 
ATOM     87  C   UNL A   1      43.770  21.646  27.019  1.00  0.00     0.059 A 
ATOM     88  C   UNL A   1      42.006  22.819  25.830  1.00  0.00     0.059 A 
ATOM     89  F   UNL A   1      42.084  25.155  25.648  1.00  0.00    -0.206 F 
ATOM     90  C   UNL A   1      42.573  21.635  26.297  1.00  0.00     0.060 A 
BRANCH  90  91
ATOM     91  S   UNL A   1      41.753  20.052  26.017  1.00  0.00     0.124 S 
ATOM     92  O   UNL A   1      41.718  19.494  27.364  1.00  0.00    -0.237 OA
ATOM     93  O   UNL A   1      40.468  20.472  25.466  1.00  0.00    -0.237 OA
ATOM     94  O   UNL A   1      42.640  19.374  25.077  1.00  0.00    -0.744 OA
ENDBRANCH  90  91
ENDBRANCH  58  83
BRANCH  70  95
ATOM     95  C   UNL A   1      49.570  27.478  24.712  1.00  0.00     0.058 A 
ATOM     96  C   UNL A   1      49.350  27.721  23.347  1.00  0.00     0.135 A 
ATOM     97  C   UNL A   1      50.836  27.003  25.094  1.00  0.00     0.135 A 
ATOM     98  F   UNL A   1      48.158  28.168  22.921  1.00  0.00    -0.206 F 
ATOM     99  C   UNL A   1      50.340  27.487  22.397  1.00  0.00     0.059 A 
ATOM    100  C   UNL A   1      51.852  26.796  24.165  1.00  0.00     0.059 A 
ATOM    101  F   UNL A   1      51.106  26.760  26.386  1.00  0.00    -0.206 F 
ATOM    102  C   UNL A   1      51.592  27.032  22.817  1.00  0.00     0.060 A 
BRANCH 102 103
ATOM    103  S   UNL A   1      52.874  26.771  21.574  1.00  0.00     0.124 S 
ATOM    104  O   UNL A   1      52.249  25.778  20.707  1.00  0.00    -0.237 OA
ATOM    105  O   UNL A   1      53.026  28.106  21.003  1.00  0.00    -0.237 OA
ATOM    106  O   UNL A   1      54.013  26.294  22.352  1.00  0.00    -0.744 OA
ENDBRANCH 102 103
ENDBRANCH  70  95
ENDBRANCH  44  45
ENDBRANCH  37  39
ENDBRANCH  36  37
ENDBRANCH  35  36
ENDBRANCH  34  35
ENDBRANCH  33  34
ENDBRANCH  32  33
ENDBRANCH  31  32
ENDBRANCH   1  31
TORSDOF 27
ENDMDL
