MODEL 1
REMARK VINA RESULT:      -9.2      0.000      0.000
REMARK SMILES CC(C)(C)[N@H+](CCC(=O)Nc1ccccc1F)CC(=O)OCCOCCOCCOCCOC(=O)c1ccc(-c2c3nc(c(-c4c(F)cc(S(=O)(=O)[O-])cc4F)c4ccc([nH]4)c(-c4c(F)cc(S(=O)(=O)[O-])cc4F)c4nc(c(-c5c(F)cc(S(=O)(=O)[O-])cc5F)c5ccc2[nH]5)C=C4)C=C3)cc1
REMARK SMILES IDX 26 1 25 2 24 3 23 4 22 5 21 6 19 7 20 8 18 9 5 10 2 12 1 13
REMARK SMILES IDX 3 14 4 15 6 16 7 17 8 18 9 19 10 20 11 22 12 23 16 24 13 25
REMARK SMILES IDX 15 26 17 27 14 28 27 29 28 30 29 31 30 32 31 33 32 34 33 35
REMARK SMILES IDX 34 36 35 37 36 38 37 39 101 40 38 41 100 42 39 43 40 44
REMARK SMILES IDX 41 45 94 46 42 47 99 48 93 49 95 50 43 51 98 52 92 53 91 54
REMARK SMILES IDX 44 56 78 57 57 58 77 59 58 60 61 61 76 62 96 63 59 64 60 65
REMARK SMILES IDX 75 67 97 68 62 69 45 70 46 71 55 72 47 73 48 74 54 75 56 76
REMARK SMILES IDX 49 77 50 78 51 79 52 80 53 81 79 82 80 83 89 84 81 85 82 86
REMARK SMILES IDX 88 87 90 88 83 89 84 90 85 91 86 92 87 93 63 94 64 95 73 96
REMARK SMILES IDX 65 97 66 98 72 99 74 100 67 101 68 102 69 103 70 104 71 105
REMARK H PARENT 5 11 10 21 95 55 61 66
REMARK Flexibility Score: inf
ROOT
ATOM      1  C   UNL A   1      38.378  22.225  26.084  1.00  0.00     0.188 C 
ENDROOT
BRANCH   1   2
ATOM      2  C   UNL A   1      37.546  22.622  24.865  1.00  0.00     0.188 C 
BRANCH   2   3
ATOM      3  O   UNL A   1      36.762  21.570  24.341  1.00  0.00    -0.376 OA
BRANCH   3   4
ATOM      4  C   UNL A   1      35.904  20.794  25.181  1.00  0.00     0.202 C 
BRANCH   4   5
ATOM      5  C   UNL A   1      34.377  20.960  25.313  1.00  0.00     0.261 C 
BRANCH   5   6
ATOM      6  O   UNL A   1      33.809  22.091  24.630  1.00  0.00    -0.459 OA
BRANCH   6   7
ATOM      7  C   UNL A   1      33.381  23.076  25.460  1.00  0.00     0.361 C 
ATOM      8  O   UNL A   1      34.076  23.517  26.374  1.00  0.00    -0.245 OA
BRANCH   7   9
ATOM      9  C   UNL A   1      32.064  23.738  25.081  1.00  0.00     0.386 C 
BRANCH   9  10
ATOM     10  N   UNL A   1      32.039  25.182  24.831  1.00  0.00    -0.321 N 
ATOM     11  H   UNL A   1      32.821  25.574  25.355  1.00  0.00     0.349 HD
BRANCH  10  12
ATOM     12  C   UNL A   1      30.832  25.850  25.432  1.00  0.00     0.090 C 
ATOM     13  C   UNL A   1      30.038  26.836  24.543  1.00  0.00     0.078 C 
ATOM     14  C   UNL A   1      31.424  26.708  26.555  1.00  0.00     0.078 C 
ATOM     15  C   UNL A   1      29.752  24.909  26.052  1.00  0.00     0.078 C 
ENDBRANCH  10  12
BRANCH  10  16
ATOM     16  C   UNL A   1      32.405  25.584  23.462  1.00  0.00     0.273 C 
BRANCH  16  17
ATOM     17  C   UNL A   1      33.656  26.445  23.218  1.00  0.00     0.161 C 
BRANCH  17  18
ATOM     18  C   UNL A   1      33.830  27.940  22.891  1.00  0.00     0.230 C 
ATOM     19  O   UNL A   1      34.172  28.203  21.722  1.00  0.00    -0.275 OA
ATOM     20  N   UNL A   1      33.481  29.036  23.606  1.00  0.00    -0.323 N 
ATOM     21  H   UNL A   1      33.377  29.832  23.037  1.00  0.00     0.170 HD
BRANCH  20  22
ATOM     22  C   UNL A   1      33.231  29.315  24.953  1.00  0.00     0.077 A 
ATOM     23  C   UNL A   1      34.254  29.002  25.871  1.00  0.00     0.029 A 
ATOM     24  C   UNL A   1      32.083  29.944  25.419  1.00  0.00     0.146 A 
ATOM     25  C   UNL A   1      34.213  29.502  27.175  1.00  0.00     0.002 A 
ATOM     26  C   UNL A   1      32.001  30.369  26.746  1.00  0.00     0.041 A 
ATOM     27  F   UNL A   1      31.044  30.155  24.602  1.00  0.00    -0.205 F 
ATOM     28  C   UNL A   1      33.087  30.197  27.610  1.00  0.00     0.003 A 
ENDBRANCH  20  22
ENDBRANCH  17  18
ENDBRANCH  16  17
ENDBRANCH  10  16
ENDBRANCH   9  10
ENDBRANCH   7   9
ENDBRANCH   6   7
ENDBRANCH   5   6
ENDBRANCH   4   5
ENDBRANCH   3   4
ENDBRANCH   2   3
ENDBRANCH   1   2
BRANCH   1  29
ATOM     29  O   UNL A   1      39.676  21.744  25.793  1.00  0.00    -0.377 OA
BRANCH  29  30
ATOM     30  C   UNL A   1      40.016  20.416  26.163  1.00  0.00     0.188 C 
BRANCH  30  31
ATOM     31  C   UNL A   1      41.313  20.253  26.948  1.00  0.00     0.188 C 
BRANCH  31  32
ATOM     32  O   UNL A   1      42.548  20.332  26.237  1.00  0.00    -0.376 OA
BRANCH  32  33
ATOM     33  C   UNL A   1      43.350  21.501  26.350  1.00  0.00     0.202 C 
BRANCH  33  34
ATOM     34  C   UNL A   1      43.079  22.609  25.332  1.00  0.00     0.261 C 
BRANCH  34  35
ATOM     35  O   UNL A   1      42.235  23.647  25.853  1.00  0.00    -0.460 OA
BRANCH  35  36
ATOM     36  C   UNL A   1      42.650  24.905  25.627  1.00  0.00     0.338 C 
ATOM     37  O   UNL A   1      43.411  25.286  24.738  1.00  0.00    -0.246 OA
BRANCH  36  38
ATOM     38  C   UNL A   1      41.963  25.833  26.533  1.00  0.00     0.060 A 
ATOM     39  C   UNL A   1      42.289  27.191  26.453  1.00  0.00     0.016 A 
ATOM     40  C   UNL A   1      41.125  25.354  27.543  1.00  0.00     0.016 A 
ATOM     41  C   UNL A   1      41.844  28.069  27.436  1.00  0.00     0.010 A 
ATOM     42  C   UNL A   1      40.689  26.234  28.536  1.00  0.00     0.010 A 
ATOM     43  C   UNL A   1      41.098  27.579  28.515  1.00  0.00    -0.014 A 
BRANCH  43  44
ATOM     44  C   UNL A   1      40.941  28.422  29.722  1.00  0.00     0.031 A 
ATOM     45  C   UNL A   1      41.888  28.204  30.872  1.00  0.00     0.074 A 
ATOM     46  C   UNL A   1      40.010  29.389  29.770  1.00  0.00     0.049 A 
ATOM     47  N   UNL A   1      41.910  28.774  32.048  1.00  0.00    -0.248 NA
ATOM     48  C   UNL A   1      42.957  27.211  30.666  1.00  0.00     0.031 C 
ATOM     49  C   UNL A   1      39.095  29.731  28.683  1.00  0.00     0.029 A 
ATOM     50  N   UNL A   1      39.683  30.261  30.775  1.00  0.00    -0.354 N 
ATOM     51  C   UNL A   1      42.983  28.203  32.723  1.00  0.00     0.074 A 
ATOM     52  C   UNL A   1      43.571  27.223  31.840  1.00  0.00     0.031 C 
ATOM     53  C   UNL A   1      38.302  30.739  29.083  1.00  0.00     0.029 A 
ATOM     54  C   UNL A   1      38.624  31.081  30.468  1.00  0.00     0.049 A 
ATOM     55  H   UNL A   1      40.159  30.296  31.637  1.00  0.00     0.167 HD
ATOM     56  C   UNL A   1      43.437  28.480  33.968  1.00  0.00     0.037 A 
ATOM     57  C   UNL A   1      37.977  31.985  31.229  1.00  0.00     0.037 A 
ATOM     58  C   UNL A   1      42.839  29.465  34.831  1.00  0.00     0.049 A 
ATOM     59  C   UNL A   1      38.441  32.213  32.644  1.00  0.00     0.074 A 
ATOM     60  C   UNL A   1      43.219  29.830  36.110  1.00  0.00     0.029 A 
ATOM     61  N   UNL A   1      41.734  30.238  34.505  1.00  0.00    -0.354 N 
ATOM     62  N   UNL A   1      39.450  31.662  33.279  1.00  0.00    -0.248 NA
ATOM     63  C   UNL A   1      37.683  33.181  33.448  1.00  0.00     0.031 C 
ATOM     64  C   UNL A   1      42.307  30.779  36.579  1.00  0.00     0.029 A 
ATOM     65  C   UNL A   1      41.398  31.056  35.570  1.00  0.00     0.049 A 
ATOM     66  H   UNL A   1      41.258  30.209  33.643  1.00  0.00     0.167 HD
ATOM     67  C   UNL A   1      39.461  32.233  34.547  1.00  0.00     0.074 A 
ATOM     68  C   UNL A   1      38.365  33.180  34.586  1.00  0.00     0.031 C 
ATOM     69  C   UNL A   1      40.303  31.997  35.585  1.00  0.00     0.037 A 
BRANCH  56  70
ATOM     70  C   UNL A   1      44.614  27.698  34.483  1.00  0.00     0.058 A 
ATOM     71  C   UNL A   1      45.921  28.056  34.112  1.00  0.00     0.135 A 
ATOM     72  C   UNL A   1      44.456  26.565  35.297  1.00  0.00     0.135 A 
ATOM     73  F   UNL A   1      46.135  29.137  33.344  1.00  0.00    -0.206 F 
ATOM     74  C   UNL A   1      47.024  27.311  34.514  1.00  0.00     0.059 A 
ATOM     75  C   UNL A   1      45.549  25.820  35.735  1.00  0.00     0.059 A 
ATOM     76  F   UNL A   1      43.232  26.190  35.702  1.00  0.00    -0.206 F 
ATOM     77  C   UNL A   1      46.828  26.193  35.325  1.00  0.00     0.060 A 
BRANCH  77  78
ATOM     78  S   UNL A   1      48.275  25.253  35.858  1.00  0.00     0.124 S 
ATOM     79  O   UNL A   1      47.671  24.016  36.340  1.00  0.00    -0.237 OA
ATOM     80  O   UNL A   1      49.043  25.149  34.620  1.00  0.00    -0.237 OA
ATOM     81  O   UNL A   1      48.872  26.103  36.884  1.00  0.00    -0.744 OA
ENDBRANCH  77  78
ENDBRANCH  56  70
BRANCH  57  82
ATOM     82  C   UNL A   1      36.824  32.734  30.661  1.00  0.00     0.058 A 
ATOM     83  C   UNL A   1      35.503  32.302  30.863  1.00  0.00     0.135 A 
ATOM     84  C   UNL A   1      37.023  33.871  29.865  1.00  0.00     0.135 A 
ATOM     85  F   UNL A   1      35.257  31.217  31.614  1.00  0.00    -0.206 F 
ATOM     86  C   UNL A   1      34.426  32.948  30.268  1.00  0.00     0.059 A 
ATOM     87  C   UNL A   1      35.959  34.552  29.281  1.00  0.00     0.059 A 
ATOM     88  F   UNL A   1      38.266  34.332  29.655  1.00  0.00    -0.206 F 
ATOM     89  C   UNL A   1      34.664  34.070  29.473  1.00  0.00     0.060 A 
BRANCH  89  90
ATOM     90  S   UNL A   1      33.253  34.877  28.688  1.00  0.00     0.124 S 
ATOM     91  O   UNL A   1      32.443  35.238  29.848  1.00  0.00    -0.237 OA
ATOM     92  O   UNL A   1      33.890  35.987  27.987  1.00  0.00    -0.237 OA
ATOM     93  O   UNL A   1      32.697  33.833  27.834  1.00  0.00    -0.744 OA
ENDBRANCH  89  90
ENDBRANCH  57  82
BRANCH  69  94
ATOM     94  C   UNL A   1      40.098  32.787  36.849  1.00  0.00     0.058 A 
ATOM     95  C   UNL A   1      39.033  32.479  37.712  1.00  0.00     0.135 A 
ATOM     96  C   UNL A   1      40.892  33.902  37.158  1.00  0.00     0.135 A 
ATOM     97  F   UNL A   1      38.238  31.428  37.459  1.00  0.00    -0.206 F 
ATOM     98  C   UNL A   1      38.747  33.266  38.822  1.00  0.00     0.059 A 
ATOM     99  C   UNL A   1      40.643  34.685  38.282  1.00  0.00     0.059 A 
ATOM    100  F   UNL A   1      41.928  34.233  36.371  1.00  0.00    -0.206 F 
ATOM    101  C   UNL A   1      39.555  34.369  39.097  1.00  0.00     0.060 A 
BRANCH 101 102
ATOM    102  S   UNL A   1      39.168  35.376  40.544  1.00  0.00     0.124 S 
ATOM    103  O   UNL A   1      38.929  36.684  39.944  1.00  0.00    -0.237 OA
ATOM    104  O   UNL A   1      37.991  34.700  41.083  1.00  0.00    -0.237 OA
ATOM    105  O   UNL A   1      40.373  35.272  41.362  1.00  0.00    -0.744 OA
ENDBRANCH 101 102
ENDBRANCH  69  94
ENDBRANCH  43  44
ENDBRANCH  36  38
ENDBRANCH  35  36
ENDBRANCH  34  35
ENDBRANCH  33  34
ENDBRANCH  32  33
ENDBRANCH  31  32
ENDBRANCH  30  31
ENDBRANCH  29  30
ENDBRANCH   1  29
TORSDOF 29
ENDMDL
MODEL 2
REMARK VINA RESULT:      -9.0      1.572      2.675
REMARK SMILES CC(C)(C)[N@H+](CCC(=O)Nc1ccccc1F)CC(=O)OCCOCCOCCOCCOC(=O)c1ccc(-c2c3nc(c(-c4c(F)cc(S(=O)(=O)[O-])cc4F)c4ccc([nH]4)c(-c4c(F)cc(S(=O)(=O)[O-])cc4F)c4nc(c(-c5c(F)cc(S(=O)(=O)[O-])cc5F)c5ccc2[nH]5)C=C4)C=C3)cc1
REMARK SMILES IDX 26 1 25 2 24 3 23 4 22 5 21 6 19 7 20 8 18 9 5 10 2 12 1 13
REMARK SMILES IDX 3 14 4 15 6 16 7 17 8 18 9 19 10 20 11 22 12 23 16 24 13 25
REMARK SMILES IDX 15 26 17 27 14 28 27 29 28 30 29 31 30 32 31 33 32 34 33 35
REMARK SMILES IDX 34 36 35 37 36 38 37 39 101 40 38 41 100 42 39 43 40 44
REMARK SMILES IDX 41 45 94 46 42 47 99 48 93 49 95 50 43 51 98 52 92 53 91 54
REMARK SMILES IDX 44 56 78 57 57 58 77 59 58 60 61 61 76 62 96 63 59 64 60 65
REMARK SMILES IDX 75 67 97 68 62 69 45 70 46 71 55 72 47 73 48 74 54 75 56 76
REMARK SMILES IDX 49 77 50 78 51 79 52 80 53 81 79 82 80 83 89 84 81 85 82 86
REMARK SMILES IDX 88 87 90 88 83 89 84 90 85 91 86 92 87 93 63 94 64 95 73 96
REMARK SMILES IDX 65 97 66 98 72 99 74 100 67 101 68 102 69 103 70 104 71 105
REMARK H PARENT 5 11 10 21 95 55 61 66
REMARK Flexibility Score: inf
ROOT
ATOM      1  C   UNL A   1      38.719  22.146  26.262  1.00  0.00     0.188 C 
ENDROOT
BRANCH   1   2
ATOM      2  C   UNL A   1      37.889  22.328  24.992  1.00  0.00     0.188 C 
BRANCH   2   3
ATOM      3  O   UNL A   1      36.816  21.416  24.873  1.00  0.00    -0.376 OA
BRANCH   3   4
ATOM      4  C   UNL A   1      35.808  21.320  25.883  1.00  0.00     0.202 C 
BRANCH   4   5
ATOM      5  C   UNL A   1      34.527  20.467  25.803  1.00  0.00     0.261 C 
BRANCH   5   6
ATOM      6  O   UNL A   1      34.103  20.099  24.479  1.00  0.00    -0.459 OA
BRANCH   6   7
ATOM      7  C   UNL A   1      32.781  20.300  24.250  1.00  0.00     0.361 C 
ATOM      8  O   UNL A   1      31.904  19.675  24.847  1.00  0.00    -0.245 OA
BRANCH   7   9
ATOM      9  C   UNL A   1      32.434  21.475  23.347  1.00  0.00     0.386 C 
BRANCH   9  10
ATOM     10  N   UNL A   1      32.404  22.826  23.915  1.00  0.00    -0.321 N 
ATOM     11  H   UNL A   1      31.517  23.237  23.622  1.00  0.00     0.349 HD
BRANCH  10  12
ATOM     12  C   UNL A   1      33.440  23.732  23.306  1.00  0.00     0.090 C 
ATOM     13  C   UNL A   1      34.774  23.095  22.851  1.00  0.00     0.078 C 
ATOM     14  C   UNL A   1      33.813  24.670  24.458  1.00  0.00     0.078 C 
ATOM     15  C   UNL A   1      32.977  24.602  22.095  1.00  0.00     0.078 C 
ENDBRANCH  10  12
BRANCH  10  16
ATOM     16  C   UNL A   1      32.254  22.883  25.380  1.00  0.00     0.273 C 
BRANCH  16  17
ATOM     17  C   UNL A   1      30.872  22.681  26.024  1.00  0.00     0.161 C 
BRANCH  17  18
ATOM     18  C   UNL A   1      29.911  23.656  26.728  1.00  0.00     0.230 C 
ATOM     19  O   UNL A   1      29.250  23.179  27.671  1.00  0.00    -0.275 OA
ATOM     20  N   UNL A   1      29.804  25.002  26.627  1.00  0.00    -0.323 N 
ATOM     21  H   UNL A   1      29.376  25.401  27.418  1.00  0.00     0.170 HD
BRANCH  20  22
ATOM     22  C   UNL A   1      30.153  25.965  25.675  1.00  0.00     0.077 A 
ATOM     23  C   UNL A   1      29.399  25.990  24.485  1.00  0.00     0.029 A 
ATOM     24  C   UNL A   1      31.132  26.932  25.867  1.00  0.00     0.146 A 
ATOM     25  C   UNL A   1      29.481  27.082  23.617  1.00  0.00     0.002 A 
ATOM     26  C   UNL A   1      31.278  27.979  24.956  1.00  0.00     0.041 A 
ATOM     27  F   UNL A   1      31.944  26.875  26.930  1.00  0.00    -0.205 F 
ATOM     28  C   UNL A   1      30.416  28.084  23.860  1.00  0.00     0.003 A 
ENDBRANCH  20  22
ENDBRANCH  17  18
ENDBRANCH  16  17
ENDBRANCH  10  16
ENDBRANCH   9  10
ENDBRANCH   7   9
ENDBRANCH   6   7
ENDBRANCH   5   6
ENDBRANCH   4   5
ENDBRANCH   3   4
ENDBRANCH   2   3
ENDBRANCH   1   2
BRANCH   1  29
ATOM     29  O   UNL A   1      40.069  21.785  26.049  1.00  0.00    -0.377 OA
BRANCH  29  30
ATOM     30  C   UNL A   1      40.479  20.456  26.336  1.00  0.00     0.188 C 
BRANCH  30  31
ATOM     31  C   UNL A   1      41.909  20.292  26.839  1.00  0.00     0.188 C 
BRANCH  31  32
ATOM     32  O   UNL A   1      42.964  20.266  25.878  1.00  0.00    -0.376 OA
BRANCH  32  33
ATOM     33  C   UNL A   1      43.851  21.374  25.779  1.00  0.00     0.202 C 
BRANCH  33  34
ATOM     34  C   UNL A   1      43.432  22.493  24.825  1.00  0.00     0.261 C 
BRANCH  34  35
ATOM     35  O   UNL A   1      42.670  23.521  25.477  1.00  0.00    -0.460 OA
BRANCH  35  36
ATOM     36  C   UNL A   1      43.278  24.713  25.594  1.00  0.00     0.338 C 
ATOM     37  O   UNL A   1      44.278  25.098  24.989  1.00  0.00    -0.246 OA
BRANCH  36  38
ATOM     38  C   UNL A   1      42.506  25.588  26.484  1.00  0.00     0.060 A 
ATOM     39  C   UNL A   1      42.675  26.971  26.355  1.00  0.00     0.016 A 
ATOM     40  C   UNL A   1      41.744  25.053  27.526  1.00  0.00     0.016 A 
ATOM     41  C   UNL A   1      42.149  27.826  27.319  1.00  0.00     0.010 A 
ATOM     42  C   UNL A   1      41.227  25.910  28.498  1.00  0.00     0.010 A 
ATOM     43  C   UNL A   1      41.481  27.292  28.426  1.00  0.00    -0.014 A 
BRANCH  43  44
ATOM     44  C   UNL A   1      41.250  28.152  29.610  1.00  0.00     0.031 A 
ATOM     45  C   UNL A   1      42.148  27.978  30.804  1.00  0.00     0.074 A 
ATOM     46  C   UNL A   1      40.294  29.096  29.597  1.00  0.00     0.049 A 
ATOM     47  N   UNL A   1      42.104  28.569  31.969  1.00  0.00    -0.248 NA
ATOM     48  C   UNL A   1      43.249  27.009  30.666  1.00  0.00     0.031 C 
ATOM     49  C   UNL A   1      39.421  29.395  28.464  1.00  0.00     0.029 A 
ATOM     50  N   UNL A   1      39.900  29.977  30.571  1.00  0.00    -0.354 N 
ATOM     51  C   UNL A   1      43.158  28.038  32.702  1.00  0.00     0.074 A 
ATOM     52  C   UNL A   1      43.810  27.057  31.865  1.00  0.00     0.031 C 
ATOM     53  C   UNL A   1      38.586  30.389  28.810  1.00  0.00     0.029 A 
ATOM     54  C   UNL A   1      38.837  30.765  30.201  1.00  0.00     0.049 A 
ATOM     55  H   UNL A   1      40.337  30.039  31.451  1.00  0.00     0.167 HD
ATOM     56  C   UNL A   1      43.549  28.348  33.960  1.00  0.00     0.037 A 
ATOM     57  C   UNL A   1      38.135  31.665  30.915  1.00  0.00     0.037 A 
ATOM     58  C   UNL A   1      42.889  29.333  34.778  1.00  0.00     0.049 A 
ATOM     59  C   UNL A   1      38.529  31.931  32.344  1.00  0.00     0.074 A 
ATOM     60  C   UNL A   1      43.201  29.730  36.065  1.00  0.00     0.029 A 
ATOM     61  N   UNL A   1      41.781  30.072  34.388  1.00  0.00    -0.354 N 
ATOM     62  N   UNL A   1      39.521  31.416  33.034  1.00  0.00    -0.248 NA
ATOM     63  C   UNL A   1      37.712  32.893  33.095  1.00  0.00     0.031 C 
ATOM     64  C   UNL A   1      42.247  30.665  36.475  1.00  0.00     0.029 A 
ATOM     65  C   UNL A   1      41.378  30.900  35.421  1.00  0.00     0.049 A 
ATOM     66  H   UNL A   1      41.346  30.016  33.506  1.00  0.00     0.167 HD
ATOM     67  C   UNL A   1      39.461  32.010  34.291  1.00  0.00     0.074 A 
ATOM     68  C   UNL A   1      38.341  32.930  34.262  1.00  0.00     0.031 C 
ATOM     69  C   UNL A   1      40.261  31.814  35.369  1.00  0.00     0.037 A 
BRANCH  56  70
ATOM     70  C   UNL A   1      44.721  27.605  34.542  1.00  0.00     0.058 A 
ATOM     71  C   UNL A   1      44.520  26.414  35.257  1.00  0.00     0.135 A 
ATOM     72  C   UNL A   1      46.034  28.092  34.442  1.00  0.00     0.135 A 
ATOM     73  F   UNL A   1      43.288  25.895  35.377  1.00  0.00    -0.206 F 
ATOM     74  C   UNL A   1      45.574  25.742  35.867  1.00  0.00     0.059 A 
ATOM     75  C   UNL A   1      47.109  27.420  35.020  1.00  0.00     0.059 A 
ATOM     76  F   UNL A   1      46.288  29.213  33.749  1.00  0.00    -0.206 F 
ATOM     77  C   UNL A   1      46.866  26.254  35.744  1.00  0.00     0.060 A 
BRANCH  77  78
ATOM     78  S   UNL A   1      48.225  25.353  36.520  1.00  0.00     0.124 S 
ATOM     79  O   UNL A   1      48.240  25.927  37.861  1.00  0.00    -0.237 OA
ATOM     80  O   UNL A   1      47.768  23.969  36.423  1.00  0.00    -0.237 OA
ATOM     81  O   UNL A   1      49.374  25.683  35.681  1.00  0.00    -0.744 OA
ENDBRANCH  77  78
ENDBRANCH  56  70
BRANCH  57  82
ATOM     82  C   UNL A   1      36.991  32.375  30.281  1.00  0.00     0.058 A 
ATOM     83  C   UNL A   1      35.674  31.907  30.423  1.00  0.00     0.135 A 
ATOM     84  C   UNL A   1      37.197  33.509  29.484  1.00  0.00     0.135 A 
ATOM     85  F   UNL A   1      35.421  30.822  31.173  1.00  0.00    -0.206 F 
ATOM     86  C   UNL A   1      34.610  32.515  29.768  1.00  0.00     0.059 A 
ATOM     87  C   UNL A   1      36.143  34.153  28.840  1.00  0.00     0.059 A 
ATOM     88  F   UNL A   1      38.435  34.004  29.330  1.00  0.00    -0.206 F 
ATOM     89  C   UNL A   1      34.855  33.635  28.973  1.00  0.00     0.060 A 
BRANCH  89  90
ATOM     90  S   UNL A   1      33.463  34.394  28.110  1.00  0.00     0.124 S 
ATOM     91  O   UNL A   1      32.740  33.218  27.635  1.00  0.00    -0.237 OA
ATOM     92  O   UNL A   1      32.818  35.150  29.178  1.00  0.00    -0.237 OA
ATOM     93  O   UNL A   1      34.104  35.196  27.073  1.00  0.00    -0.744 OA
ENDBRANCH  89  90
ENDBRANCH  57  82
BRANCH  69  94
ATOM     94  C   UNL A   1      39.980  32.620  36.608  1.00  0.00     0.058 A 
ATOM     95  C   UNL A   1      40.774  33.735  36.924  1.00  0.00     0.135 A 
ATOM     96  C   UNL A   1      38.991  32.237  37.528  1.00  0.00     0.135 A 
ATOM     97  F   UNL A   1      41.738  34.140  36.082  1.00  0.00    -0.206 F 
ATOM     98  C   UNL A   1      40.615  34.425  38.120  1.00  0.00     0.059 A 
ATOM     99  C   UNL A   1      38.795  32.933  38.718  1.00  0.00     0.059 A 
ATOM    100  F   UNL A   1      38.200  31.184  37.269  1.00  0.00    -0.206 F 
ATOM    101  C   UNL A   1      39.626  34.014  39.013  1.00  0.00     0.060 A 
BRANCH 101 102
ATOM    102  S   UNL A   1      39.435  34.924  40.560  1.00  0.00     0.124 S 
ATOM    103  O   UNL A   1      38.467  34.101  41.275  1.00  0.00    -0.237 OA
ATOM    104  O   UNL A   1      40.795  34.913  41.092  1.00  0.00    -0.237 OA
ATOM    105  O   UNL A   1      38.949  36.231  40.127  1.00  0.00    -0.744 OA
ENDBRANCH 101 102
ENDBRANCH  69  94
ENDBRANCH  43  44
ENDBRANCH  36  38
ENDBRANCH  35  36
ENDBRANCH  34  35
ENDBRANCH  33  34
ENDBRANCH  32  33
ENDBRANCH  31  32
ENDBRANCH  30  31
ENDBRANCH  29  30
ENDBRANCH   1  29
TORSDOF 29
ENDMDL
MODEL 3
REMARK VINA RESULT:      -8.6      1.736      2.678
REMARK SMILES CC(C)(C)[N@H+](CCC(=O)Nc1ccccc1F)CC(=O)OCCOCCOCCOCCOC(=O)c1ccc(-c2c3nc(c(-c4c(F)cc(S(=O)(=O)[O-])cc4F)c4ccc([nH]4)c(-c4c(F)cc(S(=O)(=O)[O-])cc4F)c4nc(c(-c5c(F)cc(S(=O)(=O)[O-])cc5F)c5ccc2[nH]5)C=C4)C=C3)cc1
REMARK SMILES IDX 26 1 25 2 24 3 23 4 22 5 21 6 19 7 20 8 18 9 5 10 2 12 1 13
REMARK SMILES IDX 3 14 4 15 6 16 7 17 8 18 9 19 10 20 11 22 12 23 16 24 13 25
REMARK SMILES IDX 15 26 17 27 14 28 27 29 28 30 29 31 30 32 31 33 32 34 33 35
REMARK SMILES IDX 34 36 35 37 36 38 37 39 101 40 38 41 100 42 39 43 40 44
REMARK SMILES IDX 41 45 94 46 42 47 99 48 93 49 95 50 43 51 98 52 92 53 91 54
REMARK SMILES IDX 44 56 78 57 57 58 77 59 58 60 61 61 76 62 96 63 59 64 60 65
REMARK SMILES IDX 75 67 97 68 62 69 45 70 46 71 55 72 47 73 48 74 54 75 56 76
REMARK SMILES IDX 49 77 50 78 51 79 52 80 53 81 79 82 80 83 89 84 81 85 82 86
REMARK SMILES IDX 88 87 90 88 83 89 84 90 85 91 86 92 87 93 63 94 64 95 73 96
REMARK SMILES IDX 65 97 66 98 72 99 74 100 67 101 68 102 69 103 70 104 71 105
REMARK H PARENT 5 11 10 21 95 55 61 66
REMARK Flexibility Score: inf
ROOT
ATOM      1  C   UNL A   1      37.923  21.888  26.134  1.00  0.00     0.188 C 
ENDROOT
BRANCH   1   2
ATOM      2  C   UNL A   1      37.551  21.871  24.652  1.00  0.00     0.188 C 
BRANCH   2   3
ATOM      3  O   UNL A   1      36.220  21.472  24.401  1.00  0.00    -0.376 OA
BRANCH   3   4
ATOM      4  C   UNL A   1      35.645  20.343  25.066  1.00  0.00     0.202 C 
BRANCH   4   5
ATOM      5  C   UNL A   1      34.407  19.554  24.598  1.00  0.00     0.261 C 
BRANCH   5   6
ATOM      6  O   UNL A   1      33.285  20.345  24.169  1.00  0.00    -0.459 OA
BRANCH   6   7
ATOM      7  C   UNL A   1      32.496  20.778  25.184  1.00  0.00     0.361 C 
ATOM      8  O   UNL A   1      32.414  20.180  26.257  1.00  0.00    -0.245 OA
BRANCH   7   9
ATOM      9  C   UNL A   1      31.860  22.147  24.995  1.00  0.00     0.386 C 
BRANCH   9  10
ATOM     10  N   UNL A   1      32.681  23.250  24.487  1.00  0.00    -0.321 N 
ATOM     11  H   UNL A   1      33.452  22.818  23.976  1.00  0.00     0.349 HD
BRANCH  10  12
ATOM     12  C   UNL A   1      33.365  24.015  25.588  1.00  0.00     0.090 C 
ATOM     13  C   UNL A   1      33.784  23.234  26.855  1.00  0.00     0.078 C 
ATOM     14  C   UNL A   1      32.288  24.999  26.059  1.00  0.00     0.078 C 
ATOM     15  C   UNL A   1      34.632  24.833  25.184  1.00  0.00     0.078 C 
ENDBRANCH  10  12
BRANCH  10  16
ATOM     16  C   UNL A   1      32.062  24.046  23.414  1.00  0.00     0.273 C 
BRANCH  16  17
ATOM     17  C   UNL A   1      32.884  24.455  22.181  1.00  0.00     0.161 C 
BRANCH  17  18
ATOM     18  C   UNL A   1      32.890  25.735  21.324  1.00  0.00     0.230 C 
ATOM     19  O   UNL A   1      33.155  25.577  20.117  1.00  0.00    -0.275 OA
ATOM     20  N   UNL A   1      32.460  26.984  21.620  1.00  0.00    -0.323 N 
ATOM     21  H   UNL A   1      32.251  27.506  20.811  1.00  0.00     0.170 HD
BRANCH  20  22
ATOM     22  C   UNL A   1      32.239  27.717  22.790  1.00  0.00     0.077 A 
ATOM     23  C   UNL A   1      30.906  27.820  23.236  1.00  0.00     0.029 A 
ATOM     24  C   UNL A   1      33.249  28.271  23.566  1.00  0.00     0.146 A 
ATOM     25  C   UNL A   1      30.624  28.276  24.527  1.00  0.00     0.002 A 
ATOM     26  C   UNL A   1      32.960  28.808  24.822  1.00  0.00     0.041 A 
ATOM     27  F   UNL A   1      34.513  28.293  23.123  1.00  0.00    -0.205 F 
ATOM     28  C   UNL A   1      31.656  28.761  25.325  1.00  0.00     0.003 A 
ENDBRANCH  20  22
ENDBRANCH  17  18
ENDBRANCH  16  17
ENDBRANCH  10  16
ENDBRANCH   9  10
ENDBRANCH   7   9
ENDBRANCH   6   7
ENDBRANCH   5   6
ENDBRANCH   4   5
ENDBRANCH   3   4
ENDBRANCH   2   3
ENDBRANCH   1   2
BRANCH   1  29
ATOM     29  O   UNL A   1      39.283  22.163  26.407  1.00  0.00    -0.377 OA
BRANCH  29  30
ATOM     30  C   UNL A   1      40.252  21.152  26.167  1.00  0.00     0.188 C 
BRANCH  30  31
ATOM     31  C   UNL A   1      41.696  21.522  26.485  1.00  0.00     0.188 C 
BRANCH  31  32
ATOM     32  O   UNL A   1      42.687  21.301  25.482  1.00  0.00    -0.376 OA
BRANCH  32  33
ATOM     33  C   UNL A   1      43.552  22.364  25.103  1.00  0.00     0.202 C 
BRANCH  33  34
ATOM     34  C   UNL A   1      42.914  23.750  24.999  1.00  0.00     0.261 C 
BRANCH  34  35
ATOM     35  O   UNL A   1      43.261  24.605  26.100  1.00  0.00    -0.460 OA
BRANCH  35  36
ATOM     36  C   UNL A   1      42.828  25.873  26.013  1.00  0.00     0.338 C 
ATOM     37  O   UNL A   1      42.390  26.441  25.013  1.00  0.00    -0.246 OA
BRANCH  36  38
ATOM     38  C   UNL A   1      42.825  26.497  27.342  1.00  0.00     0.060 A 
ATOM     39  C   UNL A   1      41.752  26.220  28.196  1.00  0.00     0.016 A 
ATOM     40  C   UNL A   1      43.784  27.454  27.682  1.00  0.00     0.016 A 
ATOM     41  C   UNL A   1      41.587  26.960  29.362  1.00  0.00     0.010 A 
ATOM     42  C   UNL A   1      43.610  28.204  28.846  1.00  0.00     0.010 A 
ATOM     43  C   UNL A   1      42.479  27.998  29.655  1.00  0.00    -0.014 A 
BRANCH  43  44
ATOM     44  C   UNL A   1      42.103  29.002  30.676  1.00  0.00     0.031 A 
ATOM     45  C   UNL A   1      42.980  29.147  31.890  1.00  0.00     0.074 A 
ATOM     46  C   UNL A   1      41.034  29.797  30.499  1.00  0.00     0.049 A 
ATOM     47  N   UNL A   1      42.825  29.911  32.940  1.00  0.00    -0.248 NA
ATOM     48  C   UNL A   1      44.201  28.323  31.924  1.00  0.00     0.031 C 
ATOM     49  C   UNL A   1      40.164  29.788  29.324  1.00  0.00     0.029 A 
ATOM     50  N   UNL A   1      40.502  30.766  31.308  1.00  0.00    -0.354 N 
ATOM     51  C   UNL A   1      43.917  29.651  33.760  1.00  0.00     0.074 A 
ATOM     52  C   UNL A   1      44.714  28.641  33.103  1.00  0.00     0.031 C 
ATOM     53  C   UNL A   1      39.199  30.707  29.492  1.00  0.00     0.029 A 
ATOM     54  C   UNL A   1      39.358  31.336  30.803  1.00  0.00     0.049 A 
ATOM     55  H   UNL A   1      40.900  31.030  32.170  1.00  0.00     0.167 HD
ATOM     56  C   UNL A   1      44.226  30.213  34.952  1.00  0.00     0.037 A 
ATOM     57  C   UNL A   1      38.524  32.241  31.351  1.00  0.00     0.037 A 
ATOM     58  C   UNL A   1      43.421  31.222  35.588  1.00  0.00     0.049 A 
ATOM     59  C   UNL A   1      38.838  32.787  32.720  1.00  0.00     0.074 A 
ATOM     60  C   UNL A   1      43.641  31.863  36.793  1.00  0.00     0.029 A 
ATOM     61  N   UNL A   1      42.239  31.735  35.071  1.00  0.00    -0.354 N 
ATOM     62  N   UNL A   1      39.866  32.528  33.494  1.00  0.00    -0.248 NA
ATOM     63  C   UNL A   1      37.881  33.743  33.293  1.00  0.00     0.031 C 
ATOM     64  C   UNL A   1      42.562  32.718  37.034  1.00  0.00     0.029 A 
ATOM     65  C   UNL A   1      41.702  32.661  35.948  1.00  0.00     0.049 A 
ATOM     66  H   UNL A   1      41.841  31.477  34.208  1.00  0.00     0.167 HD
ATOM     67  C   UNL A   1      39.693  33.307  34.633  1.00  0.00     0.074 A 
ATOM     68  C   UNL A   1      38.466  34.054  34.442  1.00  0.00     0.031 C 
ATOM     69  C   UNL A   1      40.479  33.398  35.736  1.00  0.00     0.037 A 
BRANCH  56  70
ATOM     70  C   UNL A   1      45.466  29.737  35.659  1.00  0.00     0.058 A 
ATOM     71  C   UNL A   1      45.412  28.621  36.511  1.00  0.00     0.135 A 
ATOM     72  C   UNL A   1      46.694  30.407  35.541  1.00  0.00     0.135 A 
ATOM     73  F   UNL A   1      44.268  27.934  36.655  1.00  0.00    -0.206 F 
ATOM     74  C   UNL A   1      46.524  28.200  37.233  1.00  0.00     0.059 A 
ATOM     75  C   UNL A   1      47.828  29.986  36.232  1.00  0.00     0.059 A 
ATOM     76  F   UNL A   1      46.810  31.465  34.722  1.00  0.00    -0.206 F 
ATOM     77  C   UNL A   1      47.727  28.890  37.088  1.00  0.00     0.060 A 
BRANCH  77  78
ATOM     78  S   UNL A   1      49.166  28.311  38.014  1.00  0.00     0.124 S 
ATOM     79  O   UNL A   1      48.545  27.535  39.082  1.00  0.00    -0.237 OA
ATOM     80  O   UNL A   1      49.888  27.542  37.004  1.00  0.00    -0.237 OA
ATOM     81  O   UNL A   1      49.820  29.547  38.432  1.00  0.00    -0.744 OA
ENDBRANCH  77  78
ENDBRANCH  56  70
BRANCH  57  82
ATOM     82  C   UNL A   1      37.318  32.679  30.599  1.00  0.00     0.058 A 
ATOM     83  C   UNL A   1      37.391  33.694  29.631  1.00  0.00     0.135 A 
ATOM     84  C   UNL A   1      36.059  32.124  30.866  1.00  0.00     0.135 A 
ATOM     85  F   UNL A   1      38.572  34.263  29.339  1.00  0.00    -0.206 F 
ATOM     86  C   UNL A   1      36.256  34.167  28.983  1.00  0.00     0.059 A 
ATOM     87  C   UNL A   1      34.911  32.560  30.210  1.00  0.00     0.059 A 
ATOM     88  F   UNL A   1      35.939  31.140  31.772  1.00  0.00    -0.206 F 
ATOM     89  C   UNL A   1      35.019  33.597  29.283  1.00  0.00     0.060 A 
BRANCH  89  90
ATOM     90  S   UNL A   1      33.554  34.244  28.450  1.00  0.00     0.124 S 
ATOM     91  O   UNL A   1      32.716  34.620  29.585  1.00  0.00    -0.237 OA
ATOM     92  O   UNL A   1      34.108  35.348  27.674  1.00  0.00    -0.237 OA
ATOM     93  O   UNL A   1      33.078  33.107  27.669  1.00  0.00    -0.744 OA
ENDBRANCH  89  90
ENDBRANCH  57  82
BRANCH  69  94
ATOM     94  C   UNL A   1      40.059  34.353  36.820  1.00  0.00     0.058 A 
ATOM     95  C   UNL A   1      40.690  35.602  36.948  1.00  0.00     0.135 A 
ATOM     96  C   UNL A   1      39.105  33.997  37.787  1.00  0.00     0.135 A 
ATOM     97  F   UNL A   1      41.615  35.988  36.056  1.00  0.00    -0.206 F 
ATOM     98  C   UNL A   1      40.408  36.452  38.011  1.00  0.00     0.059 A 
ATOM     99  C   UNL A   1      38.786  34.847  38.842  1.00  0.00     0.059 A 
ATOM    100  F   UNL A   1      38.467  32.819  37.704  1.00  0.00    -0.206 F 
ATOM    101  C   UNL A   1      39.457  36.065  38.955  1.00  0.00     0.060 A 
BRANCH 101 102
ATOM    102  S   UNL A   1      39.105  37.184  40.327  1.00  0.00     0.124 S 
ATOM    103  O   UNL A   1      40.422  37.751  40.597  1.00  0.00    -0.237 OA
ATOM    104  O   UNL A   1      38.130  38.096  39.736  1.00  0.00    -0.237 OA
ATOM    105  O   UNL A   1      38.579  36.298  41.361  1.00  0.00    -0.744 OA
ENDBRANCH 101 102
ENDBRANCH  69  94
ENDBRANCH  43  44
ENDBRANCH  36  38
ENDBRANCH  35  36
ENDBRANCH  34  35
ENDBRANCH  33  34
ENDBRANCH  32  33
ENDBRANCH  31  32
ENDBRANCH  30  31
ENDBRANCH  29  30
ENDBRANCH   1  29
TORSDOF 29
ENDMDL
