MODEL 1
REMARK VINA RESULT:      -9.4      0.000      0.000
REMARK SMILES Cc1cccc(O[C@H](C)C(=O)N2CCC[C@@H](C(=O)OCCOCCOCCOCCOC(=O)c3ccc(-c4c5nc(c(-c6c(F)cc(S(=O)(=O)[O-])cc6F)c6ccc([nH]6)c(-c6c(F)cc(S(=O)(=O)[O-])cc6F)c6nc(c(-c7c(F)cc(S(=O)(=O)[O-])cc7F)c7ccc4[nH]7)C=C6)C=C5)cc3)C2)c1
REMARK SMILES IDX 24 1 23 2 22 3 21 4 20 5 19 6 17 7 18 8 16 9 12 10 13 11
REMARK SMILES IDX 100 12 14 13 15 14 10 15 11 16 8 17 9 18 7 19 6 20 1 21 2 22
REMARK SMILES IDX 3 23 101 24 4 25 5 26 25 27 26 28 27 29 28 30 29 31 30 32
REMARK SMILES IDX 31 33 32 34 33 35 34 36 35 37 99 38 36 39 98 40 37 41 38 42
REMARK SMILES IDX 39 43 92 44 40 45 97 46 91 47 93 48 41 49 96 50 90 51 89 52
REMARK SMILES IDX 42 54 76 55 55 56 75 57 56 58 59 59 74 60 94 61 57 62 58 63
REMARK SMILES IDX 73 65 95 66 60 67 43 68 44 69 53 70 45 71 46 72 52 73 54 74
REMARK SMILES IDX 47 75 48 76 49 77 50 78 51 79 77 80 78 81 87 82 79 83 80 84
REMARK SMILES IDX 86 85 88 86 81 87 82 88 83 89 84 90 85 91 61 92 62 93 71 94
REMARK SMILES IDX 63 95 64 96 70 97 72 98 65 99 66 100 67 101 68 102 69 103
REMARK H PARENT 93 53 59 64
REMARK Flexibility Score: inf
ROOT
ATOM      1  C   UNL A   1      41.370  23.606  27.653  1.00  0.00     0.188 C 
ENDROOT
BRANCH   1   2
ATOM      2  C   UNL A   1      40.007  23.409  26.893  1.00  0.00     0.188 C 
BRANCH   2   3
ATOM      3  O   UNL A   1      39.298  22.086  26.677  1.00  0.00    -0.376 OA
BRANCH   3   4
ATOM      4  C   UNL A   1      38.489  21.482  25.456  1.00  0.00     0.202 C 
BRANCH   4   5
ATOM      5  C   UNL A   1      37.700  19.901  24.952  1.00  0.00     0.261 C 
BRANCH   5   6
ATOM      6  O   UNL A   1      35.976  19.359  24.646  1.00  0.00    -0.463 OA
BRANCH   6   7
ATOM      7  C   UNL A   1      34.476  19.638  24.820  1.00  0.00     0.310 C 
ATOM      8  O   UNL A   1      33.660  18.860  24.301  1.00  0.00    -0.252 OA
BRANCH   7   9
ATOM      9  C   UNL A   1      33.705  21.071  25.557  1.00  0.00     0.119 C 
ATOM     10  N   UNL A   1      31.929  22.920  26.228  1.00  0.00    -0.339 N 
ATOM     11  C   UNL A   1      32.647  23.178  27.468  1.00  0.00     0.119 C 
ATOM     12  C   UNL A   1      32.138  21.577  25.655  1.00  0.00     0.134 C 
ATOM     13  C   UNL A   1      34.125  22.823  27.385  1.00  0.00     0.022 C 
ATOM     14  C   UNL A   1      34.386  21.388  26.917  1.00  0.00     0.019 C 
BRANCH  10  15
ATOM     15  C   UNL A   1      30.896  23.811  25.944  1.00  0.00     0.263 C 
ATOM     16  O   UNL A   1      29.924  23.833  26.723  1.00  0.00    -0.271 OA
BRANCH  15  17
ATOM     17  C   UNL A   1      30.801  24.739  24.650  1.00  0.00     0.259 C 
ATOM     18  C   UNL A   1      30.581  23.821  23.441  1.00  0.00     0.064 C 
BRANCH  17  19
ATOM     19  O   UNL A   1      30.041  25.950  24.684  1.00  0.00    -0.481 OA
BRANCH  19  20
ATOM     20  C   UNL A   1      30.671  27.187  24.666  1.00  0.00     0.120 A 
ATOM     21  C   UNL A   1      32.536  29.363  27.233  1.00  0.00     0.044 C 
ATOM     22  C   UNL A   1      31.753  28.937  26.024  1.00  0.00    -0.047 A 
ATOM     23  C   UNL A   1      31.314  29.915  25.128  1.00  0.00     0.003 A 
ATOM     24  C   UNL A   1      31.421  27.577  25.790  1.00  0.00     0.049 A 
ATOM     25  C   UNL A   1      30.635  29.533  23.982  1.00  0.00     0.004 A 
ATOM     26  C   UNL A   1      30.354  28.180  23.740  1.00  0.00     0.046 A 
ENDBRANCH  19  20
ENDBRANCH  17  19
ENDBRANCH  15  17
ENDBRANCH  10  15
ENDBRANCH   7   9
ENDBRANCH   6   7
ENDBRANCH   5   6
ENDBRANCH   4   5
ENDBRANCH   3   4
ENDBRANCH   2   3
ENDBRANCH   1   2
BRANCH   1  27
ATOM     27  O   UNL A   1      42.082  24.774  27.356  1.00  0.00    -0.377 OA
BRANCH  27  28
ATOM     28  C   UNL A   1      41.757  25.358  26.106  1.00  0.00     0.188 C 
BRANCH  28  29
ATOM     29  C   UNL A   1      41.460  26.864  26.154  1.00  0.00     0.188 C 
BRANCH  29  30
ATOM     30  O   UNL A   1      40.690  27.241  27.303  1.00  0.00    -0.376 OA
BRANCH  30  31
ATOM     31  C   UNL A   1      40.116  28.545  27.213  1.00  0.00     0.202 C 
BRANCH  31  32
ATOM     32  C   UNL A   1      39.079  28.777  28.317  1.00  0.00     0.261 C 
BRANCH  32  33
ATOM     33  O   UNL A   1      39.002  30.183  28.623  1.00  0.00    -0.460 OA
BRANCH  33  34
ATOM     34  C   UNL A   1      38.706  30.461  29.921  1.00  0.00     0.338 C 
ATOM     35  O   UNL A   1      37.583  30.533  30.379  1.00  0.00    -0.246 OA
BRANCH  34  36
ATOM     36  C   UNL A   1      39.969  30.848  30.620  1.00  0.00     0.060 A 
ATOM     37  C   UNL A   1      41.044  31.290  29.867  1.00  0.00     0.016 A 
ATOM     38  C   UNL A   1      40.179  30.530  31.969  1.00  0.00     0.016 A 
ATOM     39  C   UNL A   1      42.333  31.202  30.416  1.00  0.00     0.010 A 
ATOM     40  C   UNL A   1      41.472  30.298  32.453  1.00  0.00     0.010 A 
ATOM     41  C   UNL A   1      42.585  30.494  31.628  1.00  0.00    -0.014 A 
BRANCH  41  42
ATOM     42  C   UNL A   1      44.016  29.928  32.167  1.00  0.00     0.031 A 
ATOM     43  C   UNL A   1      43.662  28.300  31.466  1.00  0.00     0.074 A 
ATOM     44  C   UNL A   1      45.180  30.450  33.229  1.00  0.00     0.049 A 
ATOM     45  N   UNL A   1      44.014  27.127  31.940  1.00  0.00    -0.248 NA
ATOM     46  C   UNL A   1      42.661  27.997  30.392  1.00  0.00     0.031 C 
ATOM     47  C   UNL A   1      46.680  29.874  33.750  1.00  0.00     0.029 A 
ATOM     48  N   UNL A   1      45.225  31.287  34.473  1.00  0.00    -0.354 N 
ATOM     49  C   UNL A   1      43.949  26.219  30.940  1.00  0.00     0.074 A 
ATOM     50  C   UNL A   1      42.793  26.667  30.234  1.00  0.00     0.031 C 
ATOM     51  C   UNL A   1      47.207  30.344  34.874  1.00  0.00     0.029 A 
ATOM     52  C   UNL A   1      46.089  30.845  35.526  1.00  0.00     0.049 A 
ATOM     53  H   UNL A   1      44.684  32.104  34.562  1.00  0.00     0.167 HD
ATOM     54  C   UNL A   1      45.064  25.481  30.645  1.00  0.00     0.037 A 
ATOM     55  C   UNL A   1      45.779  30.340  36.764  1.00  0.00     0.037 A 
ATOM     56  C   UNL A   1      46.114  25.510  31.734  1.00  0.00     0.049 A 
ATOM     57  C   UNL A   1      46.262  28.835  36.917  1.00  0.00     0.074 A 
ATOM     58  C   UNL A   1      47.461  25.848  31.738  1.00  0.00     0.029 A 
ATOM     59  N   UNL A   1      45.789  25.388  33.110  1.00  0.00    -0.354 N 
ATOM     60  N   UNL A   1      46.629  28.055  35.910  1.00  0.00    -0.248 NA
ATOM     61  C   UNL A   1      46.412  28.114  38.176  1.00  0.00     0.031 C 
ATOM     62  C   UNL A   1      47.885  26.079  33.091  1.00  0.00     0.029 A 
ATOM     63  C   UNL A   1      46.837  25.800  33.961  1.00  0.00     0.049 A 
ATOM     64  H   UNL A   1      44.923  25.052  33.437  1.00  0.00     0.167 HD
ATOM     65  C   UNL A   1      46.768  26.745  36.297  1.00  0.00     0.074 A 
ATOM     66  C   UNL A   1      46.792  26.888  37.752  1.00  0.00     0.031 C 
ATOM     67  C   UNL A   1      46.775  25.647  35.447  1.00  0.00     0.037 A 
BRANCH  54  68
ATOM     68  C   UNL A   1      45.304  25.021  29.180  1.00  0.00     0.058 A 
ATOM     69  C   UNL A   1      45.700  25.919  28.168  1.00  0.00     0.135 A 
ATOM     70  C   UNL A   1      45.079  23.701  28.691  1.00  0.00     0.135 A 
ATOM     71  F   UNL A   1      45.894  27.217  28.443  1.00  0.00    -0.206 F 
ATOM     72  C   UNL A   1      45.898  25.530  26.821  1.00  0.00     0.059 A 
ATOM     73  C   UNL A   1      45.336  23.280  27.386  1.00  0.00     0.059 A 
ATOM     74  F   UNL A   1      44.518  22.731  29.417  1.00  0.00    -0.206 F 
ATOM     75  C   UNL A   1      45.733  24.200  26.444  1.00  0.00     0.060 A 
BRANCH  75  76
ATOM     76  S   UNL A   1      46.024  23.645  24.752  1.00  0.00     0.124 S 
ATOM     77  O   UNL A   1      44.697  23.764  24.159  1.00  0.00    -0.237 OA
ATOM     78  O   UNL A   1      47.026  24.590  24.272  1.00  0.00    -0.237 OA
ATOM     79  O   UNL A   1      46.508  22.275  24.924  1.00  0.00    -0.744 OA
ENDBRANCH  75  76
ENDBRANCH  54  68
BRANCH  55  80
ATOM     80  C   UNL A   1      44.671  31.074  37.460  1.00  0.00     0.058 A 
ATOM     81  C   UNL A   1      45.012  32.311  38.061  1.00  0.00     0.135 A 
ATOM     82  C   UNL A   1      43.307  30.832  37.284  1.00  0.00     0.135 A 
ATOM     83  F   UNL A   1      46.295  32.558  38.375  1.00  0.00    -0.206 F 
ATOM     84  C   UNL A   1      44.091  33.340  38.245  1.00  0.00     0.059 A 
ATOM     85  C   UNL A   1      42.357  31.853  37.458  1.00  0.00     0.059 A 
ATOM     86  F   UNL A   1      42.887  29.655  36.792  1.00  0.00    -0.206 F 
ATOM     87  C   UNL A   1      42.769  33.122  37.884  1.00  0.00     0.060 A 
BRANCH  87  88
ATOM     88  S   UNL A   1      41.597  34.503  37.830  1.00  0.00     0.124 S 
ATOM     89  O   UNL A   1      40.908  34.268  36.566  1.00  0.00    -0.237 OA
ATOM     90  O   UNL A   1      40.771  34.318  39.021  1.00  0.00    -0.237 OA
ATOM     91  O   UNL A   1      42.478  35.667  37.869  1.00  0.00    -0.744 OA
ENDBRANCH  87  88
ENDBRANCH  55  80
BRANCH  67  92
ATOM     92  C   UNL A   1      46.801  24.213  35.974  1.00  0.00     0.058 A 
ATOM     93  C   UNL A   1      47.980  23.506  36.271  1.00  0.00     0.135 A 
ATOM     94  C   UNL A   1      45.598  23.533  36.291  1.00  0.00     0.135 A 
ATOM     95  F   UNL A   1      49.185  24.085  36.165  1.00  0.00    -0.206 F 
ATOM     96  C   UNL A   1      47.973  22.188  36.729  1.00  0.00     0.059 A 
ATOM     97  C   UNL A   1      45.568  22.243  36.820  1.00  0.00     0.059 A 
ATOM     98  F   UNL A   1      44.399  24.097  36.093  1.00  0.00    -0.206 F 
ATOM     99  C   UNL A   1      46.761  21.560  36.995  1.00  0.00     0.060 A 
BRANCH  99 100
ATOM    100  S   UNL A   1      46.746  19.868  37.613  1.00  0.00     0.124 S 
ATOM    101  O   UNL A   1      46.072  19.167  36.526  1.00  0.00    -0.237 OA
ATOM    102  O   UNL A   1      48.163  19.566  37.777  1.00  0.00    -0.237 OA
ATOM    103  O   UNL A   1      45.989  19.978  38.860  1.00  0.00    -0.744 OA
ENDBRANCH  99 100
ENDBRANCH  67  92
ENDBRANCH  41  42
ENDBRANCH  34  36
ENDBRANCH  33  34
ENDBRANCH  32  33
ENDBRANCH  31  32
ENDBRANCH  30  31
ENDBRANCH  29  30
ENDBRANCH  28  29
ENDBRANCH  27  28
ENDBRANCH   1  27
TORSDOF 27
ENDMDL
MODEL 2
REMARK VINA RESULT:      -9.0      4.233      9.090
REMARK SMILES Cc1cccc(O[C@H](C)C(=O)N2CCC[C@@H](C(=O)OCCOCCOCCOCCOC(=O)c3ccc(-c4c5nc(c(-c6c(F)cc(S(=O)(=O)[O-])cc6F)c6ccc([nH]6)c(-c6c(F)cc(S(=O)(=O)[O-])cc6F)c6nc(c(-c7c(F)cc(S(=O)(=O)[O-])cc7F)c7ccc4[nH]7)C=C6)C=C5)cc3)C2)c1
REMARK SMILES IDX 24 1 23 2 22 3 21 4 20 5 19 6 17 7 18 8 16 9 12 10 13 11
REMARK SMILES IDX 100 12 14 13 15 14 10 15 11 16 8 17 9 18 7 19 6 20 1 21 2 22
REMARK SMILES IDX 3 23 101 24 4 25 5 26 25 27 26 28 27 29 28 30 29 31 30 32
REMARK SMILES IDX 31 33 32 34 33 35 34 36 35 37 99 38 36 39 98 40 37 41 38 42
REMARK SMILES IDX 39 43 92 44 40 45 97 46 91 47 93 48 41 49 96 50 90 51 89 52
REMARK SMILES IDX 42 54 76 55 55 56 75 57 56 58 59 59 74 60 94 61 57 62 58 63
REMARK SMILES IDX 73 65 95 66 60 67 43 68 44 69 53 70 45 71 46 72 52 73 54 74
REMARK SMILES IDX 47 75 48 76 49 77 50 78 51 79 77 80 78 81 87 82 79 83 80 84
REMARK SMILES IDX 86 85 88 86 81 87 82 88 83 89 84 90 85 91 61 92 62 93 71 94
REMARK SMILES IDX 63 95 64 96 70 97 72 98 65 99 66 100 67 101 68 102 69 103
REMARK H PARENT 93 53 59 64
REMARK Flexibility Score: inf
ROOT
ATOM      1  C   UNL A   1      44.039  27.910  26.085  1.00  0.00     0.188 C 
ENDROOT
BRANCH   1   2
ATOM      2  C   UNL A   1      44.386  27.764  27.612  1.00  0.00     0.188 C 
BRANCH   2   3
ATOM      3  O   UNL A   1      43.384  27.757  28.750  1.00  0.00    -0.376 OA
BRANCH   3   4
ATOM      4  C   UNL A   1      41.800  27.808  28.794  1.00  0.00     0.202 C 
BRANCH   4   5
ATOM      5  C   UNL A   1      40.384  28.143  27.672  1.00  0.00     0.261 C 
BRANCH   5   6
ATOM      6  O   UNL A   1      38.853  29.143  27.790  1.00  0.00    -0.463 OA
BRANCH   6   7
ATOM      7  C   UNL A   1      37.523  29.403  28.513  1.00  0.00     0.310 C 
ATOM      8  O   UNL A   1      37.449  29.165  29.729  1.00  0.00    -0.252 OA
BRANCH   7   9
ATOM      9  C   UNL A   1      35.955  29.864  27.794  1.00  0.00     0.119 C 
ATOM     10  N   UNL A   1      33.609  29.758  26.565  1.00  0.00    -0.339 N 
ATOM     11  C   UNL A   1      33.167  30.947  27.279  1.00  0.00     0.119 C 
ATOM     12  C   UNL A   1      34.674  28.988  27.236  1.00  0.00     0.134 C 
ATOM     13  C   UNL A   1      34.318  31.840  27.719  1.00  0.00     0.022 C 
ATOM     14  C   UNL A   1      35.387  31.106  28.535  1.00  0.00     0.019 C 
BRANCH  10  15
ATOM     15  C   UNL A   1      32.754  29.319  25.556  1.00  0.00     0.263 C 
ATOM     16  O   UNL A   1      31.534  29.305  25.800  1.00  0.00    -0.271 OA
BRANCH  15  17
ATOM     17  C   UNL A   1      33.211  28.738  24.141  1.00  0.00     0.259 C 
ATOM     18  C   UNL A   1      33.614  27.274  24.355  1.00  0.00     0.064 C 
BRANCH  17  19
ATOM     19  O   UNL A   1      32.456  29.031  22.963  1.00  0.00    -0.481 OA
BRANCH  19  20
ATOM     20  C   UNL A   1      31.154  28.572  22.819  1.00  0.00     0.120 A 
ATOM     21  C   UNL A   1      27.655  30.173  22.833  1.00  0.00     0.044 C 
ATOM     22  C   UNL A   1      28.764  29.167  22.942  1.00  0.00    -0.047 A 
ATOM     23  C   UNL A   1      28.451  27.861  23.330  1.00  0.00     0.003 A 
ATOM     24  C   UNL A   1      30.118  29.515  22.695  1.00  0.00     0.049 A 
ATOM     25  C   UNL A   1      29.456  26.908  23.387  1.00  0.00     0.004 A 
ATOM     26  C   UNL A   1      30.783  27.257  23.094  1.00  0.00     0.046 A 
ENDBRANCH  19  20
ENDBRANCH  17  19
ENDBRANCH  15  17
ENDBRANCH  10  15
ENDBRANCH   7   9
ENDBRANCH   6   7
ENDBRANCH   5   6
ENDBRANCH   4   5
ENDBRANCH   3   4
ENDBRANCH   2   3
ENDBRANCH   1   2
BRANCH   1  27
ATOM     27  O   UNL A   1      44.800  27.137  25.201  1.00  0.00    -0.377 OA
BRANCH  27  28
ATOM     28  C   UNL A   1      44.751  25.742  25.448  1.00  0.00     0.188 C 
BRANCH  28  29
ATOM     29  C   UNL A   1      46.020  24.972  25.055  1.00  0.00     0.188 C 
BRANCH  29  30
ATOM     30  O   UNL A   1      46.877  25.721  24.184  1.00  0.00    -0.376 OA
BRANCH  30  31
ATOM     31  C   UNL A   1      48.140  26.055  24.759  1.00  0.00     0.202 C 
BRANCH  31  32
ATOM     32  C   UNL A   1      48.445  25.184  25.983  1.00  0.00     0.261 C 
BRANCH  32  33
ATOM     33  O   UNL A   1      48.911  26.015  27.065  1.00  0.00    -0.460 OA
BRANCH  33  34
ATOM     34  C   UNL A   1      49.227  25.335  28.200  1.00  0.00     0.338 C 
ATOM     35  O   UNL A   1      49.971  24.377  28.254  1.00  0.00    -0.246 OA
BRANCH  34  36
ATOM     36  C   UNL A   1      48.362  25.842  29.309  1.00  0.00     0.060 A 
ATOM     37  C   UNL A   1      48.961  26.305  30.469  1.00  0.00     0.016 A 
ATOM     38  C   UNL A   1      46.979  25.620  29.310  1.00  0.00     0.016 A 
ATOM     39  C   UNL A   1      48.207  26.331  31.652  1.00  0.00     0.010 A 
ATOM     40  C   UNL A   1      46.278  25.499  30.516  1.00  0.00     0.010 A 
ATOM     41  C   UNL A   1      46.925  25.714  31.738  1.00  0.00    -0.014 A 
BRANCH  41  42
ATOM     42  C   UNL A   1      46.124  25.273  33.088  1.00  0.00     0.031 A 
ATOM     43  C   UNL A   1      45.601  26.980  33.364  1.00  0.00     0.074 A 
ATOM     44  C   UNL A   1      46.075  23.926  34.058  1.00  0.00     0.049 A 
ATOM     45  N   UNL A   1      45.424  27.592  34.513  1.00  0.00    -0.248 NA
ATOM     46  C   UNL A   1      45.567  28.072  32.338  1.00  0.00     0.031 C 
ATOM     47  C   UNL A   1      45.210  23.464  35.433  1.00  0.00     0.029 A 
ATOM     48  N   UNL A   1      47.023  22.834  34.458  1.00  0.00    -0.354 N 
ATOM     49  C   UNL A   1      44.637  28.672  34.311  1.00  0.00     0.074 A 
ATOM     50  C   UNL A   1      45.104  29.122  33.040  1.00  0.00     0.031 C 
ATOM     51  C   UNL A   1      45.656  22.462  36.181  1.00  0.00     0.029 A 
ATOM     52  C   UNL A   1      46.997  22.415  35.826  1.00  0.00     0.049 A 
ATOM     53  H   UNL A   1      47.637  22.424  33.807  1.00  0.00     0.167 HD
ATOM     54  C   UNL A   1      43.485  28.796  35.042  1.00  0.00     0.037 A 
ATOM     55  C   UNL A   1      47.935  22.581  36.815  1.00  0.00     0.037 A 
ATOM     56  C   UNL A   1      43.440  27.894  36.256  1.00  0.00     0.049 A 
ATOM     57  C   UNL A   1      47.387  23.494  37.992  1.00  0.00     0.074 A 
ATOM     58  C   UNL A   1      42.527  26.941  36.691  1.00  0.00     0.029 A 
ATOM     59  N   UNL A   1      44.556  27.715  37.115  1.00  0.00    -0.354 N 
ATOM     60  N   UNL A   1      46.305  24.257  37.913  1.00  0.00    -0.248 NA
ATOM     61  C   UNL A   1      47.961  23.594  39.328  1.00  0.00     0.031 C 
ATOM     62  C   UNL A   1      43.152  26.109  37.682  1.00  0.00     0.029 A 
ATOM     63  C   UNL A   1      44.431  26.583  37.949  1.00  0.00     0.049 A 
ATOM     64  H   UNL A   1      45.334  28.317  37.127  1.00  0.00     0.167 HD
ATOM     65  C   UNL A   1      46.199  25.112  38.981  1.00  0.00     0.074 A 
ATOM     66  C   UNL A   1      47.165  24.520  39.906  1.00  0.00     0.031 C 
ATOM     67  C   UNL A   1      45.421  26.262  39.023  1.00  0.00     0.037 A 
BRANCH  54  68
ATOM     68  C   UNL A   1      42.259  29.512  34.411  1.00  0.00     0.058 A 
ATOM     69  C   UNL A   1      41.411  28.871  33.484  1.00  0.00     0.135 A 
ATOM     70  C   UNL A   1      41.911  30.878  34.625  1.00  0.00     0.135 A 
ATOM     71  F   UNL A   1      41.635  27.600  33.119  1.00  0.00    -0.206 F 
ATOM     72  C   UNL A   1      40.305  29.511  32.875  1.00  0.00     0.059 A 
ATOM     73  C   UNL A   1      40.786  31.507  34.092  1.00  0.00     0.059 A 
ATOM     74  F   UNL A   1      42.675  31.735  35.307  1.00  0.00    -0.206 F 
ATOM     75  C   UNL A   1      39.988  30.826  33.202  1.00  0.00     0.060 A 
BRANCH  75  76
ATOM     76  S   UNL A   1      38.558  31.668  32.494  1.00  0.00     0.124 S 
ATOM     77  O   UNL A   1      38.943  31.796  31.092  1.00  0.00    -0.237 OA
ATOM     78  O   UNL A   1      37.468  30.740  32.775  1.00  0.00    -0.237 OA
ATOM     79  O   UNL A   1      38.501  32.925  33.240  1.00  0.00    -0.744 OA
ENDBRANCH  75  76
ENDBRANCH  54  68
BRANCH  55  80
ATOM     80  C   UNL A   1      49.343  22.329  36.364  1.00  0.00     0.058 A 
ATOM     81  C   UNL A   1      49.750  20.974  36.287  1.00  0.00     0.135 A 
ATOM     82  C   UNL A   1      50.158  23.253  35.704  1.00  0.00     0.135 A 
ATOM     83  F   UNL A   1      49.087  20.047  36.999  1.00  0.00    -0.206 F 
ATOM     84  C   UNL A   1      50.744  20.531  35.417  1.00  0.00     0.059 A 
ATOM     85  C   UNL A   1      51.164  22.834  34.817  1.00  0.00     0.059 A 
ATOM     86  F   UNL A   1      49.892  24.566  35.785  1.00  0.00    -0.206 F 
ATOM     87  C   UNL A   1      51.409  21.467  34.637  1.00  0.00     0.060 A 
BRANCH  87  88
ATOM     88  S   UNL A   1      52.497  20.927  33.292  1.00  0.00     0.124 S 
ATOM     89  O   UNL A   1      53.693  21.729  33.528  1.00  0.00    -0.237 OA
ATOM     90  O   UNL A   1      52.666  19.494  33.523  1.00  0.00    -0.237 OA
ATOM     91  O   UNL A   1      51.724  21.271  32.102  1.00  0.00    -0.744 OA
ENDBRANCH  87  88
ENDBRANCH  55  80
BRANCH  67  92
ATOM     92  C   UNL A   1      45.464  27.229  40.205  1.00  0.00     0.058 A 
ATOM     93  C   UNL A   1      46.191  28.433  40.209  1.00  0.00     0.135 A 
ATOM     94  C   UNL A   1      44.674  27.001  41.360  1.00  0.00     0.135 A 
ATOM     95  F   UNL A   1      46.859  28.847  39.124  1.00  0.00    -0.206 F 
ATOM     96  C   UNL A   1      46.230  29.285  41.314  1.00  0.00     0.059 A 
ATOM     97  C   UNL A   1      44.639  27.877  42.445  1.00  0.00     0.059 A 
ATOM     98  F   UNL A   1      43.903  25.912  41.480  1.00  0.00    -0.206 F 
ATOM     99  C   UNL A   1      45.456  28.996  42.432  1.00  0.00     0.060 A 
BRANCH  99 100
ATOM    100  S   UNL A   1      45.480  30.107  43.850  1.00  0.00     0.124 S 
ATOM    101  O   UNL A   1      45.087  29.209  44.930  1.00  0.00    -0.237 OA
ATOM    102  O   UNL A   1      46.865  30.565  43.884  1.00  0.00    -0.237 OA
ATOM    103  O   UNL A   1      44.500  31.129  43.487  1.00  0.00    -0.744 OA
ENDBRANCH  99 100
ENDBRANCH  67  92
ENDBRANCH  41  42
ENDBRANCH  34  36
ENDBRANCH  33  34
ENDBRANCH  32  33
ENDBRANCH  31  32
ENDBRANCH  30  31
ENDBRANCH  29  30
ENDBRANCH  28  29
ENDBRANCH  27  28
ENDBRANCH   1  27
TORSDOF 27
ENDMDL
MODEL 3
REMARK VINA RESULT:      -8.9      5.760     12.851
REMARK SMILES Cc1cccc(O[C@H](C)C(=O)N2CCC[C@@H](C(=O)OCCOCCOCCOCCOC(=O)c3ccc(-c4c5nc(c(-c6c(F)cc(S(=O)(=O)[O-])cc6F)c6ccc([nH]6)c(-c6c(F)cc(S(=O)(=O)[O-])cc6F)c6nc(c(-c7c(F)cc(S(=O)(=O)[O-])cc7F)c7ccc4[nH]7)C=C6)C=C5)cc3)C2)c1
REMARK SMILES IDX 24 1 23 2 22 3 21 4 20 5 19 6 17 7 18 8 16 9 12 10 13 11
REMARK SMILES IDX 100 12 14 13 15 14 10 15 11 16 8 17 9 18 7 19 6 20 1 21 2 22
REMARK SMILES IDX 3 23 101 24 4 25 5 26 25 27 26 28 27 29 28 30 29 31 30 32
REMARK SMILES IDX 31 33 32 34 33 35 34 36 35 37 99 38 36 39 98 40 37 41 38 42
REMARK SMILES IDX 39 43 92 44 40 45 97 46 91 47 93 48 41 49 96 50 90 51 89 52
REMARK SMILES IDX 42 54 76 55 55 56 75 57 56 58 59 59 74 60 94 61 57 62 58 63
REMARK SMILES IDX 73 65 95 66 60 67 43 68 44 69 53 70 45 71 46 72 52 73 54 74
REMARK SMILES IDX 47 75 48 76 49 77 50 78 51 79 77 80 78 81 87 82 79 83 80 84
REMARK SMILES IDX 86 85 88 86 81 87 82 88 83 89 84 90 85 91 61 92 62 93 71 94
REMARK SMILES IDX 63 95 64 96 70 97 72 98 65 99 66 100 67 101 68 102 69 103
REMARK H PARENT 93 53 59 64
REMARK Flexibility Score: inf
ROOT
ATOM      1  C   UNL A   1      45.341  23.368  27.016  1.00  0.00     0.188 C 
ENDROOT
BRANCH   1   2
ATOM      2  C   UNL A   1      45.655  24.122  28.360  1.00  0.00     0.188 C 
BRANCH   2   3
ATOM      3  O   UNL A   1      46.969  24.793  28.711  1.00  0.00    -0.376 OA
BRANCH   3   4
ATOM      4  C   UNL A   1      48.170  25.342  27.834  1.00  0.00     0.202 C 
BRANCH   4   5
ATOM      5  C   UNL A   1      49.967  25.046  27.590  1.00  0.00     0.261 C 
BRANCH   5   6
ATOM      6  O   UNL A   1      51.345  26.006  26.856  1.00  0.00    -0.463 OA
BRANCH   6   7
ATOM      7  C   UNL A   1      52.178  26.337  25.610  1.00  0.00     0.310 C 
ATOM      8  O   UNL A   1      52.653  25.403  24.944  1.00  0.00    -0.252 OA
BRANCH   7   9
ATOM      9  C   UNL A   1      52.720  27.942  25.046  1.00  0.00     0.119 C 
ATOM     10  N   UNL A   1      53.198  30.057  23.521  1.00  0.00    -0.339 N 
ATOM     11  C   UNL A   1      53.225  30.914  24.697  1.00  0.00     0.119 C 
ATOM     12  C   UNL A   1      52.422  28.811  23.676  1.00  0.00     0.134 C 
ATOM     13  C   UNL A   1      53.602  30.169  25.970  1.00  0.00     0.022 C 
ATOM     14  C   UNL A   1      52.732  28.937  26.239  1.00  0.00     0.019 C 
BRANCH  10  15
ATOM     15  C   UNL A   1      53.591  30.667  22.332  1.00  0.00     0.263 C 
ATOM     16  O   UNL A   1      54.666  30.300  21.823  1.00  0.00    -0.271 OA
BRANCH  15  17
ATOM     17  C   UNL A   1      52.829  31.871  21.612  1.00  0.00     0.259 C 
ATOM     18  C   UNL A   1      53.857  32.615  20.751  1.00  0.00     0.064 C 
BRANCH  17  19
ATOM     19  O   UNL A   1      51.536  31.667  21.037  1.00  0.00    -0.481 OA
BRANCH  19  20
ATOM     20  C   UNL A   1      51.254  30.519  20.310  1.00  0.00     0.120 A 
ATOM     21  C   UNL A   1      49.559  27.143  21.044  1.00  0.00     0.044 C 
ATOM     22  C   UNL A   1      50.418  28.202  20.412  1.00  0.00    -0.047 A 
ATOM     23  C   UNL A   1      51.247  27.847  19.345  1.00  0.00     0.003 A 
ATOM     24  C   UNL A   1      50.433  29.537  20.893  1.00  0.00     0.049 A 
ATOM     25  C   UNL A   1      52.007  28.822  18.719  1.00  0.00     0.004 A 
ATOM     26  C   UNL A   1      51.976  30.148  19.176  1.00  0.00     0.046 A 
ENDBRANCH  19  20
ENDBRANCH  17  19
ENDBRANCH  15  17
ENDBRANCH  10  15
ENDBRANCH   7   9
ENDBRANCH   6   7
ENDBRANCH   5   6
ENDBRANCH   4   5
ENDBRANCH   3   4
ENDBRANCH   2   3
ENDBRANCH   1   2
BRANCH   1  27
ATOM     27  O   UNL A   1      45.710  24.024  25.837  1.00  0.00    -0.377 OA
BRANCH  27  28
ATOM     28  C   UNL A   1      44.797  25.020  25.408  1.00  0.00     0.188 C 
BRANCH  28  29
ATOM     29  C   UNL A   1      45.378  26.439  25.329  1.00  0.00     0.188 C 
BRANCH  29  30
ATOM     30  O   UNL A   1      46.503  26.529  24.445  1.00  0.00    -0.376 OA
BRANCH  30  31
ATOM     31  C   UNL A   1      47.075  27.835  24.367  1.00  0.00     0.202 C 
BRANCH  31  32
ATOM     32  C   UNL A   1      46.969  28.574  25.705  1.00  0.00     0.261 C 
BRANCH  32  33
ATOM     33  O   UNL A   1      48.197  28.419  26.443  1.00  0.00    -0.460 OA
BRANCH  33  34
ATOM     34  C   UNL A   1      48.703  29.579  26.943  1.00  0.00     0.338 C 
ATOM     35  O   UNL A   1      49.591  30.229  26.431  1.00  0.00    -0.246 OA
BRANCH  34  36
ATOM     36  C   UNL A   1      48.122  29.799  28.303  1.00  0.00     0.060 A 
ATOM     37  C   UNL A   1      48.038  28.728  29.178  1.00  0.00     0.016 A 
ATOM     38  C   UNL A   1      47.430  30.976  28.615  1.00  0.00     0.016 A 
ATOM     39  C   UNL A   1      47.105  28.785  30.225  1.00  0.00     0.010 A 
ATOM     40  C   UNL A   1      46.396  30.967  29.559  1.00  0.00     0.010 A 
ATOM     41  C   UNL A   1      46.114  29.808  30.291  1.00  0.00    -0.014 A 
BRANCH  41  42
ATOM     42  C   UNL A   1      44.726  29.791  31.146  1.00  0.00     0.031 A 
ATOM     43  C   UNL A   1      43.813  29.214  29.697  1.00  0.00     0.074 A 
ATOM     44  C   UNL A   1      44.222  30.388  32.611  1.00  0.00     0.049 A 
ATOM     45  N   UNL A   1      42.577  29.500  29.360  1.00  0.00    -0.248 NA
ATOM     46  C   UNL A   1      44.400  28.555  28.486  1.00  0.00     0.031 C 
ATOM     47  C   UNL A   1      42.791  30.330  33.507  1.00  0.00     0.029 A 
ATOM     48  N   UNL A   1      44.558  31.560  33.486  1.00  0.00    -0.354 N 
ATOM     49  C   UNL A   1      42.138  28.562  28.491  1.00  0.00     0.074 A 
ATOM     50  C   UNL A   1      43.317  28.322  27.723  1.00  0.00     0.031 C 
ATOM     51  C   UNL A   1      42.592  31.208  34.481  1.00  0.00     0.029 A 
ATOM     52  C   UNL A   1      43.468  32.227  34.131  1.00  0.00     0.049 A 
ATOM     53  H   UNL A   1      45.487  31.857  33.610  1.00  0.00     0.167 HD
ATOM     54  C   UNL A   1      40.993  27.871  28.787  1.00  0.00     0.037 A 
ATOM     55  C   UNL A   1      42.951  33.480  33.913  1.00  0.00     0.037 A 
ATOM     56  C   UNL A   1      40.159  28.520  29.869  1.00  0.00     0.049 A 
ATOM     57  C   UNL A   1      41.455  33.409  33.385  1.00  0.00     0.074 A 
ATOM     58  C   UNL A   1      39.658  28.058  31.080  1.00  0.00     0.029 A 
ATOM     59  N   UNL A   1      39.920  29.918  29.913  1.00  0.00    -0.354 N 
ATOM     60  N   UNL A   1      40.872  32.316  32.913  1.00  0.00    -0.248 NA
ATOM     61  C   UNL A   1      40.502  34.513  33.381  1.00  0.00     0.031 C 
ATOM     62  C   UNL A   1      39.275  29.181  31.891  1.00  0.00     0.029 A 
ATOM     63  C   UNL A   1      39.444  30.356  31.168  1.00  0.00     0.049 A 
ATOM     64  H   UNL A   1      40.070  30.520  29.148  1.00  0.00     0.167 HD
ATOM     65  C   UNL A   1      39.670  32.591  32.311  1.00  0.00     0.074 A 
ATOM     66  C   UNL A   1      39.422  33.948  32.797  1.00  0.00     0.031 C 
ATOM     67  C   UNL A   1      39.004  31.764  31.416  1.00  0.00     0.037 A 
BRANCH  54  68
ATOM     68  C   UNL A   1      40.844  26.404  28.298  1.00  0.00     0.058 A 
ATOM     69  C   UNL A   1      39.664  25.934  27.685  1.00  0.00     0.135 A 
ATOM     70  C   UNL A   1      41.817  25.379  28.479  1.00  0.00     0.135 A 
ATOM     71  F   UNL A   1      38.619  26.754  27.495  1.00  0.00    -0.206 F 
ATOM     72  C   UNL A   1      39.494  24.596  27.255  1.00  0.00     0.059 A 
ATOM     73  C   UNL A   1      41.700  24.074  28.001  1.00  0.00     0.059 A 
ATOM     74  F   UNL A   1      42.929  25.537  29.202  1.00  0.00    -0.206 F 
ATOM     75  C   UNL A   1      40.528  23.677  27.400  1.00  0.00     0.060 A 
BRANCH  75  76
ATOM     76  S   UNL A   1      40.380  21.974  26.821  1.00  0.00     0.124 S 
ATOM     77  O   UNL A   1      40.553  21.216  28.055  1.00  0.00    -0.237 OA
ATOM     78  O   UNL A   1      39.043  21.949  26.237  1.00  0.00    -0.237 OA
ATOM     79  O   UNL A   1      41.473  21.848  25.856  1.00  0.00    -0.744 OA
ENDBRANCH  75  76
ENDBRANCH  54  68
BRANCH  55  80
ATOM     80  C   UNL A   1      43.992  34.542  33.725  1.00  0.00     0.058 A 
ATOM     81  C   UNL A   1      44.258  34.937  32.390  1.00  0.00     0.135 A 
ATOM     82  C   UNL A   1      44.465  35.396  34.724  1.00  0.00     0.135 A 
ATOM     83  F   UNL A   1      43.945  34.106  31.383  1.00  0.00    -0.206 F 
ATOM     84  C   UNL A   1      44.734  36.205  32.058  1.00  0.00     0.059 A 
ATOM     85  C   UNL A   1      44.944  36.681  34.417  1.00  0.00     0.059 A 
ATOM     86  F   UNL A   1      44.325  35.065  36.017  1.00  0.00    -0.206 F 
ATOM     87  C   UNL A   1      45.019  37.096  33.082  1.00  0.00     0.060 A 
BRANCH  87  88
ATOM     88  S   UNL A   1      45.360  38.837  32.708  1.00  0.00     0.124 S 
ATOM     89  O   UNL A   1      46.608  38.748  31.958  1.00  0.00    -0.237 OA
ATOM     90  O   UNL A   1      44.205  39.267  31.925  1.00  0.00    -0.237 OA
ATOM     91  O   UNL A   1      45.457  39.433  34.038  1.00  0.00    -0.744 OA
ENDBRANCH  87  88
ENDBRANCH  55  80
BRANCH  67  92
ATOM     92  C   UNL A   1      37.735  32.206  30.691  1.00  0.00     0.058 A 
ATOM     93  C   UNL A   1      36.435  31.860  31.099  1.00  0.00     0.135 A 
ATOM     94  C   UNL A   1      37.801  33.095  29.588  1.00  0.00     0.135 A 
ATOM     95  F   UNL A   1      36.221  31.152  32.217  1.00  0.00    -0.206 F 
ATOM     96  C   UNL A   1      35.295  32.261  30.400  1.00  0.00     0.059 A 
ATOM     97  C   UNL A   1      36.671  33.568  28.921  1.00  0.00     0.059 A 
ATOM     98  F   UNL A   1      38.973  33.537  29.110  1.00  0.00    -0.206 F 
ATOM     99  C   UNL A   1      35.422  33.110  29.307  1.00  0.00     0.060 A 
BRANCH  99 100
ATOM    100  S   UNL A   1      33.952  33.654  28.419  1.00  0.00     0.124 S 
ATOM    101  O   UNL A   1      33.454  32.392  27.881  1.00  0.00    -0.237 OA
ATOM    102  O   UNL A   1      33.139  34.257  29.469  1.00  0.00    -0.237 OA
ATOM    103  O   UNL A   1      34.488  34.594  27.436  1.00  0.00    -0.744 OA
ENDBRANCH  99 100
ENDBRANCH  67  92
ENDBRANCH  41  42
ENDBRANCH  34  36
ENDBRANCH  33  34
ENDBRANCH  32  33
ENDBRANCH  31  32
ENDBRANCH  30  31
ENDBRANCH  29  30
ENDBRANCH  28  29
ENDBRANCH  27  28
ENDBRANCH   1  27
TORSDOF 27
ENDMDL
