MODEL 1
REMARK VINA RESULT:      -8.8      0.000      0.000
REMARK SMILES CC(C)[N@@H+](C)Cc1cc2c(cc1Cl)C=C(C(=O)OCCOCCOCCOCCOC(=O)c1ccc(-c3c4nc(c(-c5c(F)cc(S(=O)(=O)[O-])cc5F)c5ccc([nH]5)c(-c5c(F)cc(S(=O)(=O)[O-])cc5F)c5nc(c(-c6c(F)cc(S(=O)(=O)[O-])cc6F)c6ccc3[nH]6)C=C5)C=C4)cc1)[C@@H](C(F)(F)F)O2
REMARK SMILES IDX 24 1 23 2 22 3 21 4 20 5 19 6 18 7 16 8 17 9 15 10 7 11 8 12
REMARK SMILES IDX 12 13 9 14 11 15 13 16 10 17 104 18 14 19 99 20 6 21 4 22
REMARK SMILES IDX 5 23 2 25 1 26 3 27 100 28 101 29 102 30 103 31 25 32 26 33
REMARK SMILES IDX 27 34 28 35 29 36 30 37 31 38 32 39 33 40 34 41 98 42 35 43
REMARK SMILES IDX 97 44 36 45 37 46 38 47 91 48 39 49 96 50 90 51 92 52 40 53
REMARK SMILES IDX 95 54 89 55 88 56 41 58 75 59 54 60 74 61 55 62 58 63 73 64
REMARK SMILES IDX 93 65 56 66 57 67 72 69 94 70 59 71 42 72 43 73 52 74 44 75
REMARK SMILES IDX 45 76 51 77 53 78 46 79 47 80 48 81 49 82 50 83 76 84 77 85
REMARK SMILES IDX 86 86 78 87 79 88 85 89 87 90 80 91 81 92 82 93 83 94 84 95
REMARK SMILES IDX 60 96 61 97 70 98 62 99 63 100 69 101 71 102 64 103 65 104
REMARK SMILES IDX 66 105 67 106 68 107
REMARK H PARENT 4 24 92 57 58 68
REMARK Flexibility Score: inf
ROOT
ATOM      1  O   UNL A   1      38.083  28.711  28.912  1.00  0.00    -0.377 OA
ENDROOT
BRANCH   1   2
ATOM      2  C   UNL A   1      37.243  29.678  28.311  1.00  0.00     0.188 C 
BRANCH   2   3
ATOM      3  C   UNL A   1      35.745  29.339  28.417  1.00  0.00     0.188 C 
BRANCH   3   4
ATOM      4  O   UNL A   1      34.991  29.692  27.258  1.00  0.00    -0.376 OA
BRANCH   4   5
ATOM      5  C   UNL A   1      33.940  28.810  26.877  1.00  0.00     0.202 C 
BRANCH   5   6
ATOM      6  C   UNL A   1      34.237  27.879  25.694  1.00  0.00     0.261 C 
BRANCH   6   7
ATOM      7  O   UNL A   1      33.072  27.452  24.973  1.00  0.00    -0.460 OA
BRANCH   7   8
ATOM      8  C   UNL A   1      33.258  26.835  23.791  1.00  0.00     0.338 C 
ATOM      9  O   UNL A   1      33.505  27.355  22.717  1.00  0.00    -0.246 OA
BRANCH   8  10
ATOM     10  C   UNL A   1      33.287  25.380  24.047  1.00  0.00     0.087 C 
ATOM     11  C   UNL A   1      34.549  20.545  24.703  1.00  0.00     0.029 A 
ATOM     12  C   UNL A   1      33.357  21.272  24.567  1.00  0.00     0.058 A 
ATOM     13  C   UNL A   1      35.746  21.289  24.711  1.00  0.00     0.050 A 
ATOM     14  C   UNL A   1      33.342  22.662  24.473  1.00  0.00     0.128 A 
ATOM     15  C   UNL A   1      35.737  22.688  24.578  1.00  0.00     0.033 A 
ATOM     16  Cl  UNL A   1      37.300  20.536  24.841  1.00  0.00    -0.084 Cl
ATOM     17  C   UNL A   1      34.531  23.376  24.431  1.00  0.00     0.019 A 
ATOM     18  O   UNL A   1      32.102  23.221  24.417  1.00  0.00    -0.475 OA
ATOM     19  C   UNL A   1      34.492  24.805  24.170  1.00  0.00     0.027 C 
ATOM     20  C   UNL A   1      31.978  24.656  24.235  1.00  0.00     0.316 C 
BRANCH  11  21
ATOM     21  C   UNL A   1      34.551  19.027  24.716  1.00  0.00     0.300 C 
BRANCH  21  22
ATOM     22  N   UNL A   1      33.290  18.284  24.653  1.00  0.00    -0.332 N 
ATOM     23  C   UNL A   1      32.716  17.852  25.914  1.00  0.00     0.333 C 
ATOM     24  H   UNL A   1      32.731  19.092  24.378  1.00  0.00     0.348 HD
BRANCH  22  25
ATOM     25  C   UNL A   1      32.981  17.435  23.499  1.00  0.00     0.177 C 
ATOM     26  C   UNL A   1      32.303  18.242  22.386  1.00  0.00     0.075 C 
ATOM     27  C   UNL A   1      34.146  16.632  22.916  1.00  0.00     0.075 C 
ENDBRANCH  22  25
ENDBRANCH  21  22
ENDBRANCH  11  21
BRANCH  20  28
ATOM     28  C   UNL A   1      30.995  24.879  23.075  1.00  0.00     0.430 C 
ATOM     29  F   UNL A   1      30.312  26.036  23.239  1.00  0.00    -0.167 F 
ATOM     30  F   UNL A   1      31.619  24.947  21.880  1.00  0.00    -0.167 F 
ATOM     31  F   UNL A   1      30.089  23.876  23.006  1.00  0.00    -0.167 F 
ENDBRANCH  20  28
ENDBRANCH   8  10
ENDBRANCH   7   8
ENDBRANCH   6   7
ENDBRANCH   5   6
ENDBRANCH   4   5
ENDBRANCH   3   4
ENDBRANCH   2   3
ENDBRANCH   1   2
BRANCH   1  32
ATOM     32  C   UNL A   1      39.137  28.153  28.127  1.00  0.00     0.188 C 
BRANCH  32  33
ATOM     33  C   UNL A   1      39.285  26.629  27.914  1.00  0.00     0.188 C 
BRANCH  33  34
ATOM     34  O   UNL A   1      40.594  26.223  27.519  1.00  0.00    -0.376 OA
BRANCH  34  35
ATOM     35  C   UNL A   1      40.794  26.003  26.129  1.00  0.00     0.202 C 
BRANCH  35  36
ATOM     36  C   UNL A   1      42.211  25.532  25.787  1.00  0.00     0.261 C 
BRANCH  36  37
ATOM     37  O   UNL A   1      43.067  25.313  26.917  1.00  0.00    -0.460 OA
BRANCH  37  38
ATOM     38  C   UNL A   1      44.181  26.073  27.027  1.00  0.00     0.338 C 
ATOM     39  O   UNL A   1      45.141  26.087  26.279  1.00  0.00    -0.246 OA
BRANCH  38  40
ATOM     40  C   UNL A   1      43.931  27.036  28.118  1.00  0.00     0.060 A 
ATOM     41  C   UNL A   1      44.328  28.367  27.975  1.00  0.00     0.016 A 
ATOM     42  C   UNL A   1      43.354  26.588  29.314  1.00  0.00     0.016 A 
ATOM     43  C   UNL A   1      44.134  29.260  29.027  1.00  0.00     0.010 A 
ATOM     44  C   UNL A   1      43.167  27.483  30.371  1.00  0.00     0.010 A 
ATOM     45  C   UNL A   1      43.540  28.828  30.225  1.00  0.00    -0.014 A 
BRANCH  45  46
ATOM     46  C   UNL A   1      43.155  29.839  31.237  1.00  0.00     0.031 A 
ATOM     47  C   UNL A   1      41.874  30.609  31.150  1.00  0.00     0.074 A 
ATOM     48  C   UNL A   1      43.988  30.016  32.280  1.00  0.00     0.049 A 
ATOM     49  N   UNL A   1      41.350  31.423  32.029  1.00  0.00    -0.248 NA
ATOM     50  C   UNL A   1      41.080  30.449  29.924  1.00  0.00     0.031 C 
ATOM     51  C   UNL A   1      45.269  29.326  32.452  1.00  0.00     0.029 A 
ATOM     52  N   UNL A   1      43.881  30.805  33.394  1.00  0.00    -0.354 N 
ATOM     53  C   UNL A   1      40.150  31.857  31.482  1.00  0.00     0.074 A 
ATOM     54  C   UNL A   1      40.048  31.249  30.169  1.00  0.00     0.031 C 
ATOM     55  C   UNL A   1      45.816  29.701  33.618  1.00  0.00     0.029 A 
ATOM     56  C   UNL A   1      44.934  30.668  34.266  1.00  0.00     0.049 A 
ATOM     57  H   UNL A   1      43.122  31.411  33.555  1.00  0.00     0.167 HD
ATOM     58  C   UNL A   1      39.219  32.671  32.036  1.00  0.00     0.037 A 
ATOM     59  C   UNL A   1      45.162  31.245  35.459  1.00  0.00     0.037 A 
ATOM     60  C   UNL A   1      39.347  33.285  33.337  1.00  0.00     0.049 A 
ATOM     61  C   UNL A   1      44.134  32.178  36.030  1.00  0.00     0.074 A 
ATOM     62  C   UNL A   1      38.440  34.098  33.997  1.00  0.00     0.029 A 
ATOM     63  N   UNL A   1      40.451  33.167  34.170  1.00  0.00    -0.354 N 
ATOM     64  N   UNL A   1      42.971  32.525  35.530  1.00  0.00    -0.248 NA
ATOM     65  C   UNL A   1      44.441  32.792  37.328  1.00  0.00     0.031 C 
ATOM     66  C   UNL A   1      39.015  34.509  35.205  1.00  0.00     0.029 A 
ATOM     67  C   UNL A   1      40.261  33.915  35.322  1.00  0.00     0.049 A 
ATOM     68  H   UNL A   1      41.253  32.631  33.971  1.00  0.00     0.167 HD
ATOM     69  C   UNL A   1      42.401  33.385  36.459  1.00  0.00     0.074 A 
ATOM     70  C   UNL A   1      43.339  33.494  37.559  1.00  0.00     0.031 C 
ATOM     71  C   UNL A   1      41.208  34.027  36.404  1.00  0.00     0.037 A 
BRANCH  58  72
ATOM     72  C   UNL A   1      37.967  32.947  31.250  1.00  0.00     0.058 A 
ATOM     73  C   UNL A   1      37.930  33.948  30.266  1.00  0.00     0.135 A 
ATOM     74  C   UNL A   1      36.822  32.151  31.416  1.00  0.00     0.135 A 
ATOM     75  F   UNL A   1      38.994  34.743  30.069  1.00  0.00    -0.206 F 
ATOM     76  C   UNL A   1      36.798  34.160  29.483  1.00  0.00     0.059 A 
ATOM     77  C   UNL A   1      35.686  32.330  30.628  1.00  0.00     0.059 A 
ATOM     78  F   UNL A   1      36.804  31.178  32.340  1.00  0.00    -0.206 F 
ATOM     79  C   UNL A   1      35.682  33.341  29.669  1.00  0.00     0.060 A 
BRANCH  79  80
ATOM     80  S   UNL A   1      34.233  33.614  28.628  1.00  0.00     0.124 S 
ATOM     81  O   UNL A   1      33.362  34.362  29.531  1.00  0.00    -0.237 OA
ATOM     82  O   UNL A   1      34.789  34.371  27.512  1.00  0.00    -0.237 OA
ATOM     83  O   UNL A   1      33.785  32.262  28.306  1.00  0.00    -0.744 OA
ENDBRANCH  79  80
ENDBRANCH  58  72
BRANCH  59  84
ATOM     84  C   UNL A   1      46.404  30.917  36.202  1.00  0.00     0.058 A 
ATOM     85  C   UNL A   1      47.574  31.665  36.012  1.00  0.00     0.135 A 
ATOM     86  C   UNL A   1      46.431  29.885  37.153  1.00  0.00     0.135 A 
ATOM     87  F   UNL A   1      47.596  32.661  35.113  1.00  0.00    -0.206 F 
ATOM     88  C   UNL A   1      48.731  31.400  36.735  1.00  0.00     0.059 A 
ATOM     89  C   UNL A   1      47.568  29.614  37.904  1.00  0.00     0.059 A 
ATOM     90  F   UNL A   1      45.328  29.154  37.382  1.00  0.00    -0.206 F 
ATOM     91  C   UNL A   1      48.717  30.375  37.684  1.00  0.00     0.060 A 
BRANCH  91  92
ATOM     92  S   UNL A   1      50.205  30.083  38.662  1.00  0.00     0.124 S 
ATOM     93  O   UNL A   1      50.541  31.436  39.095  1.00  0.00    -0.237 OA
ATOM     94  O   UNL A   1      49.716  29.182  39.701  1.00  0.00    -0.237 OA
ATOM     95  O   UNL A   1      51.126  29.481  37.702  1.00  0.00    -0.744 OA
ENDBRANCH  91  92
ENDBRANCH  59  84
BRANCH  71  96
ATOM     96  C   UNL A   1      40.844  34.908  37.568  1.00  0.00     0.058 A 
ATOM     97  C   UNL A   1      41.163  36.275  37.579  1.00  0.00     0.135 A 
ATOM     98  C   UNL A   1      40.126  34.393  38.659  1.00  0.00     0.135 A 
ATOM     99  F   UNL A   1      41.858  36.815  36.565  1.00  0.00    -0.206 F 
ATOM    100  C   UNL A   1      40.795  37.098  38.638  1.00  0.00     0.059 A 
ATOM    101  C   UNL A   1      39.726  35.204  39.718  1.00  0.00     0.059 A 
ATOM    102  F   UNL A   1      39.791  33.093  38.696  1.00  0.00    -0.206 F 
ATOM    103  C   UNL A   1      40.073  36.554  39.702  1.00  0.00     0.060 A 
BRANCH 103 104
ATOM    104  S   UNL A   1      39.568  37.644  41.050  1.00  0.00     0.124 S 
ATOM    105  O   UNL A   1      39.026  36.691  42.013  1.00  0.00    -0.237 OA
ATOM    106  O   UNL A   1      40.829  38.277  41.426  1.00  0.00    -0.237 OA
ATOM    107  O   UNL A   1      38.590  38.529  40.425  1.00  0.00    -0.744 OA
ENDBRANCH 103 104
ENDBRANCH  71  96
ENDBRANCH  45  46
ENDBRANCH  38  40
ENDBRANCH  37  38
ENDBRANCH  36  37
ENDBRANCH  35  36
ENDBRANCH  34  35
ENDBRANCH  33  34
ENDBRANCH  32  33
ENDBRANCH   1  32
TORSDOF 27
ENDMDL
MODEL 2
REMARK VINA RESULT:      -7.7      2.147      8.048
REMARK SMILES CC(C)[N@@H+](C)Cc1cc2c(cc1Cl)C=C(C(=O)OCCOCCOCCOCCOC(=O)c1ccc(-c3c4nc(c(-c5c(F)cc(S(=O)(=O)[O-])cc5F)c5ccc([nH]5)c(-c5c(F)cc(S(=O)(=O)[O-])cc5F)c5nc(c(-c6c(F)cc(S(=O)(=O)[O-])cc6F)c6ccc3[nH]6)C=C5)C=C4)cc1)[C@@H](C(F)(F)F)O2
REMARK SMILES IDX 24 1 23 2 22 3 21 4 20 5 19 6 18 7 16 8 17 9 15 10 7 11 8 12
REMARK SMILES IDX 12 13 9 14 11 15 13 16 10 17 104 18 14 19 99 20 6 21 4 22
REMARK SMILES IDX 5 23 2 25 1 26 3 27 100 28 101 29 102 30 103 31 25 32 26 33
REMARK SMILES IDX 27 34 28 35 29 36 30 37 31 38 32 39 33 40 34 41 98 42 35 43
REMARK SMILES IDX 97 44 36 45 37 46 38 47 91 48 39 49 96 50 90 51 92 52 40 53
REMARK SMILES IDX 95 54 89 55 88 56 41 58 75 59 54 60 74 61 55 62 58 63 73 64
REMARK SMILES IDX 93 65 56 66 57 67 72 69 94 70 59 71 42 72 43 73 52 74 44 75
REMARK SMILES IDX 45 76 51 77 53 78 46 79 47 80 48 81 49 82 50 83 76 84 77 85
REMARK SMILES IDX 86 86 78 87 79 88 85 89 87 90 80 91 81 92 82 93 83 94 84 95
REMARK SMILES IDX 60 96 61 97 70 98 62 99 63 100 69 101 71 102 64 103 65 104
REMARK SMILES IDX 66 105 67 106 68 107
REMARK H PARENT 4 24 92 57 58 68
REMARK Flexibility Score: inf
ROOT
ATOM      1  O   UNL A   1      38.768  28.590  28.715  1.00  0.00    -0.377 OA
ENDROOT
BRANCH   1   2
ATOM      2  C   UNL A   1      38.125  29.644  28.025  1.00  0.00     0.188 C 
BRANCH   2   3
ATOM      3  C   UNL A   1      36.612  29.424  27.838  1.00  0.00     0.188 C 
BRANCH   3   4
ATOM      4  O   UNL A   1      35.871  30.631  27.668  1.00  0.00    -0.376 OA
BRANCH   4   5
ATOM      5  C   UNL A   1      34.473  30.572  27.932  1.00  0.00     0.202 C 
BRANCH   5   6
ATOM      6  C   UNL A   1      33.552  30.624  26.705  1.00  0.00     0.261 C 
BRANCH   6   7
ATOM      7  O   UNL A   1      32.440  29.719  26.763  1.00  0.00    -0.460 OA
BRANCH   7   8
ATOM      8  C   UNL A   1      31.663  29.610  25.670  1.00  0.00     0.338 C 
ATOM      9  O   UNL A   1      31.140  30.515  25.043  1.00  0.00    -0.246 OA
BRANCH   8  10
ATOM     10  C   UNL A   1      31.692  28.197  25.242  1.00  0.00     0.087 C 
ATOM     11  C   UNL A   1      31.428  23.176  24.893  1.00  0.00     0.029 A 
ATOM     12  C   UNL A   1      31.959  24.219  24.120  1.00  0.00     0.058 A 
ATOM     13  C   UNL A   1      30.736  23.546  26.064  1.00  0.00     0.050 A 
ATOM     14  C   UNL A   1      31.793  25.558  24.466  1.00  0.00     0.128 A 
ATOM     15  C   UNL A   1      30.601  24.894  26.437  1.00  0.00     0.033 A 
ATOM     16  Cl  UNL A   1      30.049  22.374  27.138  1.00  0.00    -0.084 Cl
ATOM     17  C   UNL A   1      31.155  25.904  25.649  1.00  0.00     0.019 A 
ATOM     18  O   UNL A   1      32.308  26.451  23.576  1.00  0.00    -0.475 OA
ATOM     19  C   UNL A   1      31.138  27.296  26.066  1.00  0.00     0.027 C 
ATOM     20  C   UNL A   1      32.261  27.868  23.884  1.00  0.00     0.316 C 
BRANCH  11  21
ATOM     21  C   UNL A   1      31.692  21.722  24.546  1.00  0.00     0.300 C 
BRANCH  21  22
ATOM     22  N   UNL A   1      32.911  21.059  25.016  1.00  0.00    -0.332 N 
ATOM     23  C   UNL A   1      32.815  19.641  25.315  1.00  0.00     0.333 C 
ATOM     24  H   UNL A   1      33.382  21.100  24.112  1.00  0.00     0.348 HD
BRANCH  22  25
ATOM     25  C   UNL A   1      33.913  21.797  25.790  1.00  0.00     0.177 C 
ATOM     26  C   UNL A   1      33.719  21.579  27.295  1.00  0.00     0.075 C 
ATOM     27  C   UNL A   1      35.376  21.550  25.417  1.00  0.00     0.075 C 
ENDBRANCH  22  25
ENDBRANCH  21  22
ENDBRANCH  11  21
BRANCH  20  28
ATOM     28  C   UNL A   1      33.679  28.421  23.676  1.00  0.00     0.430 C 
ATOM     29  F   UNL A   1      33.642  29.742  23.382  1.00  0.00    -0.167 F 
ATOM     30  F   UNL A   1      34.452  28.276  24.772  1.00  0.00    -0.167 F 
ATOM     31  F   UNL A   1      34.300  27.792  22.651  1.00  0.00    -0.167 F 
ENDBRANCH  20  28
ENDBRANCH   8  10
ENDBRANCH   7   8
ENDBRANCH   6   7
ENDBRANCH   5   6
ENDBRANCH   4   5
ENDBRANCH   3   4
ENDBRANCH   2   3
ENDBRANCH   1   2
BRANCH   1  32
ATOM     32  C   UNL A   1      39.543  27.662  27.956  1.00  0.00     0.188 C 
BRANCH  32  33
ATOM     33  C   UNL A   1      39.285  26.139  28.008  1.00  0.00     0.188 C 
BRANCH  33  34
ATOM     34  O   UNL A   1      40.473  25.349  28.003  1.00  0.00    -0.376 OA
BRANCH  34  35
ATOM     35  C   UNL A   1      40.796  24.702  26.779  1.00  0.00     0.202 C 
BRANCH  35  36
ATOM     36  C   UNL A   1      42.303  24.616  26.517  1.00  0.00     0.261 C 
BRANCH  36  37
ATOM     37  O   UNL A   1      43.125  25.299  27.474  1.00  0.00    -0.460 OA
BRANCH  37  38
ATOM     38  C   UNL A   1      43.650  26.495  27.123  1.00  0.00     0.338 C 
ATOM     39  O   UNL A   1      44.045  26.832  26.022  1.00  0.00    -0.246 OA
BRANCH  38  40
ATOM     40  C   UNL A   1      43.474  27.393  28.282  1.00  0.00     0.060 A 
ATOM     41  C   UNL A   1      43.043  26.873  29.504  1.00  0.00     0.016 A 
ATOM     42  C   UNL A   1      43.679  28.769  28.124  1.00  0.00     0.016 A 
ATOM     43  C   UNL A   1      42.831  27.733  30.580  1.00  0.00     0.010 A 
ATOM     44  C   UNL A   1      43.459  29.631  29.203  1.00  0.00     0.010 A 
ATOM     45  C   UNL A   1      43.051  29.113  30.441  1.00  0.00    -0.014 A 
BRANCH  45  46
ATOM     46  C   UNL A   1      43.023  29.967  31.651  1.00  0.00     0.031 A 
ATOM     47  C   UNL A   1      44.227  30.159  32.521  1.00  0.00     0.074 A 
ATOM     48  C   UNL A   1      41.873  30.612  31.926  1.00  0.00     0.049 A 
ATOM     49  N   UNL A   1      44.383  30.977  33.529  1.00  0.00    -0.248 NA
ATOM     50  C   UNL A   1      45.404  29.330  32.227  1.00  0.00     0.031 C 
ATOM     51  C   UNL A   1      40.638  30.481  31.149  1.00  0.00     0.029 A 
ATOM     52  N   UNL A   1      41.558  31.512  32.908  1.00  0.00    -0.354 N 
ATOM     53  C   UNL A   1      45.683  30.787  33.979  1.00  0.00     0.074 A 
ATOM     54  C   UNL A   1      46.257  29.738  33.159  1.00  0.00     0.031 C 
ATOM     55  C   UNL A   1      39.706  31.294  31.669  1.00  0.00     0.029 A 
ATOM     56  C   UNL A   1      40.273  31.989  32.822  1.00  0.00     0.049 A 
ATOM     57  H   UNL A   1      42.191  31.790  33.609  1.00  0.00     0.167 HD
ATOM     58  C   UNL A   1      46.333  31.443  34.971  1.00  0.00     0.037 A 
ATOM     59  C   UNL A   1      39.623  32.893  33.577  1.00  0.00     0.037 A 
ATOM     60  C   UNL A   1      45.738  32.472  35.791  1.00  0.00     0.049 A 
ATOM     61  C   UNL A   1      40.355  33.571  34.698  1.00  0.00     0.074 A 
ATOM     62  C   UNL A   1      46.329  33.217  36.798  1.00  0.00     0.029 A 
ATOM     63  N   UNL A   1      44.418  32.892  35.712  1.00  0.00    -0.354 N 
ATOM     64  N   UNL A   1      41.606  33.430  35.067  1.00  0.00    -0.248 NA
ATOM     65  C   UNL A   1      39.593  34.538  35.500  1.00  0.00     0.031 C 
ATOM     66  C   UNL A   1      45.356  34.052  37.358  1.00  0.00     0.029 A 
ATOM     67  C   UNL A   1      44.168  33.863  36.670  1.00  0.00     0.049 A 
ATOM     68  H   UNL A   1      43.755  32.550  35.069  1.00  0.00     0.167 HD
ATOM     69  C   UNL A   1      41.785  34.301  36.135  1.00  0.00     0.074 A 
ATOM     70  C   UNL A   1      40.520  34.976  36.342  1.00  0.00     0.031 C 
ATOM     71  C   UNL A   1      42.900  34.519  36.875  1.00  0.00     0.037 A 
BRANCH  58  72
ATOM     72  C   UNL A   1      47.770  31.083  35.229  1.00  0.00     0.058 A 
ATOM     73  C   UNL A   1      48.819  31.765  34.592  1.00  0.00     0.135 A 
ATOM     74  C   UNL A   1      48.108  30.111  36.186  1.00  0.00     0.135 A 
ATOM     75  F   UNL A   1      48.554  32.699  33.665  1.00  0.00    -0.206 F 
ATOM     76  C   UNL A   1      50.152  31.488  34.882  1.00  0.00     0.059 A 
ATOM     77  C   UNL A   1      49.435  29.833  36.509  1.00  0.00     0.059 A 
ATOM     78  F   UNL A   1      47.145  29.431  36.828  1.00  0.00    -0.206 F 
ATOM     79  C   UNL A   1      50.450  30.522  35.846  1.00  0.00     0.060 A 
BRANCH  79  80
ATOM     80  S   UNL A   1      52.183  30.193  36.228  1.00  0.00     0.124 S 
ATOM     81  O   UNL A   1      52.859  30.873  35.126  1.00  0.00    -0.237 OA
ATOM     82  O   UNL A   1      52.336  30.810  37.541  1.00  0.00    -0.237 OA
ATOM     83  O   UNL A   1      52.267  28.736  36.209  1.00  0.00    -0.744 OA
ENDBRANCH  79  80
ENDBRANCH  58  72
BRANCH  59  84
ATOM     84  C   UNL A   1      38.212  33.227  33.261  1.00  0.00     0.058 A 
ATOM     85  C   UNL A   1      37.156  32.536  33.871  1.00  0.00     0.135 A 
ATOM     86  C   UNL A   1      37.892  34.276  32.386  1.00  0.00     0.135 A 
ATOM     87  F   UNL A   1      37.413  31.525  34.715  1.00  0.00    -0.206 F 
ATOM     88  C   UNL A   1      35.830  32.869  33.621  1.00  0.00     0.059 A 
ATOM     89  C   UNL A   1      36.575  34.643  32.137  1.00  0.00     0.059 A 
ATOM     90  F   UNL A   1      38.871  34.978  31.793  1.00  0.00    -0.206 F 
ATOM     91  C   UNL A   1      35.549  33.929  32.756  1.00  0.00     0.060 A 
BRANCH  91  92
ATOM     92  S   UNL A   1      33.826  34.394  32.491  1.00  0.00     0.124 S 
ATOM     93  O   UNL A   1      33.784  35.721  33.097  1.00  0.00    -0.237 OA
ATOM     94  O   UNL A   1      33.719  34.352  31.036  1.00  0.00    -0.237 OA
ATOM     95  O   UNL A   1      33.084  33.354  33.197  1.00  0.00    -0.744 OA
ENDBRANCH  91  92
ENDBRANCH  59  84
BRANCH  71  96
ATOM     96  C   UNL A   1      42.804  35.533  37.983  1.00  0.00     0.058 A 
ATOM     97  C   UNL A   1      43.111  36.886  37.767  1.00  0.00     0.135 A 
ATOM     98  C   UNL A   1      42.352  35.158  39.259  1.00  0.00     0.135 A 
ATOM     99  F   UNL A   1      43.557  37.293  36.569  1.00  0.00    -0.206 F 
ATOM    100  C   UNL A   1      42.987  37.830  38.781  1.00  0.00     0.059 A 
ATOM    101  C   UNL A   1      42.198  36.090  40.281  1.00  0.00     0.059 A 
ATOM    102  F   UNL A   1      42.040  33.878  39.517  1.00  0.00    -0.206 F 
ATOM    103  C   UNL A   1      42.525  37.423  40.035  1.00  0.00     0.060 A 
BRANCH 103 104
ATOM    104  S   UNL A   1      42.333  38.667  41.329  1.00  0.00     0.124 S 
ATOM    105  O   UNL A   1      43.656  38.660  41.944  1.00  0.00    -0.237 OA
ATOM    106  O   UNL A   1      41.998  39.864  40.562  1.00  0.00    -0.237 OA
ATOM    107  O   UNL A   1      41.254  38.136  42.155  1.00  0.00    -0.744 OA
ENDBRANCH 103 104
ENDBRANCH  71  96
ENDBRANCH  45  46
ENDBRANCH  38  40
ENDBRANCH  37  38
ENDBRANCH  36  37
ENDBRANCH  35  36
ENDBRANCH  34  35
ENDBRANCH  33  34
ENDBRANCH  32  33
ENDBRANCH   1  32
TORSDOF 27
ENDMDL
MODEL 3
REMARK VINA RESULT:      -7.6      5.572      6.895
REMARK SMILES CC(C)[N@@H+](C)Cc1cc2c(cc1Cl)C=C(C(=O)OCCOCCOCCOCCOC(=O)c1ccc(-c3c4nc(c(-c5c(F)cc(S(=O)(=O)[O-])cc5F)c5ccc([nH]5)c(-c5c(F)cc(S(=O)(=O)[O-])cc5F)c5nc(c(-c6c(F)cc(S(=O)(=O)[O-])cc6F)c6ccc3[nH]6)C=C5)C=C4)cc1)[C@@H](C(F)(F)F)O2
REMARK SMILES IDX 24 1 23 2 22 3 21 4 20 5 19 6 18 7 16 8 17 9 15 10 7 11 8 12
REMARK SMILES IDX 12 13 9 14 11 15 13 16 10 17 104 18 14 19 99 20 6 21 4 22
REMARK SMILES IDX 5 23 2 25 1 26 3 27 100 28 101 29 102 30 103 31 25 32 26 33
REMARK SMILES IDX 27 34 28 35 29 36 30 37 31 38 32 39 33 40 34 41 98 42 35 43
REMARK SMILES IDX 97 44 36 45 37 46 38 47 91 48 39 49 96 50 90 51 92 52 40 53
REMARK SMILES IDX 95 54 89 55 88 56 41 58 75 59 54 60 74 61 55 62 58 63 73 64
REMARK SMILES IDX 93 65 56 66 57 67 72 69 94 70 59 71 42 72 43 73 52 74 44 75
REMARK SMILES IDX 45 76 51 77 53 78 46 79 47 80 48 81 49 82 50 83 76 84 77 85
REMARK SMILES IDX 86 86 78 87 79 88 85 89 87 90 80 91 81 92 82 93 83 94 84 95
REMARK SMILES IDX 60 96 61 97 70 98 62 99 63 100 69 101 71 102 64 103 65 104
REMARK SMILES IDX 66 105 67 106 68 107
REMARK H PARENT 4 24 92 57 58 68
REMARK Flexibility Score: inf
ROOT
ATOM      1  O   UNL A   1      39.218  28.322  28.725  1.00  0.00    -0.377 OA
ENDROOT
BRANCH   1   2
ATOM      2  C   UNL A   1      38.583  29.462  28.177  1.00  0.00     0.188 C 
BRANCH   2   3
ATOM      3  C   UNL A   1      37.046  29.394  28.232  1.00  0.00     0.188 C 
BRANCH   3   4
ATOM      4  O   UNL A   1      36.406  30.649  28.009  1.00  0.00    -0.376 OA
BRANCH   4   5
ATOM      5  C   UNL A   1      34.983  30.648  27.951  1.00  0.00     0.202 C 
BRANCH   5   6
ATOM      6  C   UNL A   1      34.361  30.042  26.685  1.00  0.00     0.261 C 
BRANCH   6   7
ATOM      7  O   UNL A   1      33.438  28.972  26.935  1.00  0.00    -0.460 OA
BRANCH   7   8
ATOM      8  C   UNL A   1      32.459  28.764  26.035  1.00  0.00     0.338 C 
ATOM      9  O   UNL A   1      31.664  29.582  25.608  1.00  0.00    -0.246 OA
BRANCH   8  10
ATOM     10  C   UNL A   1      32.624  27.395  25.505  1.00  0.00     0.087 C 
ATOM     11  C   UNL A   1      33.472  22.475  24.823  1.00  0.00     0.029 A 
ATOM     12  C   UNL A   1      33.284  23.594  24.000  1.00  0.00     0.058 A 
ATOM     13  C   UNL A   1      33.372  22.688  26.213  1.00  0.00     0.050 A 
ATOM     14  C   UNL A   1      32.983  24.853  24.515  1.00  0.00     0.128 A 
ATOM     15  C   UNL A   1      33.107  23.964  26.738  1.00  0.00     0.033 A 
ATOM     16  Cl  UNL A   1      33.609  21.413  27.361  1.00  0.00    -0.084 Cl
ATOM     17  C   UNL A   1      32.938  25.058  25.887  1.00  0.00     0.019 A 
ATOM     18  O   UNL A   1      32.760  25.819  23.582  1.00  0.00    -0.475 OA
ATOM     19  C   UNL A   1      32.784  26.408  26.399  1.00  0.00     0.027 C 
ATOM     20  C   UNL A   1      32.521  27.183  24.016  1.00  0.00     0.316 C 
BRANCH  11  21
ATOM     21  C   UNL A   1      33.884  21.132  24.248  1.00  0.00     0.300 C 
BRANCH  21  22
ATOM     22  N   UNL A   1      32.925  20.325  23.489  1.00  0.00    -0.332 N 
ATOM     23  C   UNL A   1      31.954  21.043  22.683  1.00  0.00     0.333 C 
ATOM     24  H   UNL A   1      33.615  19.985  22.819  1.00  0.00     0.348 HD
BRANCH  22  25
ATOM     25  C   UNL A   1      32.484  19.021  23.991  1.00  0.00     0.177 C 
ATOM     26  C   UNL A   1      33.012  17.883  23.109  1.00  0.00     0.075 C 
ATOM     27  C   UNL A   1      32.790  18.720  25.459  1.00  0.00     0.075 C 
ENDBRANCH  22  25
ENDBRANCH  21  22
ENDBRANCH  11  21
BRANCH  20  28
ATOM     28  C   UNL A   1      33.471  28.084  23.212  1.00  0.00     0.430 C 
ATOM     29  F   UNL A   1      32.873  29.257  22.899  1.00  0.00    -0.167 F 
ATOM     30  F   UNL A   1      34.598  28.378  23.894  1.00  0.00    -0.167 F 
ATOM     31  F   UNL A   1      33.839  27.490  22.052  1.00  0.00    -0.167 F 
ENDBRANCH  20  28
ENDBRANCH   8  10
ENDBRANCH   7   8
ENDBRANCH   6   7
ENDBRANCH   5   6
ENDBRANCH   4   5
ENDBRANCH   3   4
ENDBRANCH   2   3
ENDBRANCH   1   2
BRANCH   1  32
ATOM     32  C   UNL A   1      39.498  27.224  27.857  1.00  0.00     0.188 C 
BRANCH  32  33
ATOM     33  C   UNL A   1      39.349  25.755  28.315  1.00  0.00     0.188 C 
BRANCH  33  34
ATOM     34  O   UNL A   1      40.591  25.083  28.521  1.00  0.00    -0.376 OA
BRANCH  34  35
ATOM     35  C   UNL A   1      40.875  23.999  27.646  1.00  0.00     0.202 C 
BRANCH  35  36
ATOM     36  C   UNL A   1      42.231  24.124  26.945  1.00  0.00     0.261 C 
BRANCH  36  37
ATOM     37  O   UNL A   1      42.874  25.399  27.090  1.00  0.00    -0.460 OA
BRANCH  37  38
ATOM     38  C   UNL A   1      42.673  26.325  26.124  1.00  0.00     0.338 C 
ATOM     39  O   UNL A   1      42.136  26.160  25.044  1.00  0.00    -0.246 OA
BRANCH  38  40
ATOM     40  C   UNL A   1      43.050  27.630  26.704  1.00  0.00     0.060 A 
ATOM     41  C   UNL A   1      42.565  28.809  26.134  1.00  0.00     0.016 A 
ATOM     42  C   UNL A   1      43.943  27.673  27.782  1.00  0.00     0.016 A 
ATOM     43  C   UNL A   1      42.962  30.038  26.656  1.00  0.00     0.010 A 
ATOM     44  C   UNL A   1      44.347  28.907  28.299  1.00  0.00     0.010 A 
ATOM     45  C   UNL A   1      43.843  30.096  27.748  1.00  0.00    -0.014 A 
BRANCH  45  46
ATOM     46  C   UNL A   1      44.078  31.400  28.410  1.00  0.00     0.031 A 
ATOM     47  C   UNL A   1      43.216  31.894  29.530  1.00  0.00     0.074 A 
ATOM     48  C   UNL A   1      45.137  32.121  27.994  1.00  0.00     0.049 A 
ATOM     49  N   UNL A   1      43.384  32.949  30.284  1.00  0.00    -0.248 NA
ATOM     50  C   UNL A   1      42.013  31.112  29.843  1.00  0.00     0.031 C 
ATOM     51  C   UNL A   1      46.032  31.735  26.900  1.00  0.00     0.029 A 
ATOM     52  N   UNL A   1      45.652  33.307  28.445  1.00  0.00    -0.354 N 
ATOM     53  C   UNL A   1      42.326  32.948  31.184  1.00  0.00     0.074 A 
ATOM     54  C   UNL A   1      41.494  31.810  30.847  1.00  0.00     0.031 C 
ATOM     55  C   UNL A   1      47.002  32.654  26.784  1.00  0.00     0.029 A 
ATOM     56  C   UNL A   1      46.789  33.698  27.782  1.00  0.00     0.049 A 
ATOM     57  H   UNL A   1      45.246  33.828  29.176  1.00  0.00     0.167 HD
ATOM     58  C   UNL A   1      42.090  33.810  32.203  1.00  0.00     0.037 A 
ATOM     59  C   UNL A   1      47.581  34.771  27.961  1.00  0.00     0.037 A 
ATOM     60  C   UNL A   1      42.919  34.951  32.512  1.00  0.00     0.049 A 
ATOM     61  C   UNL A   1      47.269  35.734  29.070  1.00  0.00     0.074 A 
ATOM     62  C   UNL A   1      42.777  35.862  33.546  1.00  0.00     0.029 A 
ATOM     63  N   UNL A   1      44.032  35.348  31.786  1.00  0.00    -0.354 N 
ATOM     64  N   UNL A   1      46.303  35.682  29.956  1.00  0.00    -0.248 NA
ATOM     65  C   UNL A   1      48.157  36.895  29.211  1.00  0.00     0.031 C 
ATOM     66  C   UNL A   1      43.775  36.834  33.417  1.00  0.00     0.029 A 
ATOM     67  C   UNL A   1      44.569  36.505  32.330  1.00  0.00     0.049 A 
ATOM     68  H   UNL A   1      44.389  34.877  30.998  1.00  0.00     0.167 HD
ATOM     69  C   UNL A   1      46.476  36.794  30.770  1.00  0.00     0.074 A 
ATOM     70  C   UNL A   1      47.648  37.492  30.280  1.00  0.00     0.031 C 
ATOM     71  C   UNL A   1      45.729  37.199  31.826  1.00  0.00     0.037 A 
BRANCH  58  72
ATOM     72  C   UNL A   1      40.890  33.557  33.075  1.00  0.00     0.058 A 
ATOM     73  C   UNL A   1      40.993  32.805  34.256  1.00  0.00     0.135 A 
ATOM     74  C   UNL A   1      39.648  34.142  32.779  1.00  0.00     0.135 A 
ATOM     75  F   UNL A   1      42.155  32.218  34.585  1.00  0.00    -0.206 F 
ATOM     76  C   UNL A   1      39.905  32.630  35.106  1.00  0.00     0.059 A 
ATOM     77  C   UNL A   1      38.551  33.999  33.626  1.00  0.00     0.059 A 
ATOM     78  F   UNL A   1      39.495  34.874  31.664  1.00  0.00    -0.206 F 
ATOM     79  C   UNL A   1      38.688  33.236  34.784  1.00  0.00     0.060 A 
BRANCH  79  80
ATOM     80  S   UNL A   1      37.294  33.018  35.910  1.00  0.00     0.124 S 
ATOM     81  O   UNL A   1      37.434  31.613  36.281  1.00  0.00    -0.237 OA
ATOM     82  O   UNL A   1      37.591  33.984  36.963  1.00  0.00    -0.237 OA
ATOM     83  O   UNL A   1      36.134  33.334  35.083  1.00  0.00    -0.744 OA
ENDBRANCH  79  80
ENDBRANCH  58  72
BRANCH  59  84
ATOM     84  C   UNL A   1      48.764  34.957  27.086  1.00  0.00     0.058 A 
ATOM     85  C   UNL A   1      48.684  35.740  25.926  1.00  0.00     0.135 A 
ATOM     86  C   UNL A   1      50.009  34.401  27.420  1.00  0.00     0.135 A 
ATOM     87  F   UNL A   1      47.515  36.292  25.567  1.00  0.00    -0.206 F 
ATOM     88  C   UNL A   1      49.797  35.962  25.122  1.00  0.00     0.059 A 
ATOM     89  C   UNL A   1      51.141  34.627  26.645  1.00  0.00     0.059 A 
ATOM     90  F   UNL A   1      50.137  33.660  28.532  1.00  0.00    -0.206 F 
ATOM     91  C   UNL A   1      51.023  35.406  25.493  1.00  0.00     0.060 A 
BRANCH  91  92
ATOM     92  S   UNL A   1      52.472  35.756  24.477  1.00  0.00     0.124 S 
ATOM     93  O   UNL A   1      53.115  34.447  24.423  1.00  0.00    -0.237 OA
ATOM     94  O   UNL A   1      51.868  36.224  23.233  1.00  0.00    -0.237 OA
ATOM     95  O   UNL A   1      53.182  36.776  25.244  1.00  0.00    -0.744 OA
ENDBRANCH  91  92
ENDBRANCH  59  84
BRANCH  71  96
ATOM     96  C   UNL A   1      46.155  38.459  32.530  1.00  0.00     0.058 A 
ATOM     97  C   UNL A   1      45.631  39.711  32.170  1.00  0.00     0.135 A 
ATOM     98  C   UNL A   1      47.056  38.409  33.606  1.00  0.00     0.135 A 
ATOM     99  F   UNL A   1      44.775  39.815  31.142  1.00  0.00    -0.206 F 
ATOM    100  C   UNL A   1      45.997  40.872  32.844  1.00  0.00     0.059 A 
ATOM    101  C   UNL A   1      47.416  39.555  34.310  1.00  0.00     0.059 A 
ATOM    102  F   UNL A   1      47.582  37.237  33.994  1.00  0.00    -0.206 F 
ATOM    103  C   UNL A   1      46.888  40.783  33.916  1.00  0.00     0.060 A 
BRANCH 103 104
ATOM    104  S   UNL A   1      47.321  42.294  34.805  1.00  0.00     0.124 S 
ATOM    105  O   UNL A   1      46.675  42.072  36.095  1.00  0.00    -0.237 OA
ATOM    106  O   UNL A   1      48.780  42.244  34.810  1.00  0.00    -0.237 OA
ATOM    107  O   UNL A   1      46.737  43.350  33.986  1.00  0.00    -0.744 OA
ENDBRANCH 103 104
ENDBRANCH  71  96
ENDBRANCH  45  46
ENDBRANCH  38  40
ENDBRANCH  37  38
ENDBRANCH  36  37
ENDBRANCH  35  36
ENDBRANCH  34  35
ENDBRANCH  33  34
ENDBRANCH  32  33
ENDBRANCH   1  32
TORSDOF 27
ENDMDL
