MODEL 1
REMARK VINA RESULT:      -8.5      0.000      0.000
REMARK SMILES CCOC(=O)[C@@H]1CCCCN1C(=O)N[C@](C)(CC)C(=O)OCCOCCOCCOCCOC(=O)c1ccc(-c2c3nc(c(-c4c(F)cc(S(=O)(=O)[O-])cc4F)c4ccc([nH]4)c(-c4c(F)cc(S(=O)(=O)[O-])cc4F)c4nc(c(-c5c(F)cc(S(=O)(=O)[O-])cc5F)c5ccc2[nH]5)C=C4)C=C3)cc1
REMARK SMILES IDX 26 1 25 2 24 3 23 4 22 5 21 6 19 7 20 8 15 9 16 10 14 11
REMARK SMILES IDX 12 12 13 13 11 15 6 16 7 17 8 18 10 19 9 20 4 21 5 22 3 23
REMARK SMILES IDX 2 24 1 25 17 26 18 27 27 28 28 29 29 30 30 31 31 32 32 33
REMARK SMILES IDX 33 34 34 35 35 36 36 37 37 38 101 39 38 40 100 41 39 42
REMARK SMILES IDX 40 43 41 44 94 45 42 46 99 47 93 48 95 49 43 50 98 51 92 52
REMARK SMILES IDX 91 53 44 55 78 56 57 57 77 58 58 59 61 60 76 61 96 62 59 63
REMARK SMILES IDX 60 64 75 66 97 67 62 68 45 69 46 70 55 71 47 72 48 73 54 74
REMARK SMILES IDX 56 75 49 76 50 77 51 78 52 79 53 80 79 81 80 82 89 83 81 84
REMARK SMILES IDX 82 85 88 86 90 87 83 88 84 89 85 90 86 91 87 92 63 93 64 94
REMARK SMILES IDX 73 95 65 96 66 97 72 98 74 99 67 100 68 101 69 102 70 103
REMARK SMILES IDX 71 104
REMARK H PARENT 14 14 95 54 61 65
REMARK Flexibility Score: inf
ROOT
ATOM      1  C   UNL A   1      31.843  30.815  25.974  1.00  0.00     0.188 C 
ENDROOT
BRANCH   1   2
ATOM      2  C   UNL A   1      32.895  29.688  25.798  1.00  0.00     0.188 C 
BRANCH   2   3
ATOM      3  O   UNL A   1      33.024  29.382  24.406  1.00  0.00    -0.376 OA
BRANCH   3   4
ATOM      4  C   UNL A   1      34.319  29.139  23.880  1.00  0.00     0.202 C 
BRANCH   4   5
ATOM      5  C   UNL A   1      34.314  28.579  22.364  1.00  0.00     0.261 C 
BRANCH   5   6
ATOM      6  O   UNL A   1      33.718  26.847  21.780  1.00  0.00    -0.462 OA
BRANCH   6   7
ATOM      7  C   UNL A   1      33.054  25.564  21.652  1.00  0.00     0.331 C 
ATOM      8  O   UNL A   1      32.077  25.541  20.886  1.00  0.00    -0.249 OA
BRANCH   7   9
ATOM      9  C   UNL A   1      33.416  24.171  22.528  1.00  0.00     0.136 C 
ATOM     10  C   UNL A   1      32.041  23.455  22.591  1.00  0.00     0.047 C 
BRANCH   9  11
ATOM     11  N   UNL A   1      33.828  24.905  23.699  1.00  0.00    -0.322 N 
ATOM     12  C   UNL A   1      32.875  25.173  24.659  1.00  0.00     0.319 C 
ATOM     13  O   UNL A   1      33.140  25.942  25.575  1.00  0.00    -0.249 OA
ATOM     14  H   UNL A   1      34.760  25.203  23.809  1.00  0.00     0.166 HD
BRANCH  12  15
ATOM     15  N   UNL A   1      31.787  24.271  24.675  1.00  0.00    -0.311 N 
ATOM     16  C   UNL A   1      30.315  25.338  24.671  1.00  0.00     0.196 C 
ATOM     17  C   UNL A   1      29.017  25.157  26.083  1.00  0.00     0.037 C 
ATOM     18  C   UNL A   1      29.044  23.631  27.236  1.00  0.00     0.005 C 
ATOM     19  C   UNL A   1      31.728  22.590  25.536  1.00  0.00     0.122 C 
ATOM     20  C   UNL A   1      30.521  22.386  27.083  1.00  0.00     0.022 C 
BRANCH  16  21
ATOM     21  C   UNL A   1      30.497  26.852  24.548  1.00  0.00     0.328 C 
ATOM     22  O   UNL A   1      30.743  27.586  25.497  1.00  0.00    -0.250 OA
BRANCH  21  23
ATOM     23  O   UNL A   1      30.570  27.221  23.240  1.00  0.00    -0.464 OA
BRANCH  23  24
ATOM     24  C   UNL A   1      29.923  28.457  22.926  1.00  0.00     0.229 C 
ATOM     25  C   UNL A   1      28.427  28.318  23.089  1.00  0.00     0.049 C 
ENDBRANCH  23  24
ENDBRANCH  21  23
ENDBRANCH  16  21
ENDBRANCH  12  15
ENDBRANCH   9  11
BRANCH   9  26
ATOM     26  C   UNL A   1      34.447  22.958  22.653  1.00  0.00     0.037 C 
ATOM     27  C   UNL A   1      35.816  23.079  23.321  1.00  0.00     0.007 C 
ENDBRANCH   9  26
ENDBRANCH   7   9
ENDBRANCH   6   7
ENDBRANCH   5   6
ENDBRANCH   4   5
ENDBRANCH   3   4
ENDBRANCH   2   3
ENDBRANCH   1   2
BRANCH   1  28
ATOM     28  O   UNL A   1      31.851  31.446  27.256  1.00  0.00    -0.377 OA
BRANCH  28  29
ATOM     29  C   UNL A   1      32.441  32.749  27.290  1.00  0.00     0.188 C 
BRANCH  29  30
ATOM     30  C   UNL A   1      33.962  32.702  27.440  1.00  0.00     0.188 C 
BRANCH  30  31
ATOM     31  O   UNL A   1      34.444  32.872  28.771  1.00  0.00    -0.376 OA
BRANCH  31  32
ATOM     32  C   UNL A   1      34.065  34.078  29.431  1.00  0.00     0.202 C 
BRANCH  32  33
ATOM     33  C   UNL A   1      34.144  34.034  30.962  1.00  0.00     0.261 C 
BRANCH  33  34
ATOM     34  O   UNL A   1      34.120  32.689  31.489  1.00  0.00    -0.460 OA
BRANCH  34  35
ATOM     35  C   UNL A   1      35.062  32.406  32.416  1.00  0.00     0.338 C 
ATOM     36  O   UNL A   1      35.042  32.728  33.605  1.00  0.00    -0.246 OA
BRANCH  35  37
ATOM     37  C   UNL A   1      36.081  31.487  31.876  1.00  0.00     0.060 A 
ATOM     38  C   UNL A   1      37.027  30.943  32.759  1.00  0.00     0.016 A 
ATOM     39  C   UNL A   1      36.206  31.293  30.499  1.00  0.00     0.016 A 
ATOM     40  C   UNL A   1      38.152  30.287  32.262  1.00  0.00     0.010 A 
ATOM     41  C   UNL A   1      37.345  30.650  30.001  1.00  0.00     0.010 A 
ATOM     42  C   UNL A   1      38.351  30.206  30.878  1.00  0.00    -0.014 A 
BRANCH  42  43
ATOM     43  C   UNL A   1      39.716  29.926  30.365  1.00  0.00     0.031 A 
ATOM     44  C   UNL A   1      40.729  31.043  30.406  1.00  0.00     0.074 A 
ATOM     45  C   UNL A   1      40.063  28.710  29.913  1.00  0.00     0.049 A 
ATOM     46  N   UNL A   1      41.975  31.054  30.007  1.00  0.00    -0.248 NA
ATOM     47  C   UNL A   1      40.271  32.323  30.974  1.00  0.00     0.031 C 
ATOM     48  C   UNL A   1      39.185  27.543  29.858  1.00  0.00     0.029 A 
ATOM     49  N   UNL A   1      41.257  28.259  29.409  1.00  0.00    -0.354 N 
ATOM     50  C   UNL A   1      42.445  32.335  30.269  1.00  0.00     0.074 A 
ATOM     51  C   UNL A   1      41.346  33.084  30.837  1.00  0.00     0.031 C 
ATOM     52  C   UNL A   1      39.869  26.509  29.334  1.00  0.00     0.029 A 
ATOM     53  C   UNL A   1      41.223  26.948  29.001  1.00  0.00     0.049 A 
ATOM     54  H   UNL A   1      42.062  28.823  29.345  1.00  0.00     0.167 HD
ATOM     55  C   UNL A   1      43.684  32.845  30.065  1.00  0.00     0.037 A 
ATOM     56  C   UNL A   1      42.176  26.196  28.415  1.00  0.00     0.037 A 
ATOM     57  C   UNL A   1      44.776  32.099  29.499  1.00  0.00     0.049 A 
ATOM     58  C   UNL A   1      43.536  26.795  28.160  1.00  0.00     0.074 A 
ATOM     59  C   UNL A   1      46.071  32.518  29.251  1.00  0.00     0.029 A 
ATOM     60  N   UNL A   1      44.698  30.777  29.086  1.00  0.00    -0.354 N 
ATOM     61  N   UNL A   1      43.971  28.004  28.424  1.00  0.00    -0.248 NA
ATOM     62  C   UNL A   1      44.538  25.921  27.534  1.00  0.00     0.031 C 
ATOM     63  C   UNL A   1      46.768  31.459  28.658  1.00  0.00     0.029 A 
ATOM     64  C   UNL A   1      45.918  30.368  28.576  1.00  0.00     0.049 A 
ATOM     65  H   UNL A   1      43.894  30.213  29.148  1.00  0.00     0.167 HD
ATOM     66  C   UNL A   1      45.303  28.027  28.021  1.00  0.00     0.074 A 
ATOM     67  C   UNL A   1      45.605  26.707  27.507  1.00  0.00     0.031 C 
ATOM     68  C   UNL A   1      46.199  29.046  28.073  1.00  0.00     0.037 A 
BRANCH  55  69
ATOM     69  C   UNL A   1      43.909  34.284  30.436  1.00  0.00     0.058 A 
ATOM     70  C   UNL A   1      43.733  35.321  29.506  1.00  0.00     0.135 A 
ATOM     71  C   UNL A   1      44.298  34.631  31.739  1.00  0.00     0.135 A 
ATOM     72  F   UNL A   1      43.384  35.042  28.239  1.00  0.00    -0.206 F 
ATOM     73  C   UNL A   1      43.960  36.650  29.848  1.00  0.00     0.059 A 
ATOM     74  C   UNL A   1      44.507  35.957  32.110  1.00  0.00     0.059 A 
ATOM     75  F   UNL A   1      44.486  33.678  32.664  1.00  0.00    -0.206 F 
ATOM     76  C   UNL A   1      44.350  36.958  31.152  1.00  0.00     0.060 A 
BRANCH  76  77
ATOM     77  S   UNL A   1      44.642  38.687  31.584  1.00  0.00     0.124 S 
ATOM     78  O   UNL A   1      43.901  38.804  32.835  1.00  0.00    -0.237 OA
ATOM     79  O   UNL A   1      46.096  38.740  31.702  1.00  0.00    -0.237 OA
ATOM     80  O   UNL A   1      44.083  39.419  30.452  1.00  0.00    -0.744 OA
ENDBRANCH  76  77
ENDBRANCH  55  69
BRANCH  56  81
ATOM     81  C   UNL A   1      41.883  24.790  28.033  1.00  0.00     0.058 A 
ATOM     82  C   UNL A   1      41.084  24.493  26.920  1.00  0.00     0.135 A 
ATOM     83  C   UNL A   1      42.390  23.713  28.780  1.00  0.00     0.135 A 
ATOM     84  F   UNL A   1      40.568  25.488  26.182  1.00  0.00    -0.206 F 
ATOM     85  C   UNL A   1      40.781  23.183  26.568  1.00  0.00     0.059 A 
ATOM     86  C   UNL A   1      42.122  22.392  28.433  1.00  0.00     0.059 A 
ATOM     87  F   UNL A   1      43.166  23.945  29.850  1.00  0.00    -0.206 F 
ATOM     88  C   UNL A   1      41.306  22.137  27.331  1.00  0.00     0.060 A 
BRANCH  88  89
ATOM     89  S   UNL A   1      40.933  20.440  26.841  1.00  0.00     0.124 S 
ATOM     90  O   UNL A   1      40.631  19.823  28.127  1.00  0.00    -0.237 OA
ATOM     91  O   UNL A   1      39.798  20.623  25.941  1.00  0.00    -0.237 OA
ATOM     92  O   UNL A   1      42.167  19.995  26.202  1.00  0.00    -0.744 OA
ENDBRANCH  88  89
ENDBRANCH  56  81
BRANCH  68  93
ATOM     93  C   UNL A   1      47.595  28.757  27.595  1.00  0.00     0.058 A 
ATOM     94  C   UNL A   1      47.939  28.820  26.236  1.00  0.00     0.135 A 
ATOM     95  C   UNL A   1      48.605  28.430  28.514  1.00  0.00     0.135 A 
ATOM     96  F   UNL A   1      47.009  29.127  25.318  1.00  0.00    -0.206 F 
ATOM     97  C   UNL A   1      49.227  28.527  25.799  1.00  0.00     0.059 A 
ATOM     98  C   UNL A   1      49.906  28.160  28.102  1.00  0.00     0.059 A 
ATOM     99  F   UNL A   1      48.333  28.375  29.827  1.00  0.00    -0.206 F 
ATOM    100  C   UNL A   1      50.202  28.189  26.740  1.00  0.00     0.060 A 
BRANCH 100 101
ATOM    101  S   UNL A   1      51.870  27.804  26.166  1.00  0.00     0.124 S 
ATOM    102  O   UNL A   1      52.482  27.276  27.381  1.00  0.00    -0.237 OA
ATOM    103  O   UNL A   1      51.624  26.831  25.106  1.00  0.00    -0.237 OA
ATOM    104  O   UNL A   1      52.379  29.095  25.716  1.00  0.00    -0.744 OA
ENDBRANCH 100 101
ENDBRANCH  68  93
ENDBRANCH  42  43
ENDBRANCH  35  37
ENDBRANCH  34  35
ENDBRANCH  33  34
ENDBRANCH  32  33
ENDBRANCH  31  32
ENDBRANCH  30  31
ENDBRANCH  29  30
ENDBRANCH  28  29
ENDBRANCH   1  28
TORSDOF 29
ENDMDL
MODEL 2
REMARK VINA RESULT:      -8.1      5.373      8.963
REMARK SMILES CCOC(=O)[C@@H]1CCCCN1C(=O)N[C@](C)(CC)C(=O)OCCOCCOCCOCCOC(=O)c1ccc(-c2c3nc(c(-c4c(F)cc(S(=O)(=O)[O-])cc4F)c4ccc([nH]4)c(-c4c(F)cc(S(=O)(=O)[O-])cc4F)c4nc(c(-c5c(F)cc(S(=O)(=O)[O-])cc5F)c5ccc2[nH]5)C=C4)C=C3)cc1
REMARK SMILES IDX 26 1 25 2 24 3 23 4 22 5 21 6 19 7 20 8 15 9 16 10 14 11
REMARK SMILES IDX 12 12 13 13 11 15 6 16 7 17 8 18 10 19 9 20 4 21 5 22 3 23
REMARK SMILES IDX 2 24 1 25 17 26 18 27 27 28 28 29 29 30 30 31 31 32 32 33
REMARK SMILES IDX 33 34 34 35 35 36 36 37 37 38 101 39 38 40 100 41 39 42
REMARK SMILES IDX 40 43 41 44 94 45 42 46 99 47 93 48 95 49 43 50 98 51 92 52
REMARK SMILES IDX 91 53 44 55 78 56 57 57 77 58 58 59 61 60 76 61 96 62 59 63
REMARK SMILES IDX 60 64 75 66 97 67 62 68 45 69 46 70 55 71 47 72 48 73 54 74
REMARK SMILES IDX 56 75 49 76 50 77 51 78 52 79 53 80 79 81 80 82 89 83 81 84
REMARK SMILES IDX 82 85 88 86 90 87 83 88 84 89 85 90 86 91 87 92 63 93 64 94
REMARK SMILES IDX 73 95 65 96 66 97 72 98 74 99 67 100 68 101 69 102 70 103
REMARK SMILES IDX 71 104
REMARK H PARENT 14 14 95 54 61 65
REMARK Flexibility Score: inf
ROOT
ATOM      1  C   UNL A   1      31.567  30.300  25.852  1.00  0.00     0.188 C 
ENDROOT
BRANCH   1   2
ATOM      2  C   UNL A   1      32.813  29.408  25.604  1.00  0.00     0.188 C 
BRANCH   2   3
ATOM      3  O   UNL A   1      33.000  29.247  24.194  1.00  0.00    -0.376 OA
BRANCH   3   4
ATOM      4  C   UNL A   1      34.256  28.786  23.723  1.00  0.00     0.202 C 
BRANCH   4   5
ATOM      5  C   UNL A   1      34.225  28.249  22.200  1.00  0.00     0.261 C 
BRANCH   5   6
ATOM      6  O   UNL A   1      33.905  26.443  21.624  1.00  0.00    -0.462 OA
BRANCH   6   7
ATOM      7  C   UNL A   1      33.540  25.040  21.546  1.00  0.00     0.331 C 
ATOM      8  O   UNL A   1      32.749  24.743  20.637  1.00  0.00    -0.249 OA
BRANCH   7   9
ATOM      9  C   UNL A   1      33.993  23.839  22.637  1.00  0.00     0.136 C 
ATOM     10  C   UNL A   1      32.704  22.982  22.738  1.00  0.00     0.047 C 
BRANCH   9  11
ATOM     11  N   UNL A   1      34.245  24.774  23.704  1.00  0.00    -0.322 N 
ATOM     12  C   UNL A   1      33.230  25.007  24.610  1.00  0.00     0.319 C 
ATOM     13  O   UNL A   1      33.340  25.921  25.418  1.00  0.00    -0.249 OA
ATOM     14  H   UNL A   1      35.114  25.231  23.784  1.00  0.00     0.166 HD
BRANCH  12  15
ATOM     15  N   UNL A   1      32.300  23.950  24.733  1.00  0.00    -0.311 N 
ATOM     16  C   UNL A   1      30.678  24.772  24.711  1.00  0.00     0.196 C 
ATOM     17  C   UNL A   1      29.465  24.500  26.183  1.00  0.00     0.037 C 
ATOM     18  C   UNL A   1      29.765  23.089  27.440  1.00  0.00     0.005 C 
ATOM     19  C   UNL A   1      32.531  22.352  25.713  1.00  0.00     0.122 C 
ATOM     20  C   UNL A   1      31.416  22.082  27.317  1.00  0.00     0.022 C 
BRANCH  16  21
ATOM     21  C   UNL A   1      30.615  26.282  24.473  1.00  0.00     0.328 C 
ATOM     22  O   UNL A   1      30.465  27.104  25.368  1.00  0.00    -0.250 OA
BRANCH  21  23
ATOM     23  O   UNL A   1      30.966  26.580  23.192  1.00  0.00    -0.464 OA
BRANCH  23  24
ATOM     24  C   UNL A   1      30.282  27.700  22.626  1.00  0.00     0.229 C 
ATOM     25  C   UNL A   1      28.866  27.765  23.148  1.00  0.00     0.049 C 
ENDBRANCH  23  24
ENDBRANCH  21  23
ENDBRANCH  16  21
ENDBRANCH  12  15
ENDBRANCH   9  11
BRANCH   9  26
ATOM     26  C   UNL A   1      35.140  22.785  22.992  1.00  0.00     0.037 C 
ATOM     27  C   UNL A   1      36.469  23.171  23.640  1.00  0.00     0.007 C 
ENDBRANCH   9  26
ENDBRANCH   7   9
ENDBRANCH   6   7
ENDBRANCH   5   6
ENDBRANCH   4   5
ENDBRANCH   3   4
ENDBRANCH   2   3
ENDBRANCH   1   2
BRANCH   1  28
ATOM     28  O   UNL A   1      31.621  31.085  27.044  1.00  0.00    -0.377 OA
BRANCH  28  29
ATOM     29  C   UNL A   1      32.502  32.212  26.993  1.00  0.00     0.188 C 
BRANCH  29  30
ATOM     30  C   UNL A   1      33.863  31.924  27.626  1.00  0.00     0.188 C 
BRANCH  30  31
ATOM     31  O   UNL A   1      34.371  32.958  28.464  1.00  0.00    -0.376 OA
BRANCH  31  32
ATOM     32  C   UNL A   1      34.538  34.238  27.858  1.00  0.00     0.202 C 
BRANCH  32  33
ATOM     33  C   UNL A   1      33.830  35.395  28.574  1.00  0.00     0.261 C 
BRANCH  33  34
ATOM     34  O   UNL A   1      32.898  34.946  29.584  1.00  0.00    -0.460 OA
BRANCH  34  35
ATOM     35  C   UNL A   1      32.880  35.670  30.725  1.00  0.00     0.338 C 
ATOM     36  O   UNL A   1      32.107  36.589  30.999  1.00  0.00    -0.246 OA
BRANCH  35  37
ATOM     37  C   UNL A   1      33.808  35.110  31.725  1.00  0.00     0.060 A 
ATOM     38  C   UNL A   1      34.255  35.942  32.763  1.00  0.00     0.016 A 
ATOM     39  C   UNL A   1      34.358  33.839  31.552  1.00  0.00     0.016 A 
ATOM     40  C   UNL A   1      35.320  35.544  33.569  1.00  0.00     0.010 A 
ATOM     41  C   UNL A   1      35.439  33.449  32.350  1.00  0.00     0.010 A 
ATOM     42  C   UNL A   1      35.965  34.328  33.315  1.00  0.00    -0.014 A 
BRANCH  42  43
ATOM     43  C   UNL A   1      37.333  34.114  33.850  1.00  0.00     0.031 A 
ATOM     44  C   UNL A   1      37.482  33.864  35.330  1.00  0.00     0.074 A 
ATOM     45  C   UNL A   1      38.410  34.101  33.047  1.00  0.00     0.049 A 
ATOM     46  N   UNL A   1      38.564  33.665  36.037  1.00  0.00    -0.248 NA
ATOM     47  C   UNL A   1      36.237  33.838  36.119  1.00  0.00     0.031 C 
ATOM     48  C   UNL A   1      38.389  34.293  31.598  1.00  0.00     0.029 A 
ATOM     49  N   UNL A   1      39.736  33.919  33.346  1.00  0.00    -0.354 N 
ATOM     50  C   UNL A   1      38.133  33.495  37.348  1.00  0.00     0.074 A 
ATOM     51  C   UNL A   1      36.695  33.642  37.346  1.00  0.00     0.031 C 
ATOM     52  C   UNL A   1      39.652  34.233  31.135  1.00  0.00     0.029 A 
ATOM     53  C   UNL A   1      40.565  34.017  32.255  1.00  0.00     0.049 A 
ATOM     54  H   UNL A   1      40.063  33.737  34.257  1.00  0.00     0.167 HD
ATOM     55  C   UNL A   1      38.866  33.233  38.457  1.00  0.00     0.037 A 
ATOM     56  C   UNL A   1      41.910  33.950  32.178  1.00  0.00     0.037 A 
ATOM     57  C   UNL A   1      40.298  33.089  38.458  1.00  0.00     0.049 A 
ATOM     58  C   UNL A   1      42.710  33.697  33.430  1.00  0.00     0.074 A 
ATOM     59  C   UNL A   1      41.138  32.820  39.524  1.00  0.00     0.029 A 
ATOM     60  N   UNL A   1      41.103  33.207  37.335  1.00  0.00    -0.354 N 
ATOM     61  N   UNL A   1      42.289  33.527  34.662  1.00  0.00    -0.248 NA
ATOM     62  C   UNL A   1      44.169  33.618  33.279  1.00  0.00     0.031 C 
ATOM     63  C   UNL A   1      42.455  32.809  39.051  1.00  0.00     0.029 A 
ATOM     64  C   UNL A   1      42.431  33.027  37.683  1.00  0.00     0.049 A 
ATOM     65  H   UNL A   1      40.778  33.391  36.424  1.00  0.00     0.167 HD
ATOM     66  C   UNL A   1      43.429  33.295  35.426  1.00  0.00     0.074 A 
ATOM     67  C   UNL A   1      44.555  33.334  34.515  1.00  0.00     0.031 C 
ATOM     68  C   UNL A   1      43.537  33.067  36.760  1.00  0.00     0.037 A 
BRANCH  55  69
ATOM     69  C   UNL A   1      38.128  33.111  39.760  1.00  0.00     0.058 A 
ATOM     70  C   UNL A   1      37.486  31.920  40.134  1.00  0.00     0.135 A 
ATOM     71  C   UNL A   1      38.069  34.194  40.650  1.00  0.00     0.135 A 
ATOM     72  F   UNL A   1      37.491  30.859  39.310  1.00  0.00    -0.206 F 
ATOM     73  C   UNL A   1      36.788  31.815  41.334  1.00  0.00     0.059 A 
ATOM     74  C   UNL A   1      37.397  34.105  41.867  1.00  0.00     0.059 A 
ATOM     75  F   UNL A   1      38.661  35.357  40.338  1.00  0.00    -0.206 F 
ATOM     76  C   UNL A   1      36.748  32.916  42.192  1.00  0.00     0.060 A 
BRANCH  76  77
ATOM     77  S   UNL A   1      35.838  32.769  43.746  1.00  0.00     0.124 S 
ATOM     78  O   UNL A   1      35.135  34.047  43.793  1.00  0.00    -0.237 OA
ATOM     79  O   UNL A   1      35.003  31.595  43.511  1.00  0.00    -0.237 OA
ATOM     80  O   UNL A   1      36.891  32.595  44.741  1.00  0.00    -0.744 OA
ENDBRANCH  76  77
ENDBRANCH  55  69
BRANCH  56  81
ATOM     81  C   UNL A   1      42.588  34.118  30.866  1.00  0.00     0.058 A 
ATOM     82  C   UNL A   1      42.688  33.051  29.961  1.00  0.00     0.135 A 
ATOM     83  C   UNL A   1      43.156  35.347  30.494  1.00  0.00     0.135 A 
ATOM     84  F   UNL A   1      42.170  31.855  30.276  1.00  0.00    -0.206 F 
ATOM     85  C   UNL A   1      43.343  33.189  28.742  1.00  0.00     0.059 A 
ATOM     86  C   UNL A   1      43.795  35.516  29.268  1.00  0.00     0.059 A 
ATOM     87  F   UNL A   1      43.081  36.400  31.322  1.00  0.00    -0.206 F 
ATOM     88  C   UNL A   1      43.893  34.427  28.403  1.00  0.00     0.060 A 
BRANCH  88  89
ATOM     89  S   UNL A   1      44.709  34.600  26.802  1.00  0.00     0.124 S 
ATOM     90  O   UNL A   1      43.567  34.641  25.895  1.00  0.00    -0.237 OA
ATOM     91  O   UNL A   1      45.439  35.854  26.963  1.00  0.00    -0.237 OA
ATOM     92  O   UNL A   1      45.540  33.404  26.716  1.00  0.00    -0.744 OA
ENDBRANCH  88  89
ENDBRANCH  56  81
BRANCH  68  93
ATOM     93  C   UNL A   1      44.915  32.807  37.302  1.00  0.00     0.058 A 
ATOM     94  C   UNL A   1      45.729  33.844  37.782  1.00  0.00     0.135 A 
ATOM     95  C   UNL A   1      45.420  31.497  37.356  1.00  0.00     0.135 A 
ATOM     96  F   UNL A   1      45.293  35.113  37.750  1.00  0.00    -0.206 F 
ATOM     97  C   UNL A   1      47.013  33.598  38.259  1.00  0.00     0.059 A 
ATOM     98  C   UNL A   1      46.690  31.225  37.854  1.00  0.00     0.059 A 
ATOM     99  F   UNL A   1      44.675  30.467  36.926  1.00  0.00    -0.206 F 
ATOM    100  C   UNL A   1      47.487  32.286  38.282  1.00  0.00     0.060 A 
BRANCH 100 101
ATOM    101  S   UNL A   1      49.157  31.974  38.897  1.00  0.00     0.124 S 
ATOM    102  O   UNL A   1      48.886  31.501  40.249  1.00  0.00    -0.237 OA
ATOM    103  O   UNL A   1      49.656  30.970  37.962  1.00  0.00    -0.237 OA
ATOM    104  O   UNL A   1      49.800  33.281  38.805  1.00  0.00    -0.744 OA
ENDBRANCH 100 101
ENDBRANCH  68  93
ENDBRANCH  42  43
ENDBRANCH  35  37
ENDBRANCH  34  35
ENDBRANCH  33  34
ENDBRANCH  32  33
ENDBRANCH  31  32
ENDBRANCH  30  31
ENDBRANCH  29  30
ENDBRANCH  28  29
ENDBRANCH   1  28
TORSDOF 29
ENDMDL
MODEL 3
REMARK VINA RESULT:      -7.8      7.468     12.353
REMARK SMILES CCOC(=O)[C@@H]1CCCCN1C(=O)N[C@](C)(CC)C(=O)OCCOCCOCCOCCOC(=O)c1ccc(-c2c3nc(c(-c4c(F)cc(S(=O)(=O)[O-])cc4F)c4ccc([nH]4)c(-c4c(F)cc(S(=O)(=O)[O-])cc4F)c4nc(c(-c5c(F)cc(S(=O)(=O)[O-])cc5F)c5ccc2[nH]5)C=C4)C=C3)cc1
REMARK SMILES IDX 26 1 25 2 24 3 23 4 22 5 21 6 19 7 20 8 15 9 16 10 14 11
REMARK SMILES IDX 12 12 13 13 11 15 6 16 7 17 8 18 10 19 9 20 4 21 5 22 3 23
REMARK SMILES IDX 2 24 1 25 17 26 18 27 27 28 28 29 29 30 30 31 31 32 32 33
REMARK SMILES IDX 33 34 34 35 35 36 36 37 37 38 101 39 38 40 100 41 39 42
REMARK SMILES IDX 40 43 41 44 94 45 42 46 99 47 93 48 95 49 43 50 98 51 92 52
REMARK SMILES IDX 91 53 44 55 78 56 57 57 77 58 58 59 61 60 76 61 96 62 59 63
REMARK SMILES IDX 60 64 75 66 97 67 62 68 45 69 46 70 55 71 47 72 48 73 54 74
REMARK SMILES IDX 56 75 49 76 50 77 51 78 52 79 53 80 79 81 80 82 89 83 81 84
REMARK SMILES IDX 82 85 88 86 90 87 83 88 84 89 85 90 86 91 87 92 63 93 64 94
REMARK SMILES IDX 73 95 65 96 66 97 72 98 74 99 67 100 68 101 69 102 70 103
REMARK SMILES IDX 71 104
REMARK H PARENT 14 14 95 54 61 65
REMARK Flexibility Score: inf
ROOT
ATOM      1  C   UNL A   1      38.792  29.165  30.834  1.00  0.00     0.188 C 
ENDROOT
BRANCH   1   2
ATOM      2  C   UNL A   1      40.072  28.632  30.137  1.00  0.00     0.188 C 
BRANCH   2   3
ATOM      3  O   UNL A   1      41.107  29.614  30.246  1.00  0.00    -0.376 OA
BRANCH   3   4
ATOM      4  C   UNL A   1      42.372  29.335  29.670  1.00  0.00     0.202 C 
BRANCH   4   5
ATOM      5  C   UNL A   1      42.700  27.757  29.547  1.00  0.00     0.261 C 
BRANCH   5   6
ATOM      6  O   UNL A   1      43.318  26.829  27.982  1.00  0.00    -0.462 OA
BRANCH   6   7
ATOM      7  C   UNL A   1      43.648  26.436  26.624  1.00  0.00     0.331 C 
ATOM      8  O   UNL A   1      42.812  26.745  25.760  1.00  0.00    -0.249 OA
BRANCH   7   9
ATOM      9  C   UNL A   1      44.977  25.512  26.157  1.00  0.00     0.136 C 
ATOM     10  C   UNL A   1      44.415  24.715  24.950  1.00  0.00     0.047 C 
BRANCH   9  11
ATOM     11  N   UNL A   1      45.056  24.822  27.420  1.00  0.00    -0.322 N 
ATOM     12  C   UNL A   1      44.510  23.557  27.499  1.00  0.00     0.319 C 
ATOM     13  O   UNL A   1      44.398  23.015  28.591  1.00  0.00    -0.249 OA
ATOM     14  H   UNL A   1      45.489  25.239  28.200  1.00  0.00     0.166 HD
BRANCH  12  15
ATOM     15  N   UNL A   1      44.436  22.872  26.264  1.00  0.00    -0.311 N 
ATOM     16  C   UNL A   1      42.703  22.333  26.151  1.00  0.00     0.196 C 
ATOM     17  C   UNL A   1      42.313  20.460  25.920  1.00  0.00     0.037 C 
ATOM     18  C   UNL A   1      43.693  19.238  25.408  1.00  0.00     0.005 C 
ATOM     19  C   UNL A   1      45.798  21.834  25.467  1.00  0.00     0.122 C 
ATOM     20  C   UNL A   1      45.518  19.886  25.332  1.00  0.00     0.022 C 
BRANCH  16  21
ATOM     21  C   UNL A   1      41.718  22.769  27.237  1.00  0.00     0.328 C 
ATOM     22  O   UNL A   1      41.579  22.182  28.303  1.00  0.00    -0.250 OA
BRANCH  21  23
ATOM     23  O   UNL A   1      41.201  23.995  26.950  1.00  0.00    -0.464 OA
BRANCH  23  24
ATOM     24  C   UNL A   1      40.619  24.678  28.063  1.00  0.00     0.229 C 
ATOM     25  C   UNL A   1      39.232  25.163  27.709  1.00  0.00     0.049 C 
ENDBRANCH  23  24
ENDBRANCH  21  23
ENDBRANCH  16  21
ENDBRANCH  12  15
ENDBRANCH   9  11
BRANCH   9  26
ATOM     26  C   UNL A   1      46.541  25.571  25.838  1.00  0.00     0.037 C 
ATOM     27  C   UNL A   1      47.620  25.114  26.819  1.00  0.00     0.007 C 
ENDBRANCH   9  26
ENDBRANCH   7   9
ENDBRANCH   6   7
ENDBRANCH   5   6
ENDBRANCH   4   5
ENDBRANCH   3   4
ENDBRANCH   2   3
ENDBRANCH   1   2
BRANCH   1  28
ATOM     28  O   UNL A   1      37.565  28.659  30.303  1.00  0.00    -0.377 OA
BRANCH  28  29
ATOM     29  C   UNL A   1      36.594  29.652  29.959  1.00  0.00     0.188 C 
BRANCH  29  30
ATOM     30  C   UNL A   1      36.792  30.960  30.728  1.00  0.00     0.188 C 
BRANCH  30  31
ATOM     31  O   UNL A   1      35.598  31.692  30.991  1.00  0.00    -0.376 OA
BRANCH  31  32
ATOM     32  C   UNL A   1      35.310  32.771  30.104  1.00  0.00     0.202 C 
BRANCH  32  33
ATOM     33  C   UNL A   1      34.926  34.089  30.787  1.00  0.00     0.261 C 
BRANCH  33  34
ATOM     34  O   UNL A   1      34.620  33.929  32.191  1.00  0.00    -0.460 OA
BRANCH  34  35
ATOM     35  C   UNL A   1      35.383  34.649  33.042  1.00  0.00     0.338 C 
ATOM     36  O   UNL A   1      35.068  35.703  33.597  1.00  0.00    -0.246 OA
BRANCH  35  37
ATOM     37  C   UNL A   1      36.620  33.926  33.389  1.00  0.00     0.060 A 
ATOM     38  C   UNL A   1      36.512  32.701  34.067  1.00  0.00     0.016 A 
ATOM     39  C   UNL A   1      37.869  34.519  33.199  1.00  0.00     0.016 A 
ATOM     40  C   UNL A   1      37.640  32.117  34.641  1.00  0.00     0.010 A 
ATOM     41  C   UNL A   1      38.997  33.941  33.791  1.00  0.00     0.010 A 
ATOM     42  C   UNL A   1      38.873  32.776  34.568  1.00  0.00    -0.014 A 
BRANCH  42  43
ATOM     43  C   UNL A   1      39.942  32.405  35.529  1.00  0.00     0.031 A 
ATOM     44  C   UNL A   1      41.119  31.617  35.009  1.00  0.00     0.074 A 
ATOM     45  C   UNL A   1      39.897  32.787  36.816  1.00  0.00     0.049 A 
ATOM     46  N   UNL A   1      42.167  31.164  35.647  1.00  0.00    -0.248 NA
ATOM     47  C   UNL A   1      41.108  31.296  33.571  1.00  0.00     0.031 C 
ATOM     48  C   UNL A   1      38.832  33.580  37.428  1.00  0.00     0.029 A 
ATOM     49  N   UNL A   1      40.775  32.551  37.843  1.00  0.00    -0.354 N 
ATOM     50  C   UNL A   1      42.934  30.503  34.694  1.00  0.00     0.074 A 
ATOM     51  C   UNL A   1      42.220  30.589  33.439  1.00  0.00     0.031 C 
ATOM     52  C   UNL A   1      39.115  33.754  38.733  1.00  0.00     0.029 A 
ATOM     53  C   UNL A   1      40.367  33.069  39.048  1.00  0.00     0.049 A 
ATOM     54  H   UNL A   1      41.619  32.055  37.728  1.00  0.00     0.167 HD
ATOM     55  C   UNL A   1      44.130  29.886  34.845  1.00  0.00     0.037 A 
ATOM     56  C   UNL A   1      40.938  32.987  40.267  1.00  0.00     0.037 A 
ATOM     57  C   UNL A   1      44.838  29.799  36.094  1.00  0.00     0.049 A 
ATOM     58  C   UNL A   1      42.250  32.259  40.420  1.00  0.00     0.074 A 
ATOM     59  C   UNL A   1      46.057  29.199  36.356  1.00  0.00     0.029 A 
ATOM     60  N   UNL A   1      44.386  30.326  37.294  1.00  0.00    -0.354 N 
ATOM     61  N   UNL A   1      42.971  31.650  39.508  1.00  0.00    -0.248 NA
ATOM     62  C   UNL A   1      42.831  32.219  41.769  1.00  0.00     0.031 C 
ATOM     63  C   UNL A   1      46.326  29.334  37.722  1.00  0.00     0.029 A 
ATOM     64  C   UNL A   1      45.295  30.056  38.302  1.00  0.00     0.049 A 
ATOM     65  H   UNL A   1      43.542  30.820  37.412  1.00  0.00     0.167 HD
ATOM     66  C   UNL A   1      44.101  31.176  40.168  1.00  0.00     0.074 A 
ATOM     67  C   UNL A   1      43.974  31.582  41.553  1.00  0.00     0.031 C 
ATOM     68  C   UNL A   1      45.151  30.472  39.675  1.00  0.00     0.037 A 
BRANCH  55  69
ATOM     69  C   UNL A   1      44.730  29.236  33.629  1.00  0.00     0.058 A 
ATOM     70  C   UNL A   1      44.575  27.865  33.374  1.00  0.00     0.135 A 
ATOM     71  C   UNL A   1      45.463  29.996  32.704  1.00  0.00     0.135 A 
ATOM     72  F   UNL A   1      43.903  27.087  34.238  1.00  0.00    -0.206 F 
ATOM     73  C   UNL A   1      45.147  27.264  32.257  1.00  0.00     0.059 A 
ATOM     74  C   UNL A   1      46.024  29.421  31.567  1.00  0.00     0.059 A 
ATOM     75  F   UNL A   1      45.647  31.310  32.904  1.00  0.00    -0.206 F 
ATOM     76  C   UNL A   1      45.873  28.050  31.361  1.00  0.00     0.060 A 
BRANCH  76  77
ATOM     77  S   UNL A   1      46.612  27.258  29.915  1.00  0.00     0.124 S 
ATOM     78  O   UNL A   1      48.030  27.287  30.261  1.00  0.00    -0.237 OA
ATOM     79  O   UNL A   1      45.984  25.941  29.924  1.00  0.00    -0.237 OA
ATOM     80  O   UNL A   1      46.218  28.129  28.812  1.00  0.00    -0.744 OA
ENDBRANCH  76  77
ENDBRANCH  55  69
BRANCH  56  81
ATOM     81  C   UNL A   1      40.278  33.615  41.441  1.00  0.00     0.058 A 
ATOM     82  C   UNL A   1      39.492  32.856  42.321  1.00  0.00     0.135 A 
ATOM     83  C   UNL A   1      40.412  34.988  41.702  1.00  0.00     0.135 A 
ATOM     84  F   UNL A   1      39.326  31.542  42.107  1.00  0.00    -0.206 F 
ATOM     85  C   UNL A   1      38.848  33.436  43.408  1.00  0.00     0.059 A 
ATOM     86  C   UNL A   1      39.797  35.587  42.798  1.00  0.00     0.059 A 
ATOM     87  F   UNL A   1      41.159  35.755  40.893  1.00  0.00    -0.206 F 
ATOM     88  C   UNL A   1      39.007  34.805  43.639  1.00  0.00     0.060 A 
BRANCH  88  89
ATOM     89  S   UNL A   1      38.194  35.537  45.075  1.00  0.00     0.124 S 
ATOM     90  O   UNL A   1      36.892  35.895  44.523  1.00  0.00    -0.237 OA
ATOM     91  O   UNL A   1      38.198  34.430  46.027  1.00  0.00    -0.237 OA
ATOM     92  O   UNL A   1      39.063  36.657  45.420  1.00  0.00    -0.744 OA
ENDBRANCH  88  89
ENDBRANCH  56  81
BRANCH  68  93
ATOM     93  C   UNL A   1      46.258  30.131  40.633  1.00  0.00     0.058 A 
ATOM     94  C   UNL A   1      47.350  30.989  40.837  1.00  0.00     0.135 A 
ATOM     95  C   UNL A   1      46.215  28.936  41.371  1.00  0.00     0.135 A 
ATOM     96  F   UNL A   1      47.439  32.142  40.156  1.00  0.00    -0.206 F 
ATOM     97  C   UNL A   1      48.384  30.654  41.707  1.00  0.00     0.059 A 
ATOM     98  C   UNL A   1      47.223  28.595  42.266  1.00  0.00     0.059 A 
ATOM     99  F   UNL A   1      45.184  28.090  41.226  1.00  0.00    -0.206 F 
ATOM    100  C   UNL A   1      48.315  29.450  42.411  1.00  0.00     0.060 A 
BRANCH 100 101
ATOM    101  S   UNL A   1      49.661  29.019  43.534  1.00  0.00     0.124 S 
ATOM    102  O   UNL A   1      50.750  29.838  43.013  1.00  0.00    -0.237 OA
ATOM    103  O   UNL A   1      49.131  29.422  44.833  1.00  0.00    -0.237 OA
ATOM    104  O   UNL A   1      49.811  27.580  43.345  1.00  0.00    -0.744 OA
ENDBRANCH 100 101
ENDBRANCH  68  93
ENDBRANCH  42  43
ENDBRANCH  35  37
ENDBRANCH  34  35
ENDBRANCH  33  34
ENDBRANCH  32  33
ENDBRANCH  31  32
ENDBRANCH  30  31
ENDBRANCH  29  30
ENDBRANCH  28  29
ENDBRANCH   1  28
TORSDOF 29
ENDMDL
