MODEL 1
REMARK VINA RESULT:      -9.2      0.000      0.000
REMARK SMILES NS(=O)(=O)c1ccc(-n2nc(C(F)(F)F)cc2-c2ccc(CC(=O)OCCOCCOCCOCCOC(=O)c3ccc(-c4c5nc(c(-c6c(F)cc(S(=O)(=O)[O-])cc6F)c6ccc([nH]6)c(-c6c(F)cc(S(=O)(=O)[O-])cc6F)c6nc(c(-c7c(F)cc(S(=O)(=O)[O-])cc7F)c7ccc4[nH]7)C=C6)C=C5)cc3)cc2)cc1
REMARK SMILES IDX 30 1 29 2 28 3 27 4 26 5 25 6 23 7 24 8 22 9 21 10 18 11
REMARK SMILES IDX 19 12 107 13 20 14 106 15 17 16 9 17 10 18 11 19 16 20 8 21
REMARK SMILES IDX 5 22 6 23 109 24 7 25 108 26 2 27 3 28 4 29 1 30 12 33 13 34
REMARK SMILES IDX 14 35 15 36 31 37 32 38 33 39 34 40 35 41 36 42 37 43 38 44
REMARK SMILES IDX 39 45 40 46 41 47 105 48 42 49 104 50 43 51 44 52 45 53
REMARK SMILES IDX 98 54 46 55 103 56 97 57 99 58 47 59 102 60 96 61 95 62
REMARK SMILES IDX 48 64 82 65 61 66 81 67 62 68 65 69 80 70 100 71 63 72 64 73
REMARK SMILES IDX 79 75 101 76 66 77 49 78 50 79 59 80 51 81 52 82 58 83 60 84
REMARK SMILES IDX 53 85 54 86 55 87 56 88 57 89 83 90 84 91 93 92 85 93 86 94
REMARK SMILES IDX 92 95 94 96 87 97 88 98 89 99 90 100 91 101 67 102 68 103
REMARK SMILES IDX 77 104 69 105 70 106 76 107 78 108 71 109 72 110 73 111
REMARK SMILES IDX 74 112 75 113
REMARK H PARENT 1 31 1 32 99 63 65 74
REMARK Flexibility Score: inf
ROOT
ATOM      1  C   UNL A   1      36.005  29.659  27.912  1.00  0.00     0.188 C 
ENDROOT
BRANCH   1   2
ATOM      2  C   UNL A   1      35.041  29.293  26.775  1.00  0.00     0.188 C 
BRANCH   2   3
ATOM      3  O   UNL A   1      34.012  28.407  27.166  1.00  0.00    -0.376 OA
BRANCH   3   4
ATOM      4  C   UNL A   1      33.037  28.045  26.202  1.00  0.00     0.202 C 
BRANCH   4   5
ATOM      5  C   UNL A   1      33.048  28.677  24.793  1.00  0.00     0.261 C 
BRANCH   5   6
ATOM      6  O   UNL A   1      34.027  28.186  23.842  1.00  0.00    -0.463 OA
BRANCH   6   7
ATOM      7  C   UNL A   1      33.599  27.651  22.684  1.00  0.00     0.310 C 
ATOM      8  O   UNL A   1      34.163  27.843  21.609  1.00  0.00    -0.252 OA
BRANCH   7   9
ATOM      9  C   UNL A   1      32.363  26.771  22.790  1.00  0.00     0.158 C 
BRANCH   9  10
ATOM     10  C   UNL A   1      32.412  25.260  23.023  1.00  0.00    -0.037 A 
ATOM     11  C   UNL A   1      32.940  22.508  23.729  1.00  0.00     0.000 A 
ATOM     12  C   UNL A   1      32.145  23.326  24.539  1.00  0.00     0.010 A 
ATOM     13  C   UNL A   1      33.422  23.076  22.536  1.00  0.00     0.010 A 
ATOM     14  C   UNL A   1      31.889  24.678  24.194  1.00  0.00     0.005 A 
ATOM     15  C   UNL A   1      33.155  24.421  22.181  1.00  0.00     0.005 A 
BRANCH  11  16
ATOM     16  C   UNL A   1      33.441  21.185  24.195  1.00  0.00     0.075 A 
ATOM     17  N   UNL A   1      34.712  20.821  24.684  1.00  0.00    -0.233 N 
ATOM     18  N   UNL A   1      34.875  19.474  24.687  1.00  0.00    -0.163 NA
ATOM     19  C   UNL A   1      33.667  18.951  24.453  1.00  0.00     0.167 A 
ATOM     20  C   UNL A   1      32.759  19.975  24.094  1.00  0.00     0.064 A 
BRANCH  17  21
ATOM     21  C   UNL A   1      35.781  21.596  25.218  1.00  0.00     0.065 A 
ATOM     22  C   UNL A   1      37.883  23.188  26.259  1.00  0.00     0.082 A 
ATOM     23  C   UNL A   1      38.092  21.944  25.691  1.00  0.00     0.024 A 
ATOM     24  C   UNL A   1      36.600  23.707  26.196  1.00  0.00     0.024 A 
ATOM     25  C   UNL A   1      37.067  21.105  25.236  1.00  0.00     0.030 A 
ATOM     26  C   UNL A   1      35.565  22.931  25.634  1.00  0.00     0.030 A 
BRANCH  22  27
ATOM     27  S   UNL A   1      39.231  24.133  26.953  1.00  0.00     0.238 S 
ATOM     28  O   UNL A   1      40.238  23.168  27.369  1.00  0.00    -0.207 OA
ATOM     29  O   UNL A   1      38.720  25.153  27.810  1.00  0.00    -0.207 OA
BRANCH  27  30
ATOM     30  N   UNL A   1      39.956  24.959  25.681  1.00  0.00    -0.225 NA
ATOM     31  H   UNL A   1      39.830  25.962  25.812  1.00  0.00     0.137 HD
ATOM     32  H   UNL A   1      39.525  24.674  24.802  1.00  0.00     0.137 HD
ENDBRANCH  27  30
ENDBRANCH  22  27
ENDBRANCH  17  21
BRANCH  19  33
ATOM     33  C   UNL A   1      33.392  17.470  24.532  1.00  0.00     0.435 C 
ATOM     34  F   UNL A   1      34.419  16.753  25.053  1.00  0.00    -0.164 F 
ATOM     35  F   UNL A   1      32.289  17.206  25.280  1.00  0.00    -0.164 F 
ATOM     36  F   UNL A   1      33.145  16.951  23.295  1.00  0.00    -0.164 F 
ENDBRANCH  19  33
ENDBRANCH  11  16
ENDBRANCH   9  10
ENDBRANCH   7   9
ENDBRANCH   6   7
ENDBRANCH   5   6
ENDBRANCH   4   5
ENDBRANCH   3   4
ENDBRANCH   2   3
ENDBRANCH   1   2
BRANCH   1  37
ATOM     37  O   UNL A   1      35.887  30.928  28.544  1.00  0.00    -0.377 OA
BRANCH  37  38
ATOM     38  C   UNL A   1      34.619  31.546  28.737  1.00  0.00     0.188 C 
BRANCH  38  39
ATOM     39  C   UNL A   1      34.142  32.675  27.815  1.00  0.00     0.188 C 
BRANCH  39  40
ATOM     40  O   UNL A   1      35.034  33.760  27.747  1.00  0.00    -0.376 OA
BRANCH  40  41
ATOM     41  C   UNL A   1      34.458  35.028  27.954  1.00  0.00     0.202 C 
BRANCH  41  42
ATOM     42  C   UNL A   1      33.649  35.385  29.211  1.00  0.00     0.261 C 
BRANCH  42  43
ATOM     43  O   UNL A   1      34.130  35.695  30.543  1.00  0.00    -0.460 OA
BRANCH  43  44
ATOM     44  C   UNL A   1      33.787  34.831  31.552  1.00  0.00     0.338 C 
ATOM     45  O   UNL A   1      32.715  34.850  32.141  1.00  0.00    -0.246 OA
BRANCH  44  46
ATOM     46  C   UNL A   1      34.955  34.084  32.121  1.00  0.00     0.060 A 
ATOM     47  C   UNL A   1      35.438  34.574  33.341  1.00  0.00     0.016 A 
ATOM     48  C   UNL A   1      35.764  33.233  31.365  1.00  0.00     0.016 A 
ATOM     49  C   UNL A   1      36.800  34.502  33.625  1.00  0.00     0.010 A 
ATOM     50  C   UNL A   1      37.141  33.179  31.646  1.00  0.00     0.010 A 
ATOM     51  C   UNL A   1      37.682  33.916  32.709  1.00  0.00    -0.014 A 
BRANCH  51  52
ATOM     52  C   UNL A   1      39.104  33.829  33.097  1.00  0.00     0.031 A 
ATOM     53  C   UNL A   1      39.943  33.787  31.893  1.00  0.00     0.074 A 
ATOM     54  C   UNL A   1      39.712  33.837  34.305  1.00  0.00     0.049 A 
ATOM     55  N   UNL A   1      40.526  32.753  31.387  1.00  0.00    -0.248 NA
ATOM     56  C   UNL A   1      39.932  34.980  31.037  1.00  0.00     0.031 C 
ATOM     57  C   UNL A   1      39.101  34.096  35.590  1.00  0.00     0.029 A 
ATOM     58  N   UNL A   1      41.034  33.678  34.649  1.00  0.00    -0.354 N 
ATOM     59  C   UNL A   1      41.166  33.246  30.266  1.00  0.00     0.074 A 
ATOM     60  C   UNL A   1      40.554  34.513  29.958  1.00  0.00     0.031 C 
ATOM     61  C   UNL A   1      40.033  34.274  36.549  1.00  0.00     0.029 A 
ATOM     62  C   UNL A   1      41.338  34.039  35.967  1.00  0.00     0.049 A 
ATOM     63  H   UNL A   1      41.712  33.338  34.021  1.00  0.00     0.167 HD
ATOM     64  C   UNL A   1      42.372  32.763  29.876  1.00  0.00     0.037 A 
ATOM     65  C   UNL A   1      42.556  34.171  36.556  1.00  0.00     0.037 A 
ATOM     66  C   UNL A   1      42.655  31.469  30.436  1.00  0.00     0.049 A 
ATOM     67  C   UNL A   1      43.519  33.387  35.749  1.00  0.00     0.074 A 
ATOM     68  C   UNL A   1      42.001  30.253  30.438  1.00  0.00     0.029 A 
ATOM     69  N   UNL A   1      43.602  31.393  31.428  1.00  0.00    -0.354 N 
ATOM     70  N   UNL A   1      43.556  32.084  35.706  1.00  0.00    -0.248 NA
ATOM     71  C   UNL A   1      44.209  34.066  34.664  1.00  0.00     0.031 C 
ATOM     72  C   UNL A   1      42.300  29.657  31.695  1.00  0.00     0.029 A 
ATOM     73  C   UNL A   1      43.151  30.520  32.386  1.00  0.00     0.049 A 
ATOM     74  H   UNL A   1      44.458  31.879  31.447  1.00  0.00     0.167 HD
ATOM     75  C   UNL A   1      43.879  31.787  34.392  1.00  0.00     0.074 A 
ATOM     76  C   UNL A   1      44.386  33.035  33.835  1.00  0.00     0.031 C 
ATOM     77  C   UNL A   1      43.440  30.639  33.802  1.00  0.00     0.037 A 
BRANCH  64  78
ATOM     78  C   UNL A   1      43.413  33.675  29.296  1.00  0.00     0.058 A 
ATOM     79  C   UNL A   1      43.768  34.851  29.971  1.00  0.00     0.135 A 
ATOM     80  C   UNL A   1      43.922  33.535  27.982  1.00  0.00     0.135 A 
ATOM     81  F   UNL A   1      43.285  35.103  31.197  1.00  0.00    -0.206 F 
ATOM     82  C   UNL A   1      44.573  35.822  29.378  1.00  0.00     0.059 A 
ATOM     83  C   UNL A   1      44.788  34.446  27.404  1.00  0.00     0.059 A 
ATOM     84  F   UNL A   1      43.526  32.552  27.161  1.00  0.00    -0.206 F 
ATOM     85  C   UNL A   1      45.077  35.608  28.095  1.00  0.00     0.060 A 
BRANCH  85  86
ATOM     86  S   UNL A   1      46.048  36.887  27.289  1.00  0.00     0.124 S 
ATOM     87  O   UNL A   1      46.826  36.098  26.341  1.00  0.00    -0.237 OA
ATOM     88  O   UNL A   1      45.012  37.741  26.718  1.00  0.00    -0.237 OA
ATOM     89  O   UNL A   1      46.801  37.478  28.391  1.00  0.00    -0.744 OA
ENDBRANCH  85  86
ENDBRANCH  64  78
BRANCH  65  90
ATOM     90  C   UNL A   1      42.992  35.112  37.632  1.00  0.00     0.058 A 
ATOM     91  C   UNL A   1      43.669  34.659  38.782  1.00  0.00     0.135 A 
ATOM     92  C   UNL A   1      43.004  36.509  37.432  1.00  0.00     0.135 A 
ATOM     93  F   UNL A   1      43.730  33.347  39.058  1.00  0.00    -0.206 F 
ATOM     94  C   UNL A   1      44.363  35.525  39.640  1.00  0.00     0.059 A 
ATOM     95  C   UNL A   1      43.675  37.393  38.279  1.00  0.00     0.059 A 
ATOM     96  F   UNL A   1      42.439  37.058  36.346  1.00  0.00    -0.206 F 
ATOM     97  C   UNL A   1      44.380  36.891  39.366  1.00  0.00     0.060 A 
BRANCH  97  98
ATOM     98  S   UNL A   1      45.438  37.986  40.345  1.00  0.00     0.124 S 
ATOM     99  O   UNL A   1      45.801  39.010  39.373  1.00  0.00    -0.237 OA
ATOM    100  O   UNL A   1      44.537  38.413  41.412  1.00  0.00    -0.237 OA
ATOM    101  O   UNL A   1      46.529  37.114  40.771  1.00  0.00    -0.744 OA
ENDBRANCH  97  98
ENDBRANCH  65  90
BRANCH  77 102
ATOM    102  C   UNL A   1      42.995  29.498  34.681  1.00  0.00     0.058 A 
ATOM    103  C   UNL A   1      41.693  29.326  35.183  1.00  0.00     0.135 A 
ATOM    104  C   UNL A   1      43.904  28.447  34.886  1.00  0.00     0.135 A 
ATOM    105  F   UNL A   1      40.738  30.241  34.954  1.00  0.00    -0.206 F 
ATOM    106  C   UNL A   1      41.321  28.169  35.876  1.00  0.00     0.059 A 
ATOM    107  C   UNL A   1      43.547  27.274  35.544  1.00  0.00     0.059 A 
ATOM    108  F   UNL A   1      45.150  28.529  34.389  1.00  0.00    -0.206 F 
ATOM    109  C   UNL A   1      42.253  27.144  36.042  1.00  0.00     0.060 A 
BRANCH 109 110
ATOM    110  S   UNL A   1      41.743  25.597  36.827  1.00  0.00     0.124 S 
ATOM    111  O   UNL A   1      42.965  25.176  37.503  1.00  0.00    -0.237 OA
ATOM    112  O   UNL A   1      40.650  26.025  37.696  1.00  0.00    -0.237 OA
ATOM    113  O   UNL A   1      41.335  24.761  35.700  1.00  0.00    -0.744 OA
ENDBRANCH 109 110
ENDBRANCH  77 102
ENDBRANCH  51  52
ENDBRANCH  44  46
ENDBRANCH  43  44
ENDBRANCH  42  43
ENDBRANCH  41  42
ENDBRANCH  40  41
ENDBRANCH  39  40
ENDBRANCH  38  39
ENDBRANCH  37  38
ENDBRANCH   1  37
TORSDOF 29
ENDMDL
MODEL 2
REMARK VINA RESULT:      -9.0      4.333      6.611
REMARK SMILES NS(=O)(=O)c1ccc(-n2nc(C(F)(F)F)cc2-c2ccc(CC(=O)OCCOCCOCCOCCOC(=O)c3ccc(-c4c5nc(c(-c6c(F)cc(S(=O)(=O)[O-])cc6F)c6ccc([nH]6)c(-c6c(F)cc(S(=O)(=O)[O-])cc6F)c6nc(c(-c7c(F)cc(S(=O)(=O)[O-])cc7F)c7ccc4[nH]7)C=C6)C=C5)cc3)cc2)cc1
REMARK SMILES IDX 30 1 29 2 28 3 27 4 26 5 25 6 23 7 24 8 22 9 21 10 18 11
REMARK SMILES IDX 19 12 107 13 20 14 106 15 17 16 9 17 10 18 11 19 16 20 8 21
REMARK SMILES IDX 5 22 6 23 109 24 7 25 108 26 2 27 3 28 4 29 1 30 12 33 13 34
REMARK SMILES IDX 14 35 15 36 31 37 32 38 33 39 34 40 35 41 36 42 37 43 38 44
REMARK SMILES IDX 39 45 40 46 41 47 105 48 42 49 104 50 43 51 44 52 45 53
REMARK SMILES IDX 98 54 46 55 103 56 97 57 99 58 47 59 102 60 96 61 95 62
REMARK SMILES IDX 48 64 82 65 61 66 81 67 62 68 65 69 80 70 100 71 63 72 64 73
REMARK SMILES IDX 79 75 101 76 66 77 49 78 50 79 59 80 51 81 52 82 58 83 60 84
REMARK SMILES IDX 53 85 54 86 55 87 56 88 57 89 83 90 84 91 93 92 85 93 86 94
REMARK SMILES IDX 92 95 94 96 87 97 88 98 89 99 90 100 91 101 67 102 68 103
REMARK SMILES IDX 77 104 69 105 70 106 76 107 78 108 71 109 72 110 73 111
REMARK SMILES IDX 74 112 75 113
REMARK H PARENT 1 31 1 32 99 63 65 74
REMARK Flexibility Score: inf
ROOT
ATOM      1  C   UNL A   1      35.069  30.001  27.459  1.00  0.00     0.188 C 
ENDROOT
BRANCH   1   2
ATOM      2  C   UNL A   1      33.939  29.414  26.602  1.00  0.00     0.188 C 
BRANCH   2   3
ATOM      3  O   UNL A   1      33.315  28.286  27.180  1.00  0.00    -0.376 OA
BRANCH   3   4
ATOM      4  C   UNL A   1      32.811  27.282  26.314  1.00  0.00     0.202 C 
BRANCH   4   5
ATOM      5  C   UNL A   1      32.760  27.510  24.787  1.00  0.00     0.261 C 
BRANCH   5   6
ATOM      6  O   UNL A   1      33.876  27.028  23.997  1.00  0.00    -0.463 OA
BRANCH   6   7
ATOM      7  C   UNL A   1      33.750  25.865  23.332  1.00  0.00     0.310 C 
ATOM      8  O   UNL A   1      33.743  25.792  22.105  1.00  0.00    -0.252 OA
BRANCH   7   9
ATOM      9  C   UNL A   1      33.627  24.625  24.205  1.00  0.00     0.158 C 
BRANCH   9  10
ATOM     10  C   UNL A   1      34.821  23.779  24.653  1.00  0.00    -0.037 A 
ATOM     11  C   UNL A   1      37.309  22.638  25.579  1.00  0.00     0.000 A 
ATOM     12  C   UNL A   1      36.265  22.921  26.466  1.00  0.00     0.010 A 
ATOM     13  C   UNL A   1      37.065  22.887  24.216  1.00  0.00     0.010 A 
ATOM     14  C   UNL A   1      35.045  23.485  26.012  1.00  0.00     0.005 A 
ATOM     15  C   UNL A   1      35.842  23.435  23.758  1.00  0.00     0.005 A 
BRANCH  11  16
ATOM     16  C   UNL A   1      38.679  22.303  26.054  1.00  0.00     0.075 A 
ATOM     17  N   UNL A   1      39.709  23.149  26.515  1.00  0.00    -0.233 N 
ATOM     18  N   UNL A   1      40.904  22.509  26.538  1.00  0.00    -0.163 NA
ATOM     19  C   UNL A   1      40.638  21.213  26.346  1.00  0.00     0.167 A 
ATOM     20  C   UNL A   1      39.278  21.047  25.994  1.00  0.00     0.064 A 
BRANCH  17  21
ATOM     21  C   UNL A   1      39.688  24.486  27.007  1.00  0.00     0.065 A 
ATOM     22  C   UNL A   1      39.592  27.139  28.002  1.00  0.00     0.082 A 
ATOM     23  C   UNL A   1      40.201  26.806  26.804  1.00  0.00     0.024 A 
ATOM     24  C   UNL A   1      38.904  26.135  28.664  1.00  0.00     0.024 A 
ATOM     25  C   UNL A   1      40.328  25.497  26.324  1.00  0.00     0.030 A 
ATOM     26  C   UNL A   1      38.914  24.826  28.140  1.00  0.00     0.030 A 
BRANCH  22  27
ATOM     27  S   UNL A   1      39.604  28.816  28.618  1.00  0.00     0.238 S 
ATOM     28  O   UNL A   1      39.114  29.656  27.535  1.00  0.00    -0.207 OA
ATOM     29  O   UNL A   1      40.823  29.068  29.317  1.00  0.00    -0.207 OA
BRANCH  27  30
ATOM     30  N   UNL A   1      38.404  28.916  29.791  1.00  0.00    -0.225 NA
ATOM     31  H   UNL A   1      38.759  28.546  30.672  1.00  0.00     0.137 HD
ATOM     32  H   UNL A   1      37.594  28.371  29.494  1.00  0.00     0.137 HD
ENDBRANCH  27  30
ENDBRANCH  22  27
ENDBRANCH  17  21
BRANCH  19  33
ATOM     33  C   UNL A   1      41.692  20.140  26.459  1.00  0.00     0.435 C 
ATOM     34  F   UNL A   1      42.792  20.377  25.700  1.00  0.00    -0.164 F 
ATOM     35  F   UNL A   1      42.108  19.981  27.743  1.00  0.00    -0.164 F 
ATOM     36  F   UNL A   1      41.203  18.929  26.065  1.00  0.00    -0.164 F 
ENDBRANCH  19  33
ENDBRANCH  11  16
ENDBRANCH   9  10
ENDBRANCH   7   9
ENDBRANCH   6   7
ENDBRANCH   5   6
ENDBRANCH   4   5
ENDBRANCH   3   4
ENDBRANCH   2   3
ENDBRANCH   1   2
BRANCH   1  37
ATOM     37  O   UNL A   1      35.090  31.398  27.724  1.00  0.00    -0.377 OA
BRANCH  37  38
ATOM     38  C   UNL A   1      33.930  32.083  28.187  1.00  0.00     0.188 C 
BRANCH  38  39
ATOM     39  C   UNL A   1      33.806  33.607  28.053  1.00  0.00     0.188 C 
BRANCH  39  40
ATOM     40  O   UNL A   1      34.666  34.318  28.908  1.00  0.00    -0.376 OA
BRANCH  40  41
ATOM     41  C   UNL A   1      34.185  34.520  30.216  1.00  0.00     0.202 C 
BRANCH  41  42
ATOM     42  C   UNL A   1      34.404  33.509  31.353  1.00  0.00     0.261 C 
BRANCH  42  43
ATOM     43  O   UNL A   1      35.645  33.102  31.980  1.00  0.00    -0.460 OA
BRANCH  43  44
ATOM     44  C   UNL A   1      36.470  32.273  31.263  1.00  0.00     0.338 C 
ATOM     45  O   UNL A   1      36.186  31.127  30.942  1.00  0.00    -0.246 OA
BRANCH  44  46
ATOM     46  C   UNL A   1      37.889  32.751  31.199  1.00  0.00     0.060 A 
ATOM     47  C   UNL A   1      38.504  32.624  29.947  1.00  0.00     0.016 A 
ATOM     48  C   UNL A   1      38.687  32.941  32.329  1.00  0.00     0.016 A 
ATOM     49  C   UNL A   1      39.867  32.345  29.870  1.00  0.00     0.010 A 
ATOM     50  C   UNL A   1      40.058  32.641  32.250  1.00  0.00     0.010 A 
ATOM     51  C   UNL A   1      40.629  32.222  31.039  1.00  0.00    -0.014 A 
BRANCH  51  52
ATOM     52  C   UNL A   1      42.076  31.976  30.882  1.00  0.00     0.031 A 
ATOM     53  C   UNL A   1      42.713  33.152  30.278  1.00  0.00     0.074 A 
ATOM     54  C   UNL A   1      42.858  30.929  31.233  1.00  0.00     0.049 A 
ATOM     55  N   UNL A   1      43.102  33.284  29.055  1.00  0.00    -0.248 NA
ATOM     56  C   UNL A   1      42.698  34.390  31.067  1.00  0.00     0.031 C 
ATOM     57  C   UNL A   1      42.479  29.783  32.030  1.00  0.00     0.029 A 
ATOM     58  N   UNL A   1      44.192  30.687  31.009  1.00  0.00    -0.354 N 
ATOM     59  C   UNL A   1      43.613  34.567  29.003  1.00  0.00     0.074 A 
ATOM     60  C   UNL A   1      43.097  35.269  30.151  1.00  0.00     0.031 C 
ATOM     61  C   UNL A   1      43.558  29.064  32.398  1.00  0.00     0.029 A 
ATOM     62  C   UNL A   1      44.728  29.643  31.771  1.00  0.00     0.049 A 
ATOM     63  H   UNL A   1      44.728  31.204  30.365  1.00  0.00     0.167 HD
ATOM     64  C   UNL A   1      44.689  34.865  28.234  1.00  0.00     0.037 A 
ATOM     65  C   UNL A   1      46.029  29.274  31.919  1.00  0.00     0.037 A 
ATOM     66  C   UNL A   1      44.917  33.888  27.203  1.00  0.00     0.049 A 
ATOM     67  C   UNL A   1      46.771  29.816  30.758  1.00  0.00     0.074 A 
ATOM     68  C   UNL A   1      44.147  33.358  26.186  1.00  0.00     0.029 A 
ATOM     69  N   UNL A   1      45.990  33.043  27.347  1.00  0.00    -0.354 N 
ATOM     70  N   UNL A   1      46.665  29.365  29.539  1.00  0.00    -0.248 NA
ATOM     71  C   UNL A   1      47.355  31.141  30.883  1.00  0.00     0.031 C 
ATOM     72  C   UNL A   1      44.569  32.007  26.047  1.00  0.00     0.029 A 
ATOM     73  C   UNL A   1      45.600  31.785  26.960  1.00  0.00     0.049 A 
ATOM     74  H   UNL A   1      46.885  33.296  27.669  1.00  0.00     0.167 HD
ATOM     75  C   UNL A   1      46.753  30.494  28.741  1.00  0.00     0.074 A 
ATOM     76  C   UNL A   1      47.296  31.532  29.608  1.00  0.00     0.031 C 
ATOM     77  C   UNL A   1      46.111  30.557  27.538  1.00  0.00     0.037 A 
BRANCH  64  78
ATOM     78  C   UNL A   1      45.719  35.850  28.702  1.00  0.00     0.058 A 
ATOM     79  C   UNL A   1      45.944  37.027  27.977  1.00  0.00     0.135 A 
ATOM     80  C   UNL A   1      46.649  35.568  29.733  1.00  0.00     0.135 A 
ATOM     81  F   UNL A   1      45.153  37.348  26.942  1.00  0.00    -0.206 F 
ATOM     82  C   UNL A   1      47.022  37.867  28.255  1.00  0.00     0.059 A 
ATOM     83  C   UNL A   1      47.678  36.426  30.080  1.00  0.00     0.059 A 
ATOM     84  F   UNL A   1      46.660  34.399  30.389  1.00  0.00    -0.206 F 
ATOM     85  C   UNL A   1      47.880  37.555  29.310  1.00  0.00     0.060 A 
BRANCH  85  86
ATOM     86  S   UNL A   1      49.319  38.585  29.627  1.00  0.00     0.124 S 
ATOM     87  O   UNL A   1      50.108  38.348  28.425  1.00  0.00    -0.237 OA
ATOM     88  O   UNL A   1      48.721  39.910  29.755  1.00  0.00    -0.237 OA
ATOM     89  O   UNL A   1      49.861  38.028  30.863  1.00  0.00    -0.744 OA
ENDBRANCH  85  86
ENDBRANCH  64  78
BRANCH  65  90
ATOM     90  C   UNL A   1      46.718  28.685  33.107  1.00  0.00     0.058 A 
ATOM     91  C   UNL A   1      46.876  29.410  34.305  1.00  0.00     0.135 A 
ATOM     92  C   UNL A   1      46.992  27.303  33.193  1.00  0.00     0.135 A 
ATOM     93  F   UNL A   1      46.627  30.728  34.336  1.00  0.00    -0.206 F 
ATOM     94  C   UNL A   1      47.220  28.797  35.519  1.00  0.00     0.059 A 
ATOM     95  C   UNL A   1      47.350  26.672  34.386  1.00  0.00     0.059 A 
ATOM     96  F   UNL A   1      46.826  26.498  32.134  1.00  0.00    -0.206 F 
ATOM     97  C   UNL A   1      47.432  27.419  35.554  1.00  0.00     0.060 A 
BRANCH  97  98
ATOM     98  S   UNL A   1      47.674  26.593  37.146  1.00  0.00     0.124 S 
ATOM     99  O   UNL A   1      49.127  26.496  37.221  1.00  0.00    -0.237 OA
ATOM    100  O   UNL A   1      47.050  27.528  38.077  1.00  0.00    -0.237 OA
ATOM    101  O   UNL A   1      46.971  25.323  36.982  1.00  0.00    -0.744 OA
ENDBRANCH  97  98
ENDBRANCH  65  90
BRANCH  77 102
ATOM    102  C   UNL A   1      45.688  29.270  26.876  1.00  0.00     0.058 A 
ATOM    103  C   UNL A   1      46.473  28.529  25.977  1.00  0.00     0.135 A 
ATOM    104  C   UNL A   1      44.484  28.687  27.308  1.00  0.00     0.135 A 
ATOM    105  F   UNL A   1      47.678  28.972  25.585  1.00  0.00    -0.206 F 
ATOM    106  C   UNL A   1      46.067  27.273  25.513  1.00  0.00     0.059 A 
ATOM    107  C   UNL A   1      44.077  27.426  26.884  1.00  0.00     0.059 A 
ATOM    108  F   UNL A   1      43.712  29.325  28.205  1.00  0.00    -0.206 F 
ATOM    109  C   UNL A   1      44.872  26.726  25.981  1.00  0.00     0.060 A 
BRANCH 109 110
ATOM    110  S   UNL A   1      44.404  25.052  25.482  1.00  0.00     0.124 S 
ATOM    111  O   UNL A   1      45.598  24.593  24.781  1.00  0.00    -0.237 OA
ATOM    112  O   UNL A   1      44.129  24.402  26.761  1.00  0.00    -0.237 OA
ATOM    113  O   UNL A   1      43.229  25.263  24.640  1.00  0.00    -0.744 OA
ENDBRANCH 109 110
ENDBRANCH  77 102
ENDBRANCH  51  52
ENDBRANCH  44  46
ENDBRANCH  43  44
ENDBRANCH  42  43
ENDBRANCH  41  42
ENDBRANCH  40  41
ENDBRANCH  39  40
ENDBRANCH  38  39
ENDBRANCH  37  38
ENDBRANCH   1  37
TORSDOF 29
ENDMDL
MODEL 3
REMARK VINA RESULT:      -8.7      5.152     10.034
REMARK SMILES NS(=O)(=O)c1ccc(-n2nc(C(F)(F)F)cc2-c2ccc(CC(=O)OCCOCCOCCOCCOC(=O)c3ccc(-c4c5nc(c(-c6c(F)cc(S(=O)(=O)[O-])cc6F)c6ccc([nH]6)c(-c6c(F)cc(S(=O)(=O)[O-])cc6F)c6nc(c(-c7c(F)cc(S(=O)(=O)[O-])cc7F)c7ccc4[nH]7)C=C6)C=C5)cc3)cc2)cc1
REMARK SMILES IDX 30 1 29 2 28 3 27 4 26 5 25 6 23 7 24 8 22 9 21 10 18 11
REMARK SMILES IDX 19 12 107 13 20 14 106 15 17 16 9 17 10 18 11 19 16 20 8 21
REMARK SMILES IDX 5 22 6 23 109 24 7 25 108 26 2 27 3 28 4 29 1 30 12 33 13 34
REMARK SMILES IDX 14 35 15 36 31 37 32 38 33 39 34 40 35 41 36 42 37 43 38 44
REMARK SMILES IDX 39 45 40 46 41 47 105 48 42 49 104 50 43 51 44 52 45 53
REMARK SMILES IDX 98 54 46 55 103 56 97 57 99 58 47 59 102 60 96 61 95 62
REMARK SMILES IDX 48 64 82 65 61 66 81 67 62 68 65 69 80 70 100 71 63 72 64 73
REMARK SMILES IDX 79 75 101 76 66 77 49 78 50 79 59 80 51 81 52 82 58 83 60 84
REMARK SMILES IDX 53 85 54 86 55 87 56 88 57 89 83 90 84 91 93 92 85 93 86 94
REMARK SMILES IDX 92 95 94 96 87 97 88 98 89 99 90 100 91 101 67 102 68 103
REMARK SMILES IDX 77 104 69 105 70 106 76 107 78 108 71 109 72 110 73 111
REMARK SMILES IDX 74 112 75 113
REMARK H PARENT 1 31 1 32 99 63 65 74
REMARK Flexibility Score: inf
ROOT
ATOM      1  C   UNL A   1      46.199  29.872  28.323  1.00  0.00     0.188 C 
ENDROOT
BRANCH   1   2
ATOM      2  C   UNL A   1      44.907  29.299  28.920  1.00  0.00     0.188 C 
BRANCH   2   3
ATOM      3  O   UNL A   1      44.591  28.005  28.450  1.00  0.00    -0.376 OA
BRANCH   3   4
ATOM      4  C   UNL A   1      43.367  27.421  28.866  1.00  0.00     0.202 C 
BRANCH   4   5
ATOM      5  C   UNL A   1      42.260  28.283  29.511  1.00  0.00     0.261 C 
BRANCH   5   6
ATOM      6  O   UNL A   1      41.149  28.689  28.671  1.00  0.00    -0.463 OA
BRANCH   6   7
ATOM      7  C   UNL A   1      41.281  28.615  27.334  1.00  0.00     0.310 C 
ATOM      8  O   UNL A   1      41.924  29.432  26.678  1.00  0.00    -0.252 OA
BRANCH   7   9
ATOM      9  C   UNL A   1      40.585  27.434  26.676  1.00  0.00     0.158 C 
BRANCH   9  10
ATOM     10  C   UNL A   1      41.288  26.122  26.321  1.00  0.00    -0.037 A 
ATOM     11  C   UNL A   1      43.000  23.823  25.955  1.00  0.00     0.000 A 
ATOM     12  C   UNL A   1      42.051  23.866  26.982  1.00  0.00     0.010 A 
ATOM     13  C   UNL A   1      43.040  24.927  25.085  1.00  0.00     0.010 A 
ATOM     14  C   UNL A   1      41.214  24.996  27.165  1.00  0.00     0.005 A 
ATOM     15  C   UNL A   1      42.194  26.050  25.254  1.00  0.00     0.005 A 
BRANCH  11  16
ATOM     16  C   UNL A   1      44.061  22.780  25.905  1.00  0.00     0.075 A 
ATOM     17  N   UNL A   1      45.435  22.873  26.208  1.00  0.00    -0.233 N 
ATOM     18  N   UNL A   1      46.123  21.809  25.723  1.00  0.00    -0.163 NA
ATOM     19  C   UNL A   1      45.206  20.915  25.339  1.00  0.00     0.167 A 
ATOM     20  C   UNL A   1      43.917  21.495  25.388  1.00  0.00     0.064 A 
BRANCH  17  21
ATOM     21  C   UNL A   1      46.177  23.824  26.966  1.00  0.00     0.065 A 
ATOM     22  C   UNL A   1      47.602  25.734  28.501  1.00  0.00     0.082 A 
ATOM     23  C   UNL A   1      47.887  25.473  27.172  1.00  0.00     0.024 A 
ATOM     24  C   UNL A   1      46.492  25.110  29.047  1.00  0.00     0.024 A 
ATOM     25  C   UNL A   1      47.250  24.485  26.411  1.00  0.00     0.030 A 
ATOM     26  C   UNL A   1      45.757  24.196  28.264  1.00  0.00     0.030 A 
BRANCH  22  27
ATOM     27  S   UNL A   1      48.564  26.907  29.445  1.00  0.00     0.238 S 
ATOM     28  O   UNL A   1      47.760  27.259  30.606  1.00  0.00    -0.207 OA
ATOM     29  O   UNL A   1      49.148  27.873  28.572  1.00  0.00    -0.207 OA
BRANCH  27  30
ATOM     30  N   UNL A   1      49.868  26.064  30.090  1.00  0.00    -0.225 NA
ATOM     31  H   UNL A   1      50.464  25.729  29.334  1.00  0.00     0.137 HD
ATOM     32  H   UNL A   1      49.525  25.269  30.630  1.00  0.00     0.137 HD
ENDBRANCH  27  30
ENDBRANCH  22  27
ENDBRANCH  17  21
BRANCH  19  33
ATOM     33  C   UNL A   1      45.567  19.523  24.884  1.00  0.00     0.435 C 
ATOM     34  F   UNL A   1      46.029  18.728  25.882  1.00  0.00    -0.164 F 
ATOM     35  F   UNL A   1      44.506  18.892  24.317  1.00  0.00    -0.164 F 
ATOM     36  F   UNL A   1      46.543  19.555  23.932  1.00  0.00    -0.164 F 
ENDBRANCH  19  33
ENDBRANCH  11  16
ENDBRANCH   9  10
ENDBRANCH   7   9
ENDBRANCH   6   7
ENDBRANCH   5   6
ENDBRANCH   4   5
ENDBRANCH   3   4
ENDBRANCH   2   3
ENDBRANCH   1   2
BRANCH   1  37
ATOM     37  O   UNL A   1      47.068  30.639  29.148  1.00  0.00    -0.377 OA
BRANCH  37  38
ATOM     38  C   UNL A   1      47.927  31.633  28.598  1.00  0.00     0.188 C 
BRANCH  38  39
ATOM     39  C   UNL A   1      47.941  31.919  27.091  1.00  0.00     0.188 C 
BRANCH  39  40
ATOM     40  O   UNL A   1      48.348  33.227  26.770  1.00  0.00    -0.376 OA
BRANCH  40  41
ATOM     41  C   UNL A   1      47.370  34.224  26.951  1.00  0.00     0.202 C 
BRANCH  41  42
ATOM     42  C   UNL A   1      47.449  35.282  28.064  1.00  0.00     0.261 C 
BRANCH  42  43
ATOM     43  O   UNL A   1      47.248  36.714  27.971  1.00  0.00    -0.460 OA
BRANCH  43  44
ATOM     44  C   UNL A   1      47.494  37.458  29.096  1.00  0.00     0.338 C 
ATOM     45  O   UNL A   1      48.597  37.885  29.413  1.00  0.00    -0.246 OA
BRANCH  44  46
ATOM     46  C   UNL A   1      46.378  37.418  30.095  1.00  0.00     0.060 A 
ATOM     47  C   UNL A   1      46.625  36.636  31.231  1.00  0.00     0.016 A 
ATOM     48  C   UNL A   1      45.063  37.777  29.793  1.00  0.00     0.016 A 
ATOM     49  C   UNL A   1      45.576  35.949  31.839  1.00  0.00     0.010 A 
ATOM     50  C   UNL A   1      44.010  37.068  30.396  1.00  0.00     0.010 A 
ATOM     51  C   UNL A   1      44.273  36.061  31.336  1.00  0.00    -0.014 A 
BRANCH  51  52
ATOM     52  C   UNL A   1      43.204  35.346  32.060  1.00  0.00     0.031 A 
ATOM     53  C   UNL A   1      43.238  35.714  33.481  1.00  0.00     0.074 A 
ATOM     54  C   UNL A   1      42.232  34.505  31.636  1.00  0.00     0.049 A 
ATOM     55  N   UNL A   1      43.696  35.006  34.457  1.00  0.00    -0.248 NA
ATOM     56  C   UNL A   1      42.944  37.115  33.808  1.00  0.00     0.031 C 
ATOM     57  C   UNL A   1      41.883  34.191  30.268  1.00  0.00     0.029 A 
ATOM     58  N   UNL A   1      41.292  33.789  32.338  1.00  0.00    -0.354 N 
ATOM     59  C   UNL A   1      43.509  35.807  35.567  1.00  0.00     0.074 A 
ATOM     60  C   UNL A   1      43.312  37.151  35.085  1.00  0.00     0.031 C 
ATOM     61  C   UNL A   1      40.715  33.521  30.202  1.00  0.00     0.029 A 
ATOM     62  C   UNL A   1      40.263  33.257  31.552  1.00  0.00     0.049 A 
ATOM     63  H   UNL A   1      41.338  33.660  33.313  1.00  0.00     0.167 HD
ATOM     64  C   UNL A   1      43.177  35.276  36.770  1.00  0.00     0.037 A 
ATOM     65  C   UNL A   1      39.105  32.664  31.949  1.00  0.00     0.037 A 
ATOM     66  C   UNL A   1      43.489  33.874  36.858  1.00  0.00     0.049 A 
ATOM     67  C   UNL A   1      39.307  32.199  33.341  1.00  0.00     0.074 A 
ATOM     68  C   UNL A   1      44.635  33.125  36.672  1.00  0.00     0.029 A 
ATOM     69  N   UNL A   1      42.445  32.982  36.834  1.00  0.00    -0.354 N 
ATOM     70  N   UNL A   1      40.068  31.196  33.680  1.00  0.00    -0.248 NA
ATOM     71  C   UNL A   1      38.960  33.110  34.419  1.00  0.00     0.031 C 
ATOM     72  C   UNL A   1      44.200  31.882  36.134  1.00  0.00     0.029 A 
ATOM     73  C   UNL A   1      42.807  31.916  36.049  1.00  0.00     0.049 A 
ATOM     74  H   UNL A   1      41.585  33.088  37.302  1.00  0.00     0.167 HD
ATOM     75  C   UNL A   1      40.643  31.584  34.879  1.00  0.00     0.074 A 
ATOM     76  C   UNL A   1      39.837  32.706  35.342  1.00  0.00     0.031 C 
ATOM     77  C   UNL A   1      41.884  31.146  35.238  1.00  0.00     0.037 A 
BRANCH  64  78
ATOM     78  C   UNL A   1      42.225  35.984  37.687  1.00  0.00     0.058 A 
ATOM     79  C   UNL A   1      42.608  36.278  39.003  1.00  0.00     0.135 A 
ATOM     80  C   UNL A   1      40.860  36.196  37.376  1.00  0.00     0.135 A 
ATOM     81  F   UNL A   1      43.866  36.052  39.411  1.00  0.00    -0.206 F 
ATOM     82  C   UNL A   1      41.694  36.747  39.946  1.00  0.00     0.059 A 
ATOM     83  C   UNL A   1      39.954  36.737  38.271  1.00  0.00     0.059 A 
ATOM     84  F   UNL A   1      40.319  35.797  36.216  1.00  0.00    -0.206 F 
ATOM     85  C   UNL A   1      40.371  36.973  39.567  1.00  0.00     0.060 A 
BRANCH  85  86
ATOM     86  S   UNL A   1      39.166  37.500  40.791  1.00  0.00     0.124 S 
ATOM     87  O   UNL A   1      40.019  38.198  41.746  1.00  0.00    -0.237 OA
ATOM     88  O   UNL A   1      38.271  38.335  39.997  1.00  0.00    -0.237 OA
ATOM     89  O   UNL A   1      38.590  36.242  41.256  1.00  0.00    -0.744 OA
ENDBRANCH  85  86
ENDBRANCH  64  78
BRANCH  65  90
ATOM     90  C   UNL A   1      37.761  32.676  31.295  1.00  0.00     0.058 A 
ATOM     91  C   UNL A   1      36.864  33.749  31.467  1.00  0.00     0.135 A 
ATOM     92  C   UNL A   1      37.433  31.770  30.264  1.00  0.00     0.135 A 
ATOM     93  F   UNL A   1      37.091  34.676  32.410  1.00  0.00    -0.206 F 
ATOM     94  C   UNL A   1      35.754  33.945  30.634  1.00  0.00     0.059 A 
ATOM     95  C   UNL A   1      36.326  31.935  29.431  1.00  0.00     0.059 A 
ATOM     96  F   UNL A   1      38.237  30.738  29.968  1.00  0.00    -0.206 F 
ATOM     97  C   UNL A   1      35.506  33.043  29.600  1.00  0.00     0.060 A 
BRANCH  97  98
ATOM     98  S   UNL A   1      34.200  33.399  28.398  1.00  0.00     0.124 S 
ATOM     99  O   UNL A   1      33.185  34.035  29.230  1.00  0.00    -0.237 OA
ATOM    100  O   UNL A   1      34.884  34.273  27.449  1.00  0.00    -0.237 OA
ATOM    101  O   UNL A   1      33.846  32.081  27.879  1.00  0.00    -0.744 OA
ENDBRANCH  97  98
ENDBRANCH  65  90
BRANCH  77 102
ATOM    102  C   UNL A   1      42.438  29.913  34.570  1.00  0.00     0.058 A 
ATOM    103  C   UNL A   1      43.198  29.907  33.388  1.00  0.00     0.135 A 
ATOM    104  C   UNL A   1      42.319  28.695  35.262  1.00  0.00     0.135 A 
ATOM    105  F   UNL A   1      43.436  31.044  32.716  1.00  0.00    -0.206 F 
ATOM    106  C   UNL A   1      43.795  28.737  32.907  1.00  0.00     0.059 A 
ATOM    107  C   UNL A   1      42.931  27.527  34.818  1.00  0.00     0.059 A 
ATOM    108  F   UNL A   1      41.645  28.645  36.424  1.00  0.00    -0.206 F 
ATOM    109  C   UNL A   1      43.664  27.554  33.635  1.00  0.00     0.060 A 
BRANCH 109 110
ATOM    110  S   UNL A   1      44.536  26.069  33.084  1.00  0.00     0.124 S 
ATOM    111  O   UNL A   1      43.947  25.034  33.927  1.00  0.00    -0.237 OA
ATOM    112  O   UNL A   1      44.192  26.005  31.665  1.00  0.00    -0.237 OA
ATOM    113  O   UNL A   1      45.937  26.374  33.358  1.00  0.00    -0.744 OA
ENDBRANCH 109 110
ENDBRANCH  77 102
ENDBRANCH  51  52
ENDBRANCH  44  46
ENDBRANCH  43  44
ENDBRANCH  42  43
ENDBRANCH  41  42
ENDBRANCH  40  41
ENDBRANCH  39  40
ENDBRANCH  38  39
ENDBRANCH  37  38
ENDBRANCH   1  37
TORSDOF 29
ENDMDL
