MODEL 1
REMARK VINA RESULT:      -9.0      0.000      0.000
REMARK SMILES C[C@@H]1CCC[N@@H+]([C@@H]2CCC[C@]([NH3+])(C(=O)OCCOCCOCCOCCOC(=O)c3ccc(-c4c5nc(c(-c6c(F)cc(S(=O)(=O)[O-])cc6F)c6ccc([nH]6)c(-c6c(F)cc(S(=O)(=O)[O-])cc6F)c6nc(c(-c7c(F)cc(S(=O)(=O)[O-])cc7F)c7ccc4[nH]7)C=C6)C=C5)cc3)C2)C1
REMARK SMILES IDX 22 1 21 2 20 3 19 4 18 5 17 6 16 7 15 8 13 9 14 10 11 11
REMARK SMILES IDX 7 12 8 13 96 14 9 15 10 16 6 17 1 18 2 19 3 20 97 21 4 22
REMARK SMILES IDX 5 23 12 25 23 29 24 30 25 31 26 32 27 33 28 34 29 35 30 36
REMARK SMILES IDX 31 37 95 38 32 39 94 40 33 41 34 42 35 43 88 44 36 45 93 46
REMARK SMILES IDX 87 47 89 48 37 49 92 50 86 51 85 52 38 54 72 55 51 56 71 57
REMARK SMILES IDX 52 58 55 59 70 60 90 61 53 62 54 63 69 65 91 66 56 67 39 68
REMARK SMILES IDX 40 69 49 70 41 71 42 72 48 73 50 74 43 75 44 76 45 77 46 78
REMARK SMILES IDX 47 79 73 80 74 81 83 82 75 83 76 84 82 85 84 86 77 87 78 88
REMARK SMILES IDX 79 89 80 90 81 91 57 92 58 93 67 94 59 95 60 96 66 97 68 98
REMARK SMILES IDX 61 99 62 100 63 101 64 102 65 103
REMARK H PARENT 6 24 12 26 12 27 12 28 89 53 55 64
REMARK Flexibility Score: inf
ROOT
ATOM      1  C   UNL A   1      45.714  41.441  27.426  1.00  0.00     0.188 C 
ENDROOT
BRANCH   1   2
ATOM      2  O   UNL A   1      45.679  42.275  26.272  1.00  0.00    -0.377 OA
BRANCH   2   3
ATOM      3  C   UNL A   1      45.057  41.767  25.113  1.00  0.00     0.188 C 
BRANCH   3   4
ATOM      4  C   UNL A   1      43.667  42.350  24.817  1.00  0.00     0.188 C 
BRANCH   4   5
ATOM      5  O   UNL A   1      43.273  42.680  23.496  1.00  0.00    -0.376 OA
BRANCH   5   6
ATOM      6  C   UNL A   1      41.910  42.815  23.112  1.00  0.00     0.202 C 
BRANCH   6   7
ATOM      7  C   UNL A   1      41.412  42.822  21.660  1.00  0.00     0.261 C 
BRANCH   7   8
ATOM      8  O   UNL A   1      42.211  43.567  20.740  1.00  0.00    -0.459 OA
BRANCH   8   9
ATOM      9  C   UNL A   1      41.677  43.730  19.503  1.00  0.00     0.368 C 
ATOM     10  O   UNL A   1      40.489  43.572  19.238  1.00  0.00    -0.245 OA
BRANCH   9  11
ATOM     11  C   UNL A   1      42.723  44.197  18.460  1.00  0.00     0.198 C 
ATOM     12  C   UNL A   1      45.203  45.038  18.461  1.00  0.00     0.190 C 
ATOM     13  C   UNL A   1      44.679  46.320  17.786  1.00  0.00     0.065 C 
ATOM     14  C   UNL A   1      44.089  44.262  19.186  1.00  0.00     0.145 C 
ATOM     15  C   UNL A   1      43.329  46.209  17.093  1.00  0.00     0.013 C 
ATOM     16  C   UNL A   1      42.290  45.592  18.010  1.00  0.00     0.081 C 
BRANCH  12  17
ATOM     17  N   UNL A   1      46.426  45.180  19.309  1.00  0.00    -0.332 N 
ATOM     18  C   UNL A   1      45.616  45.248  23.080  1.00  0.00     0.013 C 
ATOM     19  C   UNL A   1      45.728  44.642  21.683  1.00  0.00     0.041 C 
ATOM     20  C   UNL A   1      46.615  43.390  21.676  1.00  0.00     0.015 C 
ATOM     21  C   UNL A   1      46.197  45.699  20.663  1.00  0.00     0.265 C 
ATOM     22  C   UNL A   1      46.982  42.919  20.268  1.00  0.00     0.062 C 
ATOM     23  C   UNL A   1      47.393  44.077  19.364  1.00  0.00     0.262 C 
ATOM     24  H   UNL A   1      46.882  45.893  18.740  1.00  0.00     0.348 HD
ENDBRANCH  12  17
BRANCH  11  25
ATOM     25  N   UNL A   1      42.758  43.356  17.237  1.00  0.00    -0.343 N 
ATOM     26  H   UNL A   1      43.132  42.436  17.469  1.00  0.00     0.345 HD
ATOM     27  H   UNL A   1      43.352  43.799  16.537  1.00  0.00     0.345 HD
ATOM     28  H   UNL A   1      41.813  43.256  16.866  1.00  0.00     0.345 HD
ENDBRANCH  11  25
ENDBRANCH   9  11
ENDBRANCH   8   9
ENDBRANCH   7   8
ENDBRANCH   6   7
ENDBRANCH   5   6
ENDBRANCH   4   5
ENDBRANCH   3   4
ENDBRANCH   2   3
ENDBRANCH   1   2
BRANCH   1  29
ATOM     29  C   UNL A   1      45.889  39.912  27.269  1.00  0.00     0.188 C 
BRANCH  29  30
ATOM     30  O   UNL A   1      45.285  39.130  28.288  1.00  0.00    -0.376 OA
BRANCH  30  31
ATOM     31  C   UNL A   1      45.557  39.441  29.646  1.00  0.00     0.202 C 
BRANCH  31  32
ATOM     32  C   UNL A   1      46.266  38.380  30.505  1.00  0.00     0.261 C 
BRANCH  32  33
ATOM     33  O   UNL A   1      46.259  37.034  30.003  1.00  0.00    -0.460 OA
BRANCH  33  34
ATOM     34  C   UNL A   1      47.272  36.651  29.199  1.00  0.00     0.338 C 
ATOM     35  O   UNL A   1      48.238  37.319  28.867  1.00  0.00    -0.246 OA
BRANCH  34  36
ATOM     36  C   UNL A   1      47.126  35.202  28.950  1.00  0.00     0.060 A 
ATOM     37  C   UNL A   1      46.770  34.765  27.667  1.00  0.00     0.016 A 
ATOM     38  C   UNL A   1      47.341  34.279  29.976  1.00  0.00     0.016 A 
ATOM     39  C   UNL A   1      46.583  33.405  27.418  1.00  0.00     0.010 A 
ATOM     40  C   UNL A   1      47.130  32.919  29.731  1.00  0.00     0.010 A 
ATOM     41  C   UNL A   1      46.713  32.480  28.462  1.00  0.00    -0.014 A 
BRANCH  41  42
ATOM     42  C   UNL A   1      46.206  31.097  28.285  1.00  0.00     0.031 A 
ATOM     43  C   UNL A   1      47.191  30.025  27.903  1.00  0.00     0.074 A 
ATOM     44  C   UNL A   1      44.910  30.792  28.477  1.00  0.00     0.049 A 
ATOM     45  N   UNL A   1      46.983  28.764  27.632  1.00  0.00    -0.248 NA
ATOM     46  C   UNL A   1      48.603  30.436  27.814  1.00  0.00     0.031 C 
ATOM     47  C   UNL A   1      43.872  31.732  28.894  1.00  0.00     0.029 A 
ATOM     48  N   UNL A   1      44.248  29.598  28.334  1.00  0.00    -0.354 N 
ATOM     49  C   UNL A   1      48.233  28.233  27.329  1.00  0.00     0.074 A 
ATOM     50  C   UNL A   1      49.188  29.315  27.420  1.00  0.00     0.031 C 
ATOM     51  C   UNL A   1      42.696  31.081  28.957  1.00  0.00     0.029 A 
ATOM     52  C   UNL A   1      42.893  29.690  28.551  1.00  0.00     0.049 A 
ATOM     53  H   UNL A   1      44.700  28.756  28.099  1.00  0.00     0.167 HD
ATOM     54  C   UNL A   1      48.555  26.957  27.011  1.00  0.00     0.037 A 
ATOM     55  C   UNL A   1      41.923  28.764  28.408  1.00  0.00     0.037 A 
ATOM     56  C   UNL A   1      47.598  25.885  26.920  1.00  0.00     0.049 A 
ATOM     57  C   UNL A   1      42.295  27.366  27.977  1.00  0.00     0.074 A 
ATOM     58  C   UNL A   1      47.824  24.554  26.620  1.00  0.00     0.029 A 
ATOM     59  N   UNL A   1      46.231  26.024  27.119  1.00  0.00    -0.354 N 
ATOM     60  N   UNL A   1      43.481  26.870  27.712  1.00  0.00    -0.248 NA
ATOM     61  C   UNL A   1      41.196  26.401  27.826  1.00  0.00     0.031 C 
ATOM     62  C   UNL A   1      46.589  23.901  26.575  1.00  0.00     0.029 A 
ATOM     63  C   UNL A   1      45.599  24.809  26.917  1.00  0.00     0.049 A 
ATOM     64  H   UNL A   1      45.779  26.863  27.366  1.00  0.00     0.167 HD
ATOM     65  C   UNL A   1      43.274  25.530  27.398  1.00  0.00     0.074 A 
ATOM     66  C   UNL A   1      41.851  25.291  27.514  1.00  0.00     0.031 C 
ATOM     67  C   UNL A   1      44.179  24.582  27.047  1.00  0.00     0.037 A 
BRANCH  54  68
ATOM     68  C   UNL A   1      49.998  26.656  26.705  1.00  0.00     0.058 A 
ATOM     69  C   UNL A   1      50.494  26.651  25.392  1.00  0.00     0.135 A 
ATOM     70  C   UNL A   1      50.904  26.401  27.747  1.00  0.00     0.135 A 
ATOM     71  F   UNL A   1      49.668  26.868  24.355  1.00  0.00    -0.206 F 
ATOM     72  C   UNL A   1      51.830  26.377  25.120  1.00  0.00     0.059 A 
ATOM     73  C   UNL A   1      52.252  26.156  27.501  1.00  0.00     0.059 A 
ATOM     74  F   UNL A   1      50.484  26.388  29.022  1.00  0.00    -0.206 F 
ATOM     75  C   UNL A   1      52.702  26.133  26.182  1.00  0.00     0.060 A 
BRANCH  75  76
ATOM     76  S   UNL A   1      54.435  25.789  25.812  1.00  0.00     0.124 S 
ATOM     77  O   UNL A   1      54.316  24.896  24.664  1.00  0.00    -0.237 OA
ATOM     78  O   UNL A   1      54.962  27.120  25.528  1.00  0.00    -0.237 OA
ATOM     79  O   UNL A   1      54.929  25.170  27.038  1.00  0.00    -0.744 OA
ENDBRANCH  75  76
ENDBRANCH  54  68
BRANCH  55  80
ATOM     80  C   UNL A   1      40.501  29.128  28.660  1.00  0.00     0.058 A 
ATOM     81  C   UNL A   1      39.985  29.185  29.963  1.00  0.00     0.135 A 
ATOM     82  C   UNL A   1      39.627  29.417  27.599  1.00  0.00     0.135 A 
ATOM     83  F   UNL A   1      40.774  28.902  31.010  1.00  0.00    -0.206 F 
ATOM     84  C   UNL A   1      38.651  29.501  30.206  1.00  0.00     0.059 A 
ATOM     85  C   UNL A   1      38.298  29.766  27.820  1.00  0.00     0.059 A 
ATOM     86  F   UNL A   1      40.070  29.382  26.333  1.00  0.00    -0.206 F 
ATOM     87  C   UNL A   1      37.816  29.796  29.127  1.00  0.00     0.060 A 
BRANCH  87  88
ATOM     88  S   UNL A   1      36.101  30.255  29.459  1.00  0.00     0.124 S 
ATOM     89  O   UNL A   1      36.151  31.705  29.309  1.00  0.00    -0.237 OA
ATOM     90  O   UNL A   1      35.385  29.528  28.416  1.00  0.00    -0.237 OA
ATOM     91  O   UNL A   1      35.880  29.768  30.818  1.00  0.00    -0.744 OA
ENDBRANCH  87  88
ENDBRANCH  55  80
BRANCH  67  92
ATOM     92  C   UNL A   1      43.675  23.182  26.810  1.00  0.00     0.058 A 
ATOM     93  C   UNL A   1      43.608  22.624  25.523  1.00  0.00     0.135 A 
ATOM     94  C   UNL A   1      43.311  22.367  27.895  1.00  0.00     0.135 A 
ATOM     95  F   UNL A   1      43.939  23.358  24.450  1.00  0.00    -0.206 F 
ATOM     96  C   UNL A   1      43.177  21.316  25.320  1.00  0.00     0.059 A 
ATOM     97  C   UNL A   1      42.909  21.047  27.718  1.00  0.00     0.059 A 
ATOM     98  F   UNL A   1      43.367  22.845  29.148  1.00  0.00    -0.206 F 
ATOM     99  C   UNL A   1      42.833  20.533  26.425  1.00  0.00     0.060 A 
BRANCH  99 100
ATOM    100  S   UNL A   1      42.310  18.829  26.149  1.00  0.00     0.124 S 
ATOM    101  O   UNL A   1      40.906  19.004  25.793  1.00  0.00    -0.237 OA
ATOM    102  O   UNL A   1      43.190  18.405  25.064  1.00  0.00    -0.237 OA
ATOM    103  O   UNL A   1      42.555  18.184  27.435  1.00  0.00    -0.744 OA
ENDBRANCH  99 100
ENDBRANCH  67  92
ENDBRANCH  41  42
ENDBRANCH  34  36
ENDBRANCH  33  34
ENDBRANCH  32  33
ENDBRANCH  31  32
ENDBRANCH  30  31
ENDBRANCH  29  30
ENDBRANCH   1  29
TORSDOF 25
ENDMDL
MODEL 2
REMARK VINA RESULT:      -8.8      9.538     13.994
REMARK SMILES C[C@@H]1CCC[N@@H+]([C@@H]2CCC[C@]([NH3+])(C(=O)OCCOCCOCCOCCOC(=O)c3ccc(-c4c5nc(c(-c6c(F)cc(S(=O)(=O)[O-])cc6F)c6ccc([nH]6)c(-c6c(F)cc(S(=O)(=O)[O-])cc6F)c6nc(c(-c7c(F)cc(S(=O)(=O)[O-])cc7F)c7ccc4[nH]7)C=C6)C=C5)cc3)C2)C1
REMARK SMILES IDX 22 1 21 2 20 3 19 4 18 5 17 6 16 7 15 8 13 9 14 10 11 11
REMARK SMILES IDX 7 12 8 13 96 14 9 15 10 16 6 17 1 18 2 19 3 20 97 21 4 22
REMARK SMILES IDX 5 23 12 25 23 29 24 30 25 31 26 32 27 33 28 34 29 35 30 36
REMARK SMILES IDX 31 37 95 38 32 39 94 40 33 41 34 42 35 43 88 44 36 45 93 46
REMARK SMILES IDX 87 47 89 48 37 49 92 50 86 51 85 52 38 54 72 55 51 56 71 57
REMARK SMILES IDX 52 58 55 59 70 60 90 61 53 62 54 63 69 65 91 66 56 67 39 68
REMARK SMILES IDX 40 69 49 70 41 71 42 72 48 73 50 74 43 75 44 76 45 77 46 78
REMARK SMILES IDX 47 79 73 80 74 81 83 82 75 83 76 84 82 85 84 86 77 87 78 88
REMARK SMILES IDX 79 89 80 90 81 91 57 92 58 93 67 94 59 95 60 96 66 97 68 98
REMARK SMILES IDX 61 99 62 100 63 101 64 102 65 103
REMARK H PARENT 6 24 12 26 12 27 12 28 89 53 55 64
REMARK Flexibility Score: inf
ROOT
ATOM      1  C   UNL A   1      34.161  34.595  30.770  1.00  0.00     0.188 C 
ENDROOT
BRANCH   1   2
ATOM      2  O   UNL A   1      33.229  34.526  29.694  1.00  0.00    -0.377 OA
BRANCH   2   3
ATOM      3  C   UNL A   1      33.739  34.311  28.397  1.00  0.00     0.188 C 
BRANCH   3   4
ATOM      4  C   UNL A   1      33.821  32.838  27.970  1.00  0.00     0.188 C 
BRANCH   4   5
ATOM      5  O   UNL A   1      35.054  32.245  27.602  1.00  0.00    -0.376 OA
BRANCH   5   6
ATOM      6  C   UNL A   1      35.242  30.837  27.545  1.00  0.00     0.202 C 
BRANCH   6   7
ATOM      7  C   UNL A   1      34.105  29.806  27.545  1.00  0.00     0.261 C 
BRANCH   7   8
ATOM      8  O   UNL A   1      33.340  29.736  26.341  1.00  0.00    -0.459 OA
BRANCH   8   9
ATOM      9  C   UNL A   1      33.466  28.583  25.636  1.00  0.00     0.368 C 
ATOM     10  O   UNL A   1      33.955  27.550  26.084  1.00  0.00    -0.245 OA
BRANCH   9  11
ATOM     11  C   UNL A   1      32.870  28.689  24.210  1.00  0.00     0.198 C 
ATOM     12  C   UNL A   1      30.546  29.225  23.126  1.00  0.00     0.190 C 
ATOM     13  C   UNL A   1      30.636  27.840  22.457  1.00  0.00     0.065 C 
ATOM     14  C   UNL A   1      31.473  29.342  24.350  1.00  0.00     0.145 C 
ATOM     15  C   UNL A   1      32.028  27.235  22.350  1.00  0.00     0.013 C 
ATOM     16  C   UNL A   1      32.741  27.259  23.688  1.00  0.00     0.081 C 
BRANCH  12  17
ATOM     17  N   UNL A   1      29.174  29.741  23.415  1.00  0.00    -0.332 N 
ATOM     18  C   UNL A   1      28.947  33.583  23.144  1.00  0.00     0.013 C 
ATOM     19  C   UNL A   1      29.130  32.153  22.642  1.00  0.00     0.041 C 
ATOM     20  C   UNL A   1      28.111  31.799  21.550  1.00  0.00     0.015 C 
ATOM     21  C   UNL A   1      29.102  31.153  23.815  1.00  0.00     0.265 C 
ATOM     22  C   UNL A   1      28.072  30.306  21.222  1.00  0.00     0.062 C 
ATOM     23  C   UNL A   1      28.083  29.441  22.479  1.00  0.00     0.262 C 
ATOM     24  H   UNL A   1      28.991  29.145  24.222  1.00  0.00     0.348 HD
ENDBRANCH  12  17
BRANCH  11  25
ATOM     25  N   UNL A   1      33.749  29.406  23.251  1.00  0.00    -0.343 N 
ATOM     26  H   UNL A   1      33.403  30.356  23.117  1.00  0.00     0.345 HD
ATOM     27  H   UNL A   1      33.750  28.914  22.358  1.00  0.00     0.345 HD
ATOM     28  H   UNL A   1      34.699  29.440  23.621  1.00  0.00     0.345 HD
ENDBRANCH  11  25
ENDBRANCH   9  11
ENDBRANCH   8   9
ENDBRANCH   7   8
ENDBRANCH   6   7
ENDBRANCH   5   6
ENDBRANCH   4   5
ENDBRANCH   3   4
ENDBRANCH   2   3
ENDBRANCH   1   2
BRANCH   1  29
ATOM     29  C   UNL A   1      35.623  34.142  30.555  1.00  0.00     0.188 C 
BRANCH  29  30
ATOM     30  O   UNL A   1      35.861  32.757  30.763  1.00  0.00    -0.376 OA
BRANCH  30  31
ATOM     31  C   UNL A   1      35.411  32.156  31.968  1.00  0.00     0.202 C 
BRANCH  31  32
ATOM     32  C   UNL A   1      36.378  31.227  32.721  1.00  0.00     0.261 C 
BRANCH  32  33
ATOM     33  O   UNL A   1      37.769  31.329  32.377  1.00  0.00    -0.460 OA
BRANCH  33  34
ATOM     34  C   UNL A   1      38.636  31.702  33.341  1.00  0.00     0.338 C 
ATOM     35  O   UNL A   1      38.396  32.400  34.312  1.00  0.00    -0.246 OA
BRANCH  34  36
ATOM     36  C   UNL A   1      39.888  30.945  33.139  1.00  0.00     0.060 A 
ATOM     37  C   UNL A   1      39.844  29.544  33.140  1.00  0.00     0.016 A 
ATOM     38  C   UNL A   1      41.100  31.612  32.948  1.00  0.00     0.016 A 
ATOM     39  C   UNL A   1      41.019  28.806  32.996  1.00  0.00     0.010 A 
ATOM     40  C   UNL A   1      42.280  30.872  32.828  1.00  0.00     0.010 A 
ATOM     41  C   UNL A   1      42.249  29.468  32.890  1.00  0.00    -0.014 A 
BRANCH  41  42
ATOM     42  C   UNL A   1      43.510  28.705  33.062  1.00  0.00     0.031 A 
ATOM     43  C   UNL A   1      44.020  28.484  34.461  1.00  0.00     0.074 A 
ATOM     44  C   UNL A   1      44.178  28.203  32.009  1.00  0.00     0.049 A 
ATOM     45  N   UNL A   1      45.122  27.909  34.863  1.00  0.00    -0.248 NA
ATOM     46  C   UNL A   1      43.168  28.984  35.554  1.00  0.00     0.031 C 
ATOM     47  C   UNL A   1      43.760  28.309  30.612  1.00  0.00     0.029 A 
ATOM     48  N   UNL A   1      45.361  27.508  31.955  1.00  0.00    -0.354 N 
ATOM     49  C   UNL A   1      45.103  27.987  36.252  1.00  0.00     0.074 A 
ATOM     50  C   UNL A   1      43.895  28.693  36.621  1.00  0.00     0.031 C 
ATOM     51  C   UNL A   1      44.684  27.714  29.836  1.00  0.00     0.029 A 
ATOM     52  C   UNL A   1      45.774  27.218  30.676  1.00  0.00     0.049 A 
ATOM     53  H   UNL A   1      45.866  27.242  32.757  1.00  0.00     0.167 HD
ATOM     54  C   UNL A   1      46.006  27.507  37.138  1.00  0.00     0.037 A 
ATOM     55  C   UNL A   1      46.913  26.646  30.237  1.00  0.00     0.037 A 
ATOM     56  C   UNL A   1      47.207  26.808  36.762  1.00  0.00     0.049 A 
ATOM     57  C   UNL A   1      47.944  26.188  31.240  1.00  0.00     0.074 A 
ATOM     58  C   UNL A   1      48.180  26.269  37.585  1.00  0.00     0.029 A 
ATOM     59  N   UNL A   1      47.604  26.559  35.456  1.00  0.00    -0.354 N 
ATOM     60  N   UNL A   1      47.907  26.250  32.550  1.00  0.00    -0.248 NA
ATOM     61  C   UNL A   1      49.171  25.582  30.704  1.00  0.00     0.031 C 
ATOM     62  C   UNL A   1      49.196  25.749  36.776  1.00  0.00     0.029 A 
ATOM     63  C   UNL A   1      48.822  25.902  35.449  1.00  0.00     0.049 A 
ATOM     64  H   UNL A   1      47.094  26.813  34.653  1.00  0.00     0.167 HD
ATOM     65  C   UNL A   1      49.087  25.660  32.994  1.00  0.00     0.074 A 
ATOM     66  C   UNL A   1      49.812  25.240  31.814  1.00  0.00     0.031 C 
ATOM     67  C   UNL A   1      49.530  25.479  34.265  1.00  0.00     0.037 A 
BRANCH  54  68
ATOM     68  C   UNL A   1      45.748  27.752  38.601  1.00  0.00     0.058 A 
ATOM     69  C   UNL A   1      45.028  26.843  39.392  1.00  0.00     0.135 A 
ATOM     70  C   UNL A   1      46.257  28.903  39.227  1.00  0.00     0.135 A 
ATOM     71  F   UNL A   1      44.501  25.737  38.842  1.00  0.00    -0.206 F 
ATOM     72  C   UNL A   1      44.799  27.076  40.743  1.00  0.00     0.059 A 
ATOM     73  C   UNL A   1      46.067  29.141  40.584  1.00  0.00     0.059 A 
ATOM     74  F   UNL A   1      46.947  29.809  38.518  1.00  0.00    -0.206 F 
ATOM     75  C   UNL A   1      45.325  28.228  41.332  1.00  0.00     0.060 A 
BRANCH  75  76
ATOM     76  S   UNL A   1      45.027  28.511  43.090  1.00  0.00     0.124 S 
ATOM     77  O   UNL A   1      44.885  29.962  43.131  1.00  0.00    -0.237 OA
ATOM     78  O   UNL A   1      43.806  27.747  43.323  1.00  0.00    -0.237 OA
ATOM     79  O   UNL A   1      46.228  27.980  43.729  1.00  0.00    -0.744 OA
ENDBRANCH  75  76
ENDBRANCH  54  68
BRANCH  55  80
ATOM     80  C   UNL A   1      47.152  26.484  28.775  1.00  0.00     0.058 A 
ATOM     81  C   UNL A   1      46.744  25.327  28.096  1.00  0.00     0.135 A 
ATOM     82  C   UNL A   1      47.800  27.483  28.031  1.00  0.00     0.135 A 
ATOM     83  F   UNL A   1      46.135  24.336  28.764  1.00  0.00    -0.206 F 
ATOM     84  C   UNL A   1      46.984  25.157  26.735  1.00  0.00     0.059 A 
ATOM     85  C   UNL A   1      48.023  27.349  26.664  1.00  0.00     0.059 A 
ATOM     86  F   UNL A   1      48.206  28.613  28.631  1.00  0.00    -0.206 F 
ATOM     87  C   UNL A   1      47.620  26.178  26.026  1.00  0.00     0.060 A 
BRANCH  87  88
ATOM     88  S   UNL A   1      47.879  25.968  24.251  1.00  0.00     0.124 S 
ATOM     89  O   UNL A   1      49.334  26.008  24.159  1.00  0.00    -0.237 OA
ATOM     90  O   UNL A   1      47.258  24.669  24.006  1.00  0.00    -0.237 OA
ATOM     91  O   UNL A   1      47.177  27.109  23.672  1.00  0.00    -0.744 OA
ENDBRANCH  87  88
ENDBRANCH  55  80
BRANCH  67  92
ATOM     92  C   UNL A   1      50.837  24.755  34.456  1.00  0.00     0.058 A 
ATOM     93  C   UNL A   1      52.033  25.438  34.724  1.00  0.00     0.135 A 
ATOM     94  C   UNL A   1      50.878  23.350  34.433  1.00  0.00     0.135 A 
ATOM     95  F   UNL A   1      52.053  26.780  34.754  1.00  0.00    -0.206 F 
ATOM     96  C   UNL A   1      53.228  24.756  34.938  1.00  0.00     0.059 A 
ATOM     97  C   UNL A   1      52.054  22.647  34.677  1.00  0.00     0.059 A 
ATOM     98  F   UNL A   1      49.761  22.645  34.194  1.00  0.00    -0.206 F 
ATOM     99  C   UNL A   1      53.227  23.360  34.916  1.00  0.00     0.060 A 
BRANCH  99 100
ATOM    100  S   UNL A   1      54.776  22.488  35.231  1.00  0.00     0.124 S 
ATOM    101  O   UNL A   1      55.355  22.422  33.893  1.00  0.00    -0.237 OA
ATOM    102  O   UNL A   1      55.450  23.381  36.169  1.00  0.00    -0.237 OA
ATOM    103  O   UNL A   1      54.342  21.212  35.790  1.00  0.00    -0.744 OA
ENDBRANCH  99 100
ENDBRANCH  67  92
ENDBRANCH  41  42
ENDBRANCH  34  36
ENDBRANCH  33  34
ENDBRANCH  32  33
ENDBRANCH  31  32
ENDBRANCH  30  31
ENDBRANCH  29  30
ENDBRANCH   1  29
TORSDOF 25
ENDMDL
MODEL 3
REMARK VINA RESULT:      -8.5      8.871     15.947
REMARK SMILES C[C@@H]1CCC[N@@H+]([C@@H]2CCC[C@]([NH3+])(C(=O)OCCOCCOCCOCCOC(=O)c3ccc(-c4c5nc(c(-c6c(F)cc(S(=O)(=O)[O-])cc6F)c6ccc([nH]6)c(-c6c(F)cc(S(=O)(=O)[O-])cc6F)c6nc(c(-c7c(F)cc(S(=O)(=O)[O-])cc7F)c7ccc4[nH]7)C=C6)C=C5)cc3)C2)C1
REMARK SMILES IDX 22 1 21 2 20 3 19 4 18 5 17 6 16 7 15 8 13 9 14 10 11 11
REMARK SMILES IDX 7 12 8 13 96 14 9 15 10 16 6 17 1 18 2 19 3 20 97 21 4 22
REMARK SMILES IDX 5 23 12 25 23 29 24 30 25 31 26 32 27 33 28 34 29 35 30 36
REMARK SMILES IDX 31 37 95 38 32 39 94 40 33 41 34 42 35 43 88 44 36 45 93 46
REMARK SMILES IDX 87 47 89 48 37 49 92 50 86 51 85 52 38 54 72 55 51 56 71 57
REMARK SMILES IDX 52 58 55 59 70 60 90 61 53 62 54 63 69 65 91 66 56 67 39 68
REMARK SMILES IDX 40 69 49 70 41 71 42 72 48 73 50 74 43 75 44 76 45 77 46 78
REMARK SMILES IDX 47 79 73 80 74 81 83 82 75 83 76 84 82 85 84 86 77 87 78 88
REMARK SMILES IDX 79 89 80 90 81 91 57 92 58 93 67 94 59 95 60 96 66 97 68 98
REMARK SMILES IDX 61 99 62 100 63 101 64 102 65 103
REMARK H PARENT 6 24 12 26 12 27 12 28 89 53 55 64
REMARK Flexibility Score: inf
ROOT
ATOM      1  C   UNL A   1      45.767  27.884  25.769  1.00  0.00     0.188 C 
ENDROOT
BRANCH   1   2
ATOM      2  O   UNL A   1      46.840  28.147  26.670  1.00  0.00    -0.377 OA
BRANCH   2   3
ATOM      3  C   UNL A   1      48.064  28.584  26.122  1.00  0.00     0.188 C 
BRANCH   3   4
ATOM      4  C   UNL A   1      49.091  27.471  25.865  1.00  0.00     0.188 C 
BRANCH   4   5
ATOM      5  O   UNL A   1      48.757  26.105  26.044  1.00  0.00    -0.376 OA
BRANCH   5   6
ATOM      6  C   UNL A   1      49.415  25.271  26.990  1.00  0.00     0.202 C 
BRANCH   6   7
ATOM      7  C   UNL A   1      49.397  25.495  28.508  1.00  0.00     0.261 C 
BRANCH   7   8
ATOM      8  O   UNL A   1      48.361  26.352  28.991  1.00  0.00    -0.459 OA
BRANCH   8   9
ATOM      9  C   UNL A   1      47.169  25.748  29.229  1.00  0.00     0.368 C 
ATOM     10  O   UNL A   1      46.783  24.732  28.658  1.00  0.00    -0.245 OA
BRANCH   9  11
ATOM     11  C   UNL A   1      46.360  26.450  30.348  1.00  0.00     0.198 C 
ATOM     12  C   UNL A   1      45.592  28.884  30.935  1.00  0.00     0.190 C 
ATOM     13  C   UNL A   1      46.350  28.709  32.266  1.00  0.00     0.065 C 
ATOM     14  C   UNL A   1      46.066  27.889  29.860  1.00  0.00     0.145 C 
ATOM     15  C   UNL A   1      46.623  27.277  32.700  1.00  0.00     0.013 C 
ATOM     16  C   UNL A   1      47.262  26.477  31.580  1.00  0.00     0.081 C 
BRANCH  12  17
ATOM     17  N   UNL A   1      45.491  30.276  30.401  1.00  0.00    -0.332 N 
ATOM     18  C   UNL A   1      43.445  30.466  27.135  1.00  0.00     0.013 C 
ATOM     19  C   UNL A   1      43.684  30.241  28.626  1.00  0.00     0.041 C 
ATOM     20  C   UNL A   1      42.800  31.154  29.487  1.00  0.00     0.015 C 
ATOM     21  C   UNL A   1      45.181  30.381  28.969  1.00  0.00     0.265 C 
ATOM     22  C   UNL A   1      43.202  31.166  30.962  1.00  0.00     0.062 C 
ATOM     23  C   UNL A   1      44.713  31.275  31.145  1.00  0.00     0.262 C 
ATOM     24  H   UNL A   1      46.464  30.536  30.562  1.00  0.00     0.348 HD
ENDBRANCH  12  17
BRANCH  11  25
ATOM     25  N   UNL A   1      45.133  25.712  30.745  1.00  0.00    -0.343 N 
ATOM     26  H   UNL A   1      44.476  26.358  31.182  1.00  0.00     0.345 HD
ATOM     27  H   UNL A   1      45.379  24.976  31.406  1.00  0.00     0.345 HD
ATOM     28  H   UNL A   1      44.704  25.297  29.919  1.00  0.00     0.345 HD
ENDBRANCH  11  25
ENDBRANCH   9  11
ENDBRANCH   8   9
ENDBRANCH   7   8
ENDBRANCH   6   7
ENDBRANCH   5   6
ENDBRANCH   4   5
ENDBRANCH   3   4
ENDBRANCH   2   3
ENDBRANCH   1   2
BRANCH   1  29
ATOM     29  C   UNL A   1      44.592  26.982  26.211  1.00  0.00     0.188 C 
BRANCH  29  30
ATOM     30  O   UNL A   1      44.167  26.030  25.246  1.00  0.00    -0.376 OA
BRANCH  30  31
ATOM     31  C   UNL A   1      43.796  24.730  25.680  1.00  0.00     0.202 C 
BRANCH  31  32
ATOM     32  C   UNL A   1      42.396  24.213  25.306  1.00  0.00     0.261 C 
BRANCH  32  33
ATOM     33  O   UNL A   1      41.301  24.680  26.109  1.00  0.00    -0.460 OA
BRANCH  33  34
ATOM     34  C   UNL A   1      41.209  24.236  27.380  1.00  0.00     0.338 C 
ATOM     35  O   UNL A   1      41.397  23.096  27.773  1.00  0.00    -0.246 OA
BRANCH  34  36
ATOM     36  C   UNL A   1      41.049  25.412  28.259  1.00  0.00     0.060 A 
ATOM     37  C   UNL A   1      42.187  26.132  28.645  1.00  0.00     0.016 A 
ATOM     38  C   UNL A   1      39.783  25.804  28.700  1.00  0.00     0.016 A 
ATOM     39  C   UNL A   1      42.067  27.220  29.510  1.00  0.00     0.010 A 
ATOM     40  C   UNL A   1      39.667  26.878  29.586  1.00  0.00     0.010 A 
ATOM     41  C   UNL A   1      40.812  27.566  30.025  1.00  0.00    -0.014 A 
BRANCH  41  42
ATOM     42  C   UNL A   1      40.721  28.496  31.177  1.00  0.00     0.031 A 
ATOM     43  C   UNL A   1      39.702  29.602  31.117  1.00  0.00     0.074 A 
ATOM     44  C   UNL A   1      41.507  28.355  32.260  1.00  0.00     0.049 A 
ATOM     45  N   UNL A   1      39.475  30.571  31.964  1.00  0.00    -0.248 NA
ATOM     46  C   UNL A   1      38.819  29.615  29.937  1.00  0.00     0.031 C 
ATOM     47  C   UNL A   1      42.496  27.297  32.455  1.00  0.00     0.029 A 
ATOM     48  N   UNL A   1      41.599  29.118  33.397  1.00  0.00    -0.354 N 
ATOM     49  C   UNL A   1      38.435  31.315  31.417  1.00  0.00     0.074 A 
ATOM     50  C   UNL A   1      38.097  30.704  30.150  1.00  0.00     0.031 C 
ATOM     51  C   UNL A   1      43.109  27.489  33.637  1.00  0.00     0.029 A 
ATOM     52  C   UNL A   1      42.581  28.701  34.264  1.00  0.00     0.049 A 
ATOM     53  H   UNL A   1      41.016  29.891  33.576  1.00  0.00     0.167 HD
ATOM     54  C   UNL A   1      37.815  32.404  31.927  1.00  0.00     0.037 A 
ATOM     55  C   UNL A   1      43.021  29.251  35.413  1.00  0.00     0.037 A 
ATOM     56  C   UNL A   1      38.160  33.009  33.187  1.00  0.00     0.049 A 
ATOM     57  C   UNL A   1      42.367  30.512  35.926  1.00  0.00     0.074 A 
ATOM     58  C   UNL A   1      37.583  34.106  33.800  1.00  0.00     0.029 A 
ATOM     59  N   UNL A   1      39.180  32.574  34.022  1.00  0.00    -0.354 N 
ATOM     60  N   UNL A   1      41.372  31.195  35.410  1.00  0.00    -0.248 NA
ATOM     61  C   UNL A   1      42.894  31.075  37.177  1.00  0.00     0.031 C 
ATOM     62  C   UNL A   1      38.293  34.373  34.976  1.00  0.00     0.029 A 
ATOM     63  C   UNL A   1      39.268  33.400  35.130  1.00  0.00     0.049 A 
ATOM     64  H   UNL A   1      39.755  31.794  33.851  1.00  0.00     0.167 HD
ATOM     65  C   UNL A   1      41.133  32.247  36.291  1.00  0.00     0.074 A 
ATOM     66  C   UNL A   1      42.081  32.104  37.375  1.00  0.00     0.031 C 
ATOM     67  C   UNL A   1      40.211  33.239  36.211  1.00  0.00     0.037 A 
BRANCH  54  68
ATOM     68  C   UNL A   1      36.721  33.034  31.106  1.00  0.00     0.058 A 
ATOM     69  C   UNL A   1      35.363  32.794  31.368  1.00  0.00     0.135 A 
ATOM     70  C   UNL A   1      37.040  33.917  30.061  1.00  0.00     0.135 A 
ATOM     71  F   UNL A   1      35.001  31.944  32.342  1.00  0.00    -0.206 F 
ATOM     72  C   UNL A   1      34.360  33.385  30.607  1.00  0.00     0.059 A 
ATOM     73  C   UNL A   1      36.053  34.544  29.307  1.00  0.00     0.059 A 
ATOM     74  F   UNL A   1      38.322  34.178  29.762  1.00  0.00    -0.206 F 
ATOM     75  C   UNL A   1      34.715  34.261  29.579  1.00  0.00     0.060 A 
BRANCH  75  76
ATOM     76  S   UNL A   1      33.401  35.027  28.607  1.00  0.00     0.124 S 
ATOM     77  O   UNL A   1      34.167  35.855  27.682  1.00  0.00    -0.237 OA
ATOM     78  O   UNL A   1      32.736  33.868  28.019  1.00  0.00    -0.237 OA
ATOM     79  O   UNL A   1      32.621  35.756  29.603  1.00  0.00    -0.744 OA
ENDBRANCH  75  76
ENDBRANCH  54  68
BRANCH  55  80
ATOM     80  C   UNL A   1      44.151  28.627  36.156  1.00  0.00     0.058 A 
ATOM     81  C   UNL A   1      45.466  29.087  36.000  1.00  0.00     0.135 A 
ATOM     82  C   UNL A   1      43.936  27.551  37.033  1.00  0.00     0.135 A 
ATOM     83  F   UNL A   1      45.727  30.102  35.162  1.00  0.00    -0.206 F 
ATOM     84  C   UNL A   1      46.531  28.494  36.672  1.00  0.00     0.059 A 
ATOM     85  C   UNL A   1      44.981  26.962  37.740  1.00  0.00     0.059 A 
ATOM     86  F   UNL A   1      42.696  27.075  37.224  1.00  0.00    -0.206 F 
ATOM     87  C   UNL A   1      46.277  27.435  37.545  1.00  0.00     0.060 A 
BRANCH  87  88
ATOM     88  S   UNL A   1      47.661  26.709  38.451  1.00  0.00     0.124 S 
ATOM     89  O   UNL A   1      46.968  25.862  39.415  1.00  0.00    -0.237 OA
ATOM     90  O   UNL A   1      48.385  26.013  37.392  1.00  0.00    -0.237 OA
ATOM     91  O   UNL A   1      48.345  27.872  39.009  1.00  0.00    -0.744 OA
ENDBRANCH  87  88
ENDBRANCH  55  80
BRANCH  67  92
ATOM     92  C   UNL A   1      40.141  34.226  37.347  1.00  0.00     0.058 A 
ATOM     93  C   UNL A   1      40.935  35.384  37.375  1.00  0.00     0.135 A 
ATOM     94  C   UNL A   1      39.220  34.040  38.391  1.00  0.00     0.135 A 
ATOM     95  F   UNL A   1      41.835  35.611  36.406  1.00  0.00    -0.206 F 
ATOM     96  C   UNL A   1      40.834  36.309  38.411  1.00  0.00     0.059 A 
ATOM     97  C   UNL A   1      39.079  34.968  39.418  1.00  0.00     0.059 A 
ATOM     98  F   UNL A   1      38.427  32.957  38.408  1.00  0.00    -0.206 F 
ATOM     99  C   UNL A   1      39.900  36.094  39.427  1.00  0.00     0.060 A 
BRANCH  99 100
ATOM    100  S   UNL A   1      39.756  37.319  40.744  1.00  0.00     0.124 S 
ATOM    101  O   UNL A   1      38.442  37.892  40.472  1.00  0.00    -0.237 OA
ATOM    102  O   UNL A   1      39.852  36.496  41.946  1.00  0.00    -0.237 OA
ATOM    103  O   UNL A   1      40.888  38.208  40.508  1.00  0.00    -0.744 OA
ENDBRANCH  99 100
ENDBRANCH  67  92
ENDBRANCH  41  42
ENDBRANCH  34  36
ENDBRANCH  33  34
ENDBRANCH  32  33
ENDBRANCH  31  32
ENDBRANCH  30  31
ENDBRANCH  29  30
ENDBRANCH   1  29
TORSDOF 25
ENDMDL
