MODEL 1
REMARK VINA RESULT:     -10.2      0.000      0.000
REMARK SMILES CNC(=O)c1cccc(-c2cnc(O)c(C(=O)OCCOCCOCCOCCOC(=O)c3ccc(-c4c5nc(c(-c6c(F)cc(S(=O)(=O)[O-])cc6F)c6ccc([nH]6)c(-c6c(F)cc(S(=O)(=O)[O-])cc6F)c6nc(c(-c7c(F)cc(S(=O)(=O)[O-])cc7F)c7ccc4[nH]7)C=C6)C=C5)cc3)c2)c1
REMARK SMILES IDX 25 1 24 2 23 3 22 4 21 5 20 6 19 7 18 8 16 9 17 10 15 11
REMARK SMILES IDX 10 12 11 13 99 14 12 15 13 16 9 17 5 18 6 19 100 20 7 21
REMARK SMILES IDX 8 22 3 23 1 24 2 25 4 27 14 28 26 30 27 31 28 32 29 33 30 34
REMARK SMILES IDX 31 35 32 36 33 37 34 38 98 39 35 40 97 41 36 42 37 43 38 44
REMARK SMILES IDX 91 45 39 46 96 47 90 48 92 49 40 50 95 51 89 52 88 53 41 55
REMARK SMILES IDX 75 56 54 57 74 58 55 59 58 60 73 61 93 62 56 63 57 64 72 66
REMARK SMILES IDX 94 67 59 68 42 69 43 70 52 71 44 72 45 73 51 74 53 75 46 76
REMARK SMILES IDX 47 77 48 78 49 79 50 80 76 81 77 82 86 83 78 84 79 85 85 86
REMARK SMILES IDX 87 87 80 88 81 89 82 90 83 91 84 92 60 93 61 94 70 95 62 96
REMARK SMILES IDX 63 97 69 98 71 99 64 100 65 101 66 102 67 103 68 104
REMARK H PARENT 2 26 14 29 92 54 58 65
REMARK Flexibility Score: inf
ROOT
ATOM      1  C   UNL A   1      43.860  19.220  25.589  1.00  0.00     0.188 C 
ENDROOT
BRANCH   1   2
ATOM      2  O   UNL A   1      42.509  19.215  25.120  1.00  0.00    -0.377 OA
BRANCH   2   3
ATOM      3  C   UNL A   1      41.476  19.245  26.091  1.00  0.00     0.188 C 
BRANCH   3   4
ATOM      4  C   UNL A   1      41.771  20.223  27.243  1.00  0.00     0.188 C 
BRANCH   4   5
ATOM      5  O   UNL A   1      40.831  21.280  27.337  1.00  0.00    -0.376 OA
BRANCH   5   6
ATOM      6  C   UNL A   1      40.028  21.659  26.231  1.00  0.00     0.202 C 
BRANCH   6   7
ATOM      7  C   UNL A   1      38.790  22.572  26.322  1.00  0.00     0.261 C 
BRANCH   7   8
ATOM      8  O   UNL A   1      37.506  22.000  26.066  1.00  0.00    -0.459 OA
BRANCH   8   9
ATOM      9  C   UNL A   1      36.854  22.333  24.942  1.00  0.00     0.343 C 
ATOM     10  O   UNL A   1      37.101  21.983  23.798  1.00  0.00    -0.246 OA
BRANCH   9  11
ATOM     11  C   UNL A   1      35.594  22.991  25.333  1.00  0.00     0.122 A 
ATOM     12  C   UNL A   1      34.203  24.974  25.539  1.00  0.00     0.001 A 
ATOM     13  C   UNL A   1      33.326  24.174  26.272  1.00  0.00     0.124 A 
ATOM     14  C   UNL A   1      35.381  24.353  25.101  1.00  0.00     0.031 A 
ATOM     15  N   UNL A   1      33.517  22.857  26.539  1.00  0.00    -0.221 NA
ATOM     16  C   UNL A   1      34.633  22.286  26.043  1.00  0.00     0.225 A 
BRANCH  12  17
ATOM     17  C   UNL A   1      33.865  26.344  25.126  1.00  0.00    -0.016 A 
ATOM     18  C   UNL A   1      33.740  28.707  25.739  1.00  0.00     0.040 A 
ATOM     19  C   UNL A   1      33.456  29.051  24.419  1.00  0.00     0.014 A 
ATOM     20  C   UNL A   1      33.885  27.365  26.091  1.00  0.00     0.022 A 
ATOM     21  C   UNL A   1      33.382  28.050  23.448  1.00  0.00     0.001 A 
ATOM     22  C   UNL A   1      33.602  26.710  23.796  1.00  0.00     0.009 A 
BRANCH  18  23
ATOM     23  C   UNL A   1      33.866  29.766  26.766  1.00  0.00     0.251 C 
ATOM     24  C   UNL A   1      31.591  30.813  26.271  1.00  0.00     0.143 C 
ATOM     25  N   UNL A   1      32.906  30.745  26.872  1.00  0.00    -0.355 N 
ATOM     26  H   UNL A   1      33.149  31.512  27.440  1.00  0.00     0.163 HD
ATOM     27  O   UNL A   1      34.824  29.756  27.533  1.00  0.00    -0.269 OA
ENDBRANCH  18  23
ENDBRANCH  12  17
BRANCH  16  28
ATOM     28  O   UNL A   1      34.759  20.961  26.354  1.00  0.00    -0.493 OA
ATOM     29  H   UNL A   1      35.164  20.706  27.160  1.00  0.00     0.295 HD
ENDBRANCH  16  28
ENDBRANCH   9  11
ENDBRANCH   8   9
ENDBRANCH   7   8
ENDBRANCH   6   7
ENDBRANCH   5   6
ENDBRANCH   4   5
ENDBRANCH   3   4
ENDBRANCH   2   3
ENDBRANCH   1   2
BRANCH   1  30
ATOM     30  C   UNL A   1      44.886  20.277  25.109  1.00  0.00     0.188 C 
BRANCH  30  31
ATOM     31  O   UNL A   1      44.486  21.627  25.314  1.00  0.00    -0.376 OA
BRANCH  31  32
ATOM     32  C   UNL A   1      45.317  22.456  26.109  1.00  0.00     0.202 C 
BRANCH  32  33
ATOM     33  C   UNL A   1      44.599  23.208  27.237  1.00  0.00     0.261 C 
BRANCH  33  34
ATOM     34  O   UNL A   1      43.223  23.525  26.981  1.00  0.00    -0.460 OA
BRANCH  34  35
ATOM     35  C   UNL A   1      42.980  24.677  26.316  1.00  0.00     0.338 C 
ATOM     36  O   UNL A   1      43.019  24.852  25.113  1.00  0.00    -0.246 OA
BRANCH  35  37
ATOM     37  C   UNL A   1      42.458  25.659  27.288  1.00  0.00     0.060 A 
ATOM     38  C   UNL A   1      43.075  26.912  27.374  1.00  0.00     0.016 A 
ATOM     39  C   UNL A   1      41.369  25.345  28.106  1.00  0.00     0.016 A 
ATOM     40  C   UNL A   1      42.628  27.843  28.311  1.00  0.00     0.010 A 
ATOM     41  C   UNL A   1      40.933  26.272  29.055  1.00  0.00     0.010 A 
ATOM     42  C   UNL A   1      41.583  27.512  29.185  1.00  0.00    -0.014 A 
BRANCH  42  43
ATOM     43  C   UNL A   1      41.292  28.402  30.334  1.00  0.00     0.031 A 
ATOM     44  C   UNL A   1      42.143  28.286  31.570  1.00  0.00     0.074 A 
ATOM     45  C   UNL A   1      40.321  29.330  30.263  1.00  0.00     0.049 A 
ATOM     46  N   UNL A   1      42.093  28.975  32.680  1.00  0.00    -0.248 NA
ATOM     47  C   UNL A   1      43.193  27.254  31.550  1.00  0.00     0.031 C 
ATOM     48  C   UNL A   1      39.448  29.552  29.110  1.00  0.00     0.029 A 
ATOM     49  N   UNL A   1      39.908  30.261  31.183  1.00  0.00    -0.354 N 
ATOM     50  C   UNL A   1      43.103  28.466  33.488  1.00  0.00     0.074 A 
ATOM     51  C   UNL A   1      43.724  27.384  32.756  1.00  0.00     0.031 C 
ATOM     52  C   UNL A   1      38.600  30.557  29.395  1.00  0.00     0.029 A 
ATOM     53  C   UNL A   1      38.853  31.030  30.755  1.00  0.00     0.049 A 
ATOM     54  H   UNL A   1      40.329  30.367  32.066  1.00  0.00     0.167 HD
ATOM     55  C   UNL A   1      43.486  28.871  34.722  1.00  0.00     0.037 A 
ATOM     56  C   UNL A   1      38.164  31.996  31.394  1.00  0.00     0.037 A 
ATOM     57  C   UNL A   1      42.857  29.944  35.450  1.00  0.00     0.049 A 
ATOM     58  C   UNL A   1      38.572  32.390  32.792  1.00  0.00     0.074 A 
ATOM     59  C   UNL A   1      43.182  30.443  36.699  1.00  0.00     0.029 A 
ATOM     60  N   UNL A   1      41.768  30.676  35.000  1.00  0.00    -0.354 N 
ATOM     61  N   UNL A   1      39.551  31.924  33.530  1.00  0.00    -0.248 NA
ATOM     62  C   UNL A   1      37.784  33.449  33.438  1.00  0.00     0.031 C 
ATOM     63  C   UNL A   1      42.254  31.438  37.028  1.00  0.00     0.029 A 
ATOM     64  C   UNL A   1      41.390  31.603  35.958  1.00  0.00     0.049 A 
ATOM     65  H   UNL A   1      41.328  30.555  34.127  1.00  0.00     0.167 HD
ATOM     66  C   UNL A   1      39.511  32.648  34.719  1.00  0.00     0.074 A 
ATOM     67  C   UNL A   1      38.426  33.599  34.588  1.00  0.00     0.031 C 
ATOM     68  C   UNL A   1      40.299  32.536  35.820  1.00  0.00     0.037 A 
BRANCH  55  69
ATOM     69  C   UNL A   1      44.622  28.133  35.375  1.00  0.00     0.058 A 
ATOM     70  C   UNL A   1      44.414  26.963  36.124  1.00  0.00     0.135 A 
ATOM     71  C   UNL A   1      45.944  28.584  35.224  1.00  0.00     0.135 A 
ATOM     72  F   UNL A   1      43.170  26.497  36.321  1.00  0.00    -0.206 F 
ATOM     73  C   UNL A   1      45.472  26.282  36.720  1.00  0.00     0.059 A 
ATOM     74  C   UNL A   1      47.019  27.903  35.786  1.00  0.00     0.059 A 
ATOM     75  F   UNL A   1      46.201  29.700  34.522  1.00  0.00    -0.206 F 
ATOM     76  C   UNL A   1      46.771  26.759  36.543  1.00  0.00     0.060 A 
BRANCH  76  77
ATOM     77  S   UNL A   1      48.133  25.858  37.313  1.00  0.00     0.124 S 
ATOM     78  O   UNL A   1      47.620  24.491  37.304  1.00  0.00    -0.237 OA
ATOM     79  O   UNL A   1      49.239  26.125  36.399  1.00  0.00    -0.237 OA
ATOM     80  O   UNL A   1      48.249  26.475  38.631  1.00  0.00    -0.744 OA
ENDBRANCH  76  77
ENDBRANCH  55  69
BRANCH  56  81
ATOM     81  C   UNL A   1      37.012  32.659  30.724  1.00  0.00     0.058 A 
ATOM     82  C   UNL A   1      37.200  33.754  29.866  1.00  0.00     0.135 A 
ATOM     83  C   UNL A   1      35.697  32.215  30.933  1.00  0.00     0.135 A 
ATOM     84  F   UNL A   1      38.436  34.226  29.642  1.00  0.00    -0.206 F 
ATOM     85  C   UNL A   1      36.127  34.392  29.253  1.00  0.00     0.059 A 
ATOM     86  C   UNL A   1      34.611  32.818  30.310  1.00  0.00     0.059 A 
ATOM     87  F   UNL A   1      35.464  31.166  31.739  1.00  0.00    -0.206 F 
ATOM     88  C   UNL A   1      34.835  33.914  29.477  1.00  0.00     0.060 A 
BRANCH  88  89
ATOM     89  S   UNL A   1      33.456  34.714  28.630  1.00  0.00     0.124 S 
ATOM     90  O   UNL A   1      34.107  35.880  28.043  1.00  0.00    -0.237 OA
ATOM     91  O   UNL A   1      33.030  33.679  27.693  1.00  0.00    -0.237 OA
ATOM     92  O   UNL A   1      32.514  34.994  29.710  1.00  0.00    -0.744 OA
ENDBRANCH  88  89
ENDBRANCH  56  81
BRANCH  68  93
ATOM     93  C   UNL A   1      40.027  33.485  36.958  1.00  0.00     0.058 A 
ATOM     94  C   UNL A   1      40.609  34.762  37.013  1.00  0.00     0.135 A 
ATOM     95  C   UNL A   1      39.164  33.116  38.004  1.00  0.00     0.135 A 
ATOM     96  F   UNL A   1      41.442  35.167  36.042  1.00  0.00    -0.206 F 
ATOM     97  C   UNL A   1      40.386  35.618  38.087  1.00  0.00     0.059 A 
ATOM     98  C   UNL A   1      38.899  33.970  39.070  1.00  0.00     0.059 A 
ATOM     99  F   UNL A   1      38.565  31.914  37.995  1.00  0.00    -0.206 F 
ATOM    100  C   UNL A   1      39.533  35.210  39.115  1.00  0.00     0.060 A 
BRANCH 100 101
ATOM    101  S   UNL A   1      39.264  36.323  40.510  1.00  0.00     0.124 S 
ATOM    102  O   UNL A   1      40.495  36.143  41.272  1.00  0.00    -0.237 OA
ATOM    103  O   UNL A   1      39.107  37.618  39.853  1.00  0.00    -0.237 OA
ATOM    104  O   UNL A   1      38.056  35.796  41.137  1.00  0.00    -0.744 OA
ENDBRANCH 100 101
ENDBRANCH  68  93
ENDBRANCH  42  43
ENDBRANCH  35  37
ENDBRANCH  34  35
ENDBRANCH  33  34
ENDBRANCH  32  33
ENDBRANCH  31  32
ENDBRANCH  30  31
ENDBRANCH   1  30
TORSDOF 26
ENDMDL
MODEL 2
REMARK VINA RESULT:     -10.0      2.114      4.178
REMARK SMILES CNC(=O)c1cccc(-c2cnc(O)c(C(=O)OCCOCCOCCOCCOC(=O)c3ccc(-c4c5nc(c(-c6c(F)cc(S(=O)(=O)[O-])cc6F)c6ccc([nH]6)c(-c6c(F)cc(S(=O)(=O)[O-])cc6F)c6nc(c(-c7c(F)cc(S(=O)(=O)[O-])cc7F)c7ccc4[nH]7)C=C6)C=C5)cc3)c2)c1
REMARK SMILES IDX 25 1 24 2 23 3 22 4 21 5 20 6 19 7 18 8 16 9 17 10 15 11
REMARK SMILES IDX 10 12 11 13 99 14 12 15 13 16 9 17 5 18 6 19 100 20 7 21
REMARK SMILES IDX 8 22 3 23 1 24 2 25 4 27 14 28 26 30 27 31 28 32 29 33 30 34
REMARK SMILES IDX 31 35 32 36 33 37 34 38 98 39 35 40 97 41 36 42 37 43 38 44
REMARK SMILES IDX 91 45 39 46 96 47 90 48 92 49 40 50 95 51 89 52 88 53 41 55
REMARK SMILES IDX 75 56 54 57 74 58 55 59 58 60 73 61 93 62 56 63 57 64 72 66
REMARK SMILES IDX 94 67 59 68 42 69 43 70 52 71 44 72 45 73 51 74 53 75 46 76
REMARK SMILES IDX 47 77 48 78 49 79 50 80 76 81 77 82 86 83 78 84 79 85 85 86
REMARK SMILES IDX 87 87 80 88 81 89 82 90 83 91 84 92 60 93 61 94 70 95 62 96
REMARK SMILES IDX 63 97 69 98 71 99 64 100 65 101 66 102 67 103 68 104
REMARK H PARENT 2 26 14 29 92 54 58 65
REMARK Flexibility Score: inf
ROOT
ATOM      1  C   UNL A   1      42.656  21.462  26.956  1.00  0.00     0.188 C 
ENDROOT
BRANCH   1   2
ATOM      2  O   UNL A   1      41.691  20.495  27.373  1.00  0.00    -0.377 OA
BRANCH   2   3
ATOM      3  C   UNL A   1      40.406  20.547  26.774  1.00  0.00     0.188 C 
BRANCH   3   4
ATOM      4  C   UNL A   1      40.045  21.954  26.264  1.00  0.00     0.188 C 
BRANCH   4   5
ATOM      5  O   UNL A   1      38.666  22.110  25.975  1.00  0.00    -0.376 OA
BRANCH   5   6
ATOM      6  C   UNL A   1      38.043  23.384  25.990  1.00  0.00     0.202 C 
BRANCH   6   7
ATOM      7  C   UNL A   1      36.526  23.614  26.127  1.00  0.00     0.261 C 
BRANCH   7   8
ATOM      8  O   UNL A   1      35.776  23.902  24.946  1.00  0.00    -0.459 OA
BRANCH   8   9
ATOM      9  C   UNL A   1      34.579  24.500  25.061  1.00  0.00     0.343 C 
ATOM     10  O   UNL A   1      34.311  25.680  24.894  1.00  0.00    -0.246 OA
BRANCH   9  11
ATOM     11  C   UNL A   1      33.558  23.443  25.159  1.00  0.00     0.122 A 
ATOM     12  C   UNL A   1      32.649  21.292  24.483  1.00  0.00     0.001 A 
ATOM     13  C   UNL A   1      31.526  21.628  25.240  1.00  0.00     0.124 A 
ATOM     14  C   UNL A   1      33.663  22.258  24.425  1.00  0.00     0.031 A 
ATOM     15  N   UNL A   1      31.381  22.782  25.941  1.00  0.00    -0.221 NA
ATOM     16  C   UNL A   1      32.408  23.653  25.908  1.00  0.00     0.225 A 
BRANCH  12  17
ATOM     17  C   UNL A   1      32.832  19.958  23.891  1.00  0.00    -0.016 A 
ATOM     18  C   UNL A   1      33.667  17.678  24.174  1.00  0.00     0.040 A 
ATOM     19  C   UNL A   1      33.072  17.295  22.974  1.00  0.00     0.014 A 
ATOM     20  C   UNL A   1      33.592  19.007  24.592  1.00  0.00     0.022 A 
ATOM     21  C   UNL A   1      32.352  18.233  22.232  1.00  0.00     0.001 A 
ATOM     22  C   UNL A   1      32.220  19.550  22.696  1.00  0.00     0.009 A 
BRANCH  18  23
ATOM     23  C   UNL A   1      34.393  16.680  24.991  1.00  0.00     0.251 C 
ATOM     24  C   UNL A   1      32.291  15.410  25.690  1.00  0.00     0.143 C 
ATOM     25  N   UNL A   1      33.697  15.756  25.733  1.00  0.00    -0.355 N 
ATOM     26  H   UNL A   1      34.232  15.255  26.391  1.00  0.00     0.163 HD
ATOM     27  O   UNL A   1      35.620  16.671  24.990  1.00  0.00    -0.269 OA
ENDBRANCH  18  23
ENDBRANCH  12  17
BRANCH  16  28
ATOM     28  O   UNL A   1      32.190  24.791  26.633  1.00  0.00    -0.493 OA
ATOM     29  H   UNL A   1      31.676  25.486  26.271  1.00  0.00     0.295 HD
ENDBRANCH  16  28
ENDBRANCH   9  11
ENDBRANCH   8   9
ENDBRANCH   7   8
ENDBRANCH   6   7
ENDBRANCH   5   6
ENDBRANCH   4   5
ENDBRANCH   3   4
ENDBRANCH   2   3
ENDBRANCH   1   2
BRANCH   1  30
ATOM     30  C   UNL A   1      43.560  21.232  25.718  1.00  0.00     0.188 C 
BRANCH  30  31
ATOM     31  O   UNL A   1      43.409  22.200  24.685  1.00  0.00    -0.376 OA
BRANCH  31  32
ATOM     32  C   UNL A   1      44.295  23.307  24.674  1.00  0.00     0.202 C 
BRANCH  32  33
ATOM     33  C   UNL A   1      43.658  24.656  25.034  1.00  0.00     0.261 C 
BRANCH  33  34
ATOM     34  O   UNL A   1      42.704  24.614  26.105  1.00  0.00    -0.460 OA
BRANCH  34  35
ATOM     35  C   UNL A   1      41.655  25.462  26.015  1.00  0.00     0.338 C 
ATOM     36  O   UNL A   1      40.819  25.503  25.132  1.00  0.00    -0.246 OA
BRANCH  35  37
ATOM     37  C   UNL A   1      41.571  26.213  27.283  1.00  0.00     0.060 A 
ATOM     38  C   UNL A   1      40.476  25.991  28.125  1.00  0.00     0.016 A 
ATOM     39  C   UNL A   1      42.566  27.130  27.637  1.00  0.00     0.016 A 
ATOM     40  C   UNL A   1      40.352  26.717  29.309  1.00  0.00     0.010 A 
ATOM     41  C   UNL A   1      42.431  27.868  28.816  1.00  0.00     0.010 A 
ATOM     42  C   UNL A   1      41.305  27.689  29.639  1.00  0.00    -0.014 A 
BRANCH  42  43
ATOM     43  C   UNL A   1      41.029  28.624  30.756  1.00  0.00     0.031 A 
ATOM     44  C   UNL A   1      41.878  28.540  31.995  1.00  0.00     0.074 A 
ATOM     45  C   UNL A   1      40.073  29.564  30.650  1.00  0.00     0.049 A 
ATOM     46  N   UNL A   1      41.841  29.270  33.079  1.00  0.00    -0.248 NA
ATOM     47  C   UNL A   1      42.912  27.492  32.013  1.00  0.00     0.031 C 
ATOM     48  C   UNL A   1      39.203  29.758  29.491  1.00  0.00     0.029 A 
ATOM     49  N   UNL A   1      39.676  30.535  31.536  1.00  0.00    -0.354 N 
ATOM     50  C   UNL A   1      42.843  28.774  33.905  1.00  0.00     0.074 A 
ATOM     51  C   UNL A   1      43.446  27.656  33.213  1.00  0.00     0.031 C 
ATOM     52  C   UNL A   1      38.371  30.786  29.738  1.00  0.00     0.029 A 
ATOM     53  C   UNL A   1      38.633  31.304  31.080  1.00  0.00     0.049 A 
ATOM     54  H   UNL A   1      40.099  30.667  32.414  1.00  0.00     0.167 HD
ATOM     55  C   UNL A   1      43.232  29.218  35.124  1.00  0.00     0.037 A 
ATOM     56  C   UNL A   1      37.959  32.305  31.684  1.00  0.00     0.037 A 
ATOM     57  C   UNL A   1      42.621  30.327  35.812  1.00  0.00     0.049 A 
ATOM     58  C   UNL A   1      38.374  32.742  33.066  1.00  0.00     0.074 A 
ATOM     59  C   UNL A   1      42.955  30.865  37.042  1.00  0.00     0.029 A 
ATOM     60  N   UNL A   1      41.543  31.059  35.335  1.00  0.00    -0.354 N 
ATOM     61  N   UNL A   1      39.347  32.288  33.821  1.00  0.00    -0.248 NA
ATOM     62  C   UNL A   1      37.603  33.836  33.673  1.00  0.00     0.031 C 
ATOM     63  C   UNL A   1      42.043  31.887  37.334  1.00  0.00     0.029 A 
ATOM     64  C   UNL A   1      41.180  32.026  36.260  1.00  0.00     0.049 A 
ATOM     65  H   UNL A   1      41.101  30.913  34.467  1.00  0.00     0.167 HD
ATOM     66  C   UNL A   1      39.319  33.055  34.983  1.00  0.00     0.074 A 
ATOM     67  C   UNL A   1      38.248  34.018  34.817  1.00  0.00     0.031 C 
ATOM     68  C   UNL A   1      40.105  32.971  36.087  1.00  0.00     0.037 A 
BRANCH  55  69
ATOM     69  C   UNL A   1      44.357  28.486  35.804  1.00  0.00     0.058 A 
ATOM     70  C   UNL A   1      45.699  28.858  35.625  1.00  0.00     0.135 A 
ATOM     71  C   UNL A   1      44.087  27.415  36.672  1.00  0.00     0.135 A 
ATOM     72  F   UNL A   1      46.019  29.860  34.790  1.00  0.00    -0.206 F 
ATOM     73  C   UNL A   1      46.734  28.181  36.263  1.00  0.00     0.059 A 
ATOM     74  C   UNL A   1      45.103  26.742  37.343  1.00  0.00     0.059 A 
ATOM     75  F   UNL A   1      42.822  27.013  36.876  1.00  0.00    -0.206 F 
ATOM     76  C   UNL A   1      46.426  27.124  37.121  1.00  0.00     0.060 A 
BRANCH  76  77
ATOM     77  S   UNL A   1      47.779  26.262  37.950  1.00  0.00     0.124 S 
ATOM     78  O   UNL A   1      47.052  25.396  38.872  1.00  0.00    -0.237 OA
ATOM     79  O   UNL A   1      48.444  25.589  36.839  1.00  0.00    -0.237 OA
ATOM     80  O   UNL A   1      48.540  27.342  38.572  1.00  0.00    -0.744 OA
ENDBRANCH  76  77
ENDBRANCH  55  69
BRANCH  56  81
ATOM     81  C   UNL A   1      36.818  32.961  30.990  1.00  0.00     0.058 A 
ATOM     82  C   UNL A   1      35.490  32.624  31.291  1.00  0.00     0.135 A 
ATOM     83  C   UNL A   1      37.034  33.936  30.003  1.00  0.00     0.135 A 
ATOM     84  F   UNL A   1      35.230  31.687  32.218  1.00  0.00    -0.206 F 
ATOM     85  C   UNL A   1      34.419  33.216  30.631  1.00  0.00     0.059 A 
ATOM     86  C   UNL A   1      35.979  34.564  29.349  1.00  0.00     0.059 A 
ATOM     87  F   UNL A   1      38.285  34.301  29.682  1.00  0.00    -0.206 F 
ATOM     88  C   UNL A   1      34.673  34.190  29.664  1.00  0.00     0.060 A 
BRANCH  88  89
ATOM     89  S   UNL A   1      33.273  34.994  28.856  1.00  0.00     0.124 S 
ATOM     90  O   UNL A   1      32.756  33.916  28.020  1.00  0.00    -0.237 OA
ATOM     91  O   UNL A   1      32.442  35.376  29.993  1.00  0.00    -0.237 OA
ATOM     92  O   UNL A   1      33.891  36.107  28.141  1.00  0.00    -0.744 OA
ENDBRANCH  88  89
ENDBRANCH  56  81
BRANCH  68  93
ATOM     93  C   UNL A   1      39.848  33.965  37.190  1.00  0.00     0.058 A 
ATOM     94  C   UNL A   1      40.346  35.277  37.135  1.00  0.00     0.135 A 
ATOM     95  C   UNL A   1      39.085  33.603  38.313  1.00  0.00     0.135 A 
ATOM     96  F   UNL A   1      41.082  35.677  36.086  1.00  0.00    -0.206 F 
ATOM     97  C   UNL A   1      40.140  36.178  38.175  1.00  0.00     0.059 A 
ATOM     98  C   UNL A   1      38.838  34.498  39.349  1.00  0.00     0.059 A 
ATOM     99  F   UNL A   1      38.569  32.367  38.411  1.00  0.00    -0.206 F 
ATOM    100  C   UNL A   1      39.389  35.777  39.282  1.00  0.00     0.060 A 
BRANCH 100 101
ATOM    101  S   UNL A   1      39.142  36.949  40.632  1.00  0.00     0.124 S 
ATOM    102  O   UNL A   1      40.516  37.305  40.967  1.00  0.00    -0.237 OA
ATOM    103  O   UNL A   1      38.351  37.999  39.995  1.00  0.00    -0.237 OA
ATOM    104  O   UNL A   1      38.434  36.164  41.638  1.00  0.00    -0.744 OA
ENDBRANCH 100 101
ENDBRANCH  68  93
ENDBRANCH  42  43
ENDBRANCH  35  37
ENDBRANCH  34  35
ENDBRANCH  33  34
ENDBRANCH  32  33
ENDBRANCH  31  32
ENDBRANCH  30  31
ENDBRANCH   1  30
TORSDOF 26
ENDMDL
MODEL 3
REMARK VINA RESULT:      -9.4      1.359      2.019
REMARK SMILES CNC(=O)c1cccc(-c2cnc(O)c(C(=O)OCCOCCOCCOCCOC(=O)c3ccc(-c4c5nc(c(-c6c(F)cc(S(=O)(=O)[O-])cc6F)c6ccc([nH]6)c(-c6c(F)cc(S(=O)(=O)[O-])cc6F)c6nc(c(-c7c(F)cc(S(=O)(=O)[O-])cc7F)c7ccc4[nH]7)C=C6)C=C5)cc3)c2)c1
REMARK SMILES IDX 25 1 24 2 23 3 22 4 21 5 20 6 19 7 18 8 16 9 17 10 15 11
REMARK SMILES IDX 10 12 11 13 99 14 12 15 13 16 9 17 5 18 6 19 100 20 7 21
REMARK SMILES IDX 8 22 3 23 1 24 2 25 4 27 14 28 26 30 27 31 28 32 29 33 30 34
REMARK SMILES IDX 31 35 32 36 33 37 34 38 98 39 35 40 97 41 36 42 37 43 38 44
REMARK SMILES IDX 91 45 39 46 96 47 90 48 92 49 40 50 95 51 89 52 88 53 41 55
REMARK SMILES IDX 75 56 54 57 74 58 55 59 58 60 73 61 93 62 56 63 57 64 72 66
REMARK SMILES IDX 94 67 59 68 42 69 43 70 52 71 44 72 45 73 51 74 53 75 46 76
REMARK SMILES IDX 47 77 48 78 49 79 50 80 76 81 77 82 86 83 78 84 79 85 85 86
REMARK SMILES IDX 87 87 80 88 81 89 82 90 83 91 84 92 60 93 61 94 70 95 62 96
REMARK SMILES IDX 63 97 69 98 71 99 64 100 65 101 66 102 67 103 68 104
REMARK H PARENT 2 26 14 29 92 54 58 65
REMARK Flexibility Score: inf
ROOT
ATOM      1  C   UNL A   1      42.621  20.449  26.401  1.00  0.00     0.188 C 
ENDROOT
BRANCH   1   2
ATOM      2  O   UNL A   1      41.298  20.011  26.082  1.00  0.00    -0.377 OA
BRANCH   2   3
ATOM      3  C   UNL A   1      40.217  20.824  26.508  1.00  0.00     0.188 C 
BRANCH   3   4
ATOM      4  C   UNL A   1      40.645  22.270  26.818  1.00  0.00     0.188 C 
BRANCH   4   5
ATOM      5  O   UNL A   1      39.647  23.021  27.487  1.00  0.00    -0.376 OA
BRANCH   5   6
ATOM      6  C   UNL A   1      38.915  24.039  26.826  1.00  0.00     0.202 C 
BRANCH   6   7
ATOM      7  C   UNL A   1      37.720  23.789  25.887  1.00  0.00     0.261 C 
BRANCH   7   8
ATOM      8  O   UNL A   1      36.741  22.825  26.279  1.00  0.00    -0.459 OA
BRANCH   8   9
ATOM      9  C   UNL A   1      36.357  21.887  25.399  1.00  0.00     0.343 C 
ATOM     10  O   UNL A   1      37.035  21.001  24.904  1.00  0.00    -0.246 OA
BRANCH   9  11
ATOM     11  C   UNL A   1      34.886  21.923  25.320  1.00  0.00     0.122 A 
ATOM     12  C   UNL A   1      32.775  23.122  25.456  1.00  0.00     0.001 A 
ATOM     13  C   UNL A   1      32.162  21.873  25.368  1.00  0.00     0.124 A 
ATOM     14  C   UNL A   1      34.177  23.119  25.470  1.00  0.00     0.031 A 
ATOM     15  N   UNL A   1      32.820  20.691  25.251  1.00  0.00    -0.221 NA
ATOM     16  C   UNL A   1      34.166  20.742  25.203  1.00  0.00     0.225 A 
BRANCH  12  17
ATOM     17  C   UNL A   1      32.017  24.381  25.400  1.00  0.00    -0.016 A 
ATOM     18  C   UNL A   1      31.912  26.686  24.592  1.00  0.00     0.040 A 
ATOM     19  C   UNL A   1      30.593  26.794  25.027  1.00  0.00     0.014 A 
ATOM     20  C   UNL A   1      32.626  25.511  24.830  1.00  0.00     0.022 A 
ATOM     21  C   UNL A   1      29.978  25.702  25.642  1.00  0.00     0.001 A 
ATOM     22  C   UNL A   1      30.680  24.500  25.811  1.00  0.00     0.009 A 
BRANCH  18  23
ATOM     23  C   UNL A   1      32.557  27.823  23.898  1.00  0.00     0.251 C 
ATOM     24  C   UNL A   1      33.220  26.466  21.840  1.00  0.00     0.143 C 
ATOM     25  N   UNL A   1      33.221  27.622  22.711  1.00  0.00    -0.355 N 
ATOM     26  H   UNL A   1      33.780  28.375  22.410  1.00  0.00     0.163 HD
ATOM     27  O   UNL A   1      32.482  28.949  24.380  1.00  0.00    -0.269 OA
ENDBRANCH  18  23
ENDBRANCH  12  17
BRANCH  16  28
ATOM     28  O   UNL A   1      34.761  19.517  25.088  1.00  0.00    -0.493 OA
ATOM     29  H   UNL A   1      35.359  19.350  24.386  1.00  0.00     0.295 HD
ENDBRANCH  16  28
ENDBRANCH   9  11
ENDBRANCH   8   9
ENDBRANCH   7   8
ENDBRANCH   6   7
ENDBRANCH   5   6
ENDBRANCH   4   5
ENDBRANCH   3   4
ENDBRANCH   2   3
ENDBRANCH   1   2
BRANCH   1  30
ATOM     30  C   UNL A   1      43.782  20.349  25.379  1.00  0.00     0.188 C 
BRANCH  30  31
ATOM     31  O   UNL A   1      43.982  21.520  24.594  1.00  0.00    -0.376 OA
BRANCH  31  32
ATOM     32  C   UNL A   1      43.302  22.704  24.976  1.00  0.00     0.202 C 
BRANCH  32  33
ATOM     33  C   UNL A   1      44.136  23.989  24.897  1.00  0.00     0.261 C 
BRANCH  33  34
ATOM     34  O   UNL A   1      43.940  24.912  25.979  1.00  0.00    -0.460 OA
BRANCH  34  35
ATOM     35  C   UNL A   1      42.962  25.831  25.821  1.00  0.00     0.338 C 
ATOM     36  O   UNL A   1      42.223  25.959  24.863  1.00  0.00    -0.246 OA
BRANCH  35  37
ATOM     37  C   UNL A   1      42.800  26.544  27.104  1.00  0.00     0.060 A 
ATOM     38  C   UNL A   1      41.940  26.006  28.068  1.00  0.00     0.016 A 
ATOM     39  C   UNL A   1      43.491  27.734  27.352  1.00  0.00     0.016 A 
ATOM     40  C   UNL A   1      41.738  26.679  29.272  1.00  0.00     0.010 A 
ATOM     41  C   UNL A   1      43.275  28.416  28.552  1.00  0.00     0.010 A 
ATOM     42  C   UNL A   1      42.370  27.909  29.503  1.00  0.00    -0.014 A 
BRANCH  42  43
ATOM     43  C   UNL A   1      41.951  28.732  30.662  1.00  0.00     0.031 A 
ATOM     44  C   UNL A   1      42.753  28.651  31.932  1.00  0.00     0.074 A 
ATOM     45  C   UNL A   1      40.907  29.575  30.570  1.00  0.00     0.049 A 
ATOM     46  N   UNL A   1      42.593  29.297  33.058  1.00  0.00    -0.248 NA
ATOM     47  C   UNL A   1      43.889  27.715  31.934  1.00  0.00     0.031 C 
ATOM     48  C   UNL A   1      40.070  29.758  29.385  1.00  0.00     0.029 A 
ATOM     49  N   UNL A   1      40.373  30.437  31.496  1.00  0.00    -0.354 N 
ATOM     50  C   UNL A   1      43.607  28.851  33.898  1.00  0.00     0.074 A 
ATOM     51  C   UNL A   1      44.353  27.851  33.167  1.00  0.00     0.031 C 
ATOM     52  C   UNL A   1      39.125  30.676  29.657  1.00  0.00     0.029 A 
ATOM     53  C   UNL A   1      39.275  31.125  31.040  1.00  0.00     0.049 A 
ATOM     54  H   UNL A   1      40.743  30.551  32.400  1.00  0.00     0.167 HD
ATOM     55  C   UNL A   1      43.896  29.247  35.160  1.00  0.00     0.037 A 
ATOM     56  C   UNL A   1      38.475  32.007  31.673  1.00  0.00     0.037 A 
ATOM     57  C   UNL A   1      43.144  30.238  35.887  1.00  0.00     0.049 A 
ATOM     58  C   UNL A   1      38.784  32.389  33.099  1.00  0.00     0.074 A 
ATOM     59  C   UNL A   1      43.368  30.723  37.164  1.00  0.00     0.029 A 
ATOM     60  N   UNL A   1      42.016  30.888  35.407  1.00  0.00    -0.354 N 
ATOM     61  N   UNL A   1      39.767  31.986  33.870  1.00  0.00    -0.248 NA
ATOM     62  C   UNL A   1      37.878  33.354  33.737  1.00  0.00     0.031 C 
ATOM     63  C   UNL A   1      42.342  31.623  37.477  1.00  0.00     0.029 A 
ATOM     64  C   UNL A   1      41.515  31.747  36.372  1.00  0.00     0.049 A 
ATOM     65  H   UNL A   1      41.628  30.757  34.511  1.00  0.00     0.167 HD
ATOM     66  C   UNL A   1      39.610  32.665  35.075  1.00  0.00     0.074 A 
ATOM     67  C   UNL A   1      38.452  33.522  34.919  1.00  0.00     0.031 C 
ATOM     68  C   UNL A   1      40.354  32.587  36.208  1.00  0.00     0.037 A 
BRANCH  55  69
ATOM     69  C   UNL A   1      45.063  28.590  35.846  1.00  0.00     0.058 A 
ATOM     70  C   UNL A   1      46.362  29.117  35.770  1.00  0.00     0.135 A 
ATOM     71  C   UNL A   1      44.874  27.430  36.616  1.00  0.00     0.135 A 
ATOM     72  F   UNL A   1      46.606  30.211  35.030  1.00  0.00    -0.206 F 
ATOM     73  C   UNL A   1      47.435  28.507  36.412  1.00  0.00     0.059 A 
ATOM     74  C   UNL A   1      45.926  26.820  37.291  1.00  0.00     0.059 A 
ATOM     75  F   UNL A   1      43.654  26.879  36.720  1.00  0.00    -0.206 F 
ATOM     76  C   UNL A   1      47.207  27.359  37.172  1.00  0.00     0.060 A 
BRANCH  76  77
ATOM     77  S   UNL A   1      48.607  26.585  38.008  1.00  0.00     0.124 S 
ATOM     78  O   UNL A   1      48.781  25.368  37.221  1.00  0.00    -0.237 OA
ATOM     79  O   UNL A   1      49.653  27.592  37.859  1.00  0.00    -0.237 OA
ATOM     80  O   UNL A   1      48.123  26.385  39.371  1.00  0.00    -0.744 OA
ENDBRANCH  76  77
ENDBRANCH  55  69
BRANCH  56  81
ATOM     81  C   UNL A   1      37.301  32.589  30.968  1.00  0.00     0.058 A 
ATOM     82  C   UNL A   1      37.383  33.831  30.318  1.00  0.00     0.135 A 
ATOM     83  C   UNL A   1      36.069  31.918  30.935  1.00  0.00     0.135 A 
ATOM     84  F   UNL A   1      38.535  34.520  30.331  1.00  0.00    -0.206 F 
ATOM     85  C   UNL A   1      36.284  34.391  29.676  1.00  0.00     0.059 A 
ATOM     86  C   UNL A   1      34.964  32.444  30.275  1.00  0.00     0.059 A 
ATOM     87  F   UNL A   1      35.939  30.723  31.534  1.00  0.00    -0.206 F 
ATOM     88  C   UNL A   1      35.079  33.688  29.655  1.00  0.00     0.060 A 
BRANCH  88  89
ATOM     89  S   UNL A   1      33.676  34.399  28.768  1.00  0.00     0.124 S 
ATOM     90  O   UNL A   1      33.320  33.314  27.861  1.00  0.00    -0.237 OA
ATOM     91  O   UNL A   1      32.733  34.665  29.850  1.00  0.00    -0.237 OA
ATOM     92  O   UNL A   1      34.244  35.588  28.139  1.00  0.00    -0.744 OA
ENDBRANCH  88  89
ENDBRANCH  56  81
BRANCH  68  93
ATOM     93  C   UNL A   1      39.949  33.471  37.359  1.00  0.00     0.058 A 
ATOM     94  C   UNL A   1      40.576  34.703  37.602  1.00  0.00     0.135 A 
ATOM     95  C   UNL A   1      38.912  33.085  38.225  1.00  0.00     0.135 A 
ATOM     96  F   UNL A   1      41.574  35.122  36.807  1.00  0.00    -0.206 F 
ATOM     97  C   UNL A   1      40.226  35.497  38.690  1.00  0.00     0.059 A 
ATOM     98  C   UNL A   1      38.521  33.879  39.298  1.00  0.00     0.059 A 
ATOM     99  F   UNL A   1      38.264  31.925  38.030  1.00  0.00    -0.206 F 
ATOM    100  C   UNL A   1      39.200  35.073  39.536  1.00  0.00     0.060 A 
BRANCH 100 101
ATOM    101  S   UNL A   1      38.764  36.104  40.953  1.00  0.00     0.124 S 
ATOM    102  O   UNL A   1      39.975  36.019  41.762  1.00  0.00    -0.237 OA
ATOM    103  O   UNL A   1      38.505  37.399  40.331  1.00  0.00    -0.237 OA
ATOM    104  O   UNL A   1      37.590  35.438  41.509  1.00  0.00    -0.744 OA
ENDBRANCH 100 101
ENDBRANCH  68  93
ENDBRANCH  42  43
ENDBRANCH  35  37
ENDBRANCH  34  35
ENDBRANCH  33  34
ENDBRANCH  32  33
ENDBRANCH  31  32
ENDBRANCH  30  31
ENDBRANCH   1  30
TORSDOF 26
ENDMDL
