MODEL 1
REMARK VINA RESULT:      -9.2      0.000      0.000
REMARK SMILES CCn1nc(C(C)C)cc1C(=O)N[C@@H](CC(N)=O)C(=O)OCCOCCOCCOCCOC(=O)c1ccc(-c2c3nc(c(-c4c(F)cc(S(=O)(=O)[O-])cc4F)c4ccc([nH]4)c(-c4c(F)cc(S(=O)(=O)[O-])cc4F)c4nc(c(-c5c(F)cc(S(=O)(=O)[O-])cc5F)c5ccc2[nH]5)C=C4)C=C3)cc1
REMARK SMILES IDX 27 1 26 2 25 3 24 4 23 5 22 6 21 7 19 8 20 9 14 10 13 11
REMARK SMILES IDX 11 12 12 13 10 15 3 16 4 17 5 18 9 19 2 20 1 21 6 22 7 23
REMARK SMILES IDX 8 24 15 25 16 26 17 27 18 28 28 31 29 32 30 33 31 34 32 35
REMARK SMILES IDX 33 36 34 37 35 38 36 39 37 40 101 41 38 42 100 43 39 44
REMARK SMILES IDX 40 45 41 46 94 47 42 48 99 49 93 50 95 51 43 52 98 53 92 54
REMARK SMILES IDX 91 55 44 57 78 58 57 59 77 60 58 61 61 62 76 63 96 64 59 65
REMARK SMILES IDX 60 66 75 68 97 69 62 70 45 71 46 72 55 73 47 74 48 75 54 76
REMARK SMILES IDX 56 77 49 78 50 79 51 80 52 81 53 82 79 83 80 84 89 85 81 86
REMARK SMILES IDX 82 87 88 88 90 89 83 90 84 91 85 92 86 93 87 94 63 95 64 96
REMARK SMILES IDX 73 97 65 98 66 99 72 100 74 101 67 102 68 103 69 104 70 105
REMARK SMILES IDX 71 106
REMARK H PARENT 13 14 17 29 17 30 95 56 61 67
REMARK Flexibility Score: inf
ROOT
ATOM      1  O   UNL A   1      33.666  22.890  23.657  1.00  0.00    -0.377 OA
ENDROOT
BRANCH   1   2
ATOM      2  C   UNL A   1      33.477  21.774  24.506  1.00  0.00     0.188 C 
BRANCH   2   3
ATOM      3  C   UNL A   1      32.196  21.804  25.374  1.00  0.00     0.188 C 
BRANCH   3   4
ATOM      4  O   UNL A   1      31.729  23.006  25.984  1.00  0.00    -0.376 OA
BRANCH   4   5
ATOM      5  C   UNL A   1      32.210  24.259  25.525  1.00  0.00     0.202 C 
BRANCH   5   6
ATOM      6  C   UNL A   1      31.698  25.543  26.195  1.00  0.00     0.261 C 
BRANCH   6   7
ATOM      7  O   UNL A   1      32.645  26.629  26.258  1.00  0.00    -0.462 OA
BRANCH   7   8
ATOM      8  C   UNL A   1      32.229  27.776  26.845  1.00  0.00     0.329 C 
ATOM      9  O   UNL A   1      31.280  27.845  27.622  1.00  0.00    -0.250 OA
BRANCH   8  10
ATOM     10  C   UNL A   1      32.938  29.048  26.315  1.00  0.00     0.201 C 
BRANCH  10  11
ATOM     11  N   UNL A   1      33.622  29.048  25.009  1.00  0.00    -0.337 N 
ATOM     12  C   UNL A   1      33.253  28.777  23.706  1.00  0.00     0.270 C 
ATOM     13  O   UNL A   1      34.202  28.681  22.930  1.00  0.00    -0.268 OA
ATOM     14  H   UNL A   1      34.569  29.304  25.084  1.00  0.00     0.164 HD
BRANCH  12  15
ATOM     15  C   UNL A   1      31.871  28.637  23.281  1.00  0.00     0.126 A 
ATOM     16  N   UNL A   1      31.228  27.481  22.837  1.00  0.00    -0.260 N 
ATOM     17  N   UNL A   1      29.876  27.644  22.756  1.00  0.00    -0.177 NA
ATOM     18  C   UNL A   1      29.671  28.942  22.939  1.00  0.00     0.066 A 
ATOM     19  C   UNL A   1      30.885  29.608  23.163  1.00  0.00     0.059 A 
BRANCH  16  20
ATOM     20  C   UNL A   1      31.655  26.155  22.415  1.00  0.00     0.142 C 
ATOM     21  C   UNL A   1      32.667  25.903  21.317  1.00  0.00     0.029 C 
ENDBRANCH  16  20
BRANCH  18  22
ATOM     22  C   UNL A   1      28.297  29.543  22.934  1.00  0.00     0.034 C 
ATOM     23  C   UNL A   1      28.006  30.317  21.650  1.00  0.00     0.014 C 
ATOM     24  C   UNL A   1      27.216  28.491  23.199  1.00  0.00     0.014 C 
ENDBRANCH  18  22
ENDBRANCH  12  15
ENDBRANCH  10  11
BRANCH  10  25
ATOM     25  C   UNL A   1      31.888  30.160  26.352  1.00  0.00     0.136 C 
BRANCH  25  26
ATOM     26  C   UNL A   1      32.436  31.381  27.048  1.00  0.00     0.220 C 
ATOM     27  N   UNL A   1      33.557  31.186  27.796  1.00  0.00    -0.370 N 
ATOM     28  O   UNL A   1      31.883  32.473  27.004  1.00  0.00    -0.275 OA
ATOM     29  H   UNL A   1      33.986  30.301  27.818  1.00  0.00     0.159 HD
ATOM     30  H   UNL A   1      33.938  31.931  28.314  1.00  0.00     0.159 HD
ENDBRANCH  25  26
ENDBRANCH  10  25
ENDBRANCH   8  10
ENDBRANCH   7   8
ENDBRANCH   6   7
ENDBRANCH   5   6
ENDBRANCH   4   5
ENDBRANCH   3   4
ENDBRANCH   2   3
ENDBRANCH   1   2
BRANCH   1  31
ATOM     31  C   UNL A   1      34.969  22.999  23.100  1.00  0.00     0.188 C 
BRANCH  31  32
ATOM     32  C   UNL A   1      36.148  22.938  24.103  1.00  0.00     0.188 C 
BRANCH  32  33
ATOM     33  O   UNL A   1      37.188  22.028  23.751  1.00  0.00    -0.376 OA
BRANCH  33  34
ATOM     34  C   UNL A   1      37.698  21.065  24.664  1.00  0.00     0.202 C 
BRANCH  34  35
ATOM     35  C   UNL A   1      38.284  21.554  25.992  1.00  0.00     0.261 C 
BRANCH  35  36
ATOM     36  O   UNL A   1      39.282  22.540  25.836  1.00  0.00    -0.460 OA
BRANCH  36  37
ATOM     37  C   UNL A   1      39.028  23.694  26.485  1.00  0.00     0.338 C 
ATOM     38  O   UNL A   1      37.953  24.112  26.860  1.00  0.00    -0.246 OA
BRANCH  37  39
ATOM     39  C   UNL A   1      40.294  24.410  26.635  1.00  0.00     0.060 A 
ATOM     40  C   UNL A   1      41.048  24.076  27.760  1.00  0.00     0.016 A 
ATOM     41  C   UNL A   1      40.433  25.618  25.944  1.00  0.00     0.016 A 
ATOM     42  C   UNL A   1      41.673  25.104  28.413  1.00  0.00     0.010 A 
ATOM     43  C   UNL A   1      41.025  26.646  26.613  1.00  0.00     0.010 A 
ATOM     44  C   UNL A   1      41.516  26.388  27.890  1.00  0.00    -0.014 A 
BRANCH  44  45
ATOM     45  C   UNL A   1      41.889  27.514  28.706  1.00  0.00     0.031 A 
ATOM     46  C   UNL A   1      43.104  28.162  28.187  1.00  0.00     0.074 A 
ATOM     47  C   UNL A   1      41.088  27.937  29.702  1.00  0.00     0.049 A 
ATOM     48  N   UNL A   1      44.309  28.044  28.636  1.00  0.00    -0.248 NA
ATOM     49  C   UNL A   1      43.023  28.756  26.839  1.00  0.00     0.031 C 
ATOM     50  C   UNL A   1      39.738  27.474  30.046  1.00  0.00     0.029 A 
ATOM     51  N   UNL A   1      41.278  28.975  30.554  1.00  0.00    -0.354 N 
ATOM     52  C   UNL A   1      45.071  28.818  27.770  1.00  0.00     0.074 A 
ATOM     53  C   UNL A   1      44.317  28.912  26.555  1.00  0.00     0.031 C 
ATOM     54  C   UNL A   1      39.152  28.379  30.864  1.00  0.00     0.029 A 
ATOM     55  C   UNL A   1      40.117  29.410  31.194  1.00  0.00     0.049 A 
ATOM     56  H   UNL A   1      42.159  29.387  30.708  1.00  0.00     0.167 HD
ATOM     57  C   UNL A   1      46.041  29.642  28.252  1.00  0.00     0.037 A 
ATOM     58  C   UNL A   1      39.990  30.605  31.834  1.00  0.00     0.037 A 
ATOM     59  C   UNL A   1      46.402  29.267  29.599  1.00  0.00     0.049 A 
ATOM     60  C   UNL A   1      41.379  31.080  32.116  1.00  0.00     0.074 A 
ATOM     61  C   UNL A   1      46.874  28.111  30.191  1.00  0.00     0.029 A 
ATOM     62  N   UNL A   1      45.901  30.038  30.623  1.00  0.00    -0.354 N 
ATOM     63  N   UNL A   1      42.200  30.469  32.930  1.00  0.00    -0.248 NA
ATOM     64  C   UNL A   1      42.018  31.914  31.105  1.00  0.00     0.031 C 
ATOM     65  C   UNL A   1      46.225  28.048  31.459  1.00  0.00     0.029 A 
ATOM     66  C   UNL A   1      45.453  29.201  31.612  1.00  0.00     0.049 A 
ATOM     67  H   UNL A   1      45.869  31.022  30.642  1.00  0.00     0.167 HD
ATOM     68  C   UNL A   1      43.432  30.496  32.288  1.00  0.00     0.074 A 
ATOM     69  C   UNL A   1      43.268  31.449  31.193  1.00  0.00     0.031 C 
ATOM     70  C   UNL A   1      44.370  29.527  32.515  1.00  0.00     0.037 A 
BRANCH  57  71
ATOM     71  C   UNL A   1      46.326  31.020  27.689  1.00  0.00     0.058 A 
ATOM     72  C   UNL A   1      47.647  31.320  27.304  1.00  0.00     0.135 A 
ATOM     73  C   UNL A   1      45.454  32.134  27.760  1.00  0.00     0.135 A 
ATOM     74  F   UNL A   1      48.563  30.344  27.188  1.00  0.00    -0.206 F 
ATOM     75  C   UNL A   1      48.090  32.626  27.105  1.00  0.00     0.059 A 
ATOM     76  C   UNL A   1      45.860  33.436  27.512  1.00  0.00     0.059 A 
ATOM     77  F   UNL A   1      44.181  32.051  28.159  1.00  0.00    -0.206 F 
ATOM     78  C   UNL A   1      47.189  33.680  27.231  1.00  0.00     0.060 A 
BRANCH  78  79
ATOM     79  S   UNL A   1      47.771  35.373  27.079  1.00  0.00     0.124 S 
ATOM     80  O   UNL A   1      46.738  35.957  26.232  1.00  0.00    -0.237 OA
ATOM     81  O   UNL A   1      47.784  35.809  28.471  1.00  0.00    -0.237 OA
ATOM     82  O   UNL A   1      49.086  35.222  26.463  1.00  0.00    -0.744 OA
ENDBRANCH  78  79
ENDBRANCH  57  71
BRANCH  58  83
ATOM     83  C   UNL A   1      38.815  31.522  31.822  1.00  0.00     0.058 A 
ATOM     84  C   UNL A   1      38.353  32.105  30.628  1.00  0.00     0.135 A 
ATOM     85  C   UNL A   1      37.952  31.628  32.932  1.00  0.00     0.135 A 
ATOM     86  F   UNL A   1      39.096  32.034  29.513  1.00  0.00    -0.206 F 
ATOM     87  C   UNL A   1      37.094  32.715  30.528  1.00  0.00     0.059 A 
ATOM     88  C   UNL A   1      36.699  32.237  32.859  1.00  0.00     0.059 A 
ATOM     89  F   UNL A   1      38.257  31.058  34.106  1.00  0.00    -0.206 F 
ATOM     90  C   UNL A   1      36.265  32.758  31.648  1.00  0.00     0.060 A 
BRANCH  90  91
ATOM     91  S   UNL A   1      34.575  33.390  31.492  1.00  0.00     0.124 S 
ATOM     92  O   UNL A   1      34.214  32.956  30.147  1.00  0.00    -0.237 OA
ATOM     93  O   UNL A   1      33.889  32.713  32.586  1.00  0.00    -0.237 OA
ATOM     94  O   UNL A   1      34.736  34.833  31.659  1.00  0.00    -0.744 OA
ENDBRANCH  90  91
ENDBRANCH  58  83
BRANCH  70  95
ATOM     95  C   UNL A   1      44.166  28.593  33.680  1.00  0.00     0.058 A 
ATOM     96  C   UNL A   1      44.507  28.889  35.014  1.00  0.00     0.135 A 
ATOM     97  C   UNL A   1      43.440  27.415  33.453  1.00  0.00     0.135 A 
ATOM     98  F   UNL A   1      45.111  30.044  35.328  1.00  0.00    -0.206 F 
ATOM     99  C   UNL A   1      44.170  28.033  36.066  1.00  0.00     0.059 A 
ATOM    100  C   UNL A   1      43.066  26.564  34.488  1.00  0.00     0.059 A 
ATOM    101  F   UNL A   1      43.030  27.109  32.211  1.00  0.00    -0.206 F 
ATOM    102  C   UNL A   1      43.446  26.872  35.791  1.00  0.00     0.060 A 
BRANCH 102 103
ATOM    103  S   UNL A   1      42.946  25.797  37.155  1.00  0.00     0.124 S 
ATOM    104  O   UNL A   1      43.878  24.682  37.023  1.00  0.00    -0.237 OA
ATOM    105  O   UNL A   1      43.140  26.652  38.322  1.00  0.00    -0.237 OA
ATOM    106  O   UNL A   1      41.552  25.484  36.849  1.00  0.00    -0.744 OA
ENDBRANCH 102 103
ENDBRANCH  70  95
ENDBRANCH  44  45
ENDBRANCH  37  39
ENDBRANCH  36  37
ENDBRANCH  35  36
ENDBRANCH  34  35
ENDBRANCH  33  34
ENDBRANCH  32  33
ENDBRANCH  31  32
ENDBRANCH   1  31
TORSDOF 29
ENDMDL
MODEL 2
REMARK VINA RESULT:      -8.5      3.961      8.395
REMARK SMILES CCn1nc(C(C)C)cc1C(=O)N[C@@H](CC(N)=O)C(=O)OCCOCCOCCOCCOC(=O)c1ccc(-c2c3nc(c(-c4c(F)cc(S(=O)(=O)[O-])cc4F)c4ccc([nH]4)c(-c4c(F)cc(S(=O)(=O)[O-])cc4F)c4nc(c(-c5c(F)cc(S(=O)(=O)[O-])cc5F)c5ccc2[nH]5)C=C4)C=C3)cc1
REMARK SMILES IDX 27 1 26 2 25 3 24 4 23 5 22 6 21 7 19 8 20 9 14 10 13 11
REMARK SMILES IDX 11 12 12 13 10 15 3 16 4 17 5 18 9 19 2 20 1 21 6 22 7 23
REMARK SMILES IDX 8 24 15 25 16 26 17 27 18 28 28 31 29 32 30 33 31 34 32 35
REMARK SMILES IDX 33 36 34 37 35 38 36 39 37 40 101 41 38 42 100 43 39 44
REMARK SMILES IDX 40 45 41 46 94 47 42 48 99 49 93 50 95 51 43 52 98 53 92 54
REMARK SMILES IDX 91 55 44 57 78 58 57 59 77 60 58 61 61 62 76 63 96 64 59 65
REMARK SMILES IDX 60 66 75 68 97 69 62 70 45 71 46 72 55 73 47 74 48 75 54 76
REMARK SMILES IDX 56 77 49 78 50 79 51 80 52 81 53 82 79 83 80 84 89 85 81 86
REMARK SMILES IDX 82 87 88 88 90 89 83 90 84 91 85 92 86 93 87 94 63 95 64 96
REMARK SMILES IDX 73 97 65 98 66 99 72 100 74 101 67 102 68 103 69 104 70 105
REMARK SMILES IDX 71 106
REMARK H PARENT 13 14 17 29 17 30 95 56 61 67
REMARK Flexibility Score: inf
ROOT
ATOM      1  O   UNL A   1      33.437  25.478  26.105  1.00  0.00    -0.377 OA
ENDROOT
BRANCH   1   2
ATOM      2  C   UNL A   1      33.753  24.263  25.452  1.00  0.00     0.188 C 
BRANCH   2   3
ATOM      3  C   UNL A   1      35.211  24.134  24.949  1.00  0.00     0.188 C 
BRANCH   3   4
ATOM      4  O   UNL A   1      36.288  23.831  25.835  1.00  0.00    -0.376 OA
BRANCH   4   5
ATOM      5  C   UNL A   1      37.552  23.467  25.305  1.00  0.00     0.202 C 
BRANCH   5   6
ATOM      6  C   UNL A   1      38.265  22.228  25.868  1.00  0.00     0.261 C 
BRANCH   6   7
ATOM      7  O   UNL A   1      39.581  22.463  26.409  1.00  0.00    -0.462 OA
BRANCH   7   8
ATOM      8  C   UNL A   1      40.441  21.418  26.413  1.00  0.00     0.329 C 
ATOM      9  O   UNL A   1      40.098  20.245  26.290  1.00  0.00    -0.250 OA
BRANCH   8  10
ATOM     10  C   UNL A   1      41.899  21.803  26.772  1.00  0.00     0.201 C 
BRANCH  10  11
ATOM     11  N   UNL A   1      42.295  22.061  28.168  1.00  0.00    -0.337 N 
ATOM     12  C   UNL A   1      42.601  23.185  28.912  1.00  0.00     0.270 C 
ATOM     13  O   UNL A   1      43.103  22.936  30.006  1.00  0.00    -0.268 OA
ATOM     14  H   UNL A   1      42.354  21.234  28.698  1.00  0.00     0.164 HD
BRANCH  12  15
ATOM     15  C   UNL A   1      42.337  24.538  28.456  1.00  0.00     0.126 A 
ATOM     16  N   UNL A   1      43.249  25.453  27.927  1.00  0.00    -0.260 N 
ATOM     17  N   UNL A   1      42.629  26.535  27.373  1.00  0.00    -0.177 NA
ATOM     18  C   UNL A   1      41.355  26.424  27.728  1.00  0.00     0.066 A 
ATOM     19  C   UNL A   1      41.152  25.262  28.485  1.00  0.00     0.059 A 
BRANCH  16  20
ATOM     20  C   UNL A   1      44.700  25.542  27.847  1.00  0.00     0.142 C 
ATOM     21  C   UNL A   1      45.445  26.175  26.691  1.00  0.00     0.029 C 
ENDBRANCH  16  20
BRANCH  18  22
ATOM     22  C   UNL A   1      40.319  27.423  27.308  1.00  0.00     0.034 C 
ATOM     23  C   UNL A   1      39.393  27.819  28.456  1.00  0.00     0.014 C 
ATOM     24  C   UNL A   1      40.950  28.658  26.660  1.00  0.00     0.014 C 
ENDBRANCH  18  22
ENDBRANCH  12  15
ENDBRANCH  10  11
BRANCH  10  25
ATOM     25  C   UNL A   1      42.783  20.706  26.176  1.00  0.00     0.136 C 
BRANCH  25  26
ATOM     26  C   UNL A   1      43.951  21.312  25.438  1.00  0.00     0.220 C 
ATOM     27  N   UNL A   1      44.427  20.592  24.385  1.00  0.00    -0.370 N 
ATOM     28  O   UNL A   1      44.487  22.355  25.789  1.00  0.00    -0.275 OA
ATOM     29  H   UNL A   1      43.981  19.756  24.118  1.00  0.00     0.159 HD
ATOM     30  H   UNL A   1      45.217  20.907  23.891  1.00  0.00     0.159 HD
ENDBRANCH  25  26
ENDBRANCH  10  25
ENDBRANCH   8  10
ENDBRANCH   7   8
ENDBRANCH   6   7
ENDBRANCH   5   6
ENDBRANCH   4   5
ENDBRANCH   3   4
ENDBRANCH   2   3
ENDBRANCH   1   2
BRANCH   1  31
ATOM     31  C   UNL A   1      33.832  26.649  25.404  1.00  0.00     0.188 C 
BRANCH  31  32
ATOM     32  C   UNL A   1      33.120  27.962  25.813  1.00  0.00     0.188 C 
BRANCH  32  33
ATOM     33  O   UNL A   1      33.969  28.946  26.402  1.00  0.00    -0.376 OA
BRANCH  33  34
ATOM     34  C   UNL A   1      33.601  30.317  26.485  1.00  0.00     0.202 C 
BRANCH  34  35
ATOM     35  C   UNL A   1      33.439  30.949  27.870  1.00  0.00     0.261 C 
BRANCH  35  36
ATOM     36  O   UNL A   1      34.652  31.422  28.416  1.00  0.00    -0.460 OA
BRANCH  36  37
ATOM     37  C   UNL A   1      34.535  32.571  29.113  1.00  0.00     0.338 C 
ATOM     38  O   UNL A   1      34.104  33.634  28.722  1.00  0.00    -0.246 OA
BRANCH  37  39
ATOM     39  C   UNL A   1      35.072  32.336  30.454  1.00  0.00     0.060 A 
ATOM     40  C   UNL A   1      35.233  33.472  31.248  1.00  0.00     0.016 A 
ATOM     41  C   UNL A   1      35.767  31.141  30.666  1.00  0.00     0.016 A 
ATOM     42  C   UNL A   1      36.361  33.531  32.019  1.00  0.00     0.010 A 
ATOM     43  C   UNL A   1      36.907  31.216  31.406  1.00  0.00     0.010 A 
ATOM     44  C   UNL A   1      37.241  32.450  31.958  1.00  0.00    -0.014 A 
BRANCH  44  45
ATOM     45  C   UNL A   1      38.564  32.608  32.501  1.00  0.00     0.031 A 
ATOM     46  C   UNL A   1      39.503  33.090  31.475  1.00  0.00     0.074 A 
ATOM     47  C   UNL A   1      38.788  32.458  33.821  1.00  0.00     0.049 A 
ATOM     48  N   UNL A   1      40.371  32.396  30.818  1.00  0.00    -0.248 NA
ATOM     49  C   UNL A   1      39.235  34.420  30.895  1.00  0.00     0.031 C 
ATOM     50  C   UNL A   1      37.807  32.257  34.895  1.00  0.00     0.029 A 
ATOM     51  N   UNL A   1      39.957  32.577  34.497  1.00  0.00    -0.354 N 
ATOM     52  C   UNL A   1      40.956  33.314  29.956  1.00  0.00     0.074 A 
ATOM     53  C   UNL A   1      40.008  34.379  29.809  1.00  0.00     0.031 C 
ATOM     54  C   UNL A   1      38.396  32.507  36.088  1.00  0.00     0.029 A 
ATOM     55  C   UNL A   1      39.807  32.764  35.872  1.00  0.00     0.049 A 
ATOM     56  H   UNL A   1      40.837  32.535  34.057  1.00  0.00     0.167 HD
ATOM     57  C   UNL A   1      42.304  33.323  29.768  1.00  0.00     0.037 A 
ATOM     58  C   UNL A   1      40.788  33.215  36.700  1.00  0.00     0.037 A 
ATOM     59  C   UNL A   1      42.886  32.076  30.205  1.00  0.00     0.049 A 
ATOM     60  C   UNL A   1      42.079  33.002  35.979  1.00  0.00     0.074 A 
ATOM     61  C   UNL A   1      42.694  30.747  29.875  1.00  0.00     0.029 A 
ATOM     62  N   UNL A   1      43.533  32.074  31.419  1.00  0.00    -0.354 N 
ATOM     63  N   UNL A   1      42.554  31.819  35.684  1.00  0.00    -0.248 NA
ATOM     64  C   UNL A   1      42.562  34.090  35.138  1.00  0.00     0.031 C 
ATOM     65  C   UNL A   1      42.818  30.036  31.104  1.00  0.00     0.029 A 
ATOM     66  C   UNL A   1      43.155  30.948  32.105  1.00  0.00     0.049 A 
ATOM     67  H   UNL A   1      44.158  32.763  31.741  1.00  0.00     0.167 HD
ATOM     68  C   UNL A   1      43.046  31.941  34.390  1.00  0.00     0.074 A 
ATOM     69  C   UNL A   1      43.073  33.379  34.128  1.00  0.00     0.031 C 
ATOM     70  C   UNL A   1      43.100  30.865  33.549  1.00  0.00     0.037 A 
BRANCH  57  71
ATOM     71  C   UNL A   1      43.121  34.592  29.618  1.00  0.00     0.058 A 
ATOM     72  C   UNL A   1      43.961  34.712  28.494  1.00  0.00     0.135 A 
ATOM     73  C   UNL A   1      43.333  35.558  30.632  1.00  0.00     0.135 A 
ATOM     74  F   UNL A   1      43.846  33.860  27.461  1.00  0.00    -0.206 F 
ATOM     75  C   UNL A   1      44.991  35.648  28.427  1.00  0.00     0.059 A 
ATOM     76  C   UNL A   1      44.315  36.534  30.561  1.00  0.00     0.059 A 
ATOM     77  F   UNL A   1      42.668  35.570  31.792  1.00  0.00    -0.206 F 
ATOM     78  C   UNL A   1      45.171  36.542  29.478  1.00  0.00     0.060 A 
BRANCH  78  79
ATOM     79  S   UNL A   1      46.558  37.684  29.449  1.00  0.00     0.124 S 
ATOM     80  O   UNL A   1      46.929  37.722  30.858  1.00  0.00    -0.237 OA
ATOM     81  O   UNL A   1      47.488  37.000  28.557  1.00  0.00    -0.237 OA
ATOM     82  O   UNL A   1      45.972  38.910  28.914  1.00  0.00    -0.744 OA
ENDBRANCH  78  79
ENDBRANCH  57  71
BRANCH  58  83
ATOM     83  C   UNL A   1      40.650  34.175  37.832  1.00  0.00     0.058 A 
ATOM     84  C   UNL A   1      39.975  35.401  37.676  1.00  0.00     0.135 A 
ATOM     85  C   UNL A   1      40.932  33.795  39.160  1.00  0.00     0.135 A 
ATOM     86  F   UNL A   1      39.642  35.834  36.450  1.00  0.00    -0.206 F 
ATOM     87  C   UNL A   1      39.564  36.177  38.769  1.00  0.00     0.059 A 
ATOM     88  C   UNL A   1      40.542  34.555  40.263  1.00  0.00     0.059 A 
ATOM     89  F   UNL A   1      41.517  32.621  39.436  1.00  0.00    -0.206 F 
ATOM     90  C   UNL A   1      39.838  35.734  40.063  1.00  0.00     0.060 A 
BRANCH  90  91
ATOM     91  S   UNL A   1      39.169  36.638  41.482  1.00  0.00     0.124 S 
ATOM     92  O   UNL A   1      38.039  35.800  41.868  1.00  0.00    -0.237 OA
ATOM     93  O   UNL A   1      40.300  36.648  42.403  1.00  0.00    -0.237 OA
ATOM     94  O   UNL A   1      38.817  37.939  40.919  1.00  0.00    -0.744 OA
ENDBRANCH  90  91
ENDBRANCH  58  83
BRANCH  70  95
ATOM     95  C   UNL A   1      42.890  29.490  34.132  1.00  0.00     0.058 A 
ATOM     96  C   UNL A   1      41.649  28.830  34.200  1.00  0.00     0.135 A 
ATOM     97  C   UNL A   1      44.029  28.749  34.479  1.00  0.00     0.135 A 
ATOM     98  F   UNL A   1      40.525  29.434  33.788  1.00  0.00    -0.206 F 
ATOM     99  C   UNL A   1      41.545  27.504  34.630  1.00  0.00     0.059 A 
ATOM    100  C   UNL A   1      43.953  27.419  34.880  1.00  0.00     0.059 A 
ATOM    101  F   UNL A   1      45.248  29.303  34.373  1.00  0.00    -0.206 F 
ATOM    102  C   UNL A   1      42.706  26.805  34.966  1.00  0.00     0.060 A 
BRANCH 102 103
ATOM    103  S   UNL A   1      42.586  25.070  35.455  1.00  0.00     0.124 S 
ATOM    104  O   UNL A   1      43.241  24.392  34.341  1.00  0.00    -0.237 OA
ATOM    105  O   UNL A   1      43.307  25.048  36.724  1.00  0.00    -0.237 OA
ATOM    106  O   UNL A   1      41.147  24.845  35.563  1.00  0.00    -0.744 OA
ENDBRANCH 102 103
ENDBRANCH  70  95
ENDBRANCH  44  45
ENDBRANCH  37  39
ENDBRANCH  36  37
ENDBRANCH  35  36
ENDBRANCH  34  35
ENDBRANCH  33  34
ENDBRANCH  32  33
ENDBRANCH  31  32
ENDBRANCH   1  31
TORSDOF 29
ENDMDL
MODEL 3
REMARK VINA RESULT:      -8.3      3.499      8.688
REMARK SMILES CCn1nc(C(C)C)cc1C(=O)N[C@@H](CC(N)=O)C(=O)OCCOCCOCCOCCOC(=O)c1ccc(-c2c3nc(c(-c4c(F)cc(S(=O)(=O)[O-])cc4F)c4ccc([nH]4)c(-c4c(F)cc(S(=O)(=O)[O-])cc4F)c4nc(c(-c5c(F)cc(S(=O)(=O)[O-])cc5F)c5ccc2[nH]5)C=C4)C=C3)cc1
REMARK SMILES IDX 27 1 26 2 25 3 24 4 23 5 22 6 21 7 19 8 20 9 14 10 13 11
REMARK SMILES IDX 11 12 12 13 10 15 3 16 4 17 5 18 9 19 2 20 1 21 6 22 7 23
REMARK SMILES IDX 8 24 15 25 16 26 17 27 18 28 28 31 29 32 30 33 31 34 32 35
REMARK SMILES IDX 33 36 34 37 35 38 36 39 37 40 101 41 38 42 100 43 39 44
REMARK SMILES IDX 40 45 41 46 94 47 42 48 99 49 93 50 95 51 43 52 98 53 92 54
REMARK SMILES IDX 91 55 44 57 78 58 57 59 77 60 58 61 61 62 76 63 96 64 59 65
REMARK SMILES IDX 60 66 75 68 97 69 62 70 45 71 46 72 55 73 47 74 48 75 54 76
REMARK SMILES IDX 56 77 49 78 50 79 51 80 52 81 53 82 79 83 80 84 89 85 81 86
REMARK SMILES IDX 82 87 88 88 90 89 83 90 84 91 85 92 86 93 87 94 63 95 64 96
REMARK SMILES IDX 73 97 65 98 66 99 72 100 74 101 67 102 68 103 69 104 70 105
REMARK SMILES IDX 71 106
REMARK H PARENT 13 14 17 29 17 30 95 56 61 67
REMARK Flexibility Score: inf
ROOT
ATOM      1  O   UNL A   1      43.168  22.333  27.723  1.00  0.00    -0.377 OA
ENDROOT
BRANCH   1   2
ATOM      2  C   UNL A   1      41.873  22.214  28.280  1.00  0.00     0.188 C 
BRANCH   2   3
ATOM      3  C   UNL A   1      40.904  21.275  27.522  1.00  0.00     0.188 C 
BRANCH   3   4
ATOM      4  O   UNL A   1      39.707  21.760  26.916  1.00  0.00    -0.376 OA
BRANCH   4   5
ATOM      5  C   UNL A   1      39.583  23.140  26.612  1.00  0.00     0.202 C 
BRANCH   5   6
ATOM      6  C   UNL A   1      38.179  23.747  26.474  1.00  0.00     0.261 C 
BRANCH   6   7
ATOM      7  O   UNL A   1      37.590  23.654  25.160  1.00  0.00    -0.462 OA
BRANCH   7   8
ATOM      8  C   UNL A   1      36.924  22.513  24.863  1.00  0.00     0.329 C 
ATOM      9  O   UNL A   1      37.466  21.486  24.461  1.00  0.00    -0.250 OA
BRANCH   8  10
ATOM     10  C   UNL A   1      35.382  22.658  24.895  1.00  0.00     0.201 C 
BRANCH  10  11
ATOM     11  N   UNL A   1      34.593  22.660  23.650  1.00  0.00    -0.337 N 
ATOM     12  C   UNL A   1      33.565  23.428  23.138  1.00  0.00     0.270 C 
ATOM     13  O   UNL A   1      33.034  22.948  22.139  1.00  0.00    -0.268 OA
ATOM     14  H   UNL A   1      34.864  21.941  23.035  1.00  0.00     0.164 HD
BRANCH  12  15
ATOM     15  C   UNL A   1      33.157  24.699  23.712  1.00  0.00     0.126 A 
ATOM     16  N   UNL A   1      32.532  24.918  24.941  1.00  0.00    -0.260 N 
ATOM     17  N   UNL A   1      32.515  26.239  25.280  1.00  0.00    -0.177 NA
ATOM     18  C   UNL A   1      32.930  26.882  24.196  1.00  0.00     0.066 A 
ATOM     19  C   UNL A   1      33.236  25.975  23.171  1.00  0.00     0.059 A 
BRANCH  16  20
ATOM     20  C   UNL A   1      31.871  24.081  25.931  1.00  0.00     0.142 C 
ATOM     21  C   UNL A   1      30.875  22.993  25.589  1.00  0.00     0.029 C 
ENDBRANCH  16  20
BRANCH  18  22
ATOM     22  C   UNL A   1      33.065  28.375  24.154  1.00  0.00     0.034 C 
ATOM     23  C   UNL A   1      33.742  28.932  25.405  1.00  0.00     0.014 C 
ATOM     24  C   UNL A   1      33.780  28.845  22.885  1.00  0.00     0.014 C 
ENDBRANCH  18  22
ENDBRANCH  12  15
ENDBRANCH  10  11
BRANCH  10  25
ATOM     25  C   UNL A   1      34.876  21.557  25.829  1.00  0.00     0.136 C 
BRANCH  25  26
ATOM     26  C   UNL A   1      34.401  20.367  25.033  1.00  0.00     0.220 C 
ATOM     27  N   UNL A   1      35.301  19.357  24.879  1.00  0.00    -0.370 N 
ATOM     28  O   UNL A   1      33.299  20.322  24.501  1.00  0.00    -0.275 OA
ATOM     29  H   UNL A   1      36.182  19.411  25.315  1.00  0.00     0.159 HD
ATOM     30  H   UNL A   1      35.072  18.573  24.331  1.00  0.00     0.159 HD
ENDBRANCH  25  26
ENDBRANCH  10  25
ENDBRANCH   8  10
ENDBRANCH   7   8
ENDBRANCH   6   7
ENDBRANCH   5   6
ENDBRANCH   4   5
ENDBRANCH   3   4
ENDBRANCH   2   3
ENDBRANCH   1   2
BRANCH   1  31
ATOM     31  C   UNL A   1      43.310  23.374  26.766  1.00  0.00     0.188 C 
BRANCH  31  32
ATOM     32  C   UNL A   1      43.062  24.813  27.280  1.00  0.00     0.188 C 
BRANCH  32  33
ATOM     33  O   UNL A   1      43.532  25.848  26.418  1.00  0.00    -0.376 OA
BRANCH  33  34
ATOM     34  C   UNL A   1      44.888  25.931  25.998  1.00  0.00     0.202 C 
BRANCH  34  35
ATOM     35  C   UNL A   1      45.324  27.137  25.163  1.00  0.00     0.261 C 
BRANCH  35  36
ATOM     36  O   UNL A   1      44.720  28.348  25.568  1.00  0.00    -0.460 OA
BRANCH  36  37
ATOM     37  C   UNL A   1      45.538  29.172  26.253  1.00  0.00     0.338 C 
ATOM     38  O   UNL A   1      46.738  29.075  26.396  1.00  0.00    -0.246 OA
BRANCH  37  39
ATOM     39  C   UNL A   1      44.714  30.219  26.856  1.00  0.00     0.060 A 
ATOM     40  C   UNL A   1      45.412  31.268  27.456  1.00  0.00     0.016 A 
ATOM     41  C   UNL A   1      43.392  29.892  27.173  1.00  0.00     0.016 A 
ATOM     42  C   UNL A   1      44.913  31.747  28.636  1.00  0.00     0.010 A 
ATOM     43  C   UNL A   1      42.915  30.344  28.365  1.00  0.00     0.010 A 
ATOM     44  C   UNL A   1      43.746  31.160  29.127  1.00  0.00    -0.014 A 
BRANCH  44  45
ATOM     45  C   UNL A   1      43.369  31.416  30.492  1.00  0.00     0.031 A 
ATOM     46  C   UNL A   1      43.501  30.201  31.313  1.00  0.00     0.074 A 
ATOM     47  C   UNL A   1      43.094  32.667  30.907  1.00  0.00     0.049 A 
ATOM     48  N   UNL A   1      42.556  29.410  31.700  1.00  0.00    -0.248 NA
ATOM     49  C   UNL A   1      44.854  29.632  31.456  1.00  0.00     0.031 C 
ATOM     50  C   UNL A   1      43.237  33.926  30.165  1.00  0.00     0.029 A 
ATOM     51  N   UNL A   1      42.734  33.085  32.146  1.00  0.00    -0.354 N 
ATOM     52  C   UNL A   1      43.217  28.409  32.399  1.00  0.00     0.074 A 
ATOM     53  C   UNL A   1      44.567  28.414  31.917  1.00  0.00     0.031 C 
ATOM     54  C   UNL A   1      43.198  34.962  31.036  1.00  0.00     0.029 A 
ATOM     55  C   UNL A   1      42.910  34.452  32.363  1.00  0.00     0.049 A 
ATOM     56  H   UNL A   1      42.380  32.477  32.835  1.00  0.00     0.167 HD
ATOM     57  C   UNL A   1      42.723  27.949  33.581  1.00  0.00     0.037 A 
ATOM     58  C   UNL A   1      42.924  35.044  33.588  1.00  0.00     0.037 A 
ATOM     59  C   UNL A   1      41.331  28.310  33.724  1.00  0.00     0.049 A 
ATOM     60  C   UNL A   1      42.266  34.084  34.526  1.00  0.00     0.074 A 
ATOM     61  C   UNL A   1      40.189  28.082  32.980  1.00  0.00     0.029 A 
ATOM     62  N   UNL A   1      41.037  29.366  34.555  1.00  0.00    -0.354 N 
ATOM     63  N   UNL A   1      41.004  33.748  34.447  1.00  0.00    -0.248 NA
ATOM     64  C   UNL A   1      43.122  33.117  35.201  1.00  0.00     0.031 C 
ATOM     65  C   UNL A   1      39.435  29.289  33.074  1.00  0.00     0.029 A 
ATOM     66  C   UNL A   1      40.112  30.161  33.928  1.00  0.00     0.049 A 
ATOM     67  H   UNL A   1      41.424  29.525  35.446  1.00  0.00     0.167 HD
ATOM     68  C   UNL A   1      40.981  32.377  34.673  1.00  0.00     0.074 A 
ATOM     69  C   UNL A   1      42.310  32.055  35.188  1.00  0.00     0.031 C 
ATOM     70  C   UNL A   1      39.999  31.588  34.142  1.00  0.00     0.037 A 
BRANCH  57  71
ATOM     71  C   UNL A   1      43.592  27.584  34.768  1.00  0.00     0.058 A 
ATOM     72  C   UNL A   1      43.382  26.336  35.385  1.00  0.00     0.135 A 
ATOM     73  C   UNL A   1      44.415  28.481  35.492  1.00  0.00     0.135 A 
ATOM     74  F   UNL A   1      42.629  25.396  34.789  1.00  0.00    -0.206 F 
ATOM     75  C   UNL A   1      43.864  26.041  36.660  1.00  0.00     0.059 A 
ATOM     76  C   UNL A   1      44.952  28.187  36.736  1.00  0.00     0.059 A 
ATOM     77  F   UNL A   1      44.682  29.727  35.090  1.00  0.00    -0.206 F 
ATOM     78  C   UNL A   1      44.632  26.984  37.334  1.00  0.00     0.060 A 
BRANCH  78  79
ATOM     79  S   UNL A   1      45.172  26.656  39.016  1.00  0.00     0.124 S 
ATOM     80  O   UNL A   1      45.778  25.338  38.872  1.00  0.00    -0.237 OA
ATOM     81  O   UNL A   1      46.091  27.764  39.255  1.00  0.00    -0.237 OA
ATOM     82  O   UNL A   1      43.930  26.702  39.782  1.00  0.00    -0.744 OA
ENDBRANCH  78  79
ENDBRANCH  57  71
BRANCH  58  83
ATOM     83  C   UNL A   1      43.819  36.139  34.058  1.00  0.00     0.058 A 
ATOM     84  C   UNL A   1      45.209  36.092  33.844  1.00  0.00     0.135 A 
ATOM     85  C   UNL A   1      43.304  37.382  34.479  1.00  0.00     0.135 A 
ATOM     86  F   UNL A   1      45.786  34.957  33.419  1.00  0.00    -0.206 F 
ATOM     87  C   UNL A   1      46.031  37.218  33.993  1.00  0.00     0.059 A 
ATOM     88  C   UNL A   1      44.103  38.514  34.644  1.00  0.00     0.059 A 
ATOM     89  F   UNL A   1      41.988  37.565  34.656  1.00  0.00    -0.206 F 
ATOM     90  C   UNL A   1      45.462  38.433  34.376  1.00  0.00     0.060 A 
BRANCH  90  91
ATOM     91  S   UNL A   1      46.480  39.930  34.410  1.00  0.00     0.124 S 
ATOM     92  O   UNL A   1      45.682  40.855  33.613  1.00  0.00    -0.237 OA
ATOM     93  O   UNL A   1      46.557  40.220  35.837  1.00  0.00    -0.237 OA
ATOM     94  O   UNL A   1      47.734  39.501  33.796  1.00  0.00    -0.744 OA
ENDBRANCH  90  91
ENDBRANCH  58  83
BRANCH  70  95
ATOM     95  C   UNL A   1      38.784  32.258  33.552  1.00  0.00     0.058 A 
ATOM     96  C   UNL A   1      38.676  32.689  32.216  1.00  0.00     0.135 A 
ATOM     97  C   UNL A   1      37.623  32.309  34.335  1.00  0.00     0.135 A 
ATOM     98  F   UNL A   1      39.713  32.578  31.372  1.00  0.00    -0.206 F 
ATOM     99  C   UNL A   1      37.476  33.182  31.697  1.00  0.00     0.059 A 
ATOM    100  C   UNL A   1      36.409  32.766  33.831  1.00  0.00     0.059 A 
ATOM    101  F   UNL A   1      37.644  31.853  35.598  1.00  0.00    -0.206 F 
ATOM    102  C   UNL A   1      36.345  33.214  32.514  1.00  0.00     0.060 A 
BRANCH 102 103
ATOM    103  S   UNL A   1      34.772  33.783  31.830  1.00  0.00     0.124 S 
ATOM    104  O   UNL A   1      33.904  32.632  32.058  1.00  0.00    -0.237 OA
ATOM    105  O   UNL A   1      34.484  34.965  32.637  1.00  0.00    -0.237 OA
ATOM    106  O   UNL A   1      35.089  34.058  30.431  1.00  0.00    -0.744 OA
ENDBRANCH 102 103
ENDBRANCH  70  95
ENDBRANCH  44  45
ENDBRANCH  37  39
ENDBRANCH  36  37
ENDBRANCH  35  36
ENDBRANCH  34  35
ENDBRANCH  33  34
ENDBRANCH  32  33
ENDBRANCH  31  32
ENDBRANCH   1  31
TORSDOF 29
ENDMDL
