MODEL 1
REMARK VINA RESULT:      -8.9      0.000      0.000
REMARK SMILES Cc1cccc(-c2ncc(C[NH+]3CCC4(CC3)NC(=O)C[C@H]4C(=O)OCCOCCOCCOCCOC(=O)c3ccc(-c4c5nc(c(-c6c(F)cc(S(=O)(=O)[O-])cc6F)c6ccc([nH]6)c(-c6c(F)cc(S(=O)(=O)[O-])cc6F)c6nc(c(-c7c(F)cc(S(=O)(=O)[O-])cc7F)c7ccc4[nH]7)C=C6)C=C5)cc3)cn2)c1
REMARK SMILES IDX 31 1 30 2 29 3 28 4 27 5 26 6 25 7 23 8 24 9 22 10 12 11
REMARK SMILES IDX 13 12 17 13 14 15 16 16 15 17 18 18 19 19 21 21 20 22 11 23
REMARK SMILES IDX 10 24 7 25 8 26 107 27 9 28 106 29 6 30 1 31 2 32 3 33
REMARK SMILES IDX 108 34 4 35 5 36 32 37 33 38 34 39 35 40 36 41 37 42 38 43
REMARK SMILES IDX 39 44 40 45 41 46 105 47 42 48 104 49 43 50 44 51 45 52
REMARK SMILES IDX 98 53 46 54 103 55 97 56 99 57 47 58 102 59 96 60 95 61
REMARK SMILES IDX 48 63 82 64 61 65 81 66 62 67 65 68 80 69 100 70 63 71 64 72
REMARK SMILES IDX 79 74 101 75 66 76 49 77 50 78 59 79 51 80 52 81 58 82 60 83
REMARK SMILES IDX 53 84 54 85 55 86 56 87 57 88 83 89 84 90 93 91 85 92 86 93
REMARK SMILES IDX 92 94 94 95 87 96 88 97 89 98 90 99 91 100 67 101 68 102
REMARK SMILES IDX 77 103 69 104 70 105 76 106 78 107 71 108 72 109 73 110
REMARK SMILES IDX 74 111 75 112
REMARK H PARENT 12 14 18 20 99 62 65 73
REMARK Flexibility Score: inf
ROOT
ATOM      1  O   UNL A   1      46.030  38.026  26.024  1.00  0.00    -0.377 OA
ENDROOT
BRANCH   1   2
ATOM      2  C   UNL A   1      45.417  39.185  26.535  1.00  0.00     0.188 C 
BRANCH   2   3
ATOM      3  C   UNL A   1      43.954  39.203  26.972  1.00  0.00     0.188 C 
BRANCH   3   4
ATOM      4  O   UNL A   1      43.084  40.235  26.572  1.00  0.00    -0.376 OA
BRANCH   4   5
ATOM      5  C   UNL A   1      42.047  40.548  27.467  1.00  0.00     0.202 C 
BRANCH   5   6
ATOM      6  C   UNL A   1      42.275  40.162  28.926  1.00  0.00     0.261 C 
BRANCH   6   7
ATOM      7  O   UNL A   1      42.753  41.189  29.815  1.00  0.00    -0.463 OA
BRANCH   7   8
ATOM      8  C   UNL A   1      44.000  41.013  30.302  1.00  0.00     0.311 C 
ATOM      9  O   UNL A   1      44.612  39.952  30.272  1.00  0.00    -0.252 OA
BRANCH   8  10
ATOM     10  C   UNL A   1      44.574  42.248  30.980  1.00  0.00     0.134 C 
ATOM     11  N   UNL A   1      46.996  42.652  27.733  1.00  0.00    -0.331 N 
ATOM     12  C   UNL A   1      47.509  42.425  29.066  1.00  0.00     0.264 C 
ATOM     13  C   UNL A   1      45.556  42.612  27.733  1.00  0.00     0.264 C 
ATOM     14  H   UNL A   1      47.404  41.852  27.250  1.00  0.00     0.348 HD
ATOM     15  C   UNL A   1      46.840  43.257  30.165  1.00  0.00     0.091 C 
ATOM     16  C   UNL A   1      44.801  43.500  28.708  1.00  0.00     0.091 C 
ATOM     17  C   UNL A   1      45.289  43.337  30.136  1.00  0.00     0.064 C 
ATOM     18  N   UNL A   1      44.910  44.557  30.836  1.00  0.00    -0.349 N 
ATOM     19  C   UNL A   1      43.858  44.429  31.694  1.00  0.00     0.221 C 
ATOM     20  H   UNL A   1      45.380  45.412  30.701  1.00  0.00     0.164 HD
ATOM     21  C   UNL A   1      43.510  42.980  31.829  1.00  0.00     0.117 C 
ATOM     22  O   UNL A   1      43.327  45.370  32.274  1.00  0.00    -0.275 OA
BRANCH  11  23
ATOM     23  C   UNL A   1      47.595  43.602  26.792  1.00  0.00     0.302 C 
BRANCH  23  24
ATOM     24  C   UNL A   1      46.835  43.792  25.515  1.00  0.00     0.043 A 
ATOM     25  C   UNL A   1      45.010  43.738  23.524  1.00  0.00     0.159 A 
ATOM     26  N   UNL A   1      44.910  44.727  24.437  1.00  0.00    -0.236 NA
ATOM     27  N   UNL A   1      46.013  42.857  23.455  1.00  0.00    -0.236 NA
ATOM     28  C   UNL A   1      45.850  44.742  25.398  1.00  0.00     0.124 A 
ATOM     29  C   UNL A   1      46.913  42.912  24.450  1.00  0.00     0.124 A 
BRANCH  25  30
ATOM     30  C   UNL A   1      43.889  43.563  22.609  1.00  0.00     0.019 A 
ATOM     31  C   UNL A   1      43.198  43.660  18.849  1.00  0.00     0.044 C 
ATOM     32  C   UNL A   1      43.004  43.493  20.327  1.00  0.00    -0.050 A 
ATOM     33  C   UNL A   1      41.770  43.075  20.834  1.00  0.00     0.003 A 
ATOM     34  C   UNL A   1      44.056  43.731  21.221  1.00  0.00     0.015 A 
ATOM     35  C   UNL A   1      41.577  42.947  22.211  1.00  0.00     0.001 A 
ATOM     36  C   UNL A   1      42.627  43.202  23.092  1.00  0.00     0.012 A 
ENDBRANCH  25  30
ENDBRANCH  23  24
ENDBRANCH  11  23
ENDBRANCH   8  10
ENDBRANCH   7   8
ENDBRANCH   6   7
ENDBRANCH   5   6
ENDBRANCH   4   5
ENDBRANCH   3   4
ENDBRANCH   2   3
ENDBRANCH   1   2
BRANCH   1  37
ATOM     37  C   UNL A   1      46.331  37.041  27.037  1.00  0.00     0.188 C 
BRANCH  37  38
ATOM     38  C   UNL A   1      45.298  35.928  27.083  1.00  0.00     0.188 C 
BRANCH  38  39
ATOM     39  O   UNL A   1      45.262  35.358  25.786  1.00  0.00    -0.376 OA
BRANCH  39  40
ATOM     40  C   UNL A   1      45.531  33.988  25.690  1.00  0.00     0.202 C 
BRANCH  40  41
ATOM     41  C   UNL A   1      44.859  33.223  26.823  1.00  0.00     0.261 C 
BRANCH  41  42
ATOM     42  O   UNL A   1      44.221  32.057  26.253  1.00  0.00    -0.460 OA
BRANCH  42  43
ATOM     43  C   UNL A   1      44.707  30.859  26.692  1.00  0.00     0.338 C 
ATOM     44  O   UNL A   1      45.430  30.137  26.028  1.00  0.00    -0.246 OA
BRANCH  43  45
ATOM     45  C   UNL A   1      44.162  30.520  28.050  1.00  0.00     0.060 A 
ATOM     46  C   UNL A   1      42.834  30.078  28.200  1.00  0.00     0.016 A 
ATOM     47  C   UNL A   1      44.893  30.816  29.191  1.00  0.00     0.016 A 
ATOM     48  C   UNL A   1      42.190  30.084  29.463  1.00  0.00     0.010 A 
ATOM     49  C   UNL A   1      44.260  30.794  30.433  1.00  0.00     0.010 A 
ATOM     50  C   UNL A   1      42.881  30.512  30.594  1.00  0.00    -0.014 A 
BRANCH  50  51
ATOM     51  C   UNL A   1      42.304  30.917  31.920  1.00  0.00     0.031 A 
ATOM     52  C   UNL A   1      41.340  32.087  31.937  1.00  0.00     0.074 A 
ATOM     53  C   UNL A   1      42.278  30.023  32.950  1.00  0.00     0.049 A 
ATOM     54  N   UNL A   1      40.511  32.400  32.879  1.00  0.00    -0.248 NA
ATOM     55  C   UNL A   1      41.245  33.027  30.817  1.00  0.00     0.031 C 
ATOM     56  C   UNL A   1      41.139  29.743  33.831  1.00  0.00     0.029 A 
ATOM     57  N   UNL A   1      43.182  29.077  33.393  1.00  0.00    -0.354 N 
ATOM     58  C   UNL A   1      39.583  33.318  32.381  1.00  0.00     0.074 A 
ATOM     59  C   UNL A   1      40.155  33.739  31.128  1.00  0.00     0.031 C 
ATOM     60  C   UNL A   1      41.420  28.778  34.716  1.00  0.00     0.029 A 
ATOM     61  C   UNL A   1      42.840  28.607  34.673  1.00  0.00     0.049 A 
ATOM     62  H   UNL A   1      43.965  28.773  32.879  1.00  0.00     0.167 HD
ATOM     63  C   UNL A   1      38.366  33.474  33.013  1.00  0.00     0.037 A 
ATOM     64  C   UNL A   1      43.646  28.938  35.727  1.00  0.00     0.037 A 
ATOM     65  C   UNL A   1      38.379  32.876  34.379  1.00  0.00     0.049 A 
ATOM     66  C   UNL A   1      43.075  30.095  36.586  1.00  0.00     0.074 A 
ATOM     67  C   UNL A   1      37.508  32.186  35.214  1.00  0.00     0.029 A 
ATOM     68  N   UNL A   1      39.577  32.893  35.092  1.00  0.00    -0.354 N 
ATOM     69  N   UNL A   1      41.862  30.604  36.458  1.00  0.00    -0.248 NA
ATOM     70  C   UNL A   1      43.815  30.795  37.634  1.00  0.00     0.031 C 
ATOM     71  C   UNL A   1      38.223  31.753  36.382  1.00  0.00     0.029 A 
ATOM     72  C   UNL A   1      39.505  32.266  36.310  1.00  0.00     0.049 A 
ATOM     73  H   UNL A   1      40.400  33.315  34.751  1.00  0.00     0.167 HD
ATOM     74  C   UNL A   1      41.696  31.713  37.257  1.00  0.00     0.074 A 
ATOM     75  C   UNL A   1      42.955  31.774  37.986  1.00  0.00     0.031 C 
ATOM     76  C   UNL A   1      40.586  32.531  37.247  1.00  0.00     0.037 A 
BRANCH  63  77
ATOM     77  C   UNL A   1      37.066  34.026  32.347  1.00  0.00     0.058 A 
ATOM     78  C   UNL A   1      36.104  34.744  33.103  1.00  0.00     0.135 A 
ATOM     79  C   UNL A   1      36.638  33.786  31.014  1.00  0.00     0.135 A 
ATOM     80  F   UNL A   1      36.343  35.104  34.371  1.00  0.00    -0.206 F 
ATOM     81  C   UNL A   1      34.848  35.149  32.612  1.00  0.00     0.059 A 
ATOM     82  C   UNL A   1      35.412  34.241  30.479  1.00  0.00     0.059 A 
ATOM     83  F   UNL A   1      37.368  33.063  30.157  1.00  0.00    -0.206 F 
ATOM     84  C   UNL A   1      34.511  34.909  31.290  1.00  0.00     0.060 A 
BRANCH  84  85
ATOM     85  S   UNL A   1      32.931  35.527  30.655  1.00  0.00     0.124 S 
ATOM     86  O   UNL A   1      32.694  34.657  29.508  1.00  0.00    -0.237 OA
ATOM     87  O   UNL A   1      32.037  35.325  31.793  1.00  0.00    -0.237 OA
ATOM     88  O   UNL A   1      33.212  36.922  30.332  1.00  0.00    -0.744 OA
ENDBRANCH  84  85
ENDBRANCH  63  77
BRANCH  64  89
ATOM     89  C   UNL A   1      45.045  28.426  35.409  1.00  0.00     0.058 A 
ATOM     90  C   UNL A   1      45.071  27.014  35.242  1.00  0.00     0.135 A 
ATOM     91  C   UNL A   1      45.855  29.155  34.512  1.00  0.00     0.135 A 
ATOM     92  F   UNL A   1      44.390  26.242  36.102  1.00  0.00    -0.206 F 
ATOM     93  C   UNL A   1      45.547  26.409  34.071  1.00  0.00     0.059 A 
ATOM     94  C   UNL A   1      46.356  28.562  33.333  1.00  0.00     0.059 A 
ATOM     95  F   UNL A   1      45.919  30.492  34.610  1.00  0.00    -0.206 F 
ATOM     96  C   UNL A   1      46.115  27.207  33.083  1.00  0.00     0.060 A 
BRANCH  96  97
ATOM     97  S   UNL A   1      46.265  26.530  31.397  1.00  0.00     0.124 S 
ATOM     98  O   UNL A   1      46.346  27.736  30.584  1.00  0.00    -0.237 OA
ATOM     99  O   UNL A   1      47.481  25.724  31.480  1.00  0.00    -0.237 OA
ATOM    100  O   UNL A   1      45.044  25.747  31.249  1.00  0.00    -0.744 OA
ENDBRANCH  96  97
ENDBRANCH  64  89
BRANCH  76 101
ATOM    101  C   UNL A   1      40.452  33.836  38.026  1.00  0.00     0.058 A 
ATOM    102  C   UNL A   1      41.028  35.040  37.619  1.00  0.00     0.135 A 
ATOM    103  C   UNL A   1      39.746  33.900  39.263  1.00  0.00     0.135 A 
ATOM    104  F   UNL A   1      41.904  35.073  36.604  1.00  0.00    -0.206 F 
ATOM    105  C   UNL A   1      40.749  36.250  38.261  1.00  0.00     0.059 A 
ATOM    106  C   UNL A   1      39.490  35.081  39.943  1.00  0.00     0.059 A 
ATOM    107  F   UNL A   1      39.254  32.819  39.880  1.00  0.00    -0.206 F 
ATOM    108  C   UNL A   1      39.941  36.263  39.398  1.00  0.00     0.060 A 
BRANCH 108 109
ATOM    109  S   UNL A   1      39.498  37.825  40.166  1.00  0.00     0.124 S 
ATOM    110  O   UNL A   1      38.366  38.258  39.353  1.00  0.00    -0.237 OA
ATOM    111  O   UNL A   1      39.177  37.397  41.524  1.00  0.00    -0.237 OA
ATOM    112  O   UNL A   1      40.705  38.633  40.032  1.00  0.00    -0.744 OA
ENDBRANCH 108 109
ENDBRANCH  76 101
ENDBRANCH  50  51
ENDBRANCH  43  45
ENDBRANCH  42  43
ENDBRANCH  41  42
ENDBRANCH  40  41
ENDBRANCH  39  40
ENDBRANCH  38  39
ENDBRANCH  37  38
ENDBRANCH   1  37
TORSDOF 26
ENDMDL
MODEL 2
REMARK VINA RESULT:      -8.9      1.614      1.998
REMARK SMILES Cc1cccc(-c2ncc(C[NH+]3CCC4(CC3)NC(=O)C[C@H]4C(=O)OCCOCCOCCOCCOC(=O)c3ccc(-c4c5nc(c(-c6c(F)cc(S(=O)(=O)[O-])cc6F)c6ccc([nH]6)c(-c6c(F)cc(S(=O)(=O)[O-])cc6F)c6nc(c(-c7c(F)cc(S(=O)(=O)[O-])cc7F)c7ccc4[nH]7)C=C6)C=C5)cc3)cn2)c1
REMARK SMILES IDX 31 1 30 2 29 3 28 4 27 5 26 6 25 7 23 8 24 9 22 10 12 11
REMARK SMILES IDX 13 12 17 13 14 15 16 16 15 17 18 18 19 19 21 21 20 22 11 23
REMARK SMILES IDX 10 24 7 25 8 26 107 27 9 28 106 29 6 30 1 31 2 32 3 33
REMARK SMILES IDX 108 34 4 35 5 36 32 37 33 38 34 39 35 40 36 41 37 42 38 43
REMARK SMILES IDX 39 44 40 45 41 46 105 47 42 48 104 49 43 50 44 51 45 52
REMARK SMILES IDX 98 53 46 54 103 55 97 56 99 57 47 58 102 59 96 60 95 61
REMARK SMILES IDX 48 63 82 64 61 65 81 66 62 67 65 68 80 69 100 70 63 71 64 72
REMARK SMILES IDX 79 74 101 75 66 76 49 77 50 78 59 79 51 80 52 81 58 82 60 83
REMARK SMILES IDX 53 84 54 85 55 86 56 87 57 88 83 89 84 90 93 91 85 92 86 93
REMARK SMILES IDX 92 94 94 95 87 96 88 97 89 98 90 99 91 100 67 101 68 102
REMARK SMILES IDX 77 103 69 104 70 105 76 106 78 107 71 108 72 109 73 110
REMARK SMILES IDX 74 111 75 112
REMARK H PARENT 12 14 18 20 99 62 65 73
REMARK Flexibility Score: inf
ROOT
ATOM      1  O   UNL A   1      46.063  37.967  26.033  1.00  0.00    -0.377 OA
ENDROOT
BRANCH   1   2
ATOM      2  C   UNL A   1      45.409  39.123  26.497  1.00  0.00     0.188 C 
BRANCH   2   3
ATOM      3  C   UNL A   1      43.938  39.113  26.910  1.00  0.00     0.188 C 
BRANCH   3   4
ATOM      4  O   UNL A   1      43.052  40.121  26.485  1.00  0.00    -0.376 OA
BRANCH   4   5
ATOM      5  C   UNL A   1      42.030  40.460  27.387  1.00  0.00     0.202 C 
BRANCH   5   6
ATOM      6  C   UNL A   1      42.284  40.127  28.854  1.00  0.00     0.261 C 
BRANCH   6   7
ATOM      7  O   UNL A   1      42.781  41.183  29.697  1.00  0.00    -0.463 OA
BRANCH   7   8
ATOM      8  C   UNL A   1      44.037  41.024  30.164  1.00  0.00     0.311 C 
ATOM      9  O   UNL A   1      44.657  39.967  30.136  1.00  0.00    -0.252 OA
BRANCH   8  10
ATOM     10  C   UNL A   1      44.613  42.273  30.814  1.00  0.00     0.134 C 
ATOM     11  N   UNL A   1      47.075  42.570  27.585  1.00  0.00    -0.331 N 
ATOM     12  C   UNL A   1      47.571  42.375  28.929  1.00  0.00     0.264 C 
ATOM     13  C   UNL A   1      45.635  42.541  27.570  1.00  0.00     0.264 C 
ATOM     14  H   UNL A   1      47.482  41.754  27.129  1.00  0.00     0.348 HD
ATOM     15  C   UNL A   1      46.897  43.242  29.998  1.00  0.00     0.091 C 
ATOM     16  C   UNL A   1      44.876  43.461  28.512  1.00  0.00     0.091 C 
ATOM     17  C   UNL A   1      45.347  43.333  29.949  1.00  0.00     0.064 C 
ATOM     18  N   UNL A   1      44.970  44.574  30.612  1.00  0.00    -0.349 N 
ATOM     19  C   UNL A   1      43.907  44.478  31.461  1.00  0.00     0.221 C 
ATOM     20  H   UNL A   1      45.448  45.421  30.459  1.00  0.00     0.164 HD
ATOM     21  C   UNL A   1      43.546  43.036  31.630  1.00  0.00     0.117 C 
ATOM     22  O   UNL A   1      43.377  45.437  32.009  1.00  0.00    -0.275 OA
BRANCH  11  23
ATOM     23  C   UNL A   1      47.692  43.489  26.626  1.00  0.00     0.302 C 
BRANCH  23  24
ATOM     24  C   UNL A   1      46.959  43.635  25.327  1.00  0.00     0.043 A 
ATOM     25  C   UNL A   1      45.126  43.626  23.343  1.00  0.00     0.159 A 
ATOM     26  N   UNL A   1      45.202  44.727  24.119  1.00  0.00    -0.236 NA
ATOM     27  N   UNL A   1      45.969  42.589  23.399  1.00  0.00    -0.236 NA
ATOM     28  C   UNL A   1      46.143  44.711  25.079  1.00  0.00     0.124 A 
ATOM     29  C   UNL A   1      46.878  42.624  24.387  1.00  0.00     0.124 A 
BRANCH  25  30
ATOM     30  C   UNL A   1      43.981  43.521  22.448  1.00  0.00     0.019 A 
ATOM     31  C   UNL A   1      43.171  43.986  18.739  1.00  0.00     0.044 C 
ATOM     32  C   UNL A   1      43.026  43.665  20.197  1.00  0.00    -0.050 A 
ATOM     33  C   UNL A   1      41.816  43.172  20.695  1.00  0.00     0.003 A 
ATOM     34  C   UNL A   1      44.101  43.833  21.080  1.00  0.00     0.015 A 
ATOM     35  C   UNL A   1      41.669  42.900  22.056  1.00  0.00     0.001 A 
ATOM     36  C   UNL A   1      42.741  43.086  22.928  1.00  0.00     0.012 A 
ENDBRANCH  25  30
ENDBRANCH  23  24
ENDBRANCH  11  23
ENDBRANCH   8  10
ENDBRANCH   7   8
ENDBRANCH   6   7
ENDBRANCH   5   6
ENDBRANCH   4   5
ENDBRANCH   3   4
ENDBRANCH   2   3
ENDBRANCH   1   2
BRANCH   1  37
ATOM     37  C   UNL A   1      46.372  37.023  27.081  1.00  0.00     0.188 C 
BRANCH  37  38
ATOM     38  C   UNL A   1      45.383  35.870  27.128  1.00  0.00     0.188 C 
BRANCH  38  39
ATOM     39  O   UNL A   1      45.408  35.265  25.847  1.00  0.00    -0.376 OA
BRANCH  39  40
ATOM     40  C   UNL A   1      45.715  33.900  25.800  1.00  0.00     0.202 C 
BRANCH  40  41
ATOM     41  C   UNL A   1      44.990  33.143  26.906  1.00  0.00     0.261 C 
BRANCH  41  42
ATOM     42  O   UNL A   1      44.384  31.969  26.316  1.00  0.00    -0.460 OA
BRANCH  42  43
ATOM     43  C   UNL A   1      44.853  30.777  26.788  1.00  0.00     0.338 C 
ATOM     44  O   UNL A   1      45.598  30.046  26.159  1.00  0.00    -0.246 OA
BRANCH  43  45
ATOM     45  C   UNL A   1      44.262  30.458  28.131  1.00  0.00     0.060 A 
ATOM     46  C   UNL A   1      42.914  30.065  28.247  1.00  0.00     0.016 A 
ATOM     47  C   UNL A   1      44.974  30.724  29.291  1.00  0.00     0.016 A 
ATOM     48  C   UNL A   1      42.239  30.094  29.493  1.00  0.00     0.010 A 
ATOM     49  C   UNL A   1      44.309  30.724  30.517  1.00  0.00     0.010 A 
ATOM     50  C   UNL A   1      42.917  30.494  30.642  1.00  0.00    -0.014 A 
BRANCH  50  51
ATOM     51  C   UNL A   1      42.322  30.918  31.954  1.00  0.00     0.031 A 
ATOM     52  C   UNL A   1      41.356  32.087  31.940  1.00  0.00     0.074 A 
ATOM     53  C   UNL A   1      42.283  30.040  32.997  1.00  0.00     0.049 A 
ATOM     54  N   UNL A   1      40.515  32.414  32.867  1.00  0.00    -0.248 NA
ATOM     55  C   UNL A   1      41.276  33.010  30.805  1.00  0.00     0.031 C 
ATOM     56  C   UNL A   1      41.134  29.773  33.867  1.00  0.00     0.029 A 
ATOM     57  N   UNL A   1      43.183  29.102  33.466  1.00  0.00    -0.354 N 
ATOM     58  C   UNL A   1      39.593  33.322  32.343  1.00  0.00     0.074 A 
ATOM     59  C   UNL A   1      40.181  33.725  31.091  1.00  0.00     0.031 C 
ATOM     60  C   UNL A   1      41.403  28.821  34.770  1.00  0.00     0.029 A 
ATOM     61  C   UNL A   1      42.824  28.652  34.749  1.00  0.00     0.049 A 
ATOM     62  H   UNL A   1      43.973  28.791  32.967  1.00  0.00     0.167 HD
ATOM     63  C   UNL A   1      38.368  33.487  32.956  1.00  0.00     0.037 A 
ATOM     64  C   UNL A   1      43.616  28.999  35.808  1.00  0.00     0.037 A 
ATOM     65  C   UNL A   1      38.363  32.910  34.331  1.00  0.00     0.049 A 
ATOM     66  C   UNL A   1      43.033  30.168  36.642  1.00  0.00     0.074 A 
ATOM     67  C   UNL A   1      37.482  32.232  35.165  1.00  0.00     0.029 A 
ATOM     68  N   UNL A   1      39.552  32.939  35.059  1.00  0.00    -0.354 N 
ATOM     69  N   UNL A   1      41.821  30.675  36.490  1.00  0.00    -0.248 NA
ATOM     70  C   UNL A   1      43.758  30.886  37.689  1.00  0.00     0.031 C 
ATOM     71  C   UNL A   1      38.182  31.818  36.349  1.00  0.00     0.029 A 
ATOM     72  C   UNL A   1      39.464  32.330  36.286  1.00  0.00     0.049 A 
ATOM     73  H   UNL A   1      40.378  33.357  34.723  1.00  0.00     0.167 HD
ATOM     74  C   UNL A   1      41.644  31.795  37.269  1.00  0.00     0.074 A 
ATOM     75  C   UNL A   1      42.893  31.868  38.014  1.00  0.00     0.031 C 
ATOM     76  C   UNL A   1      40.533  32.612  37.233  1.00  0.00     0.037 A 
BRANCH  63  77
ATOM     77  C   UNL A   1      37.076  34.027  32.265  1.00  0.00     0.058 A 
ATOM     78  C   UNL A   1      36.125  34.793  32.987  1.00  0.00     0.135 A 
ATOM     79  C   UNL A   1      36.645  33.733  30.944  1.00  0.00     0.135 A 
ATOM     80  F   UNL A   1      36.368  35.206  34.236  1.00  0.00    -0.206 F 
ATOM     81  C   UNL A   1      34.874  35.193  32.476  1.00  0.00     0.059 A 
ATOM     82  C   UNL A   1      35.425  34.181  30.387  1.00  0.00     0.059 A 
ATOM     83  F   UNL A   1      37.364  32.961  30.121  1.00  0.00    -0.206 F 
ATOM     84  C   UNL A   1      34.533  34.898  31.166  1.00  0.00     0.060 A 
BRANCH  84  85
ATOM     85  S   UNL A   1      32.963  35.509  30.503  1.00  0.00     0.124 S 
ATOM     86  O   UNL A   1      33.306  36.865  30.088  1.00  0.00    -0.237 OA
ATOM     87  O   UNL A   1      32.694  34.568  29.419  1.00  0.00    -0.237 OA
ATOM     88  O   UNL A   1      32.050  35.418  31.639  1.00  0.00    -0.744 OA
ENDBRANCH  84  85
ENDBRANCH  63  77
BRANCH  64  89
ATOM     89  C   UNL A   1      45.020  28.484  35.516  1.00  0.00     0.058 A 
ATOM     90  C   UNL A   1      45.965  29.541  35.411  1.00  0.00     0.135 A 
ATOM     91  C   UNL A   1      45.479  27.328  36.183  1.00  0.00     0.135 A 
ATOM     92  F   UNL A   1      45.635  30.645  34.724  1.00  0.00    -0.206 F 
ATOM     93  C   UNL A   1      47.112  29.600  36.212  1.00  0.00     0.059 A 
ATOM     94  C   UNL A   1      46.640  27.360  36.984  1.00  0.00     0.059 A 
ATOM     95  F   UNL A   1      44.669  26.265  36.306  1.00  0.00    -0.206 F 
ATOM     96  C   UNL A   1      47.397  28.534  37.061  1.00  0.00     0.060 A 
BRANCH  96  97
ATOM     97  S   UNL A   1      48.561  28.804  38.438  1.00  0.00     0.124 S 
ATOM     98  O   UNL A   1      49.829  28.380  37.861  1.00  0.00    -0.237 OA
ATOM     99  O   UNL A   1      48.418  30.234  38.704  1.00  0.00    -0.237 OA
ATOM    100  O   UNL A   1      48.025  27.950  39.490  1.00  0.00    -0.744 OA
ENDBRANCH  96  97
ENDBRANCH  64  89
BRANCH  76 101
ATOM    101  C   UNL A   1      40.387  33.928  37.990  1.00  0.00     0.058 A 
ATOM    102  C   UNL A   1      40.641  35.177  37.421  1.00  0.00     0.135 A 
ATOM    103  C   UNL A   1      40.009  33.963  39.364  1.00  0.00     0.135 A 
ATOM    104  F   UNL A   1      41.220  35.277  36.216  1.00  0.00    -0.206 F 
ATOM    105  C   UNL A   1      40.338  36.369  38.085  1.00  0.00     0.059 A 
ATOM    106  C   UNL A   1      39.743  35.133  40.060  1.00  0.00     0.059 A 
ATOM    107  F   UNL A   1      39.868  32.862  40.112  1.00  0.00    -0.206 F 
ATOM    108  C   UNL A   1      39.847  36.333  39.390  1.00  0.00     0.060 A 
BRANCH 108 109
ATOM    109  S   UNL A   1      39.361  37.856  40.210  1.00  0.00     0.124 S 
ATOM    110  O   UNL A   1      39.141  37.410  41.582  1.00  0.00    -0.237 OA
ATOM    111  O   UNL A   1      40.541  38.687  39.994  1.00  0.00    -0.237 OA
ATOM    112  O   UNL A   1      38.162  38.270  39.491  1.00  0.00    -0.744 OA
ENDBRANCH 108 109
ENDBRANCH  76 101
ENDBRANCH  50  51
ENDBRANCH  43  45
ENDBRANCH  42  43
ENDBRANCH  41  42
ENDBRANCH  40  41
ENDBRANCH  39  40
ENDBRANCH  38  39
ENDBRANCH  37  38
ENDBRANCH   1  37
TORSDOF 26
ENDMDL
MODEL 3
REMARK VINA RESULT:      -8.8      5.660     11.264
REMARK SMILES Cc1cccc(-c2ncc(C[NH+]3CCC4(CC3)NC(=O)C[C@H]4C(=O)OCCOCCOCCOCCOC(=O)c3ccc(-c4c5nc(c(-c6c(F)cc(S(=O)(=O)[O-])cc6F)c6ccc([nH]6)c(-c6c(F)cc(S(=O)(=O)[O-])cc6F)c6nc(c(-c7c(F)cc(S(=O)(=O)[O-])cc7F)c7ccc4[nH]7)C=C6)C=C5)cc3)cn2)c1
REMARK SMILES IDX 31 1 30 2 29 3 28 4 27 5 26 6 25 7 23 8 24 9 22 10 12 11
REMARK SMILES IDX 13 12 17 13 14 15 16 16 15 17 18 18 19 19 21 21 20 22 11 23
REMARK SMILES IDX 10 24 7 25 8 26 107 27 9 28 106 29 6 30 1 31 2 32 3 33
REMARK SMILES IDX 108 34 4 35 5 36 32 37 33 38 34 39 35 40 36 41 37 42 38 43
REMARK SMILES IDX 39 44 40 45 41 46 105 47 42 48 104 49 43 50 44 51 45 52
REMARK SMILES IDX 98 53 46 54 103 55 97 56 99 57 47 58 102 59 96 60 95 61
REMARK SMILES IDX 48 63 82 64 61 65 81 66 62 67 65 68 80 69 100 70 63 71 64 72
REMARK SMILES IDX 79 74 101 75 66 76 49 77 50 78 59 79 51 80 52 81 58 82 60 83
REMARK SMILES IDX 53 84 54 85 55 86 56 87 57 88 83 89 84 90 93 91 85 92 86 93
REMARK SMILES IDX 92 94 94 95 87 96 88 97 89 98 90 99 91 100 67 101 68 102
REMARK SMILES IDX 77 103 69 104 70 105 76 106 78 107 71 108 72 109 73 110
REMARK SMILES IDX 74 111 75 112
REMARK H PARENT 12 14 18 20 99 62 65 73
REMARK Flexibility Score: inf
ROOT
ATOM      1  O   UNL A   1      39.337  33.222  31.784  1.00  0.00    -0.377 OA
ENDROOT
BRANCH   1   2
ATOM      2  C   UNL A   1      40.693  33.413  32.110  1.00  0.00     0.188 C 
BRANCH   2   3
ATOM      3  C   UNL A   1      41.817  33.093  31.126  1.00  0.00     0.188 C 
BRANCH   3   4
ATOM      4  O   UNL A   1      42.981  32.418  31.541  1.00  0.00    -0.376 OA
BRANCH   4   5
ATOM      5  C   UNL A   1      43.858  33.150  32.357  1.00  0.00     0.202 C 
BRANCH   5   6
ATOM      6  C   UNL A   1      44.066  34.615  31.984  1.00  0.00     0.261 C 
BRANCH   6   7
ATOM      7  O   UNL A   1      44.714  35.460  32.952  1.00  0.00    -0.463 OA
BRANCH   7   8
ATOM      8  C   UNL A   1      43.912  36.001  33.895  1.00  0.00     0.311 C 
ATOM      9  O   UNL A   1      42.699  35.838  33.947  1.00  0.00    -0.252 OA
BRANCH   8  10
ATOM     10  C   UNL A   1      44.640  36.914  34.869  1.00  0.00     0.134 C 
ATOM     11  N   UNL A   1      45.275  39.422  31.726  1.00  0.00    -0.331 N 
ATOM     12  C   UNL A   1      46.355  38.790  32.451  1.00  0.00     0.264 C 
ATOM     13  C   UNL A   1      44.002  38.958  32.214  1.00  0.00     0.264 C 
ATOM     14  H   UNL A   1      45.475  39.083  30.786  1.00  0.00     0.348 HD
ATOM     15  C   UNL A   1      46.204  38.805  33.976  1.00  0.00     0.091 C 
ATOM     16  C   UNL A   1      43.713  39.049  33.703  1.00  0.00     0.091 C 
ATOM     17  C   UNL A   1      44.810  38.422  34.544  1.00  0.00     0.064 C 
ATOM     18  N   UNL A   1      44.705  39.028  35.865  1.00  0.00    -0.349 N 
ATOM     19  C   UNL A   1      44.173  38.224  36.830  1.00  0.00     0.221 C 
ATOM     20  H   UNL A   1      44.998  39.950  36.048  1.00  0.00     0.164 HD
ATOM     21  C   UNL A   1      44.032  36.837  36.287  1.00  0.00     0.117 C 
ATOM     22  O   UNL A   1      43.899  38.602  37.963  1.00  0.00    -0.275 OA
BRANCH  11  23
ATOM     23  C   UNL A   1      45.308  40.821  31.294  1.00  0.00     0.302 C 
BRANCH  23  24
ATOM     24  C   UNL A   1      45.068  41.037  29.831  1.00  0.00     0.043 A 
ATOM     25  C   UNL A   1      44.721  42.081  27.363  1.00  0.00     0.159 A 
ATOM     26  N   UNL A   1      45.973  41.727  27.722  1.00  0.00    -0.236 NA
ATOM     27  N   UNL A   1      43.620  41.842  28.084  1.00  0.00    -0.236 NA
ATOM     28  C   UNL A   1      46.107  41.185  28.945  1.00  0.00     0.124 A 
ATOM     29  C   UNL A   1      43.819  41.312  29.302  1.00  0.00     0.124 A 
BRANCH  25  30
ATOM     30  C   UNL A   1      44.576  42.869  26.146  1.00  0.00     0.019 A 
ATOM     31  C   UNL A   1      42.589  42.784  22.879  1.00  0.00     0.044 C 
ATOM     32  C   UNL A   1      43.517  43.235  23.968  1.00  0.00    -0.050 A 
ATOM     33  C   UNL A   1      44.180  44.462  23.868  1.00  0.00     0.003 A 
ATOM     34  C   UNL A   1      43.720  42.449  25.110  1.00  0.00     0.015 A 
ATOM     35  C   UNL A   1      45.066  44.871  24.866  1.00  0.00     0.001 A 
ATOM     36  C   UNL A   1      45.272  44.073  25.991  1.00  0.00     0.012 A 
ENDBRANCH  25  30
ENDBRANCH  23  24
ENDBRANCH  11  23
ENDBRANCH   8  10
ENDBRANCH   7   8
ENDBRANCH   6   7
ENDBRANCH   5   6
ENDBRANCH   4   5
ENDBRANCH   3   4
ENDBRANCH   2   3
ENDBRANCH   1   2
BRANCH   1  37
ATOM     37  C   UNL A   1      38.519  34.386  32.031  1.00  0.00     0.188 C 
BRANCH  37  38
ATOM     38  C   UNL A   1      37.035  34.059  32.032  1.00  0.00     0.188 C 
BRANCH  38  39
ATOM     39  O   UNL A   1      36.719  33.619  30.722  1.00  0.00    -0.376 OA
BRANCH  39  40
ATOM     40  C   UNL A   1      36.643  32.236  30.521  1.00  0.00     0.202 C 
BRANCH  40  41
ATOM     41  C   UNL A   1      37.130  31.864  29.127  1.00  0.00     0.261 C 
BRANCH  41  42
ATOM     42  O   UNL A   1      36.793  30.476  28.895  1.00  0.00    -0.460 OA
BRANCH  42  43
ATOM     43  C   UNL A   1      37.649  29.572  29.455  1.00  0.00     0.338 C 
ATOM     44  O   UNL A   1      37.346  28.832  30.374  1.00  0.00    -0.246 OA
BRANCH  43  45
ATOM     45  C   UNL A   1      39.019  29.678  28.850  1.00  0.00     0.060 A 
ATOM     46  C   UNL A   1      39.258  29.241  27.532  1.00  0.00     0.016 A 
ATOM     47  C   UNL A   1      40.107  30.030  29.636  1.00  0.00     0.016 A 
ATOM     48  C   UNL A   1      40.572  29.004  27.057  1.00  0.00     0.010 A 
ATOM     49  C   UNL A   1      41.397  29.820  29.152  1.00  0.00     0.010 A 
ATOM     50  C   UNL A   1      41.664  29.227  27.893  1.00  0.00    -0.014 A 
BRANCH  50  51
ATOM     51  C   UNL A   1      43.069  28.725  27.717  1.00  0.00     0.031 A 
ATOM     52  C   UNL A   1      44.129  29.735  27.323  1.00  0.00     0.074 A 
ATOM     53  C   UNL A   1      43.454  27.561  28.314  1.00  0.00     0.049 A 
ATOM     54  N   UNL A   1      45.411  29.596  27.417  1.00  0.00    -0.248 NA
ATOM     55  C   UNL A   1      43.780  31.047  26.769  1.00  0.00     0.031 C 
ATOM     56  C   UNL A   1      44.688  27.339  29.073  1.00  0.00     0.029 A 
ATOM     57  N   UNL A   1      42.818  26.348  28.499  1.00  0.00    -0.354 N 
ATOM     58  C   UNL A   1      46.016  30.847  27.276  1.00  0.00     0.074 A 
ATOM     59  C   UNL A   1      44.956  31.686  26.778  1.00  0.00     0.031 C 
ATOM     60  C   UNL A   1      44.749  26.098  29.572  1.00  0.00     0.029 A 
ATOM     61  C   UNL A   1      43.728  25.354  28.901  1.00  0.00     0.049 A 
ATOM     62  H   UNL A   1      41.854  26.200  28.365  1.00  0.00     0.167 HD
ATOM     63  C   UNL A   1      47.291  31.052  27.762  1.00  0.00     0.037 A 
ATOM     64  C   UNL A   1      44.016  24.342  28.028  1.00  0.00     0.037 A 
ATOM     65  C   UNL A   1      47.979  29.761  28.053  1.00  0.00     0.049 A 
ATOM     66  C   UNL A   1      45.373  24.535  27.305  1.00  0.00     0.074 A 
ATOM     67  C   UNL A   1      48.861  29.249  28.997  1.00  0.00     0.029 A 
ATOM     68  N   UNL A   1      47.671  28.660  27.255  1.00  0.00    -0.354 N 
ATOM     69  N   UNL A   1      46.266  25.462  27.606  1.00  0.00    -0.248 NA
ATOM     70  C   UNL A   1      45.833  23.733  26.172  1.00  0.00     0.031 C 
ATOM     71  C   UNL A   1      49.014  27.837  28.777  1.00  0.00     0.029 A 
ATOM     72  C   UNL A   1      48.306  27.505  27.638  1.00  0.00     0.049 A 
ATOM     73  H   UNL A   1      47.054  28.707  26.488  1.00  0.00     0.167 HD
ATOM     74  C   UNL A   1      47.300  25.478  26.698  1.00  0.00     0.074 A 
ATOM     75  C   UNL A   1      46.979  24.356  25.827  1.00  0.00     0.031 C 
ATOM     76  C   UNL A   1      48.313  26.413  26.675  1.00  0.00     0.037 A 
BRANCH  63  77
ATOM     77  C   UNL A   1      47.898  32.436  28.154  1.00  0.00     0.058 A 
ATOM     78  C   UNL A   1      47.994  32.836  29.511  1.00  0.00     0.135 A 
ATOM     79  C   UNL A   1      48.291  33.465  27.257  1.00  0.00     0.135 A 
ATOM     80  F   UNL A   1      47.708  31.989  30.508  1.00  0.00    -0.206 F 
ATOM     81  C   UNL A   1      48.396  34.118  29.935  1.00  0.00     0.059 A 
ATOM     82  C   UNL A   1      48.763  34.735  27.660  1.00  0.00     0.059 A 
ATOM     83  F   UNL A   1      48.207  33.315  25.930  1.00  0.00    -0.206 F 
ATOM     84  C   UNL A   1      48.797  35.062  29.005  1.00  0.00     0.060 A 
BRANCH  84  85
ATOM     85  S   UNL A   1      49.403  36.668  29.581  1.00  0.00     0.124 S 
ATOM     86  O   UNL A   1      49.823  36.371  30.947  1.00  0.00    -0.237 OA
ATOM     87  O   UNL A   1      50.483  36.951  28.639  1.00  0.00    -0.237 OA
ATOM     88  O   UNL A   1      48.238  37.540  29.463  1.00  0.00    -0.744 OA
ENDBRANCH  84  85
ENDBRANCH  63  77
BRANCH  64  89
ATOM     89  C   UNL A   1      42.703  23.650  27.682  1.00  0.00     0.058 A 
ATOM     90  C   UNL A   1      42.555  23.457  26.281  1.00  0.00     0.135 A 
ATOM     91  C   UNL A   1      42.257  22.582  28.489  1.00  0.00     0.135 A 
ATOM     92  F   UNL A   1      42.883  24.455  25.447  1.00  0.00    -0.206 F 
ATOM     93  C   UNL A   1      42.344  22.191  25.720  1.00  0.00     0.059 A 
ATOM     94  C   UNL A   1      42.025  21.301  27.943  1.00  0.00     0.059 A 
ATOM     95  F   UNL A   1      42.328  22.683  29.826  1.00  0.00    -0.206 F 
ATOM     96  C   UNL A   1      42.162  21.101  26.565  1.00  0.00     0.060 A 
BRANCH  96  97
ATOM     97  S   UNL A   1      42.391  19.425  25.886  1.00  0.00     0.124 S 
ATOM     98  O   UNL A   1      43.328  19.657  24.795  1.00  0.00    -0.237 OA
ATOM     99  O   UNL A   1      42.907  18.680  27.034  1.00  0.00    -0.237 OA
ATOM    100  O   UNL A   1      41.040  19.044  25.493  1.00  0.00    -0.744 OA
ENDBRANCH  96  97
ENDBRANCH  64  89
BRANCH  76 101
ATOM    101  C   UNL A   1      49.383  26.521  25.593  1.00  0.00     0.058 A 
ATOM    102  C   UNL A   1      49.142  27.041  24.320  1.00  0.00     0.135 A 
ATOM    103  C   UNL A   1      50.713  26.055  25.806  1.00  0.00     0.135 A 
ATOM    104  F   UNL A   1      47.892  27.301  23.910  1.00  0.00    -0.206 F 
ATOM    105  C   UNL A   1      50.175  27.281  23.410  1.00  0.00     0.059 A 
ATOM    106  C   UNL A   1      51.749  26.243  24.903  1.00  0.00     0.059 A 
ATOM    107  F   UNL A   1      51.089  25.396  26.909  1.00  0.00    -0.206 F 
ATOM    108  C   UNL A   1      51.483  26.918  23.731  1.00  0.00     0.060 A 
BRANCH 108 109
ATOM    109  S   UNL A   1      52.828  27.316  22.609  1.00  0.00     0.124 S 
ATOM    110  O   UNL A   1      53.653  28.205  23.420  1.00  0.00    -0.237 OA
ATOM    111  O   UNL A   1      53.386  25.994  22.348  1.00  0.00    -0.237 OA
ATOM    112  O   UNL A   1      52.159  27.949  21.477  1.00  0.00    -0.744 OA
ENDBRANCH 108 109
ENDBRANCH  76 101
ENDBRANCH  50  51
ENDBRANCH  43  45
ENDBRANCH  42  43
ENDBRANCH  41  42
ENDBRANCH  40  41
ENDBRANCH  39  40
ENDBRANCH  38  39
ENDBRANCH  37  38
ENDBRANCH   1  37
TORSDOF 26
ENDMDL
