MODEL 1
REMARK VINA RESULT:      -8.9      0.000      0.000
REMARK SMILES C[NH2+][C@](C)(C(=O)OCCOCCOCCOCCOC(=O)c1ccc(-c2c3nc(c(-c4c(F)cc(S(=O)(=O)[O-])cc4F)c4ccc([nH]4)c(-c4c(F)cc(S(=O)(=O)[O-])cc4F)c4nc(c(-c5c(F)cc(S(=O)(=O)[O-])cc5F)c5ccc2[nH]5)C=C4)C=C3)cc1)c1cccc(Cl)c1
REMARK SMILES IDX 14 1 13 2 12 3 11 4 10 5 9 6 8 7 7 8 5 9 6 10 3 11 4 12 2 13
REMARK SMILES IDX 1 14 88 17 89 18 94 19 90 20 92 21 91 22 93 23 15 24 16 25
REMARK SMILES IDX 17 26 18 27 19 28 20 29 21 30 22 31 23 32 87 33 24 34 86 35
REMARK SMILES IDX 25 36 26 37 27 38 80 39 28 40 85 41 79 42 81 43 29 44 84 45
REMARK SMILES IDX 78 46 77 47 30 49 64 50 43 51 63 52 44 53 47 54 62 55 82 56
REMARK SMILES IDX 45 57 46 58 61 60 83 61 48 62 31 63 32 64 41 65 33 66 34 67
REMARK SMILES IDX 40 68 42 69 35 70 36 71 37 72 38 73 39 74 65 75 66 76 75 77
REMARK SMILES IDX 67 78 68 79 74 80 76 81 69 82 70 83 71 84 72 85 73 86 49 87
REMARK SMILES IDX 50 88 59 89 51 90 52 91 58 92 60 93 53 94 54 95 55 96 56 97
REMARK SMILES IDX 57 98
REMARK H PARENT 2 15 2 16 81 48 47 59
REMARK Flexibility Score: inf
ROOT
ATOM      1  C   UNL A   1      33.284  29.368  24.988  1.00  0.00     0.188 C 
ENDROOT
BRANCH   1   2
ATOM      2  O   UNL A   1      32.396  28.806  24.034  1.00  0.00    -0.377 OA
BRANCH   2   3
ATOM      3  C   UNL A   1      31.099  28.497  24.507  1.00  0.00     0.188 C 
BRANCH   3   4
ATOM      4  C   UNL A   1      30.448  27.217  23.977  1.00  0.00     0.188 C 
BRANCH   4   5
ATOM      5  O   UNL A   1      30.018  26.420  25.068  1.00  0.00    -0.376 OA
BRANCH   5   6
ATOM      6  C   UNL A   1      30.366  25.053  25.131  1.00  0.00     0.202 C 
BRANCH   6   7
ATOM      7  C   UNL A   1      31.101  24.431  26.336  1.00  0.00     0.261 C 
BRANCH   7   8
ATOM      8  O   UNL A   1      32.505  24.171  26.227  1.00  0.00    -0.458 OA
BRANCH   8   9
ATOM      9  C   UNL A   1      32.905  23.143  25.426  1.00  0.00     0.372 C 
ATOM     10  O   UNL A   1      32.523  21.989  25.593  1.00  0.00    -0.244 OA
BRANCH   9  11
ATOM     11  C   UNL A   1      33.947  23.616  24.314  1.00  0.00     0.216 C 
ATOM     12  C   UNL A   1      33.671  23.088  22.879  1.00  0.00     0.098 C 
BRANCH  11  13
ATOM     13  N   UNL A   1      33.884  25.115  24.271  1.00  0.00    -0.331 N 
ATOM     14  C   UNL A   1      33.658  25.646  22.924  1.00  0.00     0.332 C 
ATOM     15  H   UNL A   1      33.121  25.425  24.872  1.00  0.00     0.347 HD
ATOM     16  H   UNL A   1      34.789  25.463  24.584  1.00  0.00     0.347 HD
ENDBRANCH  11  13
BRANCH  11  17
ATOM     17  C   UNL A   1      35.393  23.142  24.666  1.00  0.00     0.025 A 
ATOM     18  C   UNL A   1      35.856  21.865  24.290  1.00  0.00     0.011 A 
ATOM     19  C   UNL A   1      36.256  23.914  25.471  1.00  0.00     0.031 A 
ATOM     20  C   UNL A   1      37.116  21.395  24.688  1.00  0.00     0.002 A 
ATOM     21  C   UNL A   1      37.506  23.439  25.877  1.00  0.00     0.041 A 
ATOM     22  C   UNL A   1      37.942  22.181  25.486  1.00  0.00     0.020 A 
ATOM     23  Cl  UNL A   1      38.499  24.415  26.891  1.00  0.00    -0.084 Cl
ENDBRANCH  11  17
ENDBRANCH   9  11
ENDBRANCH   8   9
ENDBRANCH   7   8
ENDBRANCH   6   7
ENDBRANCH   5   6
ENDBRANCH   4   5
ENDBRANCH   3   4
ENDBRANCH   2   3
ENDBRANCH   1   2
BRANCH   1  24
ATOM     24  C   UNL A   1      32.558  29.857  26.258  1.00  0.00     0.188 C 
BRANCH  24  25
ATOM     25  O   UNL A   1      33.269  30.358  27.393  1.00  0.00    -0.376 OA
BRANCH  25  26
ATOM     26  C   UNL A   1      34.665  30.593  27.326  1.00  0.00     0.202 C 
BRANCH  26  27
ATOM     27  C   UNL A   1      35.166  31.870  28.016  1.00  0.00     0.261 C 
BRANCH  27  28
ATOM     28  O   UNL A   1      36.448  31.777  28.652  1.00  0.00    -0.460 OA
BRANCH  28  29
ATOM     29  C   UNL A   1      36.665  30.663  29.395  1.00  0.00     0.338 C 
ATOM     30  O   UNL A   1      35.876  30.101  30.135  1.00  0.00    -0.246 OA
BRANCH  29  31
ATOM     31  C   UNL A   1      38.007  30.131  29.063  1.00  0.00     0.060 A 
ATOM     32  C   UNL A   1      38.972  30.036  30.076  1.00  0.00     0.016 A 
ATOM     33  C   UNL A   1      38.308  29.716  27.763  1.00  0.00     0.016 A 
ATOM     34  C   UNL A   1      40.238  29.523  29.794  1.00  0.00     0.010 A 
ATOM     35  C   UNL A   1      39.588  29.242  27.472  1.00  0.00     0.010 A 
ATOM     36  C   UNL A   1      40.563  29.160  28.481  1.00  0.00    -0.014 A 
BRANCH  36  37
ATOM     37  C   UNL A   1      41.974  28.897  28.110  1.00  0.00     0.031 A 
ATOM     38  C   UNL A   1      42.363  27.481  27.787  1.00  0.00     0.074 A 
ATOM     39  C   UNL A   1      42.889  29.881  28.078  1.00  0.00     0.049 A 
ATOM     40  N   UNL A   1      43.545  26.980  27.546  1.00  0.00    -0.248 NA
ATOM     41  C   UNL A   1      41.266  26.500  27.732  1.00  0.00     0.031 C 
ATOM     42  C   UNL A   1      42.617  31.298  28.312  1.00  0.00     0.029 A 
ATOM     43  N   UNL A   1      44.242  29.829  27.851  1.00  0.00    -0.354 N 
ATOM     44  C   UNL A   1      43.336  25.626  27.311  1.00  0.00     0.074 A 
ATOM     45  C   UNL A   1      41.919  25.381  27.462  1.00  0.00     0.031 C 
ATOM     46  C   UNL A   1      43.774  31.980  28.236  1.00  0.00     0.029 A 
ATOM     47  C   UNL A   1      44.870  31.044  27.990  1.00  0.00     0.049 A 
ATOM     48  H   UNL A   1      44.716  29.001  27.611  1.00  0.00     0.167 HD
ATOM     49  C   UNL A   1      44.244  24.674  26.996  1.00  0.00     0.037 A 
ATOM     50  C   UNL A   1      46.182  31.351  27.954  1.00  0.00     0.037 A 
ATOM     51  C   UNL A   1      45.656  24.920  26.877  1.00  0.00     0.049 A 
ATOM     52  C   UNL A   1      47.191  30.254  27.719  1.00  0.00     0.074 A 
ATOM     53  C   UNL A   1      46.663  24.025  26.570  1.00  0.00     0.029 A 
ATOM     54  N   UNL A   1      46.260  26.154  27.074  1.00  0.00    -0.354 N 
ATOM     55  N   UNL A   1      46.984  28.979  27.491  1.00  0.00    -0.248 NA
ATOM     56  C   UNL A   1      48.610  30.636  27.748  1.00  0.00     0.031 C 
ATOM     57  C   UNL A   1      47.884  24.707  26.631  1.00  0.00     0.029 A 
ATOM     58  C   UNL A   1      47.631  26.039  26.924  1.00  0.00     0.049 A 
ATOM     59  H   UNL A   1      45.784  26.989  27.288  1.00  0.00     0.167 HD
ATOM     60  C   UNL A   1      48.244  28.411  27.325  1.00  0.00     0.074 A 
ATOM     61  C   UNL A   1      49.206  29.483  27.472  1.00  0.00     0.031 C 
ATOM     62  C   UNL A   1      48.574  27.120  27.070  1.00  0.00     0.037 A 
BRANCH  49  63
ATOM     63  C   UNL A   1      43.732  23.275  26.803  1.00  0.00     0.058 A 
ATOM     64  C   UNL A   1      43.320  22.485  27.888  1.00  0.00     0.135 A 
ATOM     65  C   UNL A   1      43.661  22.713  25.519  1.00  0.00     0.135 A 
ATOM     66  F   UNL A   1      43.390  22.966  29.140  1.00  0.00    -0.206 F 
ATOM     67  C   UNL A   1      42.887  21.175  27.710  1.00  0.00     0.059 A 
ATOM     68  C   UNL A   1      43.206  21.415  25.315  1.00  0.00     0.059 A 
ATOM     69  F   UNL A   1      44.049  23.423  24.448  1.00  0.00    -0.206 F 
ATOM     70  C   UNL A   1      42.838  20.647  26.420  1.00  0.00     0.060 A 
BRANCH  70  71
ATOM     71  S   UNL A   1      42.290  18.941  26.205  1.00  0.00     0.124 S 
ATOM     72  O   UNL A   1      42.514  18.394  27.540  1.00  0.00    -0.237 OA
ATOM     73  O   UNL A   1      40.894  19.107  25.816  1.00  0.00    -0.237 OA
ATOM     74  O   UNL A   1      43.172  18.429  25.161  1.00  0.00    -0.744 OA
ENDBRANCH  70  71
ENDBRANCH  49  63
BRANCH  50  75
ATOM     75  C   UNL A   1      46.625  32.756  28.168  1.00  0.00     0.058 A 
ATOM     76  C   UNL A   1      46.981  33.214  29.446  1.00  0.00     0.135 A 
ATOM     77  C   UNL A   1      46.703  33.667  27.103  1.00  0.00     0.135 A 
ATOM     78  F   UNL A   1      46.908  32.386  30.499  1.00  0.00    -0.206 F 
ATOM     79  C   UNL A   1      47.396  34.524  29.662  1.00  0.00     0.059 A 
ATOM     80  C   UNL A   1      47.136  34.976  27.290  1.00  0.00     0.059 A 
ATOM     81  F   UNL A   1      46.378  33.280  25.861  1.00  0.00    -0.206 F 
ATOM     82  C   UNL A   1      47.476  35.398  28.575  1.00  0.00     0.060 A 
BRANCH  82  83
ATOM     83  S   UNL A   1      48.082  37.076  28.855  1.00  0.00     0.124 S 
ATOM     84  O   UNL A   1      46.844  37.847  28.815  1.00  0.00    -0.237 OA
ATOM     85  O   UNL A   1      48.720  36.957  30.162  1.00  0.00    -0.237 OA
ATOM     86  O   UNL A   1      48.998  37.290  27.738  1.00  0.00    -0.744 OA
ENDBRANCH  82  83
ENDBRANCH  50  75
BRANCH  62  87
ATOM     87  C   UNL A   1      50.032  26.791  26.903  1.00  0.00     0.058 A 
ATOM     88  C   UNL A   1      50.833  26.424  27.995  1.00  0.00     0.135 A 
ATOM     89  C   UNL A   1      50.611  26.760  25.623  1.00  0.00     0.135 A 
ATOM     90  F   UNL A   1      50.331  26.445  29.239  1.00  0.00    -0.206 F 
ATOM     91  C   UNL A   1      52.161  26.046  27.825  1.00  0.00     0.059 A 
ATOM     92  C   UNL A   1      51.928  26.360  25.428  1.00  0.00     0.059 A 
ATOM     93  F   UNL A   1      49.884  27.092  24.545  1.00  0.00    -0.206 F 
ATOM     94  C   UNL A   1      52.698  26.010  26.536  1.00  0.00     0.060 A 
BRANCH  94  95
ATOM     95  S   UNL A   1      54.404  25.458  26.324  1.00  0.00     0.124 S 
ATOM     96  O   UNL A   1      54.881  25.439  27.703  1.00  0.00    -0.237 OA
ATOM     97  O   UNL A   1      54.235  24.153  25.694  1.00  0.00    -0.237 OA
ATOM     98  O   UNL A   1      54.991  26.488  25.471  1.00  0.00    -0.744 OA
ENDBRANCH  94  95
ENDBRANCH  62  87
ENDBRANCH  36  37
ENDBRANCH  29  31
ENDBRANCH  28  29
ENDBRANCH  27  28
ENDBRANCH  26  27
ENDBRANCH  25  26
ENDBRANCH  24  25
ENDBRANCH   1  24
TORSDOF 25
ENDMDL
MODEL 2
REMARK VINA RESULT:      -8.5      6.242     12.770
REMARK SMILES C[NH2+][C@](C)(C(=O)OCCOCCOCCOCCOC(=O)c1ccc(-c2c3nc(c(-c4c(F)cc(S(=O)(=O)[O-])cc4F)c4ccc([nH]4)c(-c4c(F)cc(S(=O)(=O)[O-])cc4F)c4nc(c(-c5c(F)cc(S(=O)(=O)[O-])cc5F)c5ccc2[nH]5)C=C4)C=C3)cc1)c1cccc(Cl)c1
REMARK SMILES IDX 14 1 13 2 12 3 11 4 10 5 9 6 8 7 7 8 5 9 6 10 3 11 4 12 2 13
REMARK SMILES IDX 1 14 88 17 89 18 94 19 90 20 92 21 91 22 93 23 15 24 16 25
REMARK SMILES IDX 17 26 18 27 19 28 20 29 21 30 22 31 23 32 87 33 24 34 86 35
REMARK SMILES IDX 25 36 26 37 27 38 80 39 28 40 85 41 79 42 81 43 29 44 84 45
REMARK SMILES IDX 78 46 77 47 30 49 64 50 43 51 63 52 44 53 47 54 62 55 82 56
REMARK SMILES IDX 45 57 46 58 61 60 83 61 48 62 31 63 32 64 41 65 33 66 34 67
REMARK SMILES IDX 40 68 42 69 35 70 36 71 37 72 38 73 39 74 65 75 66 76 75 77
REMARK SMILES IDX 67 78 68 79 74 80 76 81 69 82 70 83 71 84 72 85 73 86 49 87
REMARK SMILES IDX 50 88 59 89 51 90 52 91 58 92 60 93 53 94 54 95 55 96 56 97
REMARK SMILES IDX 57 98
REMARK H PARENT 2 15 2 16 81 48 47 59
REMARK Flexibility Score: inf
ROOT
ATOM      1  C   UNL A   1      47.519  25.116  24.272  1.00  0.00     0.188 C 
ENDROOT
BRANCH   1   2
ATOM      2  O   UNL A   1      46.857  26.353  24.486  1.00  0.00    -0.377 OA
BRANCH   2   3
ATOM      3  C   UNL A   1      46.900  26.854  25.809  1.00  0.00     0.188 C 
BRANCH   3   4
ATOM      4  C   UNL A   1      45.640  26.687  26.661  1.00  0.00     0.188 C 
BRANCH   4   5
ATOM      5  O   UNL A   1      45.994  26.697  28.034  1.00  0.00    -0.376 OA
BRANCH   5   6
ATOM      6  C   UNL A   1      46.382  27.902  28.660  1.00  0.00     0.202 C 
BRANCH   6   7
ATOM      7  C   UNL A   1      45.774  29.270  28.291  1.00  0.00     0.261 C 
BRANCH   7   8
ATOM      8  O   UNL A   1      44.877  29.897  29.215  1.00  0.00    -0.458 OA
BRANCH   8   9
ATOM      9  C   UNL A   1      44.242  31.036  28.818  1.00  0.00     0.372 C 
ATOM     10  O   UNL A   1      43.599  31.104  27.775  1.00  0.00    -0.244 OA
BRANCH   9  11
ATOM     11  C   UNL A   1      44.489  32.246  29.827  1.00  0.00     0.216 C 
ATOM     12  C   UNL A   1      44.485  31.865  31.334  1.00  0.00     0.098 C 
BRANCH  11  13
ATOM     13  N   UNL A   1      45.839  32.814  29.502  1.00  0.00    -0.331 N 
ATOM     14  C   UNL A   1      46.673  33.042  30.685  1.00  0.00     0.332 C 
ATOM     15  H   UNL A   1      46.324  32.163  28.886  1.00  0.00     0.347 HD
ATOM     16  H   UNL A   1      45.686  33.721  29.062  1.00  0.00     0.347 HD
ENDBRANCH  11  13
BRANCH  11  17
ATOM     17  C   UNL A   1      43.385  33.341  29.668  1.00  0.00     0.025 A 
ATOM     18  C   UNL A   1      42.243  33.353  30.493  1.00  0.00     0.011 A 
ATOM     19  C   UNL A   1      43.420  34.289  28.625  1.00  0.00     0.031 A 
ATOM     20  C   UNL A   1      41.202  34.271  30.291  1.00  0.00     0.002 A 
ATOM     21  C   UNL A   1      42.376  35.194  28.416  1.00  0.00     0.041 A 
ATOM     22  C   UNL A   1      41.266  35.191  29.248  1.00  0.00     0.020 A 
ATOM     23  Cl  UNL A   1      42.460  36.303  27.101  1.00  0.00    -0.084 Cl
ENDBRANCH  11  17
ENDBRANCH   9  11
ENDBRANCH   8   9
ENDBRANCH   7   8
ENDBRANCH   6   7
ENDBRANCH   5   6
ENDBRANCH   4   5
ENDBRANCH   3   4
ENDBRANCH   2   3
ENDBRANCH   1   2
BRANCH   1  24
ATOM     24  C   UNL A   1      46.612  23.900  24.553  1.00  0.00     0.188 C 
BRANCH  24  25
ATOM     25  O   UNL A   1      45.206  23.926  24.295  1.00  0.00    -0.376 OA
BRANCH  25  26
ATOM     26  C   UNL A   1      44.467  22.722  24.192  1.00  0.00     0.202 C 
BRANCH  26  27
ATOM     27  C   UNL A   1      43.260  22.590  25.132  1.00  0.00     0.261 C 
BRANCH  27  28
ATOM     28  O   UNL A   1      42.542  23.801  25.405  1.00  0.00    -0.460 OA
BRANCH  28  29
ATOM     29  C   UNL A   1      41.390  23.665  26.108  1.00  0.00     0.338 C 
ATOM     30  O   UNL A   1      40.653  22.694  26.143  1.00  0.00    -0.246 OA
BRANCH  29  31
ATOM     31  C   UNL A   1      41.217  24.861  26.964  1.00  0.00     0.060 A 
ATOM     32  C   UNL A   1      42.081  25.953  26.792  1.00  0.00     0.016 A 
ATOM     33  C   UNL A   1      40.202  24.911  27.923  1.00  0.00     0.016 A 
ATOM     34  C   UNL A   1      41.930  27.098  27.575  1.00  0.00     0.010 A 
ATOM     35  C   UNL A   1      40.078  26.040  28.734  1.00  0.00     0.010 A 
ATOM     36  C   UNL A   1      40.952  27.130  28.576  1.00  0.00    -0.014 A 
BRANCH  36  37
ATOM     37  C   UNL A   1      40.969  28.203  29.598  1.00  0.00     0.031 A 
ATOM     38  C   UNL A   1      42.024  28.140  30.667  1.00  0.00     0.074 A 
ATOM     39  C   UNL A   1      40.063  29.196  29.591  1.00  0.00     0.049 A 
ATOM     40  N   UNL A   1      42.178  28.888  31.726  1.00  0.00    -0.248 NA
ATOM     41  C   UNL A   1      43.040  27.084  30.517  1.00  0.00     0.031 C 
ATOM     42  C   UNL A   1      39.033  29.396  28.573  1.00  0.00     0.029 A 
ATOM     43  N   UNL A   1      39.857  30.217  30.485  1.00  0.00    -0.354 N 
ATOM     44  C   UNL A   1      43.307  28.396  32.370  1.00  0.00     0.074 A 
ATOM     45  C   UNL A   1      43.782  27.270  31.596  1.00  0.00     0.031 C 
ATOM     46  C   UNL A   1      38.289  30.464  28.911  1.00  0.00     0.029 A 
ATOM     47  C   UNL A   1      38.764  30.997  30.188  1.00  0.00     0.049 A 
ATOM     48  H   UNL A   1      40.437  30.376  31.264  1.00  0.00     0.167 HD
ATOM     49  C   UNL A   1      43.895  28.843  33.504  1.00  0.00     0.037 A 
ATOM     50  C   UNL A   1      38.199  32.001  30.887  1.00  0.00     0.037 A 
ATOM     51  C   UNL A   1      43.398  29.944  34.284  1.00  0.00     0.049 A 
ATOM     52  C   UNL A   1      38.799  32.408  32.211  1.00  0.00     0.074 A 
ATOM     53  C   UNL A   1      43.912  30.473  35.453  1.00  0.00     0.029 A 
ATOM     54  N   UNL A   1      42.260  30.677  33.978  1.00  0.00    -0.354 N 
ATOM     55  N   UNL A   1      39.870  31.942  32.808  1.00  0.00    -0.248 NA
ATOM     56  C   UNL A   1      38.109  33.468  32.958  1.00  0.00     0.031 C 
ATOM     57  C   UNL A   1      43.057  31.494  35.882  1.00  0.00     0.029 A 
ATOM     58  C   UNL A   1      42.038  31.635  34.951  1.00  0.00     0.049 A 
ATOM     59  H   UNL A   1      41.694  30.537  33.185  1.00  0.00     0.167 HD
ATOM     60  C   UNL A   1      39.995  32.669  33.989  1.00  0.00     0.074 A 
ATOM     61  C   UNL A   1      38.895  33.609  34.017  1.00  0.00     0.031 C 
ATOM     62  C   UNL A   1      40.938  32.568  34.960  1.00  0.00     0.037 A 
BRANCH  49  63
ATOM     63  C   UNL A   1      45.113  28.106  33.982  1.00  0.00     0.058 A 
ATOM     64  C   UNL A   1      46.408  28.510  33.618  1.00  0.00     0.135 A 
ATOM     65  C   UNL A   1      44.986  26.977  34.807  1.00  0.00     0.135 A 
ATOM     66  F   UNL A   1      46.585  29.569  32.812  1.00  0.00    -0.206 F 
ATOM     67  C   UNL A   1      47.532  27.800  34.027  1.00  0.00     0.059 A 
ATOM     68  C   UNL A   1      46.097  26.269  35.250  1.00  0.00     0.059 A 
ATOM     69  F   UNL A   1      43.771  26.546  35.179  1.00  0.00    -0.206 F 
ATOM     70  C   UNL A   1      47.366  26.678  34.840  1.00  0.00     0.060 A 
BRANCH  70  71
ATOM     71  S   UNL A   1      48.832  25.756  35.350  1.00  0.00     0.124 S 
ATOM     72  O   UNL A   1      49.876  26.420  34.574  1.00  0.00    -0.237 OA
ATOM     73  O   UNL A   1      48.866  25.993  36.788  1.00  0.00    -0.237 OA
ATOM     74  O   UNL A   1      48.529  24.386  34.950  1.00  0.00    -0.744 OA
ENDBRANCH  70  71
ENDBRANCH  49  63
BRANCH  50  75
ATOM     75  C   UNL A   1      36.982  32.681  30.366  1.00  0.00     0.058 A 
ATOM     76  C   UNL A   1      35.702  32.303  30.800  1.00  0.00     0.135 A 
ATOM     77  C   UNL A   1      37.072  33.719  29.426  1.00  0.00     0.135 A 
ATOM     78  F   UNL A   1      35.562  31.304  31.684  1.00  0.00    -0.206 F 
ATOM     79  C   UNL A   1      34.556  32.927  30.320  1.00  0.00     0.059 A 
ATOM     80  C   UNL A   1      35.941  34.374  28.948  1.00  0.00     0.059 A 
ATOM     81  F   UNL A   1      38.272  34.122  28.981  1.00  0.00    -0.206 F 
ATOM     82  C   UNL A   1      34.686  33.968  29.398  1.00  0.00     0.060 A 
BRANCH  82  83
ATOM     83  S   UNL A   1      33.195  34.818  28.835  1.00  0.00     0.124 S 
ATOM     84  O   UNL A   1      32.483  35.028  30.090  1.00  0.00    -0.237 OA
ATOM     85  O   UNL A   1      33.744  36.013  28.203  1.00  0.00    -0.237 OA
ATOM     86  O   UNL A   1      32.590  33.857  27.916  1.00  0.00    -0.744 OA
ENDBRANCH  82  83
ENDBRANCH  50  75
BRANCH  62  87
ATOM     87  C   UNL A   1      40.846  33.515  36.124  1.00  0.00     0.058 A 
ATOM     88  C   UNL A   1      41.478  34.768  36.106  1.00  0.00     0.135 A 
ATOM     89  C   UNL A   1      40.045  33.200  37.234  1.00  0.00     0.135 A 
ATOM     90  F   UNL A   1      42.261  35.115  35.073  1.00  0.00    -0.206 F 
ATOM     91  C   UNL A   1      41.326  35.672  37.152  1.00  0.00     0.059 A 
ATOM     92  C   UNL A   1      39.858  34.099  38.279  1.00  0.00     0.059 A 
ATOM     93  F   UNL A   1      39.411  32.018  37.295  1.00  0.00    -0.206 F 
ATOM     94  C   UNL A   1      40.507  35.331  38.232  1.00  0.00     0.060 A 
BRANCH  94  95
ATOM     95  S   UNL A   1      40.271  36.538  39.554  1.00  0.00     0.124 S 
ATOM     96  O   UNL A   1      39.344  35.835  40.433  1.00  0.00    -0.237 OA
ATOM     97  O   UNL A   1      41.626  36.709  40.067  1.00  0.00    -0.237 OA
ATOM     98  O   UNL A   1      39.720  37.699  38.859  1.00  0.00    -0.744 OA
ENDBRANCH  94  95
ENDBRANCH  62  87
ENDBRANCH  36  37
ENDBRANCH  29  31
ENDBRANCH  28  29
ENDBRANCH  27  28
ENDBRANCH  26  27
ENDBRANCH  25  26
ENDBRANCH  24  25
ENDBRANCH   1  24
TORSDOF 25
ENDMDL
MODEL 3
REMARK VINA RESULT:      -8.0      4.095     10.105
REMARK SMILES C[NH2+][C@](C)(C(=O)OCCOCCOCCOCCOC(=O)c1ccc(-c2c3nc(c(-c4c(F)cc(S(=O)(=O)[O-])cc4F)c4ccc([nH]4)c(-c4c(F)cc(S(=O)(=O)[O-])cc4F)c4nc(c(-c5c(F)cc(S(=O)(=O)[O-])cc5F)c5ccc2[nH]5)C=C4)C=C3)cc1)c1cccc(Cl)c1
REMARK SMILES IDX 14 1 13 2 12 3 11 4 10 5 9 6 8 7 7 8 5 9 6 10 3 11 4 12 2 13
REMARK SMILES IDX 1 14 88 17 89 18 94 19 90 20 92 21 91 22 93 23 15 24 16 25
REMARK SMILES IDX 17 26 18 27 19 28 20 29 21 30 22 31 23 32 87 33 24 34 86 35
REMARK SMILES IDX 25 36 26 37 27 38 80 39 28 40 85 41 79 42 81 43 29 44 84 45
REMARK SMILES IDX 78 46 77 47 30 49 64 50 43 51 63 52 44 53 47 54 62 55 82 56
REMARK SMILES IDX 45 57 46 58 61 60 83 61 48 62 31 63 32 64 41 65 33 66 34 67
REMARK SMILES IDX 40 68 42 69 35 70 36 71 37 72 38 73 39 74 65 75 66 76 75 77
REMARK SMILES IDX 67 78 68 79 74 80 76 81 69 82 70 83 71 84 72 85 73 86 49 87
REMARK SMILES IDX 50 88 59 89 51 90 52 91 58 92 60 93 53 94 54 95 55 96 56 97
REMARK SMILES IDX 57 98
REMARK H PARENT 2 15 2 16 81 48 47 59
REMARK Flexibility Score: inf
ROOT
ATOM      1  C   UNL A   1      33.281  35.317  30.103  1.00  0.00     0.188 C 
ENDROOT
BRANCH   1   2
ATOM      2  O   UNL A   1      33.142  34.108  29.374  1.00  0.00    -0.377 OA
BRANCH   2   3
ATOM      3  C   UNL A   1      34.089  33.897  28.343  1.00  0.00     0.188 C 
BRANCH   3   4
ATOM      4  C   UNL A   1      35.245  32.939  28.641  1.00  0.00     0.188 C 
BRANCH   4   5
ATOM      5  O   UNL A   1      35.485  32.125  27.506  1.00  0.00    -0.376 OA
BRANCH   5   6
ATOM      6  C   UNL A   1      35.272  30.731  27.571  1.00  0.00     0.202 C 
BRANCH   6   7
ATOM      7  C   UNL A   1      33.865  30.102  27.642  1.00  0.00     0.261 C 
BRANCH   7   8
ATOM      8  O   UNL A   1      33.520  29.078  26.702  1.00  0.00    -0.458 OA
BRANCH   8   9
ATOM      9  C   UNL A   1      32.384  28.361  26.927  1.00  0.00     0.372 C 
ATOM     10  O   UNL A   1      31.512  28.731  27.706  1.00  0.00    -0.244 OA
BRANCH   9  11
ATOM     11  C   UNL A   1      32.366  26.989  26.112  1.00  0.00     0.216 C 
ATOM     12  C   UNL A   1      33.740  26.273  25.988  1.00  0.00     0.098 C 
BRANCH  11  13
ATOM     13  N   UNL A   1      31.433  26.065  26.837  1.00  0.00    -0.331 N 
ATOM     14  C   UNL A   1      31.651  24.652  26.517  1.00  0.00     0.332 C 
ATOM     15  H   UNL A   1      31.565  26.194  27.840  1.00  0.00     0.347 HD
ATOM     16  H   UNL A   1      30.486  26.299  26.539  1.00  0.00     0.347 HD
ENDBRANCH  11  13
BRANCH  11  17
ATOM     17  C   UNL A   1      31.877  27.216  24.645  1.00  0.00     0.025 A 
ATOM     18  C   UNL A   1      30.763  28.032  24.363  1.00  0.00     0.011 A 
ATOM     19  C   UNL A   1      32.446  26.527  23.554  1.00  0.00     0.031 A 
ATOM     20  C   UNL A   1      30.258  28.160  23.062  1.00  0.00     0.002 A 
ATOM     21  C   UNL A   1      31.934  26.646  22.260  1.00  0.00     0.041 A 
ATOM     22  C   UNL A   1      30.842  27.462  22.007  1.00  0.00     0.020 A 
ATOM     23  Cl  UNL A   1      32.651  25.750  20.975  1.00  0.00    -0.084 Cl
ENDBRANCH  11  17
ENDBRANCH   9  11
ENDBRANCH   8   9
ENDBRANCH   7   8
ENDBRANCH   6   7
ENDBRANCH   5   6
ENDBRANCH   4   5
ENDBRANCH   3   4
ENDBRANCH   2   3
ENDBRANCH   1   2
BRANCH   1  24
ATOM     24  C   UNL A   1      34.006  35.119  31.450  1.00  0.00     0.188 C 
BRANCH  24  25
ATOM     25  O   UNL A   1      33.392  34.446  32.551  1.00  0.00    -0.376 OA
BRANCH  25  26
ATOM     26  C   UNL A   1      33.872  33.187  32.987  1.00  0.00     0.202 C 
BRANCH  26  27
ATOM     27  C   UNL A   1      34.908  32.509  32.078  1.00  0.00     0.261 C 
BRANCH  27  28
ATOM     28  O   UNL A   1      36.005  31.871  32.744  1.00  0.00    -0.460 OA
BRANCH  28  29
ATOM     29  C   UNL A   1      36.609  30.863  32.067  1.00  0.00     0.338 C 
ATOM     30  O   UNL A   1      36.117  29.801  31.725  1.00  0.00    -0.246 OA
BRANCH  29  31
ATOM     31  C   UNL A   1      37.965  31.308  31.671  1.00  0.00     0.060 A 
ATOM     32  C   UNL A   1      38.148  31.897  30.412  1.00  0.00     0.016 A 
ATOM     33  C   UNL A   1      39.048  31.155  32.541  1.00  0.00     0.016 A 
ATOM     34  C   UNL A   1      39.413  32.339  30.020  1.00  0.00     0.010 A 
ATOM     35  C   UNL A   1      40.320  31.559  32.132  1.00  0.00     0.010 A 
ATOM     36  C   UNL A   1      40.511  32.135  30.865  1.00  0.00    -0.014 A 
BRANCH  36  37
ATOM     37  C   UNL A   1      41.888  32.325  30.352  1.00  0.00     0.031 A 
ATOM     38  C   UNL A   1      42.498  33.695  30.464  1.00  0.00     0.074 A 
ATOM     39  C   UNL A   1      42.574  31.318  29.785  1.00  0.00     0.049 A 
ATOM     40  N   UNL A   1      43.632  34.139  29.994  1.00  0.00    -0.248 NA
ATOM     41  C   UNL A   1      41.715  34.697  31.208  1.00  0.00     0.031 C 
ATOM     42  C   UNL A   1      42.111  29.935  29.675  1.00  0.00     0.029 A 
ATOM     43  N   UNL A   1      43.805  31.311  29.178  1.00  0.00    -0.354 N 
ATOM     44  C   UNL A   1      43.701  35.472  30.383  1.00  0.00     0.074 A 
ATOM     45  C   UNL A   1      42.485  35.769  31.106  1.00  0.00     0.031 C 
ATOM     46  C   UNL A   1      43.040  29.217  29.020  1.00  0.00     0.029 A 
ATOM     47  C   UNL A   1      44.142  30.097  28.628  1.00  0.00     0.049 A 
ATOM     48  H   UNL A   1      44.391  32.101  29.140  1.00  0.00     0.167 HD
ATOM     49  C   UNL A   1      44.691  36.367  30.159  1.00  0.00     0.037 A 
ATOM     50  C   UNL A   1      45.201  29.751  27.870  1.00  0.00     0.037 A 
ATOM     51  C   UNL A   1      45.885  36.072  29.413  1.00  0.00     0.049 A 
ATOM     52  C   UNL A   1      46.237  30.795  27.530  1.00  0.00     0.074 A 
ATOM     53  C   UNL A   1      46.946  36.908  29.120  1.00  0.00     0.029 A 
ATOM     54  N   UNL A   1      46.167  34.845  28.829  1.00  0.00    -0.354 N 
ATOM     55  N   UNL A   1      46.298  32.050  27.908  1.00  0.00    -0.248 NA
ATOM     56  C   UNL A   1      47.340  30.378  26.653  1.00  0.00     0.031 C 
ATOM     57  C   UNL A   1      47.848  36.201  28.316  1.00  0.00     0.029 A 
ATOM     58  C   UNL A   1      47.372  34.908  28.152  1.00  0.00     0.049 A 
ATOM     59  H   UNL A   1      45.594  34.046  28.889  1.00  0.00     0.167 HD
ATOM     60  C   UNL A   1      47.457  32.565  27.335  1.00  0.00     0.074 A 
ATOM     61  C   UNL A   1      48.070  31.484  26.591  1.00  0.00     0.031 C 
ATOM     62  C   UNL A   1      47.969  33.819  27.421  1.00  0.00     0.037 A 
BRANCH  49  63
ATOM     63  C   UNL A   1      44.494  37.757  30.694  1.00  0.00     0.058 A 
ATOM     64  C   UNL A   1      44.952  38.127  31.968  1.00  0.00     0.135 A 
ATOM     65  C   UNL A   1      43.831  38.728  29.927  1.00  0.00     0.135 A 
ATOM     66  F   UNL A   1      45.571  37.230  32.752  1.00  0.00    -0.206 F 
ATOM     67  C   UNL A   1      44.730  39.403  32.477  1.00  0.00     0.059 A 
ATOM     68  C   UNL A   1      43.623  40.017  30.405  1.00  0.00     0.059 A 
ATOM     69  F   UNL A   1      43.369  38.424  28.704  1.00  0.00    -0.206 F 
ATOM     70  C   UNL A   1      44.060  40.340  31.689  1.00  0.00     0.060 A 
BRANCH  70  71
ATOM     71  S   UNL A   1      43.764  41.986  32.369  1.00  0.00     0.124 S 
ATOM     72  O   UNL A   1      43.383  42.729  31.171  1.00  0.00    -0.237 OA
ATOM     73  O   UNL A   1      42.694  41.740  33.329  1.00  0.00    -0.237 OA
ATOM     74  O   UNL A   1      45.052  42.350  32.950  1.00  0.00    -0.744 OA
ENDBRANCH  70  71
ENDBRANCH  49  63
BRANCH  50  75
ATOM     75  C   UNL A   1      45.330  28.360  27.358  1.00  0.00     0.058 A 
ATOM     76  C   UNL A   1      44.535  27.906  26.296  1.00  0.00     0.135 A 
ATOM     77  C   UNL A   1      46.249  27.458  27.917  1.00  0.00     0.135 A 
ATOM     78  F   UNL A   1      43.629  28.724  25.738  1.00  0.00    -0.206 F 
ATOM     79  C   UNL A   1      44.642  26.608  25.807  1.00  0.00     0.059 A 
ATOM     80  C   UNL A   1      46.391  26.162  27.431  1.00  0.00     0.059 A 
ATOM     81  F   UNL A   1      47.037  27.843  28.933  1.00  0.00    -0.206 F 
ATOM     82  C   UNL A   1      45.579  25.744  26.378  1.00  0.00     0.060 A 
BRANCH  82  83
ATOM     83  S   UNL A   1      45.760  24.083  25.690  1.00  0.00     0.124 S 
ATOM     84  O   UNL A   1      46.739  23.493  26.596  1.00  0.00    -0.237 OA
ATOM     85  O   UNL A   1      44.401  23.562  25.788  1.00  0.00    -0.237 OA
ATOM     86  O   UNL A   1      46.227  24.335  24.330  1.00  0.00    -0.744 OA
ENDBRANCH  82  83
ENDBRANCH  50  75
BRANCH  62  87
ATOM     87  C   UNL A   1      49.271  34.091  26.719  1.00  0.00     0.058 A 
ATOM     88  C   UNL A   1      49.312  34.685  25.448  1.00  0.00     0.135 A 
ATOM     89  C   UNL A   1      50.493  33.833  27.362  1.00  0.00     0.135 A 
ATOM     90  F   UNL A   1      48.174  34.945  24.786  1.00  0.00    -0.206 F 
ATOM     91  C   UNL A   1      50.519  35.005  24.836  1.00  0.00     0.059 A 
ATOM     92  C   UNL A   1      51.710  34.169  26.781  1.00  0.00     0.059 A 
ATOM     93  F   UNL A   1      50.508  33.275  28.583  1.00  0.00    -0.206 F 
ATOM     94  C   UNL A   1      51.714  34.750  25.514  1.00  0.00     0.060 A 
BRANCH  94  95
ATOM     95  S   UNL A   1      53.271  35.228  24.733  1.00  0.00     0.124 S 
ATOM     96  O   UNL A   1      52.890  35.284  23.326  1.00  0.00    -0.237 OA
ATOM     97  O   UNL A   1      53.556  36.512  25.365  1.00  0.00    -0.237 OA
ATOM     98  O   UNL A   1      54.179  34.143  25.096  1.00  0.00    -0.744 OA
ENDBRANCH  94  95
ENDBRANCH  62  87
ENDBRANCH  36  37
ENDBRANCH  29  31
ENDBRANCH  28  29
ENDBRANCH  27  28
ENDBRANCH  26  27
ENDBRANCH  25  26
ENDBRANCH  24  25
ENDBRANCH   1  24
TORSDOF 25
ENDMDL
