MODEL 1
REMARK VINA RESULT:      -9.9      0.000      0.000
REMARK SMILES O=C(OCCOCCOCCOCCOC(=O)c1cccc2nc(Cl)c(Cl)nc12)c1ccc(-c2c3nc(c(-c4c(F)cc(S(=O)(=O)[O-])cc4F)c4ccc([nH]4)c(-c4c(F)cc(S(=O)(=O)[O-])cc4F)c4nc(c(-c5c(F)cc(S(=O)(=O)[O-])cc5F)c5ccc2[nH]5)C=C4)C=C3)cc1
REMARK SMILES IDX 7 1 6 2 5 3 4 4 3 5 2 6 1 7 30 8 31 9 95 10 32 11 94 12
REMARK SMILES IDX 33 13 34 14 35 15 88 16 36 17 93 18 87 19 89 20 37 21 92 22
REMARK SMILES IDX 86 23 85 24 38 26 72 27 51 28 71 29 52 30 55 31 70 32 90 33
REMARK SMILES IDX 53 34 54 35 69 37 91 38 56 39 39 40 40 41 49 42 41 43 42 44
REMARK SMILES IDX 48 45 50 46 43 47 44 48 45 49 46 50 47 51 73 52 74 53 83 54
REMARK SMILES IDX 75 55 76 56 82 57 84 58 77 59 78 60 79 61 80 62 81 63 57 64
REMARK SMILES IDX 58 65 67 66 59 67 60 68 66 69 68 70 61 71 62 72 63 73 64 74
REMARK SMILES IDX 65 75 8 76 9 77 10 78 11 79 12 80 13 81 14 82 15 83 16 84
REMARK SMILES IDX 17 85 18 86 19 87 29 88 20 89 22 90 28 91 21 92 23 93 26 94
REMARK SMILES IDX 24 95 27 96 25 97
REMARK H PARENT 89 25 55 36
REMARK Flexibility Score: inf
ROOT
ATOM      1  C   UNL A   1      41.878  20.797  26.334  1.00  0.00     0.188 C 
ENDROOT
BRANCH   1   2
ATOM      2  O   UNL A   1      43.064  21.580  26.297  1.00  0.00    -0.376 OA
BRANCH   2   3
ATOM      3  C   UNL A   1      43.427  22.357  25.166  1.00  0.00     0.202 C 
BRANCH   3   4
ATOM      4  C   UNL A   1      43.013  23.822  25.032  1.00  0.00     0.261 C 
BRANCH   4   5
ATOM      5  O   UNL A   1      42.502  24.541  26.166  1.00  0.00    -0.460 OA
BRANCH   5   6
ATOM      6  C   UNL A   1      41.735  25.660  26.175  1.00  0.00     0.338 C 
ATOM      7  O   UNL A   1      41.350  26.157  25.122  1.00  0.00    -0.246 OA
BRANCH   6   8
ATOM      8  C   UNL A   1      41.634  26.439  27.432  1.00  0.00     0.060 A 
ATOM      9  C   UNL A   1      42.733  27.245  27.778  1.00  0.00     0.016 A 
ATOM     10  C   UNL A   1      40.564  26.308  28.312  1.00  0.00     0.016 A 
ATOM     11  C   UNL A   1      42.797  27.842  29.038  1.00  0.00     0.010 A 
ATOM     12  C   UNL A   1      40.675  26.810  29.608  1.00  0.00     0.010 A 
ATOM     13  C   UNL A   1      41.775  27.608  29.968  1.00  0.00    -0.014 A 
BRANCH  13  14
ATOM     14  C   UNL A   1      41.613  28.491  31.141  1.00  0.00     0.031 A 
ATOM     15  C   UNL A   1      42.382  28.345  32.416  1.00  0.00     0.074 A 
ATOM     16  C   UNL A   1      40.637  29.411  31.007  1.00  0.00     0.049 A 
ATOM     17  N   UNL A   1      42.344  29.122  33.468  1.00  0.00    -0.248 NA
ATOM     18  C   UNL A   1      43.293  27.199  32.548  1.00  0.00     0.031 C 
ATOM     19  C   UNL A   1      39.808  29.573  29.803  1.00  0.00     0.029 A 
ATOM     20  N   UNL A   1      40.144  30.341  31.874  1.00  0.00    -0.354 N 
ATOM     21  C   UNL A   1      43.252  28.592  34.376  1.00  0.00     0.074 A 
ATOM     22  C   UNL A   1      43.793  27.391  33.768  1.00  0.00     0.031 C 
ATOM     23  C   UNL A   1      38.880  30.506  30.029  1.00  0.00     0.029 A 
ATOM     24  C   UNL A   1      39.073  31.036  31.368  1.00  0.00     0.049 A 
ATOM     25  H   UNL A   1      40.517  30.497  32.772  1.00  0.00     0.167 HD
ATOM     26  C   UNL A   1      43.597  29.089  35.590  1.00  0.00     0.037 A 
ATOM     27  C   UNL A   1      38.335  32.015  31.912  1.00  0.00     0.037 A 
ATOM     28  C   UNL A   1      42.995  30.271  36.169  1.00  0.00     0.049 A 
ATOM     29  C   UNL A   1      38.737  32.537  33.254  1.00  0.00     0.074 A 
ATOM     30  C   UNL A   1      43.321  30.909  37.354  1.00  0.00     0.029 A 
ATOM     31  N   UNL A   1      41.930  30.976  35.620  1.00  0.00    -0.354 N 
ATOM     32  N   UNL A   1      39.704  32.121  34.035  1.00  0.00    -0.248 NA
ATOM     33  C   UNL A   1      37.979  33.677  33.777  1.00  0.00     0.031 C 
ATOM     34  C   UNL A   1      42.416  31.955  37.553  1.00  0.00     0.029 A 
ATOM     35  C   UNL A   1      41.565  32.015  36.461  1.00  0.00     0.049 A 
ATOM     36  H   UNL A   1      41.499  30.768  34.761  1.00  0.00     0.167 HD
ATOM     37  C   UNL A   1      39.695  32.970  35.131  1.00  0.00     0.074 A 
ATOM     38  C   UNL A   1      38.629  33.928  34.905  1.00  0.00     0.031 C 
ATOM     39  C   UNL A   1      40.499  32.959  36.219  1.00  0.00     0.037 A 
BRANCH  26  40
ATOM     40  C   UNL A   1      44.692  28.418  36.381  1.00  0.00     0.058 A 
ATOM     41  C   UNL A   1      44.426  27.282  37.163  1.00  0.00     0.135 A 
ATOM     42  C   UNL A   1      46.039  28.791  36.219  1.00  0.00     0.135 A 
ATOM     43  F   UNL A   1      43.162  26.874  37.353  1.00  0.00    -0.206 F 
ATOM     44  C   UNL A   1      45.450  26.539  37.745  1.00  0.00     0.059 A 
ATOM     45  C   UNL A   1      47.080  28.049  36.775  1.00  0.00     0.059 A 
ATOM     46  F   UNL A   1      46.358  29.862  35.475  1.00  0.00    -0.206 F 
ATOM     47  C   UNL A   1      46.775  26.921  37.535  1.00  0.00     0.060 A 
BRANCH  47  48
ATOM     48  S   UNL A   1      48.086  25.902  38.250  1.00  0.00     0.124 S 
ATOM     49  O   UNL A   1      47.853  26.085  39.680  1.00  0.00    -0.237 OA
ATOM     50  O   UNL A   1      47.770  24.578  37.723  1.00  0.00    -0.237 OA
ATOM     51  O   UNL A   1      49.311  26.505  37.735  1.00  0.00    -0.744 OA
ENDBRANCH  47  48
ENDBRANCH  26  40
BRANCH  27  52
ATOM     52  C   UNL A   1      37.230  32.605  31.123  1.00  0.00     0.058 A 
ATOM     53  C   UNL A   1      35.906  32.199  31.337  1.00  0.00     0.135 A 
ATOM     54  C   UNL A   1      37.462  33.648  30.211  1.00  0.00     0.135 A 
ATOM     55  F   UNL A   1      35.638  31.227  32.221  1.00  0.00    -0.206 F 
ATOM     56  C   UNL A   1      34.851  32.781  30.649  1.00  0.00     0.059 A 
ATOM     57  C   UNL A   1      36.418  34.264  29.531  1.00  0.00     0.059 A 
ATOM     58  F   UNL A   1      38.708  34.105  30.013  1.00  0.00    -0.206 F 
ATOM     59  C   UNL A   1      35.118  33.812  29.745  1.00  0.00     0.060 A 
BRANCH  59  60
ATOM     60  S   UNL A   1      33.732  34.562  28.867  1.00  0.00     0.124 S 
ATOM     61  O   UNL A   1      33.353  33.491  27.953  1.00  0.00    -0.237 OA
ATOM     62  O   UNL A   1      32.796  34.838  29.952  1.00  0.00    -0.237 OA
ATOM     63  O   UNL A   1      34.326  35.741  28.244  1.00  0.00    -0.744 OA
ENDBRANCH  59  60
ENDBRANCH  27  52
BRANCH  39  64
ATOM     64  C   UNL A   1      40.266  34.016  37.260  1.00  0.00     0.058 A 
ATOM     65  C   UNL A   1      40.853  35.285  37.156  1.00  0.00     0.135 A 
ATOM     66  C   UNL A   1      39.367  33.789  38.314  1.00  0.00     0.135 A 
ATOM     67  F   UNL A   1      41.734  35.545  36.175  1.00  0.00    -0.206 F 
ATOM     68  C   UNL A   1      40.552  36.298  38.057  1.00  0.00     0.059 A 
ATOM     69  C   UNL A   1      39.028  34.796  39.211  1.00  0.00     0.059 A 
ATOM     70  F   UNL A   1      38.779  32.590  38.457  1.00  0.00    -0.206 F 
ATOM     71  C   UNL A   1      39.624  36.050  39.071  1.00  0.00     0.060 A 
BRANCH  71  72
ATOM     72  S   UNL A   1      39.175  37.406  40.173  1.00  0.00     0.124 S 
ATOM     73  O   UNL A   1      38.337  38.227  39.306  1.00  0.00    -0.237 OA
ATOM     74  O   UNL A   1      38.479  36.709  41.249  1.00  0.00    -0.237 OA
ATOM     75  O   UNL A   1      40.461  37.991  40.538  1.00  0.00    -0.744 OA
ENDBRANCH  71  72
ENDBRANCH  39  64
ENDBRANCH  13  14
ENDBRANCH   6   8
ENDBRANCH   5   6
ENDBRANCH   4   5
ENDBRANCH   3   4
ENDBRANCH   2   3
ENDBRANCH   1   2
BRANCH   1  76
ATOM     76  C   UNL A   1      40.754  21.199  27.280  1.00  0.00     0.188 C 
BRANCH  76  77
ATOM     77  O   UNL A   1      40.294  22.511  27.023  1.00  0.00    -0.377 OA
BRANCH  77  78
ATOM     78  C   UNL A   1      39.067  22.556  26.287  1.00  0.00     0.188 C 
BRANCH  78  79
ATOM     79  C   UNL A   1      38.166  23.822  26.378  1.00  0.00     0.188 C 
BRANCH  79  80
ATOM     80  O   UNL A   1      37.294  23.912  25.261  1.00  0.00    -0.376 OA
BRANCH  80  81
ATOM     81  C   UNL A   1      37.138  22.750  24.468  1.00  0.00     0.202 C 
BRANCH  81  82
ATOM     82  C   UNL A   1      35.814  22.597  23.700  1.00  0.00     0.261 C 
BRANCH  82  83
ATOM     83  O   UNL A   1      35.113  23.802  23.331  1.00  0.00    -0.460 OA
BRANCH  83  84
ATOM     84  C   UNL A   1      33.853  23.735  22.842  1.00  0.00     0.340 C 
ATOM     85  O   UNL A   1      33.521  23.715  21.670  1.00  0.00    -0.246 OA
BRANCH  84  86
ATOM     86  C   UNL A   1      32.926  23.686  23.999  1.00  0.00     0.088 A 
ATOM     87  C   UNL A   1      32.219  22.489  24.181  1.00  0.00     0.018 A 
ATOM     88  C   UNL A   1      32.722  24.803  24.838  1.00  0.00     0.105 A 
ATOM     89  C   UNL A   1      31.335  22.368  25.242  1.00  0.00     0.003 A 
ATOM     90  C   UNL A   1      31.800  24.652  25.911  1.00  0.00     0.091 A 
ATOM     91  N   UNL A   1      33.287  26.025  24.631  1.00  0.00    -0.230 NA
ATOM     92  C   UNL A   1      31.150  23.444  26.104  1.00  0.00     0.031 A 
ATOM     93  N   UNL A   1      31.475  25.657  26.746  1.00  0.00    -0.231 NA
ATOM     94  C   UNL A   1      32.910  27.047  25.444  1.00  0.00     0.167 A 
ATOM     95  C   UNL A   1      32.028  26.862  26.491  1.00  0.00     0.167 A 
ATOM     96  Cl  UNL A   1      33.524  28.578  24.974  1.00  0.00    -0.059 Cl
ATOM     97  Cl  UNL A   1      31.487  28.107  27.541  1.00  0.00    -0.059 Cl
ENDBRANCH  84  86
ENDBRANCH  83  84
ENDBRANCH  82  83
ENDBRANCH  81  82
ENDBRANCH  80  81
ENDBRANCH  79  80
ENDBRANCH  78  79
ENDBRANCH  77  78
ENDBRANCH  76  77
ENDBRANCH   1  76
TORSDOF 23
ENDMDL
MODEL 2
REMARK VINA RESULT:      -9.9      0.843      8.196
REMARK SMILES O=C(OCCOCCOCCOCCOC(=O)c1cccc2nc(Cl)c(Cl)nc12)c1ccc(-c2c3nc(c(-c4c(F)cc(S(=O)(=O)[O-])cc4F)c4ccc([nH]4)c(-c4c(F)cc(S(=O)(=O)[O-])cc4F)c4nc(c(-c5c(F)cc(S(=O)(=O)[O-])cc5F)c5ccc2[nH]5)C=C4)C=C3)cc1
REMARK SMILES IDX 7 1 6 2 5 3 4 4 3 5 2 6 1 7 30 8 31 9 95 10 32 11 94 12
REMARK SMILES IDX 33 13 34 14 35 15 88 16 36 17 93 18 87 19 89 20 37 21 92 22
REMARK SMILES IDX 86 23 85 24 38 26 72 27 51 28 71 29 52 30 55 31 70 32 90 33
REMARK SMILES IDX 53 34 54 35 69 37 91 38 56 39 39 40 40 41 49 42 41 43 42 44
REMARK SMILES IDX 48 45 50 46 43 47 44 48 45 49 46 50 47 51 73 52 74 53 83 54
REMARK SMILES IDX 75 55 76 56 82 57 84 58 77 59 78 60 79 61 80 62 81 63 57 64
REMARK SMILES IDX 58 65 67 66 59 67 60 68 66 69 68 70 61 71 62 72 63 73 64 74
REMARK SMILES IDX 65 75 8 76 9 77 10 78 11 79 12 80 13 81 14 82 15 83 16 84
REMARK SMILES IDX 17 85 18 86 19 87 29 88 20 89 22 90 28 91 21 92 23 93 26 94
REMARK SMILES IDX 24 95 27 96 25 97
REMARK H PARENT 89 25 55 36
REMARK Flexibility Score: inf
ROOT
ATOM      1  C   UNL A   1      41.515  20.317  26.450  1.00  0.00     0.188 C 
ENDROOT
BRANCH   1   2
ATOM      2  O   UNL A   1      42.492  21.190  27.003  1.00  0.00    -0.376 OA
BRANCH   2   3
ATOM      3  C   UNL A   1      43.432  21.885  26.199  1.00  0.00     0.202 C 
BRANCH   3   4
ATOM      4  C   UNL A   1      43.092  23.222  25.541  1.00  0.00     0.261 C 
BRANCH   4   5
ATOM      5  O   UNL A   1      43.022  24.423  26.327  1.00  0.00    -0.460 OA
BRANCH   5   6
ATOM      6  C   UNL A   1      42.245  25.515  26.123  1.00  0.00     0.338 C 
ATOM      7  O   UNL A   1      42.031  25.922  24.986  1.00  0.00    -0.246 OA
BRANCH   6   8
ATOM      8  C   UNL A   1      41.922  26.381  27.282  1.00  0.00     0.060 A 
ATOM      9  C   UNL A   1      42.814  27.429  27.570  1.00  0.00     0.016 A 
ATOM     10  C   UNL A   1      40.856  26.122  28.139  1.00  0.00     0.016 A 
ATOM     11  C   UNL A   1      42.690  28.152  28.757  1.00  0.00     0.010 A 
ATOM     12  C   UNL A   1      40.795  26.765  29.374  1.00  0.00     0.010 A 
ATOM     13  C   UNL A   1      41.690  27.807  29.676  1.00  0.00    -0.014 A 
BRANCH  13  14
ATOM     14  C   UNL A   1      41.291  28.753  30.739  1.00  0.00     0.031 A 
ATOM     15  C   UNL A   1      40.213  29.780  30.590  1.00  0.00     0.074 A 
ATOM     16  C   UNL A   1      42.046  28.678  31.853  1.00  0.00     0.049 A 
ATOM     17  N   UNL A   1      39.760  30.603  31.501  1.00  0.00    -0.248 NA
ATOM     18  C   UNL A   1      39.567  29.921  29.278  1.00  0.00     0.031 C 
ATOM     19  C   UNL A   1      43.154  27.731  32.043  1.00  0.00     0.029 A 
ATOM     20  N   UNL A   1      42.040  29.414  33.002  1.00  0.00    -0.354 N 
ATOM     21  C   UNL A   1      38.747  31.334  30.894  1.00  0.00     0.074 A 
ATOM     22  C   UNL A   1      38.685  30.890  29.515  1.00  0.00     0.031 C 
ATOM     23  C   UNL A   1      43.750  27.977  33.213  1.00  0.00     0.029 A 
ATOM     24  C   UNL A   1      43.045  29.065  33.870  1.00  0.00     0.049 A 
ATOM     25  H   UNL A   1      41.383  30.123  33.189  1.00  0.00     0.167 HD
ATOM     26  C   UNL A   1      37.946  32.272  31.461  1.00  0.00     0.037 A 
ATOM     27  C   UNL A   1      43.356  29.550  35.082  1.00  0.00     0.037 A 
ATOM     28  C   UNL A   1      38.078  32.708  32.834  1.00  0.00     0.049 A 
ATOM     29  C   UNL A   1      42.458  30.586  35.677  1.00  0.00     0.074 A 
ATOM     30  C   UNL A   1      37.275  33.591  33.536  1.00  0.00     0.029 A 
ATOM     31  N   UNL A   1      39.089  32.316  33.705  1.00  0.00    -0.354 N 
ATOM     32  N   UNL A   1      41.406  31.158  35.143  1.00  0.00    -0.248 NA
ATOM     33  C   UNL A   1      42.761  31.021  37.043  1.00  0.00     0.031 C 
ATOM     34  C   UNL A   1      37.834  33.782  34.803  1.00  0.00     0.029 A 
ATOM     35  C   UNL A   1      38.949  32.968  34.919  1.00  0.00     0.049 A 
ATOM     36  H   UNL A   1      39.798  31.670  33.489  1.00  0.00     0.167 HD
ATOM     37  C   UNL A   1      40.897  31.998  36.122  1.00  0.00     0.074 A 
ATOM     38  C   UNL A   1      41.756  31.853  37.282  1.00  0.00     0.031 C 
ATOM     39  C   UNL A   1      39.816  32.810  36.063  1.00  0.00     0.037 A 
BRANCH  26  40
ATOM     40  C   UNL A   1      36.826  32.876  30.652  1.00  0.00     0.058 A 
ATOM     41  C   UNL A   1      35.505  32.418  30.792  1.00  0.00     0.135 A 
ATOM     42  C   UNL A   1      37.032  34.030  29.875  1.00  0.00     0.135 A 
ATOM     43  F   UNL A   1      35.243  31.324  31.523  1.00  0.00    -0.206 F 
ATOM     44  C   UNL A   1      34.434  33.084  30.201  1.00  0.00     0.059 A 
ATOM     45  C   UNL A   1      35.972  34.724  29.292  1.00  0.00     0.059 A 
ATOM     46  F   UNL A   1      38.270  34.523  29.713  1.00  0.00    -0.206 F 
ATOM     47  C   UNL A   1      34.675  34.244  29.464  1.00  0.00     0.060 A 
BRANCH  47  48
ATOM     48  S   UNL A   1      33.260  35.122  28.761  1.00  0.00     0.124 S 
ATOM     49  O   UNL A   1      32.605  34.063  27.999  1.00  0.00    -0.237 OA
ATOM     50  O   UNL A   1      32.550  35.572  29.955  1.00  0.00    -0.237 OA
ATOM     51  O   UNL A   1      33.872  36.179  27.962  1.00  0.00    -0.744 OA
ENDBRANCH  47  48
ENDBRANCH  26  40
BRANCH  27  52
ATOM     52  C   UNL A   1      44.503  28.968  35.816  1.00  0.00     0.058 A 
ATOM     53  C   UNL A   1      45.787  29.511  35.676  1.00  0.00     0.135 A 
ATOM     54  C   UNL A   1      44.323  27.925  36.739  1.00  0.00     0.135 A 
ATOM     55  F   UNL A   1      45.997  30.528  34.828  1.00  0.00    -0.206 F 
ATOM     56  C   UNL A   1      46.863  29.017  36.400  1.00  0.00     0.059 A 
ATOM     57  C   UNL A   1      45.380  27.432  37.494  1.00  0.00     0.059 A 
ATOM     58  F   UNL A   1      43.100  27.410  36.944  1.00  0.00    -0.206 F 
ATOM     59  C   UNL A   1      46.650  27.975  37.305  1.00  0.00     0.060 A 
BRANCH  59  60
ATOM     60  S   UNL A   1      48.059  27.352  38.243  1.00  0.00     0.124 S 
ATOM     61  O   UNL A   1      48.574  26.324  37.347  1.00  0.00    -0.237 OA
ATOM     62  O   UNL A   1      48.883  28.548  38.386  1.00  0.00    -0.237 OA
ATOM     63  O   UNL A   1      47.453  26.864  39.479  1.00  0.00    -0.744 OA
ENDBRANCH  59  60
ENDBRANCH  27  52
BRANCH  39  64
ATOM     64  C   UNL A   1      39.489  33.611  37.291  1.00  0.00     0.058 A 
ATOM     65  C   UNL A   1      38.623  33.116  38.276  1.00  0.00     0.135 A 
ATOM     66  C   UNL A   1      40.127  34.839  37.529  1.00  0.00     0.135 A 
ATOM     67  F   UNL A   1      37.974  31.955  38.086  1.00  0.00    -0.206 F 
ATOM     68  C   UNL A   1      38.405  33.807  39.461  1.00  0.00     0.059 A 
ATOM     69  C   UNL A   1      39.947  35.533  38.720  1.00  0.00     0.059 A 
ATOM     70  F   UNL A   1      40.965  35.355  36.615  1.00  0.00    -0.206 F 
ATOM     71  C   UNL A   1      39.086  35.005  39.682  1.00  0.00     0.060 A 
BRANCH  71  72
ATOM     72  S   UNL A   1      38.863  35.838  41.267  1.00  0.00     0.124 S 
ATOM     73  O   UNL A   1      40.070  35.440  41.984  1.00  0.00    -0.237 OA
ATOM     74  O   UNL A   1      38.797  37.241  40.870  1.00  0.00    -0.237 OA
ATOM     75  O   UNL A   1      37.617  35.276  41.778  1.00  0.00    -0.744 OA
ENDBRANCH  71  72
ENDBRANCH  39  64
ENDBRANCH  13  14
ENDBRANCH   6   8
ENDBRANCH   5   6
ENDBRANCH   4   5
ENDBRANCH   3   4
ENDBRANCH   2   3
ENDBRANCH   1   2
BRANCH   1  76
ATOM     76  C   UNL A   1      40.076  20.801  26.325  1.00  0.00     0.188 C 
BRANCH  76  77
ATOM     77  O   UNL A   1      39.777  21.811  27.268  1.00  0.00    -0.377 OA
BRANCH  77  78
ATOM     78  C   UNL A   1      39.508  23.087  26.677  1.00  0.00     0.188 C 
BRANCH  78  79
ATOM     79  C   UNL A   1      38.033  23.554  26.504  1.00  0.00     0.188 C 
BRANCH  79  80
ATOM     80  O   UNL A   1      37.725  23.784  25.137  1.00  0.00    -0.376 OA
BRANCH  80  81
ATOM     81  C   UNL A   1      36.360  23.739  24.765  1.00  0.00     0.202 C 
BRANCH  81  82
ATOM     82  C   UNL A   1      35.942  22.653  23.760  1.00  0.00     0.261 C 
BRANCH  82  83
ATOM     83  O   UNL A   1      34.545  22.299  23.703  1.00  0.00    -0.460 OA
BRANCH  83  84
ATOM     84  C   UNL A   1      33.626  23.208  23.304  1.00  0.00     0.340 C 
ATOM     85  O   UNL A   1      33.571  23.770  22.224  1.00  0.00    -0.246 OA
BRANCH  84  86
ATOM     86  C   UNL A   1      32.676  23.407  24.426  1.00  0.00     0.088 A 
ATOM     87  C   UNL A   1      31.827  22.331  24.721  1.00  0.00     0.018 A 
ATOM     88  C   UNL A   1      32.590  24.633  25.120  1.00  0.00     0.105 A 
ATOM     89  C   UNL A   1      30.913  22.442  25.758  1.00  0.00     0.003 A 
ATOM     90  C   UNL A   1      31.634  24.721  26.171  1.00  0.00     0.091 A 
ATOM     91  N   UNL A   1      33.301  25.747  24.791  1.00  0.00    -0.230 NA
ATOM     92  C   UNL A   1      30.840  23.628  26.481  1.00  0.00     0.031 A 
ATOM     93  N   UNL A   1      31.415  25.850  26.870  1.00  0.00    -0.231 NA
ATOM     94  C   UNL A   1      33.033  26.896  25.465  1.00  0.00     0.167 A 
ATOM     95  C   UNL A   1      32.114  26.943  26.495  1.00  0.00     0.167 A 
ATOM     96  Cl  UNL A   1      33.836  28.278  24.841  1.00  0.00    -0.059 Cl
ATOM     97  Cl  UNL A   1      31.704  28.359  27.373  1.00  0.00    -0.059 Cl
ENDBRANCH  84  86
ENDBRANCH  83  84
ENDBRANCH  82  83
ENDBRANCH  81  82
ENDBRANCH  80  81
ENDBRANCH  79  80
ENDBRANCH  78  79
ENDBRANCH  77  78
ENDBRANCH  76  77
ENDBRANCH   1  76
TORSDOF 23
ENDMDL
MODEL 3
REMARK VINA RESULT:      -9.9      1.485      2.766
REMARK SMILES O=C(OCCOCCOCCOCCOC(=O)c1cccc2nc(Cl)c(Cl)nc12)c1ccc(-c2c3nc(c(-c4c(F)cc(S(=O)(=O)[O-])cc4F)c4ccc([nH]4)c(-c4c(F)cc(S(=O)(=O)[O-])cc4F)c4nc(c(-c5c(F)cc(S(=O)(=O)[O-])cc5F)c5ccc2[nH]5)C=C4)C=C3)cc1
REMARK SMILES IDX 7 1 6 2 5 3 4 4 3 5 2 6 1 7 30 8 31 9 95 10 32 11 94 12
REMARK SMILES IDX 33 13 34 14 35 15 88 16 36 17 93 18 87 19 89 20 37 21 92 22
REMARK SMILES IDX 86 23 85 24 38 26 72 27 51 28 71 29 52 30 55 31 70 32 90 33
REMARK SMILES IDX 53 34 54 35 69 37 91 38 56 39 39 40 40 41 49 42 41 43 42 44
REMARK SMILES IDX 48 45 50 46 43 47 44 48 45 49 46 50 47 51 73 52 74 53 83 54
REMARK SMILES IDX 75 55 76 56 82 57 84 58 77 59 78 60 79 61 80 62 81 63 57 64
REMARK SMILES IDX 58 65 67 66 59 67 60 68 66 69 68 70 61 71 62 72 63 73 64 74
REMARK SMILES IDX 65 75 8 76 9 77 10 78 11 79 12 80 13 81 14 82 15 83 16 84
REMARK SMILES IDX 17 85 18 86 19 87 29 88 20 89 22 90 28 91 21 92 23 93 26 94
REMARK SMILES IDX 24 95 27 96 25 97
REMARK H PARENT 89 25 55 36
REMARK Flexibility Score: inf
ROOT
ATOM      1  C   UNL A   1      38.334  23.323  26.121  1.00  0.00     0.188 C 
ENDROOT
BRANCH   1   2
ATOM      2  O   UNL A   1      39.174  22.180  26.223  1.00  0.00    -0.376 OA
BRANCH   2   3
ATOM      3  C   UNL A   1      40.315  22.148  27.065  1.00  0.00     0.202 C 
BRANCH   3   4
ATOM      4  C   UNL A   1      41.720  22.421  26.526  1.00  0.00     0.261 C 
BRANCH   4   5
ATOM      5  O   UNL A   1      42.423  23.617  26.901  1.00  0.00    -0.460 OA
BRANCH   5   6
ATOM      6  C   UNL A   1      42.114  24.902  26.598  1.00  0.00     0.338 C 
ATOM      7  O   UNL A   1      42.266  25.325  25.456  1.00  0.00    -0.246 OA
BRANCH   6   8
ATOM      8  C   UNL A   1      41.894  25.858  27.708  1.00  0.00     0.060 A 
ATOM      9  C   UNL A   1      40.685  25.751  28.419  1.00  0.00     0.016 A 
ATOM     10  C   UNL A   1      42.770  26.905  27.982  1.00  0.00     0.016 A 
ATOM     11  C   UNL A   1      40.318  26.739  29.334  1.00  0.00     0.010 A 
ATOM     12  C   UNL A   1      42.357  27.947  28.810  1.00  0.00     0.010 A 
ATOM     13  C   UNL A   1      41.145  27.854  29.518  1.00  0.00    -0.014 A 
BRANCH  13  14
ATOM     14  C   UNL A   1      40.992  28.712  30.711  1.00  0.00     0.031 A 
ATOM     15  C   UNL A   1      41.745  28.516  31.990  1.00  0.00     0.074 A 
ATOM     16  C   UNL A   1      40.039  29.656  30.591  1.00  0.00     0.049 A 
ATOM     17  N   UNL A   1      41.714  29.267  33.060  1.00  0.00    -0.248 NA
ATOM     18  C   UNL A   1      42.628  27.347  32.102  1.00  0.00     0.031 C 
ATOM     19  C   UNL A   1      39.227  29.868  29.384  1.00  0.00     0.029 A 
ATOM     20  N   UNL A   1      39.559  30.576  31.477  1.00  0.00    -0.354 N 
ATOM     21  C   UNL A   1      42.601  28.694  33.963  1.00  0.00     0.074 A 
ATOM     22  C   UNL A   1      43.119  27.497  33.330  1.00  0.00     0.031 C 
ATOM     23  C   UNL A   1      38.318  30.817  29.624  1.00  0.00     0.029 A 
ATOM     24  C   UNL A   1      38.510  31.308  30.978  1.00  0.00     0.049 A 
ATOM     25  H   UNL A   1      39.926  30.702  32.381  1.00  0.00     0.167 HD
ATOM     26  C   UNL A   1      42.945  29.153  35.193  1.00  0.00     0.037 A 
ATOM     27  C   UNL A   1      37.789  32.291  31.539  1.00  0.00     0.037 A 
ATOM     28  C   UNL A   1      42.365  30.334  35.795  1.00  0.00     0.049 A 
ATOM     29  C   UNL A   1      38.189  32.770  32.897  1.00  0.00     0.074 A 
ATOM     30  C   UNL A   1      42.693  30.935  36.998  1.00  0.00     0.029 A 
ATOM     31  N   UNL A   1      41.322  31.077  35.254  1.00  0.00    -0.354 N 
ATOM     32  N   UNL A   1      39.139  32.312  33.677  1.00  0.00    -0.248 NA
ATOM     33  C   UNL A   1      37.452  33.914  33.441  1.00  0.00     0.031 C 
ATOM     34  C   UNL A   1      41.810  31.996  37.215  1.00  0.00     0.029 A 
ATOM     35  C   UNL A   1      40.972  32.103  36.117  1.00  0.00     0.049 A 
ATOM     36  H   UNL A   1      40.895  30.900  34.386  1.00  0.00     0.167 HD
ATOM     37  C   UNL A   1      39.138  33.134  34.793  1.00  0.00     0.074 A 
ATOM     38  C   UNL A   1      38.096  34.121  34.582  1.00  0.00     0.031 C 
ATOM     39  C   UNL A   1      39.931  33.077  35.888  1.00  0.00     0.037 A 
BRANCH  26  40
ATOM     40  C   UNL A   1      44.016  28.437  35.977  1.00  0.00     0.058 A 
ATOM     41  C   UNL A   1      43.692  27.384  36.848  1.00  0.00     0.135 A 
ATOM     42  C   UNL A   1      45.380  28.672  35.726  1.00  0.00     0.135 A 
ATOM     43  F   UNL A   1      42.408  27.107  37.125  1.00  0.00    -0.206 F 
ATOM     44  C   UNL A   1      44.675  26.589  37.433  1.00  0.00     0.059 A 
ATOM     45  C   UNL A   1      46.379  27.876  36.284  1.00  0.00     0.059 A 
ATOM     46  F   UNL A   1      45.753  29.658  34.894  1.00  0.00    -0.206 F 
ATOM     47  C   UNL A   1      46.016  26.833  37.135  1.00  0.00     0.060 A 
BRANCH  47  48
ATOM     48  S   UNL A   1      47.266  25.747  37.858  1.00  0.00     0.124 S 
ATOM     49  O   UNL A   1      46.701  25.486  39.179  1.00  0.00    -0.237 OA
ATOM     50  O   UNL A   1      47.264  24.615  36.936  1.00  0.00    -0.237 OA
ATOM     51  O   UNL A   1      48.478  26.561  37.846  1.00  0.00    -0.744 OA
ENDBRANCH  47  48
ENDBRANCH  26  40
BRANCH  27  52
ATOM     52  C   UNL A   1      36.705  32.926  30.754  1.00  0.00     0.058 A 
ATOM     53  C   UNL A   1      35.367  32.575  30.975  1.00  0.00     0.135 A 
ATOM     54  C   UNL A   1      36.976  33.957  29.840  1.00  0.00     0.135 A 
ATOM     55  F   UNL A   1      35.062  31.617  31.862  1.00  0.00    -0.206 F 
ATOM     56  C   UNL A   1      34.334  33.200  30.291  1.00  0.00     0.059 A 
ATOM     57  C   UNL A   1      35.957  34.615  29.164  1.00  0.00     0.059 A 
ATOM     58  F   UNL A   1      38.240  34.361  29.636  1.00  0.00    -0.206 F 
ATOM     59  C   UNL A   1      34.639  34.218  29.385  1.00  0.00     0.060 A 
BRANCH  59  60
ATOM     60  S   UNL A   1      33.282  35.025  28.512  1.00  0.00     0.124 S 
ATOM     61  O   UNL A   1      32.541  35.624  29.616  1.00  0.00    -0.237 OA
ATOM     62  O   UNL A   1      33.991  35.955  27.638  1.00  0.00    -0.237 OA
ATOM     63  O   UNL A   1      32.614  33.919  27.832  1.00  0.00    -0.744 OA
ENDBRANCH  59  60
ENDBRANCH  27  52
BRANCH  39  64
ATOM     64  C   UNL A   1      39.711  34.113  36.953  1.00  0.00     0.058 A 
ATOM     65  C   UNL A   1      38.938  33.838  38.090  1.00  0.00     0.135 A 
ATOM     66  C   UNL A   1      40.363  35.354  36.882  1.00  0.00     0.135 A 
ATOM     67  F   UNL A   1      38.279  32.672  38.195  1.00  0.00    -0.206 F 
ATOM     68  C   UNL A   1      38.823  34.756  39.126  1.00  0.00     0.059 A 
ATOM     69  C   UNL A   1      40.287  36.276  37.920  1.00  0.00     0.059 A 
ATOM     70  F   UNL A   1      41.116  35.664  35.814  1.00  0.00    -0.206 F 
ATOM     71  C   UNL A   1      39.517  35.965  39.041  1.00  0.00     0.060 A 
BRANCH  71  72
ATOM     72  S   UNL A   1      39.432  37.103  40.438  1.00  0.00     0.124 S 
ATOM     73  O   UNL A   1      38.614  38.181  39.894  1.00  0.00    -0.237 OA
ATOM     74  O   UNL A   1      38.796  36.282  41.464  1.00  0.00    -0.237 OA
ATOM     75  O   UNL A   1      40.829  37.442  40.690  1.00  0.00    -0.744 OA
ENDBRANCH  71  72
ENDBRANCH  39  64
ENDBRANCH  13  14
ENDBRANCH   6   8
ENDBRANCH   5   6
ENDBRANCH   4   5
ENDBRANCH   3   4
ENDBRANCH   2   3
ENDBRANCH   1   2
BRANCH   1  76
ATOM     76  C   UNL A   1      36.827  23.128  26.021  1.00  0.00     0.188 C 
BRANCH  76  77
ATOM     77  O   UNL A   1      36.213  24.152  25.263  1.00  0.00    -0.377 OA
BRANCH  77  78
ATOM     78  C   UNL A   1      34.811  23.952  25.058  1.00  0.00     0.188 C 
BRANCH  78  79
ATOM     79  C   UNL A   1      34.306  22.592  24.494  1.00  0.00     0.188 C 
BRANCH  79  80
ATOM     80  O   UNL A   1      32.985  22.313  24.934  1.00  0.00    -0.376 OA
BRANCH  80  81
ATOM     81  C   UNL A   1      32.698  22.538  26.302  1.00  0.00     0.202 C 
BRANCH  81  82
ATOM     82  C   UNL A   1      31.365  23.228  26.635  1.00  0.00     0.261 C 
BRANCH  82  83
ATOM     83  O   UNL A   1      31.419  24.575  27.148  1.00  0.00    -0.460 OA
BRANCH  83  84
ATOM     84  C   UNL A   1      30.608  25.531  26.640  1.00  0.00     0.340 C 
ATOM     85  O   UNL A   1      29.422  25.424  26.379  1.00  0.00    -0.246 OA
BRANCH  84  86
ATOM     86  C   UNL A   1      31.421  26.758  26.455  1.00  0.00     0.088 A 
ATOM     87  C   UNL A   1      31.368  27.703  27.489  1.00  0.00     0.018 A 
ATOM     88  C   UNL A   1      32.164  26.989  25.276  1.00  0.00     0.105 A 
ATOM     89  C   UNL A   1      32.103  28.874  27.388  1.00  0.00     0.003 A 
ATOM     90  C   UNL A   1      32.898  28.205  25.197  1.00  0.00     0.091 A 
ATOM     91  N   UNL A   1      32.149  26.164  24.193  1.00  0.00    -0.230 NA
ATOM     92  C   UNL A   1      32.873  29.102  26.252  1.00  0.00     0.031 A 
ATOM     93  N   UNL A   1      33.599  28.568  24.106  1.00  0.00    -0.231 NA
ATOM     94  C   UNL A   1      32.812  26.566  23.077  1.00  0.00     0.167 A 
ATOM     95  C   UNL A   1      33.535  27.743  23.039  1.00  0.00     0.167 A 
ATOM     96  Cl  UNL A   1      32.565  25.555  21.713  1.00  0.00    -0.059 Cl
ATOM     97  Cl  UNL A   1      34.375  28.328  21.662  1.00  0.00    -0.059 Cl
ENDBRANCH  84  86
ENDBRANCH  83  84
ENDBRANCH  82  83
ENDBRANCH  81  82
ENDBRANCH  80  81
ENDBRANCH  79  80
ENDBRANCH  78  79
ENDBRANCH  77  78
ENDBRANCH  76  77
ENDBRANCH   1  76
TORSDOF 23
ENDMDL
