MODEL 1
REMARK VINA RESULT:     -10.8      0.000      0.000
REMARK SMILES Cc1cccc(-c2cc(C(=O)OCCOCCOCCOCCOC(=O)c3ccc(-c4c5nc(c(-c6c(F)cc(S(=O)(=O)[O-])cc6F)c6ccc([nH]6)c(-c6c(F)cc(S(=O)(=O)[O-])cc6F)c6nc(c(-c7c(F)cc(S(=O)(=O)[O-])cc7F)c7ccc4[nH]7)C=C6)C=C5)cc3)ccn2)c1
REMARK SMILES IDX 19 1 18 2 17 3 16 4 15 5 14 6 13 7 12 8 10 9 11 10 9 11 7 12
REMARK SMILES IDX 8 13 95 14 94 15 93 16 6 17 1 18 2 19 3 20 96 21 4 22 5 23
REMARK SMILES IDX 20 24 21 25 22 26 23 27 24 28 25 29 26 30 27 31 28 32 92 33
REMARK SMILES IDX 29 34 91 35 30 36 31 37 32 38 85 39 33 40 90 41 84 42 86 43
REMARK SMILES IDX 34 44 89 45 83 46 82 47 35 49 69 50 48 51 68 52 49 53 52 54
REMARK SMILES IDX 67 55 87 56 50 57 51 58 66 60 88 61 53 62 36 63 37 64 46 65
REMARK SMILES IDX 38 66 39 67 45 68 47 69 40 70 41 71 42 72 43 73 44 74 70 75
REMARK SMILES IDX 71 76 80 77 72 78 73 79 79 80 81 81 74 82 75 83 76 84 77 85
REMARK SMILES IDX 78 86 54 87 55 88 64 89 56 90 57 91 63 92 65 93 58 94 59 95
REMARK SMILES IDX 60 96 61 97 62 98
REMARK H PARENT 86 48 52 59
REMARK Flexibility Score: inf
ROOT
ATOM      1  C   UNL A   1      34.716  23.427  22.964  1.00  0.00     0.188 C 
ENDROOT
BRANCH   1   2
ATOM      2  O   UNL A   1      34.172  24.747  22.974  1.00  0.00    -0.377 OA
BRANCH   2   3
ATOM      3  C   UNL A   1      33.185  25.158  22.044  1.00  0.00     0.188 C 
BRANCH   3   4
ATOM      4  C   UNL A   1      32.479  26.503  22.296  1.00  0.00     0.188 C 
BRANCH   4   5
ATOM      5  O   UNL A   1      31.096  26.557  22.053  1.00  0.00    -0.376 OA
BRANCH   5   6
ATOM      6  C   UNL A   1      30.382  27.428  22.901  1.00  0.00     0.202 C 
BRANCH   6   7
ATOM      7  C   UNL A   1      29.396  26.789  23.848  1.00  0.00     0.261 C 
BRANCH   7   8
ATOM      8  O   UNL A   1      29.833  25.637  24.542  1.00  0.00    -0.460 OA
BRANCH   8   9
ATOM      9  C   UNL A   1      29.946  25.615  25.888  1.00  0.00     0.338 C 
ATOM     10  O   UNL A   1      29.203  25.229  26.758  1.00  0.00    -0.246 OA
BRANCH   9  11
ATOM     11  C   UNL A   1      31.329  26.013  26.138  1.00  0.00     0.063 A 
ATOM     12  C   UNL A   1      32.938  27.688  26.604  1.00  0.00     0.071 A 
ATOM     13  C   UNL A   1      31.617  27.313  26.516  1.00  0.00     0.044 A 
ATOM     14  N   UNL A   1      33.960  26.843  26.322  1.00  0.00    -0.256 NA
ATOM     15  C   UNL A   1      33.633  25.571  25.980  1.00  0.00     0.112 A 
ATOM     16  C   UNL A   1      32.340  25.104  25.879  1.00  0.00     0.036 A 
BRANCH  12  17
ATOM     17  C   UNL A   1      33.236  29.043  27.052  1.00  0.00     0.000 A 
ATOM     18  C   UNL A   1      31.505  32.432  26.862  1.00  0.00     0.044 C 
ATOM     19  C   UNL A   1      32.551  31.390  27.110  1.00  0.00    -0.050 A 
ATOM     20  C   UNL A   1      33.823  31.731  27.578  1.00  0.00     0.003 A 
ATOM     21  C   UNL A   1      32.265  30.046  26.867  1.00  0.00     0.013 A 
ATOM     22  C   UNL A   1      34.795  30.746  27.776  1.00  0.00     0.001 A 
ATOM     23  C   UNL A   1      34.504  29.407  27.511  1.00  0.00     0.010 A 
ENDBRANCH  12  17
ENDBRANCH   9  11
ENDBRANCH   8   9
ENDBRANCH   7   8
ENDBRANCH   6   7
ENDBRANCH   5   6
ENDBRANCH   4   5
ENDBRANCH   3   4
ENDBRANCH   2   3
ENDBRANCH   1   2
BRANCH   1  24
ATOM     24  C   UNL A   1      34.504  22.585  24.239  1.00  0.00     0.188 C 
BRANCH  24  25
ATOM     25  O   UNL A   1      34.851  21.221  24.093  1.00  0.00    -0.376 OA
BRANCH  25  26
ATOM     26  C   UNL A   1      35.718  20.610  25.013  1.00  0.00     0.202 C 
BRANCH  26  27
ATOM     27  C   UNL A   1      36.489  21.710  25.730  1.00  0.00     0.261 C 
BRANCH  27  28
ATOM     28  O   UNL A   1      37.748  21.886  25.039  1.00  0.00    -0.460 OA
BRANCH  28  29
ATOM     29  C   UNL A   1      38.855  21.747  25.829  1.00  0.00     0.338 C 
ATOM     30  O   UNL A   1      39.489  20.713  25.941  1.00  0.00    -0.246 OA
BRANCH  29  31
ATOM     31  C   UNL A   1      39.115  23.008  26.594  1.00  0.00     0.060 A 
ATOM     32  C   UNL A   1      38.381  24.176  26.326  1.00  0.00     0.016 A 
ATOM     33  C   UNL A   1      40.196  23.090  27.462  1.00  0.00     0.016 A 
ATOM     34  C   UNL A   1      38.777  25.431  26.844  1.00  0.00     0.010 A 
ATOM     35  C   UNL A   1      40.590  24.330  27.956  1.00  0.00     0.010 A 
ATOM     36  C   UNL A   1      39.919  25.532  27.640  1.00  0.00    -0.014 A 
BRANCH  36  37
ATOM     37  C   UNL A   1      40.623  26.791  28.027  1.00  0.00     0.031 A 
ATOM     38  C   UNL A   1      39.850  28.060  28.237  1.00  0.00     0.074 A 
ATOM     39  C   UNL A   1      41.843  26.737  28.621  1.00  0.00     0.049 A 
ATOM     40  N   UNL A   1      40.317  29.125  28.794  1.00  0.00    -0.248 NA
ATOM     41  C   UNL A   1      38.472  28.259  27.803  1.00  0.00     0.031 C 
ATOM     42  C   UNL A   1      42.261  27.559  29.755  1.00  0.00     0.029 A 
ATOM     43  N   UNL A   1      42.908  25.869  28.477  1.00  0.00    -0.354 N 
ATOM     44  C   UNL A   1      39.259  29.892  29.217  1.00  0.00     0.074 A 
ATOM     45  C   UNL A   1      38.165  29.412  28.411  1.00  0.00     0.031 C 
ATOM     46  C   UNL A   1      43.503  27.255  30.143  1.00  0.00     0.029 A 
ATOM     47  C   UNL A   1      44.016  26.292  29.203  1.00  0.00     0.049 A 
ATOM     48  H   UNL A   1      42.887  25.052  27.929  1.00  0.00     0.167 HD
ATOM     49  C   UNL A   1      39.441  30.736  30.283  1.00  0.00     0.037 A 
ATOM     50  C   UNL A   1      45.303  26.265  28.792  1.00  0.00     0.037 A 
ATOM     51  C   UNL A   1      40.882  30.799  30.676  1.00  0.00     0.049 A 
ATOM     52  C   UNL A   1      45.645  27.734  28.614  1.00  0.00     0.074 A 
ATOM     53  C   UNL A   1      41.597  30.549  31.837  1.00  0.00     0.029 A 
ATOM     54  N   UNL A   1      41.863  30.956  29.679  1.00  0.00    -0.354 N 
ATOM     55  N   UNL A   1      44.701  28.628  28.393  1.00  0.00    -0.248 NA
ATOM     56  C   UNL A   1      46.914  28.361  28.989  1.00  0.00     0.031 C 
ATOM     57  C   UNL A   1      42.993  30.474  31.502  1.00  0.00     0.029 A 
ATOM     58  C   UNL A   1      43.148  30.685  30.136  1.00  0.00     0.049 A 
ATOM     59  H   UNL A   1      41.661  31.228  28.755  1.00  0.00     0.167 HD
ATOM     60  C   UNL A   1      45.116  29.832  28.881  1.00  0.00     0.074 A 
ATOM     61  C   UNL A   1      46.542  29.650  29.128  1.00  0.00     0.031 C 
ATOM     62  C   UNL A   1      44.317  30.875  29.266  1.00  0.00     0.037 A 
BRANCH  49  63
ATOM     63  C   UNL A   1      38.300  31.424  31.066  1.00  0.00     0.058 A 
ATOM     64  C   UNL A   1      38.187  32.835  31.120  1.00  0.00     0.135 A 
ATOM     65  C   UNL A   1      37.293  30.764  31.817  1.00  0.00     0.135 A 
ATOM     66  F   UNL A   1      39.087  33.627  30.520  1.00  0.00    -0.206 F 
ATOM     67  C   UNL A   1      37.154  33.512  31.798  1.00  0.00     0.059 A 
ATOM     68  C   UNL A   1      36.226  31.413  32.458  1.00  0.00     0.059 A 
ATOM     69  F   UNL A   1      37.304  29.446  32.029  1.00  0.00    -0.206 F 
ATOM     70  C   UNL A   1      36.157  32.791  32.443  1.00  0.00     0.060 A 
BRANCH  70  71
ATOM     71  S   UNL A   1      34.786  33.653  33.243  1.00  0.00     0.124 S 
ATOM     72  O   UNL A   1      33.625  32.946  32.711  1.00  0.00    -0.237 OA
ATOM     73  O   UNL A   1      35.067  33.439  34.658  1.00  0.00    -0.237 OA
ATOM     74  O   UNL A   1      34.933  35.033  32.786  1.00  0.00    -0.744 OA
ENDBRANCH  70  71
ENDBRANCH  49  63
BRANCH  50  75
ATOM     75  C   UNL A   1      45.631  24.959  28.154  1.00  0.00     0.058 A 
ATOM     76  C   UNL A   1      45.069  23.835  28.817  1.00  0.00     0.135 A 
ATOM     77  C   UNL A   1      45.766  24.853  26.759  1.00  0.00     0.135 A 
ATOM     78  F   UNL A   1      44.923  23.857  30.154  1.00  0.00    -0.206 F 
ATOM     79  C   UNL A   1      44.483  22.767  28.128  1.00  0.00     0.059 A 
ATOM     80  C   UNL A   1      45.159  23.802  26.049  1.00  0.00     0.059 A 
ATOM     81  F   UNL A   1      46.224  25.896  26.054  1.00  0.00    -0.206 F 
ATOM     82  C   UNL A   1      44.480  22.792  26.739  1.00  0.00     0.060 A 
BRANCH  82  83
ATOM     83  S   UNL A   1      43.420  21.637  25.819  1.00  0.00     0.124 S 
ATOM     84  O   UNL A   1      44.402  20.853  25.080  1.00  0.00    -0.237 OA
ATOM     85  O   UNL A   1      42.697  20.920  26.867  1.00  0.00    -0.237 OA
ATOM     86  O   UNL A   1      42.601  22.543  25.022  1.00  0.00    -0.744 OA
ENDBRANCH  82  83
ENDBRANCH  50  75
BRANCH  62  87
ATOM     87  C   UNL A   1      44.648  32.242  28.737  1.00  0.00     0.058 A 
ATOM     88  C   UNL A   1      45.251  33.233  29.537  1.00  0.00     0.135 A 
ATOM     89  C   UNL A   1      44.523  32.543  27.364  1.00  0.00     0.135 A 
ATOM     90  F   UNL A   1      45.523  33.030  30.836  1.00  0.00    -0.206 F 
ATOM     91  C   UNL A   1      45.614  34.471  29.030  1.00  0.00     0.059 A 
ATOM     92  C   UNL A   1      44.936  33.753  26.826  1.00  0.00     0.059 A 
ATOM     93  F   UNL A   1      44.001  31.672  26.489  1.00  0.00    -0.206 F 
ATOM     94  C   UNL A   1      45.437  34.726  27.677  1.00  0.00     0.060 A 
BRANCH  94  95
ATOM     95  S   UNL A   1      45.842  36.355  27.046  1.00  0.00     0.124 S 
ATOM     96  O   UNL A   1      46.416  36.017  25.747  1.00  0.00    -0.237 OA
ATOM     97  O   UNL A   1      44.540  37.015  27.009  1.00  0.00    -0.237 OA
ATOM     98  O   UNL A   1      46.777  36.879  28.035  1.00  0.00    -0.744 OA
ENDBRANCH  94  95
ENDBRANCH  62  87
ENDBRANCH  36  37
ENDBRANCH  29  31
ENDBRANCH  28  29
ENDBRANCH  27  28
ENDBRANCH  26  27
ENDBRANCH  25  26
ENDBRANCH  24  25
ENDBRANCH   1  24
TORSDOF 24
ENDMDL
MODEL 2
REMARK VINA RESULT:     -10.3      2.247      3.536
REMARK SMILES Cc1cccc(-c2cc(C(=O)OCCOCCOCCOCCOC(=O)c3ccc(-c4c5nc(c(-c6c(F)cc(S(=O)(=O)[O-])cc6F)c6ccc([nH]6)c(-c6c(F)cc(S(=O)(=O)[O-])cc6F)c6nc(c(-c7c(F)cc(S(=O)(=O)[O-])cc7F)c7ccc4[nH]7)C=C6)C=C5)cc3)ccn2)c1
REMARK SMILES IDX 19 1 18 2 17 3 16 4 15 5 14 6 13 7 12 8 10 9 11 10 9 11 7 12
REMARK SMILES IDX 8 13 95 14 94 15 93 16 6 17 1 18 2 19 3 20 96 21 4 22 5 23
REMARK SMILES IDX 20 24 21 25 22 26 23 27 24 28 25 29 26 30 27 31 28 32 92 33
REMARK SMILES IDX 29 34 91 35 30 36 31 37 32 38 85 39 33 40 90 41 84 42 86 43
REMARK SMILES IDX 34 44 89 45 83 46 82 47 35 49 69 50 48 51 68 52 49 53 52 54
REMARK SMILES IDX 67 55 87 56 50 57 51 58 66 60 88 61 53 62 36 63 37 64 46 65
REMARK SMILES IDX 38 66 39 67 45 68 47 69 40 70 41 71 42 72 43 73 44 74 70 75
REMARK SMILES IDX 71 76 80 77 72 78 73 79 79 80 81 81 74 82 75 83 76 84 77 85
REMARK SMILES IDX 78 86 54 87 55 88 64 89 56 90 57 91 63 92 65 93 58 94 59 95
REMARK SMILES IDX 60 96 61 97 62 98
REMARK H PARENT 86 48 52 59
REMARK Flexibility Score: inf
ROOT
ATOM      1  C   UNL A   1      34.658  24.430  24.790  1.00  0.00     0.188 C 
ENDROOT
BRANCH   1   2
ATOM      2  O   UNL A   1      33.407  24.595  25.457  1.00  0.00    -0.377 OA
BRANCH   2   3
ATOM      3  C   UNL A   1      32.971  25.858  25.932  1.00  0.00     0.188 C 
BRANCH   3   4
ATOM      4  C   UNL A   1      31.454  26.099  26.036  1.00  0.00     0.188 C 
BRANCH   4   5
ATOM      5  O   UNL A   1      31.033  27.397  26.376  1.00  0.00    -0.376 OA
BRANCH   5   6
ATOM      6  C   UNL A   1      31.996  28.168  27.058  1.00  0.00     0.202 C 
BRANCH   6   7
ATOM      7  C   UNL A   1      31.811  29.665  27.018  1.00  0.00     0.261 C 
BRANCH   7   8
ATOM      8  O   UNL A   1      32.985  30.452  26.969  1.00  0.00    -0.460 OA
BRANCH   8   9
ATOM      9  C   UNL A   1      34.217  29.901  27.020  1.00  0.00     0.338 C 
ATOM     10  O   UNL A   1      34.747  29.037  26.364  1.00  0.00    -0.246 OA
BRANCH   9  11
ATOM     11  C   UNL A   1      34.939  30.727  27.985  1.00  0.00     0.063 A 
ATOM     12  C   UNL A   1      35.136  32.720  29.251  1.00  0.00     0.071 A 
ATOM     13  C   UNL A   1      34.370  31.898  28.455  1.00  0.00     0.044 A 
ATOM     14  N   UNL A   1      36.421  32.434  29.578  1.00  0.00    -0.256 NA
ATOM     15  C   UNL A   1      36.928  31.262  29.117  1.00  0.00     0.112 A 
ATOM     16  C   UNL A   1      36.233  30.373  28.326  1.00  0.00     0.036 A 
BRANCH  12  17
ATOM     17  C   UNL A   1      34.516  33.927  29.784  1.00  0.00     0.000 A 
ATOM     18  C   UNL A   1      34.341  35.644  33.181  1.00  0.00     0.044 C 
ATOM     19  C   UNL A   1      34.073  35.321  31.743  1.00  0.00    -0.050 A 
ATOM     20  C   UNL A   1      33.130  36.035  30.999  1.00  0.00     0.003 A 
ATOM     21  C   UNL A   1      34.769  34.283  31.122  1.00  0.00     0.013 A 
ATOM     22  C   UNL A   1      32.874  35.700  29.666  1.00  0.00     0.001 A 
ATOM     23  C   UNL A   1      33.562  34.648  29.061  1.00  0.00     0.010 A 
ENDBRANCH  12  17
ENDBRANCH   9  11
ENDBRANCH   8   9
ENDBRANCH   7   8
ENDBRANCH   6   7
ENDBRANCH   5   6
ENDBRANCH   4   5
ENDBRANCH   3   4
ENDBRANCH   2   3
ENDBRANCH   1   2
BRANCH   1  24
ATOM     24  C   UNL A   1      35.758  23.676  25.567  1.00  0.00     0.188 C 
BRANCH  24  25
ATOM     25  O   UNL A   1      36.544  22.817  24.763  1.00  0.00    -0.376 OA
BRANCH  25  26
ATOM     26  C   UNL A   1      36.485  21.426  24.949  1.00  0.00     0.202 C 
BRANCH  26  27
ATOM     27  C   UNL A   1      37.898  20.933  25.233  1.00  0.00     0.261 C 
BRANCH  27  28
ATOM     28  O   UNL A   1      38.737  22.095  25.433  1.00  0.00    -0.460 OA
BRANCH  28  29
ATOM     29  C   UNL A   1      39.722  21.930  26.367  1.00  0.00     0.338 C 
ATOM     30  O   UNL A   1      40.256  20.863  26.615  1.00  0.00    -0.246 OA
BRANCH  29  31
ATOM     31  C   UNL A   1      39.980  23.216  27.090  1.00  0.00     0.060 A 
ATOM     32  C   UNL A   1      39.320  24.398  26.712  1.00  0.00     0.016 A 
ATOM     33  C   UNL A   1      40.997  23.298  28.033  1.00  0.00     0.016 A 
ATOM     34  C   UNL A   1      39.732  25.660  27.200  1.00  0.00     0.010 A 
ATOM     35  C   UNL A   1      41.406  24.544  28.497  1.00  0.00     0.010 A 
ATOM     36  C   UNL A   1      40.814  25.755  28.075  1.00  0.00    -0.014 A 
BRANCH  36  37
ATOM     37  C   UNL A   1      41.542  27.002  28.455  1.00  0.00     0.031 A 
ATOM     38  C   UNL A   1      40.835  28.099  29.193  1.00  0.00     0.074 A 
ATOM     39  C   UNL A   1      42.896  26.999  28.557  1.00  0.00     0.049 A 
ATOM     40  N   UNL A   1      41.416  29.096  29.770  1.00  0.00    -0.248 NA
ATOM     41  C   UNL A   1      39.385  28.194  29.324  1.00  0.00     0.031 C 
ATOM     42  C   UNL A   1      43.659  27.646  29.623  1.00  0.00     0.029 A 
ATOM     43  N   UNL A   1      43.878  26.317  27.863  1.00  0.00    -0.354 N 
ATOM     44  C   UNL A   1      40.550  29.628  30.693  1.00  0.00     0.074 A 
ATOM     45  C   UNL A   1      39.264  29.166  30.238  1.00  0.00     0.031 C 
ATOM     46  C   UNL A   1      44.971  27.439  29.475  1.00  0.00     0.029 A 
ATOM     47  C   UNL A   1      45.152  26.741  28.229  1.00  0.00     0.049 A 
ATOM     48  H   UNL A   1      43.700  25.619  27.193  1.00  0.00     0.167 HD
ATOM     49  C   UNL A   1      41.067  30.278  31.785  1.00  0.00     0.037 A 
ATOM     50  C   UNL A   1      46.195  26.956  27.398  1.00  0.00     0.037 A 
ATOM     51  C   UNL A   1      42.546  30.455  31.651  1.00  0.00     0.049 A 
ATOM     52  C   UNL A   1      46.367  28.465  27.436  1.00  0.00     0.074 A 
ATOM     53  C   UNL A   1      43.652  30.092  32.404  1.00  0.00     0.029 A 
ATOM     54  N   UNL A   1      43.079  30.918  30.433  1.00  0.00    -0.354 N 
ATOM     55  N   UNL A   1      45.362  29.254  27.760  1.00  0.00    -0.248 NA
ATOM     56  C   UNL A   1      47.649  29.172  27.470  1.00  0.00     0.031 C 
ATOM     57  C   UNL A   1      44.827  30.261  31.594  1.00  0.00     0.029 A 
ATOM     58  C   UNL A   1      44.454  30.738  30.340  1.00  0.00     0.049 A 
ATOM     59  H   UNL A   1      42.535  31.327  29.722  1.00  0.00     0.167 HD
ATOM     60  C   UNL A   1      45.862  30.392  28.322  1.00  0.00     0.074 A 
ATOM     61  C   UNL A   1      47.286  30.354  28.008  1.00  0.00     0.031 C 
ATOM     62  C   UNL A   1      45.206  31.234  29.180  1.00  0.00     0.037 A 
BRANCH  49  63
ATOM     63  C   UNL A   1      40.261  30.658  33.048  1.00  0.00     0.058 A 
ATOM     64  C   UNL A   1      40.451  29.981  34.277  1.00  0.00     0.135 A 
ATOM     65  C   UNL A   1      39.259  31.660  33.122  1.00  0.00     0.135 A 
ATOM     66  F   UNL A   1      41.315  28.961  34.381  1.00  0.00    -0.206 F 
ATOM     67  C   UNL A   1      39.762  30.303  35.463  1.00  0.00     0.059 A 
ATOM     68  C   UNL A   1      38.595  32.033  34.301  1.00  0.00     0.059 A 
ATOM     69  F   UNL A   1      38.812  32.310  32.045  1.00  0.00    -0.206 F 
ATOM     70  C   UNL A   1      38.852  31.353  35.474  1.00  0.00     0.060 A 
BRANCH  70  71
ATOM     71  S   UNL A   1      38.028  31.823  37.011  1.00  0.00     0.124 S 
ATOM     72  O   UNL A   1      39.132  32.354  37.804  1.00  0.00    -0.237 OA
ATOM     73  O   UNL A   1      37.047  32.800  36.551  1.00  0.00    -0.237 OA
ATOM     74  O   UNL A   1      37.464  30.566  37.498  1.00  0.00    -0.744 OA
ENDBRANCH  70  71
ENDBRANCH  49  63
BRANCH  50  75
ATOM     75  C   UNL A   1      46.334  25.844  26.417  1.00  0.00     0.058 A 
ATOM     76  C   UNL A   1      46.680  24.597  27.003  1.00  0.00     0.135 A 
ATOM     77  C   UNL A   1      45.520  25.786  25.273  1.00  0.00     0.135 A 
ATOM     78  F   UNL A   1      47.470  24.572  28.092  1.00  0.00    -0.206 F 
ATOM     79  C   UNL A   1      46.088  23.390  26.616  1.00  0.00     0.059 A 
ATOM     80  C   UNL A   1      44.895  24.587  24.887  1.00  0.00     0.059 A 
ATOM     81  F   UNL A   1      45.095  26.920  24.701  1.00  0.00    -0.206 F 
ATOM     82  C   UNL A   1      45.148  23.406  25.593  1.00  0.00     0.060 A 
BRANCH  82  83
ATOM     83  S   UNL A   1      44.095  21.952  25.313  1.00  0.00     0.124 S 
ATOM     84  O   UNL A   1      43.128  22.464  24.349  1.00  0.00    -0.237 OA
ATOM     85  O   UNL A   1      45.023  20.945  24.804  1.00  0.00    -0.237 OA
ATOM     86  O   UNL A   1      43.578  21.686  26.651  1.00  0.00    -0.744 OA
ENDBRANCH  82  83
ENDBRANCH  50  75
BRANCH  62  87
ATOM     87  C   UNL A   1      45.245  32.706  28.881  1.00  0.00     0.058 A 
ATOM     88  C   UNL A   1      46.051  33.602  29.609  1.00  0.00     0.135 A 
ATOM     89  C   UNL A   1      44.598  33.236  27.743  1.00  0.00     0.135 A 
ATOM     90  F   UNL A   1      46.799  33.201  30.649  1.00  0.00    -0.206 F 
ATOM     91  C   UNL A   1      46.133  34.948  29.290  1.00  0.00     0.059 A 
ATOM     92  C   UNL A   1      44.716  34.567  27.371  1.00  0.00     0.059 A 
ATOM     93  F   UNL A   1      43.833  32.480  26.943  1.00  0.00    -0.206 F 
ATOM     94  C   UNL A   1      45.449  35.423  28.179  1.00  0.00     0.060 A 
BRANCH  94  95
ATOM     95  S   UNL A   1      45.504  37.178  27.818  1.00  0.00     0.124 S 
ATOM     96  O   UNL A   1      46.358  37.194  26.634  1.00  0.00    -0.237 OA
ATOM     97  O   UNL A   1      44.098  37.499  27.586  1.00  0.00    -0.237 OA
ATOM     98  O   UNL A   1      46.082  37.756  29.026  1.00  0.00    -0.744 OA
ENDBRANCH  94  95
ENDBRANCH  62  87
ENDBRANCH  36  37
ENDBRANCH  29  31
ENDBRANCH  28  29
ENDBRANCH  27  28
ENDBRANCH  26  27
ENDBRANCH  25  26
ENDBRANCH  24  25
ENDBRANCH   1  24
TORSDOF 24
ENDMDL
MODEL 3
REMARK VINA RESULT:     -10.3      3.342      9.621
REMARK SMILES Cc1cccc(-c2cc(C(=O)OCCOCCOCCOCCOC(=O)c3ccc(-c4c5nc(c(-c6c(F)cc(S(=O)(=O)[O-])cc6F)c6ccc([nH]6)c(-c6c(F)cc(S(=O)(=O)[O-])cc6F)c6nc(c(-c7c(F)cc(S(=O)(=O)[O-])cc7F)c7ccc4[nH]7)C=C6)C=C5)cc3)ccn2)c1
REMARK SMILES IDX 19 1 18 2 17 3 16 4 15 5 14 6 13 7 12 8 10 9 11 10 9 11 7 12
REMARK SMILES IDX 8 13 95 14 94 15 93 16 6 17 1 18 2 19 3 20 96 21 4 22 5 23
REMARK SMILES IDX 20 24 21 25 22 26 23 27 24 28 25 29 26 30 27 31 28 32 92 33
REMARK SMILES IDX 29 34 91 35 30 36 31 37 32 38 85 39 33 40 90 41 84 42 86 43
REMARK SMILES IDX 34 44 89 45 83 46 82 47 35 49 69 50 48 51 68 52 49 53 52 54
REMARK SMILES IDX 67 55 87 56 50 57 51 58 66 60 88 61 53 62 36 63 37 64 46 65
REMARK SMILES IDX 38 66 39 67 45 68 47 69 40 70 41 71 42 72 43 73 44 74 70 75
REMARK SMILES IDX 71 76 80 77 72 78 73 79 79 80 81 81 74 82 75 83 76 84 77 85
REMARK SMILES IDX 78 86 54 87 55 88 64 89 56 90 57 91 63 92 65 93 58 94 59 95
REMARK SMILES IDX 60 96 61 97 62 98
REMARK H PARENT 86 48 52 59
REMARK Flexibility Score: inf
ROOT
ATOM      1  C   UNL A   1      32.416  29.934  25.358  1.00  0.00     0.188 C 
ENDROOT
BRANCH   1   2
ATOM      2  O   UNL A   1      31.047  29.607  25.120  1.00  0.00    -0.377 OA
BRANCH   2   3
ATOM      3  C   UNL A   1      30.517  29.507  23.810  1.00  0.00     0.188 C 
BRANCH   3   4
ATOM      4  C   UNL A   1      30.951  28.303  22.952  1.00  0.00     0.188 C 
BRANCH   4   5
ATOM      5  O   UNL A   1      31.577  27.235  23.616  1.00  0.00    -0.376 OA
BRANCH   5   6
ATOM      6  C   UNL A   1      32.151  26.268  22.766  1.00  0.00     0.202 C 
BRANCH   6   7
ATOM      7  C   UNL A   1      33.648  26.100  22.849  1.00  0.00     0.261 C 
BRANCH   7   8
ATOM      8  O   UNL A   1      34.184  24.891  22.348  1.00  0.00    -0.460 OA
BRANCH   8   9
ATOM      9  C   UNL A   1      33.487  23.734  22.379  1.00  0.00     0.338 C 
ATOM     10  O   UNL A   1      32.832  23.160  21.542  1.00  0.00    -0.246 OA
BRANCH   9  11
ATOM     11  C   UNL A   1      33.832  23.142  23.668  1.00  0.00     0.063 A 
ATOM     12  C   UNL A   1      35.455  22.450  25.249  1.00  0.00     0.071 A 
ATOM     13  C   UNL A   1      35.147  23.141  24.099  1.00  0.00     0.044 A 
ATOM     14  N   UNL A   1      34.527  21.765  25.963  1.00  0.00    -0.256 NA
ATOM     15  C   UNL A   1      33.246  21.815  25.518  1.00  0.00     0.112 A 
ATOM     16  C   UNL A   1      32.844  22.491  24.386  1.00  0.00     0.036 A 
BRANCH  12  17
ATOM     17  C   UNL A   1      36.832  22.494  25.725  1.00  0.00     0.000 A 
ATOM     18  C   UNL A   1      39.159  25.162  27.134  1.00  0.00     0.044 C 
ATOM     19  C   UNL A   1      38.670  23.856  26.587  1.00  0.00    -0.050 A 
ATOM     20  C   UNL A   1      39.541  22.785  26.371  1.00  0.00     0.003 A 
ATOM     21  C   UNL A   1      37.319  23.694  26.276  1.00  0.00     0.013 A 
ATOM     22  C   UNL A   1      39.071  21.584  25.833  1.00  0.00     0.001 A 
ATOM     23  C   UNL A   1      37.722  21.439  25.508  1.00  0.00     0.010 A 
ENDBRANCH  12  17
ENDBRANCH   9  11
ENDBRANCH   8   9
ENDBRANCH   7   8
ENDBRANCH   6   7
ENDBRANCH   5   6
ENDBRANCH   4   5
ENDBRANCH   3   4
ENDBRANCH   2   3
ENDBRANCH   1   2
BRANCH   1  24
ATOM     24  C   UNL A   1      33.262  28.870  26.087  1.00  0.00     0.188 C 
BRANCH  24  25
ATOM     25  O   UNL A   1      33.777  29.299  27.333  1.00  0.00    -0.376 OA
BRANCH  25  26
ATOM     26  C   UNL A   1      35.150  29.556  27.479  1.00  0.00     0.202 C 
BRANCH  26  27
ATOM     27  C   UNL A   1      35.310  31.015  27.891  1.00  0.00     0.261 C 
BRANCH  27  28
ATOM     28  O   UNL A   1      36.708  31.234  28.195  1.00  0.00    -0.460 OA
BRANCH  28  29
ATOM     29  C   UNL A   1      37.085  30.845  29.450  1.00  0.00     0.338 C 
ATOM     30  O   UNL A   1      36.465  31.115  30.463  1.00  0.00    -0.246 OA
BRANCH  29  31
ATOM     31  C   UNL A   1      38.399  30.127  29.404  1.00  0.00     0.060 A 
ATOM     32  C   UNL A   1      39.341  30.286  30.435  1.00  0.00     0.016 A 
ATOM     33  C   UNL A   1      38.776  29.428  28.265  1.00  0.00     0.016 A 
ATOM     34  C   UNL A   1      40.673  29.833  30.292  1.00  0.00     0.010 A 
ATOM     35  C   UNL A   1      40.091  28.999  28.125  1.00  0.00     0.010 A 
ATOM     36  C   UNL A   1      41.080  29.214  29.110  1.00  0.00    -0.014 A 
BRANCH  36  37
ATOM     37  C   UNL A   1      42.487  28.936  28.693  1.00  0.00     0.031 A 
ATOM     38  C   UNL A   1      43.008  27.530  28.670  1.00  0.00     0.074 A 
ATOM     39  C   UNL A   1      43.159  29.829  27.922  1.00  0.00     0.049 A 
ATOM     40  N   UNL A   1      44.109  27.160  28.108  1.00  0.00    -0.248 NA
ATOM     41  C   UNL A   1      42.346  26.401  29.314  1.00  0.00     0.031 C 
ATOM     42  C   UNL A   1      44.010  29.482  26.784  1.00  0.00     0.029 A 
ATOM     43  N   UNL A   1      43.130  31.209  27.858  1.00  0.00    -0.354 N 
ATOM     44  C   UNL A   1      44.050  25.805  27.890  1.00  0.00     0.074 A 
ATOM     45  C   UNL A   1      43.041  25.368  28.821  1.00  0.00     0.031 C 
ATOM     46  C   UNL A   1      44.508  30.575  26.200  1.00  0.00     0.029 A 
ATOM     47  C   UNL A   1      44.106  31.704  27.000  1.00  0.00     0.049 A 
ATOM     48  H   UNL A   1      42.497  31.773  28.358  1.00  0.00     0.167 HD
ATOM     49  C   UNL A   1      44.776  25.271  26.856  1.00  0.00     0.037 A 
ATOM     50  C   UNL A   1      44.889  32.784  27.213  1.00  0.00     0.037 A 
ATOM     51  C   UNL A   1      45.687  26.295  26.257  1.00  0.00     0.049 A 
ATOM     52  C   UNL A   1      46.268  32.182  27.417  1.00  0.00     0.074 A 
ATOM     53  C   UNL A   1      45.870  26.829  24.991  1.00  0.00     0.029 A 
ATOM     54  N   UNL A   1      46.458  27.114  27.105  1.00  0.00    -0.354 N 
ATOM     55  N   UNL A   1      46.410  30.935  27.825  1.00  0.00    -0.248 NA
ATOM     56  C   UNL A   1      47.520  32.730  26.893  1.00  0.00     0.031 C 
ATOM     57  C   UNL A   1      46.678  28.011  25.110  1.00  0.00     0.029 A 
ATOM     58  C   UNL A   1      47.006  28.210  26.448  1.00  0.00     0.049 A 
ATOM     59  H   UNL A   1      46.594  26.930  28.062  1.00  0.00     0.167 HD
ATOM     60  C   UNL A   1      47.592  30.451  27.347  1.00  0.00     0.074 A 
ATOM     61  C   UNL A   1      48.306  31.634  26.881  1.00  0.00     0.031 C 
ATOM     62  C   UNL A   1      47.911  29.135  27.143  1.00  0.00     0.037 A 
BRANCH  49  63
ATOM     63  C   UNL A   1      44.587  23.845  26.290  1.00  0.00     0.058 A 
ATOM     64  C   UNL A   1      45.687  22.973  26.103  1.00  0.00     0.135 A 
ATOM     65  C   UNL A   1      43.356  23.273  25.879  1.00  0.00     0.135 A 
ATOM     66  F   UNL A   1      46.939  23.365  26.378  1.00  0.00    -0.206 F 
ATOM     67  C   UNL A   1      45.567  21.657  25.614  1.00  0.00     0.059 A 
ATOM     68  C   UNL A   1      43.204  21.950  25.438  1.00  0.00     0.059 A 
ATOM     69  F   UNL A   1      42.221  23.974  25.824  1.00  0.00    -0.206 F 
ATOM     70  C   UNL A   1      44.314  21.140  25.309  1.00  0.00     0.060 A 
BRANCH  70  71
ATOM     71  S   UNL A   1      44.147  19.427  24.761  1.00  0.00     0.124 S 
ATOM     72  O   UNL A   1      42.733  19.161  25.008  1.00  0.00    -0.237 OA
ATOM     73  O   UNL A   1      44.544  19.508  23.361  1.00  0.00    -0.237 OA
ATOM     74  O   UNL A   1      45.073  18.697  25.625  1.00  0.00    -0.744 OA
ENDBRANCH  70  71
ENDBRANCH  49  63
BRANCH  50  75
ATOM     75  C   UNL A   1      44.088  33.932  27.722  1.00  0.00     0.058 A 
ATOM     76  C   UNL A   1      44.594  34.503  28.921  1.00  0.00     0.135 A 
ATOM     77  C   UNL A   1      43.452  34.817  26.835  1.00  0.00     0.135 A 
ATOM     78  F   UNL A   1      45.202  33.715  29.826  1.00  0.00    -0.206 F 
ATOM     79  C   UNL A   1      44.660  35.884  29.130  1.00  0.00     0.059 A 
ATOM     80  C   UNL A   1      43.533  36.208  27.015  1.00  0.00     0.059 A 
ATOM     81  F   UNL A   1      43.008  34.368  25.653  1.00  0.00    -0.206 F 
ATOM     82  C   UNL A   1      44.180  36.732  28.140  1.00  0.00     0.060 A 
BRANCH  82  83
ATOM     83  S   UNL A   1      44.578  38.505  28.199  1.00  0.00     0.124 S 
ATOM     84  O   UNL A   1      43.535  39.074  27.355  1.00  0.00    -0.237 OA
ATOM     85  O   UNL A   1      44.492  38.832  29.621  1.00  0.00    -0.237 OA
ATOM     86  O   UNL A   1      45.928  38.533  27.647  1.00  0.00    -0.744 OA
ENDBRANCH  82  83
ENDBRANCH  50  75
BRANCH  62  87
ATOM     87  C   UNL A   1      49.220  28.639  27.690  1.00  0.00     0.058 A 
ATOM     88  C   UNL A   1      49.394  28.319  29.051  1.00  0.00     0.135 A 
ATOM     89  C   UNL A   1      50.292  28.311  26.833  1.00  0.00     0.135 A 
ATOM     90  F   UNL A   1      48.412  28.484  29.951  1.00  0.00    -0.206 F 
ATOM     91  C   UNL A   1      50.582  27.803  29.542  1.00  0.00     0.059 A 
ATOM     92  C   UNL A   1      51.467  27.737  27.295  1.00  0.00     0.059 A 
ATOM     93  F   UNL A   1      50.238  28.529  25.511  1.00  0.00    -0.206 F 
ATOM     94  C   UNL A   1      51.618  27.531  28.658  1.00  0.00     0.060 A 
BRANCH  94  95
ATOM     95  S   UNL A   1      53.175  26.931  29.312  1.00  0.00     0.124 S 
ATOM     96  O   UNL A   1      52.719  26.184  30.481  1.00  0.00    -0.237 OA
ATOM     97  O   UNL A   1      53.694  26.124  28.210  1.00  0.00    -0.237 OA
ATOM     98  O   UNL A   1      53.920  28.153  29.591  1.00  0.00    -0.744 OA
ENDBRANCH  94  95
ENDBRANCH  62  87
ENDBRANCH  36  37
ENDBRANCH  29  31
ENDBRANCH  28  29
ENDBRANCH  27  28
ENDBRANCH  26  27
ENDBRANCH  25  26
ENDBRANCH  24  25
ENDBRANCH   1  24
TORSDOF 24
ENDMDL
