MODEL 1
REMARK VINA RESULT:      -9.9      0.000      0.000
REMARK SMILES O=C(OCCOCCOCCOCCOC(=O)[C@H]1[C@H]2CC[C@H](CC2)[C@@H]1C(=O)Nc1ccc(Cc2ccncc2)cc1)c1ccc(-c2c3nc(c(-c4c(F)cc(S(=O)(=O)[O-])cc4F)c4ccc([nH]4)c(-c4c(F)cc(S(=O)(=O)[O-])cc4F)c4nc(c(-c5c(F)cc(S(=O)(=O)[O-])cc5F)c5ccc2[nH]5)C=C4)C=C3)cc1
REMARK SMILES IDX 10 1 9 2 8 3 7 4 6 5 5 6 4 7 3 8 2 9 1 10 42 11 43 12 107 13
REMARK SMILES IDX 44 14 106 15 45 16 46 17 47 18 100 19 48 20 105 21 99 22
REMARK SMILES IDX 101 23 49 24 104 25 98 26 97 27 50 29 84 30 63 31 83 32
REMARK SMILES IDX 64 33 67 34 82 35 102 36 65 37 66 38 81 40 103 41 68 42
REMARK SMILES IDX 51 43 52 44 61 45 53 46 54 47 60 48 62 49 55 50 56 51 57 52
REMARK SMILES IDX 58 53 59 54 85 55 86 56 95 57 87 58 88 59 94 60 96 61 89 62
REMARK SMILES IDX 90 63 91 64 92 65 93 66 69 67 70 68 79 69 71 70 72 71 78 72
REMARK SMILES IDX 80 73 73 74 74 75 75 76 76 77 77 78 11 79 12 80 13 81 14 82
REMARK SMILES IDX 15 83 16 84 17 85 18 86 19 87 25 88 24 89 20 90 22 91 23 92
REMARK SMILES IDX 21 93 26 94 27 95 28 96 29 98 30 99 41 100 31 101 40 102
REMARK SMILES IDX 32 103 33 104 34 105 35 106 39 107 36 108 38 109 37 110
REMARK H PARENT 101 28 67 39 28 97
REMARK Flexibility Score: inf
ROOT
ATOM      1  C   UNL A   1      41.283  20.201  26.042  1.00  0.00     0.188 C 
ENDROOT
BRANCH   1   2
ATOM      2  O   UNL A   1      42.604  20.194  25.503  1.00  0.00    -0.377 OA
BRANCH   2   3
ATOM      3  C   UNL A   1      43.555  21.169  25.899  1.00  0.00     0.188 C 
BRANCH   3   4
ATOM      4  C   UNL A   1      44.303  21.785  24.735  1.00  0.00     0.188 C 
BRANCH   4   5
ATOM      5  O   UNL A   1      43.512  22.836  24.226  1.00  0.00    -0.376 OA
BRANCH   5   6
ATOM      6  C   UNL A   1      42.846  23.696  25.133  1.00  0.00     0.202 C 
BRANCH   6   7
ATOM      7  C   UNL A   1      43.173  25.162  24.934  1.00  0.00     0.261 C 
BRANCH   7   8
ATOM      8  O   UNL A   1      44.163  25.690  25.835  1.00  0.00    -0.460 OA
BRANCH   8   9
ATOM      9  C   UNL A   1      44.345  25.544  27.167  1.00  0.00     0.338 C 
ATOM     10  O   UNL A   1      44.984  24.563  27.552  1.00  0.00    -0.246 OA
BRANCH   9  11
ATOM     11  C   UNL A   1      43.868  26.490  28.219  1.00  0.00     0.060 A 
ATOM     12  C   UNL A   1      44.118  27.859  28.266  1.00  0.00     0.016 A 
ATOM     13  C   UNL A   1      42.974  25.968  29.167  1.00  0.00     0.016 A 
ATOM     14  C   UNL A   1      43.575  28.683  29.228  1.00  0.00     0.010 A 
ATOM     15  C   UNL A   1      42.400  26.790  30.143  1.00  0.00     0.010 A 
ATOM     16  C   UNL A   1      42.732  28.148  30.184  1.00  0.00    -0.014 A 
BRANCH  16  17
ATOM     17  C   UNL A   1      42.444  29.004  31.339  1.00  0.00     0.031 A 
ATOM     18  C   UNL A   1      41.180  29.802  31.280  1.00  0.00     0.074 A 
ATOM     19  C   UNL A   1      43.179  28.892  32.459  1.00  0.00     0.049 A 
ATOM     20  N   UNL A   1      40.731  30.702  32.104  1.00  0.00    -0.248 NA
ATOM     21  C   UNL A   1      40.288  29.537  30.133  1.00  0.00     0.031 C 
ATOM     22  C   UNL A   1      44.301  27.964  32.646  1.00  0.00     0.029 A 
ATOM     23  N   UNL A   1      43.072  29.532  33.660  1.00  0.00    -0.354 N 
ATOM     24  C   UNL A   1      39.540  31.150  31.549  1.00  0.00     0.074 A 
ATOM     25  C   UNL A   1      39.326  30.423  30.322  1.00  0.00     0.031 C 
ATOM     26  C   UNL A   1      44.774  28.097  33.897  1.00  0.00     0.029 A 
ATOM     27  C   UNL A   1      44.051  29.175  34.557  1.00  0.00     0.049 A 
ATOM     28  H   UNL A   1      42.364  30.184  33.864  1.00  0.00     0.167 HD
ATOM     29  C   UNL A   1      38.718  32.105  32.030  1.00  0.00     0.037 A 
ATOM     30  C   UNL A   1      44.351  29.717  35.751  1.00  0.00     0.037 A 
ATOM     31  C   UNL A   1      38.981  32.786  33.266  1.00  0.00     0.049 A 
ATOM     32  C   UNL A   1      43.494  30.866  36.211  1.00  0.00     0.074 A 
ATOM     33  C   UNL A   1      38.292  33.831  33.846  1.00  0.00     0.029 A 
ATOM     34  N   UNL A   1      40.036  32.471  34.118  1.00  0.00    -0.354 N 
ATOM     35  N   UNL A   1      42.432  31.384  35.633  1.00  0.00    -0.248 NA
ATOM     36  C   UNL A   1      43.878  31.521  37.465  1.00  0.00     0.031 C 
ATOM     37  C   UNL A   1      38.963  34.183  35.022  1.00  0.00     0.029 A 
ATOM     38  C   UNL A   1      40.032  33.314  35.209  1.00  0.00     0.049 A 
ATOM     39  H   UNL A   1      40.690  31.751  33.963  1.00  0.00     0.167 HD
ATOM     40  C   UNL A   1      42.008  32.413  36.460  1.00  0.00     0.074 A 
ATOM     41  C   UNL A   1      42.921  32.432  37.590  1.00  0.00     0.031 C 
ATOM     42  C   UNL A   1      40.966  33.270  36.310  1.00  0.00     0.037 A 
BRANCH  29  43
ATOM     43  C   UNL A   1      37.555  32.510  31.171  1.00  0.00     0.058 A 
ATOM     44  C   UNL A   1      37.680  33.424  30.113  1.00  0.00     0.135 A 
ATOM     45  C   UNL A   1      36.273  32.011  31.453  1.00  0.00     0.135 A 
ATOM     46  F   UNL A   1      38.873  33.970  29.828  1.00  0.00    -0.206 F 
ATOM     47  C   UNL A   1      36.574  33.846  29.381  1.00  0.00     0.059 A 
ATOM     48  C   UNL A   1      35.157  32.398  30.719  1.00  0.00     0.059 A 
ATOM     49  F   UNL A   1      36.090  31.156  32.472  1.00  0.00    -0.206 F 
ATOM     50  C   UNL A   1      35.315  33.327  29.693  1.00  0.00     0.060 A 
BRANCH  50  51
ATOM     51  S   UNL A   1      33.891  33.888  28.736  1.00  0.00     0.124 S 
ATOM     52  O   UNL A   1      33.022  34.412  29.783  1.00  0.00    -0.237 OA
ATOM     53  O   UNL A   1      34.483  34.876  27.846  1.00  0.00    -0.237 OA
ATOM     54  O   UNL A   1      33.418  32.664  28.085  1.00  0.00    -0.744 OA
ENDBRANCH  50  51
ENDBRANCH  29  43
BRANCH  30  55
ATOM     55  C   UNL A   1      45.531  29.245  36.526  1.00  0.00     0.058 A 
ATOM     56  C   UNL A   1      46.799  29.823  36.362  1.00  0.00     0.135 A 
ATOM     57  C   UNL A   1      45.416  28.197  37.457  1.00  0.00     0.135 A 
ATOM     58  F   UNL A   1      46.970  30.821  35.483  1.00  0.00    -0.206 F 
ATOM     59  C   UNL A   1      47.907  29.374  37.077  1.00  0.00     0.059 A 
ATOM     60  C   UNL A   1      46.501  27.752  38.207  1.00  0.00     0.059 A 
ATOM     61  F   UNL A   1      44.227  27.608  37.665  1.00  0.00    -0.206 F 
ATOM     62  C   UNL A   1      47.746  28.339  38.001  1.00  0.00     0.060 A 
BRANCH  62  63
ATOM     63  S   UNL A   1      49.181  27.786  38.949  1.00  0.00     0.124 S 
ATOM     64  O   UNL A   1      48.583  26.802  39.844  1.00  0.00    -0.237 OA
ATOM     65  O   UNL A   1      50.053  27.257  37.905  1.00  0.00    -0.237 OA
ATOM     66  O   UNL A   1      49.657  29.012  39.586  1.00  0.00    -0.744 OA
ENDBRANCH  62  63
ENDBRANCH  30  55
BRANCH  42  67
ATOM     67  C   UNL A   1      40.741  34.257  37.416  1.00  0.00     0.058 A 
ATOM     68  C   UNL A   1      39.872  33.983  38.482  1.00  0.00     0.135 A 
ATOM     69  C   UNL A   1      41.468  35.457  37.441  1.00  0.00     0.135 A 
ATOM     70  F   UNL A   1      39.151  32.849  38.494  1.00  0.00    -0.206 F 
ATOM     71  C   UNL A   1      39.716  34.879  39.530  1.00  0.00     0.059 A 
ATOM     72  C   UNL A   1      41.353  36.351  38.496  1.00  0.00     0.059 A 
ATOM     73  F   UNL A   1      42.322  35.753  36.448  1.00  0.00    -0.206 F 
ATOM     74  C   UNL A   1      40.466  36.057  39.530  1.00  0.00     0.060 A 
BRANCH  74  75
ATOM     75  S   UNL A   1      40.291  37.188  40.924  1.00  0.00     0.124 S 
ATOM     76  O   UNL A   1      41.026  38.355  40.447  1.00  0.00    -0.237 OA
ATOM     77  O   UNL A   1      38.842  37.345  41.017  1.00  0.00    -0.237 OA
ATOM     78  O   UNL A   1      40.910  36.464  42.029  1.00  0.00    -0.744 OA
ENDBRANCH  74  75
ENDBRANCH  42  67
ENDBRANCH  16  17
ENDBRANCH   9  11
ENDBRANCH   8   9
ENDBRANCH   7   8
ENDBRANCH   6   7
ENDBRANCH   5   6
ENDBRANCH   4   5
ENDBRANCH   3   4
ENDBRANCH   2   3
ENDBRANCH   1   2
BRANCH   1  79
ATOM     79  C   UNL A   1      40.959  21.202  27.151  1.00  0.00     0.188 C 
BRANCH  79  80
ATOM     80  O   UNL A   1      39.612  21.656  27.150  1.00  0.00    -0.376 OA
BRANCH  80  81
ATOM     81  C   UNL A   1      39.127  22.089  25.887  1.00  0.00     0.202 C 
BRANCH  81  82
ATOM     82  C   UNL A   1      37.712  22.711  25.859  1.00  0.00     0.261 C 
BRANCH  82  83
ATOM     83  O   UNL A   1      37.022  22.977  24.613  1.00  0.00    -0.463 OA
BRANCH  83  84
ATOM     84  C   UNL A   1      35.802  23.546  24.641  1.00  0.00     0.310 C 
ATOM     85  O   UNL A   1      35.586  24.661  25.110  1.00  0.00    -0.252 OA
BRANCH  84  86
ATOM     86  C   UNL A   1      34.654  22.688  24.097  1.00  0.00     0.115 C 
ATOM     87  C   UNL A   1      34.184  21.422  24.868  1.00  0.00     0.004 C 
ATOM     88  C   UNL A   1      33.449  23.589  23.792  1.00  0.00     0.096 C 
ATOM     89  C   UNL A   1      33.432  21.788  26.157  1.00  0.00     0.005 C 
ATOM     90  C   UNL A   1      33.214  20.641  23.960  1.00  0.00     0.005 C 
ATOM     91  C   UNL A   1      32.142  22.894  24.293  1.00  0.00     0.002 C 
ATOM     92  C   UNL A   1      32.266  22.725  25.827  1.00  0.00     0.005 C 
ATOM     93  C   UNL A   1      31.963  21.477  23.705  1.00  0.00     0.005 C 
BRANCH  88  94
ATOM     94  C   UNL A   1      33.400  23.885  22.287  1.00  0.00     0.228 C 
ATOM     95  O   UNL A   1      33.911  23.123  21.462  1.00  0.00    -0.274 OA
ATOM     96  N   UNL A   1      32.686  24.952  21.816  1.00  0.00    -0.326 N 
ATOM     97  H   UNL A   1      32.492  24.931  20.851  1.00  0.00     0.169 HD
BRANCH  96  98
ATOM     98  C   UNL A   1      32.189  26.067  22.497  1.00  0.00     0.041 A 
ATOM     99  C   UNL A   1      32.866  27.272  22.381  1.00  0.00     0.026 A 
ATOM    100  C   UNL A   1      31.083  25.997  23.337  1.00  0.00     0.026 A 
ATOM    101  C   UNL A   1      32.344  28.422  22.982  1.00  0.00     0.006 A 
ATOM    102  C   UNL A   1      30.567  27.132  23.961  1.00  0.00     0.006 A 
ATOM    103  C   UNL A   1      31.179  28.367  23.764  1.00  0.00    -0.043 A 
BRANCH 103 104
ATOM    104  C   UNL A   1      30.617  29.602  24.430  1.00  0.00     0.071 C 
BRANCH 104 105
ATOM    105  C   UNL A   1      29.769  30.456  23.520  1.00  0.00    -0.041 A 
ATOM    106  C   UNL A   1      29.325  31.716  23.931  1.00  0.00     0.024 A 
ATOM    107  C   UNL A   1      29.404  30.013  22.245  1.00  0.00     0.024 A 
ATOM    108  C   UNL A   1      28.538  32.464  23.072  1.00  0.00     0.111 A 
ATOM    109  C   UNL A   1      28.623  30.842  21.450  1.00  0.00     0.111 A 
ATOM    110  N   UNL A   1      28.185  32.061  21.836  1.00  0.00    -0.265 NA
ENDBRANCH 104 105
ENDBRANCH 103 104
ENDBRANCH  96  98
ENDBRANCH  88  94
ENDBRANCH  84  86
ENDBRANCH  83  84
ENDBRANCH  82  83
ENDBRANCH  81  82
ENDBRANCH  80  81
ENDBRANCH  79  80
ENDBRANCH   1  79
TORSDOF 27
ENDMDL
MODEL 2
REMARK VINA RESULT:      -8.9      7.505     11.855
REMARK SMILES O=C(OCCOCCOCCOCCOC(=O)[C@H]1[C@H]2CC[C@H](CC2)[C@@H]1C(=O)Nc1ccc(Cc2ccncc2)cc1)c1ccc(-c2c3nc(c(-c4c(F)cc(S(=O)(=O)[O-])cc4F)c4ccc([nH]4)c(-c4c(F)cc(S(=O)(=O)[O-])cc4F)c4nc(c(-c5c(F)cc(S(=O)(=O)[O-])cc5F)c5ccc2[nH]5)C=C4)C=C3)cc1
REMARK SMILES IDX 10 1 9 2 8 3 7 4 6 5 5 6 4 7 3 8 2 9 1 10 42 11 43 12 107 13
REMARK SMILES IDX 44 14 106 15 45 16 46 17 47 18 100 19 48 20 105 21 99 22
REMARK SMILES IDX 101 23 49 24 104 25 98 26 97 27 50 29 84 30 63 31 83 32
REMARK SMILES IDX 64 33 67 34 82 35 102 36 65 37 66 38 81 40 103 41 68 42
REMARK SMILES IDX 51 43 52 44 61 45 53 46 54 47 60 48 62 49 55 50 56 51 57 52
REMARK SMILES IDX 58 53 59 54 85 55 86 56 95 57 87 58 88 59 94 60 96 61 89 62
REMARK SMILES IDX 90 63 91 64 92 65 93 66 69 67 70 68 79 69 71 70 72 71 78 72
REMARK SMILES IDX 80 73 73 74 74 75 75 76 76 77 77 78 11 79 12 80 13 81 14 82
REMARK SMILES IDX 15 83 16 84 17 85 18 86 19 87 25 88 24 89 20 90 22 91 23 92
REMARK SMILES IDX 21 93 26 94 27 95 28 96 29 98 30 99 41 100 31 101 40 102
REMARK SMILES IDX 32 103 33 104 34 105 35 106 39 107 36 108 38 109 37 110
REMARK H PARENT 101 28 67 39 28 97
REMARK Flexibility Score: inf
ROOT
ATOM      1  C   UNL A   1      34.412  32.136  28.544  1.00  0.00     0.188 C 
ENDROOT
BRANCH   1   2
ATOM      2  O   UNL A   1      35.467  33.089  28.428  1.00  0.00    -0.377 OA
BRANCH   2   3
ATOM      3  C   UNL A   1      35.919  33.813  29.562  1.00  0.00     0.188 C 
BRANCH   3   4
ATOM      4  C   UNL A   1      34.798  34.250  30.481  1.00  0.00     0.188 C 
BRANCH   4   5
ATOM      5  O   UNL A   1      35.160  33.894  31.796  1.00  0.00    -0.376 OA
BRANCH   5   6
ATOM      6  C   UNL A   1      35.493  32.547  32.077  1.00  0.00     0.202 C 
BRANCH   6   7
ATOM      7  C   UNL A   1      36.851  32.378  32.729  1.00  0.00     0.261 C 
BRANCH   7   8
ATOM      8  O   UNL A   1      37.799  33.419  32.433  1.00  0.00    -0.460 OA
BRANCH   8   9
ATOM      9  C   UNL A   1      38.978  33.759  33.002  1.00  0.00     0.338 C 
ATOM     10  O   UNL A   1      38.982  33.992  34.212  1.00  0.00    -0.246 OA
BRANCH   9  11
ATOM     11  C   UNL A   1      40.293  33.841  32.299  1.00  0.00     0.060 A 
ATOM     12  C   UNL A   1      41.546  33.668  32.880  1.00  0.00     0.016 A 
ATOM     13  C   UNL A   1      40.244  33.968  30.902  1.00  0.00     0.016 A 
ATOM     14  C   UNL A   1      42.715  33.678  32.147  1.00  0.00     0.010 A 
ATOM     15  C   UNL A   1      41.417  33.966  30.139  1.00  0.00     0.010 A 
ATOM     16  C   UNL A   1      42.656  33.850  30.777  1.00  0.00    -0.014 A 
BRANCH  16  17
ATOM     17  C   UNL A   1      43.926  34.158  30.113  1.00  0.00     0.031 A 
ATOM     18  C   UNL A   1      44.348  35.592  30.109  1.00  0.00     0.074 A 
ATOM     19  C   UNL A   1      44.743  33.161  29.729  1.00  0.00     0.049 A 
ATOM     20  N   UNL A   1      45.361  36.155  29.520  1.00  0.00    -0.248 NA
ATOM     21  C   UNL A   1      43.515  36.525  30.896  1.00  0.00     0.031 C 
ATOM     22  C   UNL A   1      44.472  31.729  29.906  1.00  0.00     0.029 A 
ATOM     23  N   UNL A   1      45.977  33.196  29.148  1.00  0.00    -0.354 N 
ATOM     24  C   UNL A   1      45.255  37.508  29.813  1.00  0.00     0.074 A 
ATOM     25  C   UNL A   1      44.087  37.688  30.640  1.00  0.00     0.031 C 
ATOM     26  C   UNL A   1      45.519  31.025  29.444  1.00  0.00     0.029 A 
ATOM     27  C   UNL A   1      46.482  31.950  28.861  1.00  0.00     0.049 A 
ATOM     28  H   UNL A   1      46.460  34.032  28.955  1.00  0.00     0.167 HD
ATOM     29  C   UNL A   1      46.067  38.504  29.402  1.00  0.00     0.037 A 
ATOM     30  C   UNL A   1      47.573  31.616  28.149  1.00  0.00     0.037 A 
ATOM     31  C   UNL A   1      47.223  38.258  28.588  1.00  0.00     0.049 A 
ATOM     32  C   UNL A   1      48.396  32.748  27.593  1.00  0.00     0.074 A 
ATOM     33  C   UNL A   1      48.095  39.164  28.021  1.00  0.00     0.029 A 
ATOM     34  N   UNL A   1      47.665  36.988  28.230  1.00  0.00    -0.354 N 
ATOM     35  N   UNL A   1      48.235  34.042  27.762  1.00  0.00    -0.248 NA
ATOM     36  C   UNL A   1      49.529  32.387  26.736  1.00  0.00     0.031 C 
ATOM     37  C   UNL A   1      49.034  38.443  27.276  1.00  0.00     0.029 A 
ATOM     38  C   UNL A   1      48.786  37.084  27.431  1.00  0.00     0.049 A 
ATOM     39  H   UNL A   1      47.240  36.143  28.505  1.00  0.00     0.167 HD
ATOM     40  C   UNL A   1      49.257  34.652  27.050  1.00  0.00     0.074 A 
ATOM     41  C   UNL A   1      50.040  33.580  26.461  1.00  0.00     0.031 C 
ATOM     42  C   UNL A   1      49.529  35.972  26.887  1.00  0.00     0.037 A 
BRANCH  29  43
ATOM     43  C   UNL A   1      45.660  39.908  29.742  1.00  0.00     0.058 A 
ATOM     44  C   UNL A   1      46.218  40.617  30.818  1.00  0.00     0.135 A 
ATOM     45  C   UNL A   1      44.642  40.537  29.006  1.00  0.00     0.135 A 
ATOM     46  F   UNL A   1      47.161  40.048  31.586  1.00  0.00    -0.206 F 
ATOM     47  C   UNL A   1      45.768  41.888  31.165  1.00  0.00     0.059 A 
ATOM     48  C   UNL A   1      44.194  41.816  29.318  1.00  0.00     0.059 A 
ATOM     49  F   UNL A   1      44.052  39.895  27.985  1.00  0.00    -0.206 F 
ATOM     50  C   UNL A   1      44.754  42.478  30.407  1.00  0.00     0.060 A 
BRANCH  50  51
ATOM     51  S   UNL A   1      44.179  44.125  30.873  1.00  0.00     0.124 S 
ATOM     52  O   UNL A   1      42.746  43.905  31.023  1.00  0.00    -0.237 OA
ATOM     53  O   UNL A   1      44.917  44.376  32.104  1.00  0.00    -0.237 OA
ATOM     54  O   UNL A   1      44.569  44.955  29.731  1.00  0.00    -0.744 OA
ENDBRANCH  50  51
ENDBRANCH  29  43
BRANCH  30  55
ATOM     55  C   UNL A   1      47.887  30.189  27.863  1.00  0.00     0.058 A 
ATOM     56  C   UNL A   1      48.687  29.425  28.726  1.00  0.00     0.135 A 
ATOM     57  C   UNL A   1      47.387  29.552  26.713  1.00  0.00     0.135 A 
ATOM     58  F   UNL A   1      49.197  29.981  29.834  1.00  0.00    -0.206 F 
ATOM     59  C   UNL A   1      48.991  28.093  28.453  1.00  0.00     0.059 A 
ATOM     60  C   UNL A   1      47.650  28.214  26.436  1.00  0.00     0.059 A 
ATOM     61  F   UNL A   1      46.609  30.228  25.852  1.00  0.00    -0.206 F 
ATOM     62  C   UNL A   1      48.464  27.495  27.307  1.00  0.00     0.060 A 
BRANCH  62  63
ATOM     63  S   UNL A   1      48.836  25.757  26.980  1.00  0.00     0.124 S 
ATOM     64  O   UNL A   1      49.844  25.475  27.996  1.00  0.00    -0.237 OA
ATOM     65  O   UNL A   1      47.536  25.124  27.173  1.00  0.00    -0.237 OA
ATOM     66  O   UNL A   1      49.316  25.769  25.600  1.00  0.00    -0.744 OA
ENDBRANCH  62  63
ENDBRANCH  30  55
BRANCH  42  67
ATOM     67  C   UNL A   1      50.748  36.313  26.083  1.00  0.00     0.058 A 
ATOM     68  C   UNL A   1      52.010  36.448  26.680  1.00  0.00     0.135 A 
ATOM     69  C   UNL A   1      50.655  36.429  24.688  1.00  0.00     0.135 A 
ATOM     70  F   UNL A   1      52.143  36.352  28.013  1.00  0.00    -0.206 F 
ATOM     71  C   UNL A   1      53.140  36.706  25.917  1.00  0.00     0.059 A 
ATOM     72  C   UNL A   1      51.778  36.653  23.904  1.00  0.00     0.059 A 
ATOM     73  F   UNL A   1      49.468  36.293  24.074  1.00  0.00    -0.206 F 
ATOM     74  C   UNL A   1      53.014  36.801  24.530  1.00  0.00     0.060 A 
BRANCH  74  75
ATOM     75  S   UNL A   1      54.500  37.086  23.548  1.00  0.00     0.124 S 
ATOM     76  O   UNL A   1      54.453  35.965  22.615  1.00  0.00    -0.237 OA
ATOM     77  O   UNL A   1      54.243  38.403  22.971  1.00  0.00    -0.237 OA
ATOM     78  O   UNL A   1      55.573  37.039  24.535  1.00  0.00    -0.744 OA
ENDBRANCH  74  75
ENDBRANCH  42  67
ENDBRANCH  16  17
ENDBRANCH   9  11
ENDBRANCH   8   9
ENDBRANCH   7   8
ENDBRANCH   6   7
ENDBRANCH   5   6
ENDBRANCH   4   5
ENDBRANCH   3   4
ENDBRANCH   2   3
ENDBRANCH   1   2
BRANCH   1  79
ATOM     79  C   UNL A   1      33.764  31.613  27.262  1.00  0.00     0.188 C 
BRANCH  79  80
ATOM     80  O   UNL A   1      33.570  30.204  27.240  1.00  0.00    -0.376 OA
BRANCH  80  81
ATOM     81  C   UNL A   1      32.217  29.785  27.341  1.00  0.00     0.202 C 
BRANCH  81  82
ATOM     82  C   UNL A   1      31.970  28.342  27.840  1.00  0.00     0.261 C 
BRANCH  82  83
ATOM     83  O   UNL A   1      30.937  27.505  27.262  1.00  0.00    -0.463 OA
BRANCH  83  84
ATOM     84  C   UNL A   1      31.278  26.555  26.371  1.00  0.00     0.310 C 
ATOM     85  O   UNL A   1      31.705  25.448  26.692  1.00  0.00    -0.252 OA
BRANCH  84  86
ATOM     86  C   UNL A   1      31.160  26.952  24.895  1.00  0.00     0.115 C 
ATOM     87  C   UNL A   1      31.831  28.254  24.374  1.00  0.00     0.004 C 
ATOM     88  C   UNL A   1      31.576  25.764  24.016  1.00  0.00     0.096 C 
ATOM     89  C   UNL A   1      33.360  28.122  24.318  1.00  0.00     0.005 C 
ATOM     90  C   UNL A   1      31.326  28.513  22.941  1.00  0.00     0.005 C 
ATOM     91  C   UNL A   1      32.476  26.275  22.846  1.00  0.00     0.002 C 
ATOM     92  C   UNL A   1      33.744  26.902  23.475  1.00  0.00     0.005 C 
ATOM     93  C   UNL A   1      31.795  27.390  22.021  1.00  0.00     0.005 C 
BRANCH  88  94
ATOM     94  C   UNL A   1      30.322  25.044  23.503  1.00  0.00     0.228 C 
ATOM     95  O   UNL A   1      29.309  25.666  23.172  1.00  0.00    -0.274 OA
ATOM     96  N   UNL A   1      30.339  23.693  23.293  1.00  0.00    -0.326 N 
ATOM     97  H   UNL A   1      29.604  23.348  22.736  1.00  0.00     0.169 HD
BRANCH  96  98
ATOM     98  C   UNL A   1      31.241  22.727  23.750  1.00  0.00     0.041 A 
ATOM     99  C   UNL A   1      32.058  22.092  22.827  1.00  0.00     0.026 A 
ATOM    100  C   UNL A   1      31.301  22.332  25.083  1.00  0.00     0.026 A 
ATOM    101  C   UNL A   1      33.027  21.184  23.267  1.00  0.00     0.006 A 
ATOM    102  C   UNL A   1      32.246  21.411  25.530  1.00  0.00     0.006 A 
ATOM    103  C   UNL A   1      33.143  20.847  24.625  1.00  0.00    -0.043 A 
BRANCH 103 104
ATOM    104  C   UNL A   1      34.177  19.856  25.107  1.00  0.00     0.071 C 
BRANCH 104 105
ATOM    105  C   UNL A   1      33.800  18.414  24.870  1.00  0.00    -0.041 A 
ATOM    106  C   UNL A   1      32.913  17.757  25.726  1.00  0.00     0.024 A 
ATOM    107  C   UNL A   1      34.328  17.698  23.792  1.00  0.00     0.024 A 
ATOM    108  C   UNL A   1      32.602  16.430  25.482  1.00  0.00     0.111 A 
ATOM    109  C   UNL A   1      33.946  16.373  23.621  1.00  0.00     0.111 A 
ATOM    110  N   UNL A   1      33.091  15.725  24.443  1.00  0.00    -0.265 NA
ENDBRANCH 104 105
ENDBRANCH 103 104
ENDBRANCH  96  98
ENDBRANCH  88  94
ENDBRANCH  84  86
ENDBRANCH  83  84
ENDBRANCH  82  83
ENDBRANCH  81  82
ENDBRANCH  80  81
ENDBRANCH  79  80
ENDBRANCH   1  79
TORSDOF 27
ENDMDL
MODEL 3
REMARK VINA RESULT:      -8.9      3.623      8.979
REMARK SMILES O=C(OCCOCCOCCOCCOC(=O)[C@H]1[C@H]2CC[C@H](CC2)[C@@H]1C(=O)Nc1ccc(Cc2ccncc2)cc1)c1ccc(-c2c3nc(c(-c4c(F)cc(S(=O)(=O)[O-])cc4F)c4ccc([nH]4)c(-c4c(F)cc(S(=O)(=O)[O-])cc4F)c4nc(c(-c5c(F)cc(S(=O)(=O)[O-])cc5F)c5ccc2[nH]5)C=C4)C=C3)cc1
REMARK SMILES IDX 10 1 9 2 8 3 7 4 6 5 5 6 4 7 3 8 2 9 1 10 42 11 43 12 107 13
REMARK SMILES IDX 44 14 106 15 45 16 46 17 47 18 100 19 48 20 105 21 99 22
REMARK SMILES IDX 101 23 49 24 104 25 98 26 97 27 50 29 84 30 63 31 83 32
REMARK SMILES IDX 64 33 67 34 82 35 102 36 65 37 66 38 81 40 103 41 68 42
REMARK SMILES IDX 51 43 52 44 61 45 53 46 54 47 60 48 62 49 55 50 56 51 57 52
REMARK SMILES IDX 58 53 59 54 85 55 86 56 95 57 87 58 88 59 94 60 96 61 89 62
REMARK SMILES IDX 90 63 91 64 92 65 93 66 69 67 70 68 79 69 71 70 72 71 78 72
REMARK SMILES IDX 80 73 73 74 74 75 75 76 76 77 77 78 11 79 12 80 13 81 14 82
REMARK SMILES IDX 15 83 16 84 17 85 18 86 19 87 25 88 24 89 20 90 22 91 23 92
REMARK SMILES IDX 21 93 26 94 27 95 28 96 29 98 30 99 41 100 31 101 40 102
REMARK SMILES IDX 32 103 33 104 34 105 35 106 39 107 36 108 38 109 37 110
REMARK H PARENT 101 28 67 39 28 97
REMARK Flexibility Score: inf
ROOT
ATOM      1  C   UNL A   1      41.527  20.149  26.062  1.00  0.00     0.188 C 
ENDROOT
BRANCH   1   2
ATOM      2  O   UNL A   1      42.927  20.046  25.806  1.00  0.00    -0.377 OA
BRANCH   2   3
ATOM      3  C   UNL A   1      43.767  21.185  25.895  1.00  0.00     0.188 C 
BRANCH   3   4
ATOM      4  C   UNL A   1      43.926  21.918  24.580  1.00  0.00     0.188 C 
BRANCH   4   5
ATOM      5  O   UNL A   1      43.033  23.008  24.587  1.00  0.00    -0.376 OA
BRANCH   5   6
ATOM      6  C   UNL A   1      43.335  24.140  25.383  1.00  0.00     0.202 C 
BRANCH   6   7
ATOM      7  C   UNL A   1      42.396  25.309  25.162  1.00  0.00     0.261 C 
BRANCH   7   8
ATOM      8  O   UNL A   1      43.031  26.600  25.143  1.00  0.00    -0.460 OA
BRANCH   8   9
ATOM      9  C   UNL A   1      44.218  27.033  25.625  1.00  0.00     0.338 C 
ATOM     10  O   UNL A   1      45.055  27.427  24.812  1.00  0.00    -0.246 OA
BRANCH   9  11
ATOM     11  C   UNL A   1      44.595  27.111  27.068  1.00  0.00     0.060 A 
ATOM     12  C   UNL A   1      44.318  26.155  28.041  1.00  0.00     0.016 A 
ATOM     13  C   UNL A   1      45.420  28.184  27.438  1.00  0.00     0.016 A 
ATOM     14  C   UNL A   1      44.770  26.261  29.340  1.00  0.00     0.010 A 
ATOM     15  C   UNL A   1      45.902  28.303  28.746  1.00  0.00     0.010 A 
ATOM     16  C   UNL A   1      45.545  27.347  29.703  1.00  0.00    -0.014 A 
BRANCH  16  17
ATOM     17  C   UNL A   1      45.727  27.554  31.142  1.00  0.00     0.031 A 
ATOM     18  C   UNL A   1      46.914  26.892  31.767  1.00  0.00     0.074 A 
ATOM     19  C   UNL A   1      44.979  28.464  31.791  1.00  0.00     0.049 A 
ATOM     20  N   UNL A   1      47.260  26.826  33.019  1.00  0.00    -0.248 NA
ATOM     21  C   UNL A   1      47.853  26.221  30.846  1.00  0.00     0.031 C 
ATOM     22  C   UNL A   1      43.942  29.301  31.176  1.00  0.00     0.029 A 
ATOM     23  N   UNL A   1      44.999  28.864  33.096  1.00  0.00    -0.354 N 
ATOM     24  C   UNL A   1      48.418  26.060  33.042  1.00  0.00     0.074 A 
ATOM     25  C   UNL A   1      48.726  25.688  31.683  1.00  0.00     0.031 C 
ATOM     26  C   UNL A   1      43.430  30.120  32.110  1.00  0.00     0.029 A 
ATOM     27  C   UNL A   1      44.037  29.799  33.395  1.00  0.00     0.049 A 
ATOM     28  H   UNL A   1      45.641  28.519  33.758  1.00  0.00     0.167 HD
ATOM     29  C   UNL A   1      49.139  25.694  34.122  1.00  0.00     0.037 A 
ATOM     30  C   UNL A   1      43.661  30.282  34.593  1.00  0.00     0.037 A 
ATOM     31  C   UNL A   1      48.786  26.108  35.451  1.00  0.00     0.049 A 
ATOM     32  C   UNL A   1      44.399  29.762  35.798  1.00  0.00     0.074 A 
ATOM     33  C   UNL A   1      49.364  25.754  36.652  1.00  0.00     0.029 A 
ATOM     34  N   UNL A   1      47.745  26.984  35.740  1.00  0.00    -0.354 N 
ATOM     35  N   UNL A   1      45.423  28.937  35.844  1.00  0.00    -0.248 NA
ATOM     36  C   UNL A   1      43.928  30.212  37.111  1.00  0.00     0.031 C 
ATOM     37  C   UNL A   1      48.636  26.375  37.674  1.00  0.00     0.029 A 
ATOM     38  C   UNL A   1      47.647  27.168  37.104  1.00  0.00     0.049 A 
ATOM     39  H   UNL A   1      47.163  27.410  35.070  1.00  0.00     0.167 HD
ATOM     40  C   UNL A   1      45.733  28.784  37.186  1.00  0.00     0.074 A 
ATOM     41  C   UNL A   1      44.795  29.617  37.920  1.00  0.00     0.031 C 
ATOM     42  C   UNL A   1      46.696  28.026  37.771  1.00  0.00     0.037 A 
BRANCH  29  43
ATOM     43  C   UNL A   1      50.279  24.744  33.898  1.00  0.00     0.058 A 
ATOM     44  C   UNL A   1      51.591  25.182  33.656  1.00  0.00     0.135 A 
ATOM     45  C   UNL A   1      50.038  23.360  33.867  1.00  0.00     0.135 A 
ATOM     46  F   UNL A   1      51.871  26.495  33.627  1.00  0.00    -0.206 F 
ATOM     47  C   UNL A   1      52.617  24.285  33.371  1.00  0.00     0.059 A 
ATOM     48  C   UNL A   1      51.053  22.445  33.609  1.00  0.00     0.059 A 
ATOM     49  F   UNL A   1      48.797  22.887  34.062  1.00  0.00    -0.206 F 
ATOM     50  C   UNL A   1      52.337  22.917  33.349  1.00  0.00     0.060 A 
BRANCH  50  51
ATOM     51  S   UNL A   1      53.678  21.769  32.974  1.00  0.00     0.124 S 
ATOM     52  O   UNL A   1      53.889  21.130  34.268  1.00  0.00    -0.237 OA
ATOM     53  O   UNL A   1      53.091  20.931  31.938  1.00  0.00    -0.237 OA
ATOM     54  O   UNL A   1      54.761  22.649  32.526  1.00  0.00    -0.744 OA
ENDBRANCH  50  51
ENDBRANCH  29  43
BRANCH  30  55
ATOM     55  C   UNL A   1      42.511  31.220  34.708  1.00  0.00     0.058 A 
ATOM     56  C   UNL A   1      41.189  30.757  34.792  1.00  0.00     0.135 A 
ATOM     57  C   UNL A   1      42.710  32.612  34.739  1.00  0.00     0.135 A 
ATOM     58  F   UNL A   1      40.938  29.440  34.761  1.00  0.00    -0.206 F 
ATOM     59  C   UNL A   1      40.111  31.635  34.888  1.00  0.00     0.059 A 
ATOM     60  C   UNL A   1      41.652  33.507  34.866  1.00  0.00     0.059 A 
ATOM     61  F   UNL A   1      43.952  33.117  34.670  1.00  0.00    -0.206 F 
ATOM     62  C   UNL A   1      40.354  33.009  34.928  1.00  0.00     0.060 A 
BRANCH  62  63
ATOM     63  S   UNL A   1      38.952  34.138  35.086  1.00  0.00     0.124 S 
ATOM     64  O   UNL A   1      37.978  33.525  34.190  1.00  0.00    -0.237 OA
ATOM     65  O   UNL A   1      38.652  34.056  36.512  1.00  0.00    -0.237 OA
ATOM     66  O   UNL A   1      39.499  35.418  34.644  1.00  0.00    -0.744 OA
ENDBRANCH  62  63
ENDBRANCH  30  55
BRANCH  42  67
ATOM     67  C   UNL A   1      46.804  28.110  39.264  1.00  0.00     0.058 A 
ATOM     68  C   UNL A   1      47.585  29.091  39.892  1.00  0.00     0.135 A 
ATOM     69  C   UNL A   1      46.052  27.241  40.069  1.00  0.00     0.135 A 
ATOM     70  F   UNL A   1      48.327  29.938  39.159  1.00  0.00    -0.206 F 
ATOM     71  C   UNL A   1      47.632  29.195  41.275  1.00  0.00     0.059 A 
ATOM     72  C   UNL A   1      46.057  27.350  41.453  1.00  0.00     0.059 A 
ATOM     73  F   UNL A   1      45.279  26.296  39.510  1.00  0.00    -0.206 F 
ATOM     74  C   UNL A   1      46.859  28.324  42.046  1.00  0.00     0.060 A 
BRANCH  74  75
ATOM     75  S   UNL A   1      46.891  28.504  43.840  1.00  0.00     0.124 S 
ATOM     76  O   UNL A   1      45.500  28.226  44.185  1.00  0.00    -0.237 OA
ATOM     77  O   UNL A   1      47.860  27.487  44.237  1.00  0.00    -0.237 OA
ATOM     78  O   UNL A   1      47.323  29.884  44.035  1.00  0.00    -0.744 OA
ENDBRANCH  74  75
ENDBRANCH  42  67
ENDBRANCH  16  17
ENDBRANCH   9  11
ENDBRANCH   8   9
ENDBRANCH   7   8
ENDBRANCH   6   7
ENDBRANCH   5   6
ENDBRANCH   4   5
ENDBRANCH   3   4
ENDBRANCH   2   3
ENDBRANCH   1   2
BRANCH   1  79
ATOM     79  C   UNL A   1      41.038  21.276  26.971  1.00  0.00     0.188 C 
BRANCH  79  80
ATOM     80  O   UNL A   1      39.625  21.429  27.000  1.00  0.00    -0.376 OA
BRANCH  80  81
ATOM     81  C   UNL A   1      39.051  21.913  25.795  1.00  0.00     0.202 C 
BRANCH  81  82
ATOM     82  C   UNL A   1      37.515  21.791  25.657  1.00  0.00     0.261 C 
BRANCH  82  83
ATOM     83  O   UNL A   1      36.824  22.214  24.455  1.00  0.00    -0.463 OA
BRANCH  83  84
ATOM     84  C   UNL A   1      35.760  23.032  24.558  1.00  0.00     0.310 C 
ATOM     85  O   UNL A   1      35.850  24.256  24.605  1.00  0.00    -0.252 OA
BRANCH  84  86
ATOM     86  C   UNL A   1      34.396  22.341  24.676  1.00  0.00     0.115 C 
ATOM     87  C   UNL A   1      34.039  21.516  25.943  1.00  0.00     0.004 C 
ATOM     88  C   UNL A   1      33.285  23.361  24.387  1.00  0.00     0.096 C 
ATOM     89  C   UNL A   1      33.796  22.420  27.161  1.00  0.00     0.005 C 
ATOM     90  C   UNL A   1      32.736  20.743  25.661  1.00  0.00     0.005 C 
ATOM     91  C   UNL A   1      32.130  23.176  25.424  1.00  0.00     0.002 C 
ATOM     92  C   UNL A   1      32.718  23.457  26.828  1.00  0.00     0.005 C 
ATOM     93  C   UNL A   1      31.589  21.729  25.453  1.00  0.00     0.005 C 
BRANCH  88  94
ATOM     94  C   UNL A   1      32.794  23.188  22.944  1.00  0.00     0.228 C 
ATOM     95  O   UNL A   1      33.080  22.189  22.279  1.00  0.00    -0.274 OA
ATOM     96  N   UNL A   1      31.927  24.092  22.397  1.00  0.00    -0.326 N 
ATOM     97  H   UNL A   1      31.466  23.788  21.581  1.00  0.00     0.169 HD
BRANCH  96  98
ATOM     98  C   UNL A   1      31.596  25.384  22.819  1.00  0.00     0.041 A 
ATOM     99  C   UNL A   1      30.461  25.557  23.597  1.00  0.00     0.026 A 
ATOM    100  C   UNL A   1      32.321  26.505  22.431  1.00  0.00     0.026 A 
ATOM    101  C   UNL A   1      30.154  26.824  24.103  1.00  0.00     0.006 A 
ATOM    102  C   UNL A   1      32.011  27.776  22.909  1.00  0.00     0.006 A 
ATOM    103  C   UNL A   1      30.936  27.945  23.779  1.00  0.00    -0.043 A 
BRANCH 103 104
ATOM    104  C   UNL A   1      30.603  29.320  24.308  1.00  0.00     0.071 C 
BRANCH 104 105
ATOM    105  C   UNL A   1      29.622  30.084  23.453  1.00  0.00    -0.041 A 
ATOM    106  C   UNL A   1      29.199  31.365  23.821  1.00  0.00     0.024 A 
ATOM    107  C   UNL A   1      29.108  29.534  22.275  1.00  0.00     0.024 A 
ATOM    108  C   UNL A   1      28.288  32.028  23.016  1.00  0.00     0.111 A 
ATOM    109  C   UNL A   1      28.209  30.283  21.526  1.00  0.00     0.111 A 
ATOM    110  N   UNL A   1      27.791  31.521  21.872  1.00  0.00    -0.265 NA
ENDBRANCH 104 105
ENDBRANCH 103 104
ENDBRANCH  96  98
ENDBRANCH  88  94
ENDBRANCH  84  86
ENDBRANCH  83  84
ENDBRANCH  82  83
ENDBRANCH  81  82
ENDBRANCH  80  81
ENDBRANCH  79  80
ENDBRANCH   1  79
TORSDOF 27
ENDMDL
