MODEL 1
REMARK VINA RESULT:      -7.8      0.000      0.000
REMARK SMILES O=C(Nc1cccc(C(=O)OCCOCCOCCOCCOC(=O)c2ccc(-c3c4nc(c(-c5c(F)cc(S(=O)(=O)[O-])cc5F)c5ccc([nH]5)c(-c5c(F)cc(S(=O)(=O)[O-])cc5F)c5nc(c(-c6c(F)cc(S(=O)(=O)[O-])cc6F)c6ccc3[nH]6)C=C5)C=C4)cc2)c1)Nc1cc(Cl)c(Cl)cc1Cl
REMARK SMILES IDX 18 1 17 2 16 3 15 4 14 5 13 6 12 7 11 8 9 9 10 10 8 11 4 12
REMARK SMILES IDX 5 13 92 14 6 15 7 16 3 17 1 18 2 19 93 20 94 23 95 24 101 25
REMARK SMILES IDX 96 26 100 27 102 28 97 29 98 30 99 31 19 32 20 33 21 34
REMARK SMILES IDX 22 35 23 36 24 37 25 38 26 39 27 40 91 41 28 42 90 43 29 44
REMARK SMILES IDX 30 45 31 46 84 47 32 48 89 49 83 50 85 51 33 52 88 53 82 54
REMARK SMILES IDX 81 55 34 57 68 58 47 59 67 60 48 61 51 62 66 63 86 64 49 65
REMARK SMILES IDX 50 66 65 68 87 69 52 70 35 71 36 72 45 73 37 74 38 75 44 76
REMARK SMILES IDX 46 77 39 78 40 79 41 80 42 81 43 82 69 83 70 84 79 85 71 86
REMARK SMILES IDX 72 87 78 88 80 89 73 90 74 91 75 92 76 93 77 94 53 95 54 96
REMARK SMILES IDX 63 97 55 98 56 99 62 100 64 101 57 102 58 103 59 104 60 105
REMARK SMILES IDX 61 106
REMARK H PARENT 3 21 93 22 85 56 51 67
REMARK Flexibility Score: inf
ROOT
ATOM      1  C   UNL A   1      34.836  33.856  32.005  1.00  0.00     0.188 C 
ENDROOT
BRANCH   1   2
ATOM      2  O   UNL A   1      34.028  34.177  30.873  1.00  0.00    -0.377 OA
BRANCH   2   3
ATOM      3  C   UNL A   1      33.079  35.224  30.965  1.00  0.00     0.188 C 
BRANCH   3   4
ATOM      4  C   UNL A   1      32.800  36.024  29.679  1.00  0.00     0.188 C 
BRANCH   4   5
ATOM      5  O   UNL A   1      33.979  36.469  29.026  1.00  0.00    -0.376 OA
BRANCH   5   6
ATOM      6  C   UNL A   1      34.398  35.817  27.840  1.00  0.00     0.202 C 
BRANCH   6   7
ATOM      7  C   UNL A   1      34.134  34.314  27.676  1.00  0.00     0.261 C 
BRANCH   7   8
ATOM      8  O   UNL A   1      35.292  33.477  27.627  1.00  0.00    -0.460 OA
BRANCH   8   9
ATOM      9  C   UNL A   1      35.196  32.210  28.080  1.00  0.00     0.338 C 
ATOM     10  O   UNL A   1      34.384  31.366  27.749  1.00  0.00    -0.246 OA
BRANCH   9  11
ATOM     11  C   UNL A   1      36.399  31.955  28.912  1.00  0.00     0.062 A 
ATOM     12  C   UNL A   1      37.624  30.539  30.458  1.00  0.00     0.043 A 
ATOM     13  C   UNL A   1      38.556  31.564  30.637  1.00  0.00     0.026 A 
ATOM     14  C   UNL A   1      36.509  30.773  29.650  1.00  0.00     0.041 A 
ATOM     15  C   UNL A   1      38.436  32.762  29.924  1.00  0.00     0.003 A 
ATOM     16  C   UNL A   1      37.374  32.947  29.035  1.00  0.00     0.016 A 
BRANCH  12  17
ATOM     17  N   UNL A   1      37.856  29.309  31.097  1.00  0.00    -0.308 N 
ATOM     18  O   UNL A   1      38.565  27.199  31.371  1.00  0.00    -0.248 OA
ATOM     19  C   UNL A   1      38.578  28.211  30.679  1.00  0.00     0.323 C 
ATOM     20  N   UNL A   1      39.392  28.431  29.601  1.00  0.00    -0.306 N 
ATOM     21  H   UNL A   1      37.436  29.215  31.984  1.00  0.00     0.171 HD
ATOM     22  H   UNL A   1      39.491  29.374  29.338  1.00  0.00     0.171 HD
BRANCH  20  23
ATOM     23  C   UNL A   1      40.110  27.511  28.813  1.00  0.00     0.063 A 
ATOM     24  C   UNL A   1      39.317  26.500  28.243  1.00  0.00     0.049 A 
ATOM     25  C   UNL A   1      41.493  27.498  28.570  1.00  0.00     0.066 A 
ATOM     26  C   UNL A   1      39.853  25.587  27.336  1.00  0.00     0.061 A 
ATOM     27  C   UNL A   1      42.028  26.585  27.651  1.00  0.00     0.044 A 
ATOM     28  Cl  UNL A   1      42.628  28.451  29.456  1.00  0.00    -0.082 Cl
ATOM     29  Cl  UNL A   1      38.774  24.425  26.648  1.00  0.00    -0.083 Cl
ATOM     30  C   UNL A   1      41.204  25.663  27.001  1.00  0.00     0.061 A 
ATOM     31  Cl  UNL A   1      41.882  24.681  25.763  1.00  0.00    -0.083 Cl
ENDBRANCH  20  23
ENDBRANCH  12  17
ENDBRANCH   9  11
ENDBRANCH   8   9
ENDBRANCH   7   8
ENDBRANCH   6   7
ENDBRANCH   5   6
ENDBRANCH   4   5
ENDBRANCH   3   4
ENDBRANCH   2   3
ENDBRANCH   1   2
BRANCH   1  32
ATOM     32  C   UNL A   1      34.248  33.651  33.424  1.00  0.00     0.188 C 
BRANCH  32  33
ATOM     33  O   UNL A   1      35.180  33.236  34.413  1.00  0.00    -0.376 OA
BRANCH  33  34
ATOM     34  C   UNL A   1      36.207  34.149  34.758  1.00  0.00     0.202 C 
BRANCH  34  35
ATOM     35  C   UNL A   1      37.183  33.659  35.835  1.00  0.00     0.261 C 
BRANCH  35  36
ATOM     36  O   UNL A   1      37.127  32.254  36.125  1.00  0.00    -0.460 OA
BRANCH  36  37
ATOM     37  C   UNL A   1      38.115  31.739  36.890  1.00  0.00     0.338 C 
ATOM     38  O   UNL A   1      38.082  31.524  38.090  1.00  0.00    -0.246 OA
BRANCH  37  39
ATOM     39  C   UNL A   1      39.192  31.299  35.981  1.00  0.00     0.060 A 
ATOM     40  C   UNL A   1      40.522  31.613  36.291  1.00  0.00     0.016 A 
ATOM     41  C   UNL A   1      38.886  30.553  34.842  1.00  0.00     0.016 A 
ATOM     42  C   UNL A   1      41.550  31.191  35.448  1.00  0.00     0.010 A 
ATOM     43  C   UNL A   1      39.913  30.150  33.988  1.00  0.00     0.010 A 
ATOM     44  C   UNL A   1      41.247  30.487  34.274  1.00  0.00    -0.014 A 
BRANCH  44  45
ATOM     45  C   UNL A   1      42.300  30.236  33.260  1.00  0.00     0.031 A 
ATOM     46  C   UNL A   1      43.023  28.919  33.289  1.00  0.00     0.074 A 
ATOM     47  C   UNL A   1      42.612  31.162  32.336  1.00  0.00     0.049 A 
ATOM     48  N   UNL A   1      44.023  28.505  32.555  1.00  0.00    -0.248 NA
ATOM     49  C   UNL A   1      42.555  27.937  34.281  1.00  0.00     0.031 C 
ATOM     50  C   UNL A   1      41.960  32.460  32.183  1.00  0.00     0.029 A 
ATOM     51  N   UNL A   1      43.575  31.151  31.358  1.00  0.00    -0.354 N 
ATOM     52  C   UNL A   1      44.309  27.219  32.999  1.00  0.00     0.074 A 
ATOM     53  C   UNL A   1      43.396  26.933  34.084  1.00  0.00     0.031 C 
ATOM     54  C   UNL A   1      42.551  33.128  31.177  1.00  0.00     0.029 A 
ATOM     55  C   UNL A   1      43.646  32.321  30.642  1.00  0.00     0.049 A 
ATOM     56  H   UNL A   1      44.159  30.377  31.186  1.00  0.00     0.167 HD
ATOM     57  C   UNL A   1      45.243  26.353  32.538  1.00  0.00     0.037 A 
ATOM     58  C   UNL A   1      44.515  32.704  29.685  1.00  0.00     0.037 A 
ATOM     59  C   UNL A   1      46.156  26.648  31.465  1.00  0.00     0.049 A 
ATOM     60  C   UNL A   1      45.606  31.758  29.250  1.00  0.00     0.074 A 
ATOM     61  C   UNL A   1      47.126  25.829  30.913  1.00  0.00     0.029 A 
ATOM     62  N   UNL A   1      46.223  27.858  30.790  1.00  0.00    -0.354 N 
ATOM     63  N   UNL A   1      45.847  30.533  29.654  1.00  0.00    -0.248 NA
ATOM     64  C   UNL A   1      46.548  32.250  28.232  1.00  0.00     0.031 C 
ATOM     65  C   UNL A   1      47.817  26.564  29.944  1.00  0.00     0.029 A 
ATOM     66  C   UNL A   1      47.239  27.820  29.850  1.00  0.00     0.049 A 
ATOM     67  H   UNL A   1      45.634  28.630  30.955  1.00  0.00     0.167 HD
ATOM     68  C   UNL A   1      46.949  30.100  28.921  1.00  0.00     0.074 A 
ATOM     69  C   UNL A   1      47.318  31.187  28.040  1.00  0.00     0.031 C 
ATOM     70  C   UNL A   1      47.597  28.909  28.974  1.00  0.00     0.037 A 
BRANCH  57  71
ATOM     71  C   UNL A   1      45.344  25.015  33.216  1.00  0.00     0.058 A 
ATOM     72  C   UNL A   1      44.612  23.903  32.768  1.00  0.00     0.135 A 
ATOM     73  C   UNL A   1      46.207  24.834  34.308  1.00  0.00     0.135 A 
ATOM     74  F   UNL A   1      43.756  24.024  31.741  1.00  0.00    -0.206 F 
ATOM     75  C   UNL A   1      44.714  22.665  33.395  1.00  0.00     0.059 A 
ATOM     76  C   UNL A   1      46.348  23.597  34.931  1.00  0.00     0.059 A 
ATOM     77  F   UNL A   1      46.927  25.864  34.778  1.00  0.00    -0.206 F 
ATOM     78  C   UNL A   1      45.587  22.522  34.476  1.00  0.00     0.060 A 
BRANCH  78  79
ATOM     79  S   UNL A   1      45.713  20.908  35.274  1.00  0.00     0.124 S 
ATOM     80  O   UNL A   1      44.529  20.233  34.752  1.00  0.00    -0.237 OA
ATOM     81  O   UNL A   1      46.994  20.415  34.776  1.00  0.00    -0.237 OA
ATOM     82  O   UNL A   1      45.677  21.227  36.697  1.00  0.00    -0.744 OA
ENDBRANCH  78  79
ENDBRANCH  57  71
BRANCH  58  83
ATOM     83  C   UNL A   1      44.407  34.056  29.077  1.00  0.00     0.058 A 
ATOM     84  C   UNL A   1      44.863  35.193  29.759  1.00  0.00     0.135 A 
ATOM     85  C   UNL A   1      43.825  34.240  27.812  1.00  0.00     0.135 A 
ATOM     86  F   UNL A   1      45.412  35.068  30.978  1.00  0.00    -0.206 F 
ATOM     87  C   UNL A   1      44.730  36.467  29.221  1.00  0.00     0.059 A 
ATOM     88  C   UNL A   1      43.707  35.502  27.240  1.00  0.00     0.059 A 
ATOM     89  F   UNL A   1      43.378  33.184  27.114  1.00  0.00    -0.206 F 
ATOM     90  C   UNL A   1      44.155  36.610  27.959  1.00  0.00     0.060 A 
BRANCH  90  91
ATOM     91  S   UNL A   1      44.007  38.270  27.269  1.00  0.00     0.124 S 
ATOM     92  O   UNL A   1      43.933  39.089  28.474  1.00  0.00    -0.237 OA
ATOM     93  O   UNL A   1      45.238  38.380  26.493  1.00  0.00    -0.237 OA
ATOM     94  O   UNL A   1      42.778  38.190  26.489  1.00  0.00    -0.744 OA
ENDBRANCH  90  91
ENDBRANCH  58  83
BRANCH  70  95
ATOM     95  C   UNL A   1      48.754  28.701  28.035  1.00  0.00     0.058 A 
ATOM     96  C   UNL A   1      48.573  28.192  26.739  1.00  0.00     0.135 A 
ATOM     97  C   UNL A   1      50.054  29.071  28.415  1.00  0.00     0.135 A 
ATOM     98  F   UNL A   1      47.353  27.814  26.326  1.00  0.00    -0.206 F 
ATOM     99  C   UNL A   1      49.643  28.041  25.861  1.00  0.00     0.059 A 
ATOM    100  C   UNL A   1      51.134  28.957  27.544  1.00  0.00     0.059 A 
ATOM    101  F   UNL A   1      50.284  29.573  29.640  1.00  0.00    -0.206 F 
ATOM    102  C   UNL A   1      50.919  28.430  26.271  1.00  0.00     0.060 A 
BRANCH 102 103
ATOM    103  S   UNL A   1      52.289  28.267  25.107  1.00  0.00     0.124 S 
ATOM    104  O   UNL A   1      53.066  29.469  25.396  1.00  0.00    -0.237 OA
ATOM    105  O   UNL A   1      52.897  27.005  25.515  1.00  0.00    -0.237 OA
ATOM    106  O   UNL A   1      51.629  28.246  23.805  1.00  0.00    -0.744 OA
ENDBRANCH 102 103
ENDBRANCH  70  95
ENDBRANCH  44  45
ENDBRANCH  37  39
ENDBRANCH  36  37
ENDBRANCH  35  36
ENDBRANCH  34  35
ENDBRANCH  33  34
ENDBRANCH  32  33
ENDBRANCH   1  32
TORSDOF 25
ENDMDL
MODEL 2
REMARK VINA RESULT:      -7.3      3.884      4.885
REMARK SMILES O=C(Nc1cccc(C(=O)OCCOCCOCCOCCOC(=O)c2ccc(-c3c4nc(c(-c5c(F)cc(S(=O)(=O)[O-])cc5F)c5ccc([nH]5)c(-c5c(F)cc(S(=O)(=O)[O-])cc5F)c5nc(c(-c6c(F)cc(S(=O)(=O)[O-])cc6F)c6ccc3[nH]6)C=C5)C=C4)cc2)c1)Nc1cc(Cl)c(Cl)cc1Cl
REMARK SMILES IDX 18 1 17 2 16 3 15 4 14 5 13 6 12 7 11 8 9 9 10 10 8 11 4 12
REMARK SMILES IDX 5 13 92 14 6 15 7 16 3 17 1 18 2 19 93 20 94 23 95 24 101 25
REMARK SMILES IDX 96 26 100 27 102 28 97 29 98 30 99 31 19 32 20 33 21 34
REMARK SMILES IDX 22 35 23 36 24 37 25 38 26 39 27 40 91 41 28 42 90 43 29 44
REMARK SMILES IDX 30 45 31 46 84 47 32 48 89 49 83 50 85 51 33 52 88 53 82 54
REMARK SMILES IDX 81 55 34 57 68 58 47 59 67 60 48 61 51 62 66 63 86 64 49 65
REMARK SMILES IDX 50 66 65 68 87 69 52 70 35 71 36 72 45 73 37 74 38 75 44 76
REMARK SMILES IDX 46 77 39 78 40 79 41 80 42 81 43 82 69 83 70 84 79 85 71 86
REMARK SMILES IDX 72 87 78 88 80 89 73 90 74 91 75 92 76 93 77 94 53 95 54 96
REMARK SMILES IDX 63 97 55 98 56 99 62 100 64 101 57 102 58 103 59 104 60 105
REMARK SMILES IDX 61 106
REMARK H PARENT 3 21 93 22 85 56 51 67
REMARK Flexibility Score: inf
ROOT
ATOM      1  C   UNL A   1      36.315  33.660  31.850  1.00  0.00     0.188 C 
ENDROOT
BRANCH   1   2
ATOM      2  O   UNL A   1      35.420  33.599  30.740  1.00  0.00    -0.377 OA
BRANCH   2   3
ATOM      3  C   UNL A   1      35.827  32.952  29.548  1.00  0.00     0.188 C 
BRANCH   3   4
ATOM      4  C   UNL A   1      35.190  31.581  29.250  1.00  0.00     0.188 C 
BRANCH   4   5
ATOM      5  O   UNL A   1      34.415  31.567  28.061  1.00  0.00    -0.376 OA
BRANCH   5   6
ATOM      6  C   UNL A   1      33.849  30.343  27.623  1.00  0.00     0.202 C 
BRANCH   6   7
ATOM      7  C   UNL A   1      33.154  30.284  26.256  1.00  0.00     0.261 C 
BRANCH   7   8
ATOM      8  O   UNL A   1      32.699  28.994  25.841  1.00  0.00    -0.460 OA
BRANCH   8   9
ATOM      9  C   UNL A   1      31.828  28.913  24.814  1.00  0.00     0.338 C 
ATOM     10  O   UNL A   1      31.726  29.675  23.870  1.00  0.00    -0.246 OA
BRANCH   9  11
ATOM     11  C   UNL A   1      31.146  27.600  24.926  1.00  0.00     0.062 A 
ATOM     12  C   UNL A   1      30.972  25.402  25.944  1.00  0.00     0.043 A 
ATOM     13  C   UNL A   1      30.004  25.055  24.998  1.00  0.00     0.026 A 
ATOM     14  C   UNL A   1      31.590  26.651  25.853  1.00  0.00     0.041 A 
ATOM     15  C   UNL A   1      29.576  25.990  24.049  1.00  0.00     0.003 A 
ATOM     16  C   UNL A   1      30.124  27.275  24.032  1.00  0.00     0.016 A 
BRANCH  12  17
ATOM     17  N   UNL A   1      31.278  24.473  26.955  1.00  0.00    -0.308 N 
ATOM     18  O   UNL A   1      32.237  22.704  27.944  1.00  0.00    -0.248 OA
ATOM     19  C   UNL A   1      32.210  23.458  26.977  1.00  0.00     0.323 C 
ATOM     20  N   UNL A   1      33.143  23.506  25.977  1.00  0.00    -0.306 N 
ATOM     21  H   UNL A   1      30.742  24.562  27.777  1.00  0.00     0.171 HD
ATOM     22  H   UNL A   1      33.143  24.335  25.445  1.00  0.00     0.171 HD
BRANCH  20  23
ATOM     23  C   UNL A   1      34.103  22.550  25.594  1.00  0.00     0.063 A 
ATOM     24  C   UNL A   1      35.432  22.994  25.700  1.00  0.00     0.049 A 
ATOM     25  C   UNL A   1      33.865  21.252  25.114  1.00  0.00     0.066 A 
ATOM     26  C   UNL A   1      36.503  22.128  25.480  1.00  0.00     0.061 A 
ATOM     27  C   UNL A   1      34.942  20.381  24.902  1.00  0.00     0.044 A 
ATOM     28  Cl  UNL A   1      32.311  20.689  24.612  1.00  0.00    -0.082 Cl
ATOM     29  Cl  UNL A   1      38.095  22.764  25.700  1.00  0.00    -0.083 Cl
ATOM     30  C   UNL A   1      36.255  20.803  25.129  1.00  0.00     0.061 A 
ATOM     31  Cl  UNL A   1      37.523  19.647  25.015  1.00  0.00    -0.083 Cl
ENDBRANCH  20  23
ENDBRANCH  12  17
ENDBRANCH   9  11
ENDBRANCH   8   9
ENDBRANCH   7   8
ENDBRANCH   6   7
ENDBRANCH   5   6
ENDBRANCH   4   5
ENDBRANCH   3   4
ENDBRANCH   2   3
ENDBRANCH   1   2
BRANCH   1  32
ATOM     32  C   UNL A   1      36.529  34.949  32.684  1.00  0.00     0.188 C 
BRANCH  32  33
ATOM     33  O   UNL A   1      36.717  34.745  34.078  1.00  0.00    -0.376 OA
BRANCH  33  34
ATOM     34  C   UNL A   1      36.562  33.424  34.565  1.00  0.00     0.202 C 
BRANCH  34  35
ATOM     35  C   UNL A   1      37.852  32.747  35.044  1.00  0.00     0.261 C 
BRANCH  35  36
ATOM     36  O   UNL A   1      37.935  31.335  34.801  1.00  0.00    -0.460 OA
BRANCH  36  37
ATOM     37  C   UNL A   1      38.560  30.581  35.733  1.00  0.00     0.338 C 
ATOM     38  O   UNL A   1      38.134  30.261  36.830  1.00  0.00    -0.246 OA
BRANCH  37  39
ATOM     39  C   UNL A   1      39.789  30.046  35.114  1.00  0.00     0.060 A 
ATOM     40  C   UNL A   1      41.033  30.355  35.680  1.00  0.00     0.016 A 
ATOM     41  C   UNL A   1      39.704  29.216  33.995  1.00  0.00     0.016 A 
ATOM     42  C   UNL A   1      42.201  29.844  35.113  1.00  0.00     0.010 A 
ATOM     43  C   UNL A   1      40.875  28.723  33.416  1.00  0.00     0.010 A 
ATOM     44  C   UNL A   1      42.129  29.054  33.957  1.00  0.00    -0.014 A 
BRANCH  44  45
ATOM     45  C   UNL A   1      43.363  28.698  33.217  1.00  0.00     0.031 A 
ATOM     46  C   UNL A   1      44.206  27.564  33.729  1.00  0.00     0.074 A 
ATOM     47  C   UNL A   1      43.732  29.374  32.114  1.00  0.00     0.049 A 
ATOM     48  N   UNL A   1      45.356  27.123  33.294  1.00  0.00    -0.248 NA
ATOM     49  C   UNL A   1      43.678  26.831  34.891  1.00  0.00     0.031 C 
ATOM     50  C   UNL A   1      42.983  30.467  31.498  1.00  0.00     0.029 A 
ATOM     51  N   UNL A   1      44.848  29.242  31.324  1.00  0.00    -0.354 N 
ATOM     52  C   UNL A   1      45.695  26.065  34.130  1.00  0.00     0.074 A 
ATOM     53  C   UNL A   1      44.642  25.951  35.115  1.00  0.00     0.031 C 
ATOM     54  C   UNL A   1      43.667  30.917  30.432  1.00  0.00     0.029 A 
ATOM     55  C   UNL A   1      44.919  30.170  30.313  1.00  0.00     0.049 A 
ATOM     56  H   UNL A   1      45.531  28.548  31.468  1.00  0.00     0.167 HD
ATOM     57  C   UNL A   1      46.781  25.258  34.077  1.00  0.00     0.037 A 
ATOM     58  C   UNL A   1      45.896  30.405  29.415  1.00  0.00     0.037 A 
ATOM     59  C   UNL A   1      47.832  25.384  33.100  1.00  0.00     0.049 A 
ATOM     60  C   UNL A   1      47.141  29.553  29.431  1.00  0.00     0.074 A 
ATOM     61  C   UNL A   1      48.965  24.603  32.952  1.00  0.00     0.029 A 
ATOM     62  N   UNL A   1      47.888  26.361  32.116  1.00  0.00    -0.354 N 
ATOM     63  N   UNL A   1      47.436  28.536  30.206  1.00  0.00    -0.248 NA
ATOM     64  C   UNL A   1      48.189  29.885  28.454  1.00  0.00     0.031 C 
ATOM     65  C   UNL A   1      49.733  25.142  31.915  1.00  0.00     0.029 A 
ATOM     66  C   UNL A   1      49.051  26.222  31.378  1.00  0.00     0.049 A 
ATOM     67  H   UNL A   1      47.201  27.049  31.965  1.00  0.00     0.167 HD
ATOM     68  C   UNL A   1      48.689  28.091  29.791  1.00  0.00     0.074 A 
ATOM     69  C   UNL A   1      49.089  28.940  28.689  1.00  0.00     0.031 C 
ATOM     70  C   UNL A   1      49.439  27.072  30.279  1.00  0.00     0.037 A 
BRANCH  57  71
ATOM     71  C   UNL A   1      46.903  24.186  35.124  1.00  0.00     0.058 A 
ATOM     72  C   UNL A   1      46.358  22.906  34.938  1.00  0.00     0.135 A 
ATOM     73  C   UNL A   1      47.602  24.434  36.317  1.00  0.00     0.135 A 
ATOM     74  F   UNL A   1      45.662  22.621  33.825  1.00  0.00    -0.206 F 
ATOM     75  C   UNL A   1      46.479  21.916  35.908  1.00  0.00     0.059 A 
ATOM     76  C   UNL A   1      47.761  23.449  37.288  1.00  0.00     0.059 A 
ATOM     77  F   UNL A   1      48.139  25.641  36.547  1.00  0.00    -0.206 F 
ATOM     78  C   UNL A   1      47.185  22.197  37.080  1.00  0.00     0.060 A 
BRANCH  78  79
ATOM     79  S   UNL A   1      47.339  20.900  38.325  1.00  0.00     0.124 S 
ATOM     80  O   UNL A   1      48.023  21.610  39.402  1.00  0.00    -0.237 OA
ATOM     81  O   UNL A   1      45.945  20.550  38.582  1.00  0.00    -0.237 OA
ATOM     82  O   UNL A   1      48.127  19.873  37.652  1.00  0.00    -0.744 OA
ENDBRANCH  78  79
ENDBRANCH  57  71
BRANCH  58  83
ATOM     83  C   UNL A   1      45.754  31.507  28.428  1.00  0.00     0.058 A 
ATOM     84  C   UNL A   1      46.224  32.797  28.714  1.00  0.00     0.135 A 
ATOM     85  C   UNL A   1      45.126  31.298  27.190  1.00  0.00     0.135 A 
ATOM     86  F   UNL A   1      46.817  33.048  29.891  1.00  0.00    -0.206 F 
ATOM     87  C   UNL A   1      46.060  33.846  27.819  1.00  0.00     0.059 A 
ATOM     88  C   UNL A   1      44.975  32.326  26.266  1.00  0.00     0.059 A 
ATOM     89  F   UNL A   1      44.663  30.081  26.864  1.00  0.00    -0.206 F 
ATOM     90  C   UNL A   1      45.439  33.599  26.596  1.00  0.00     0.060 A 
BRANCH  90  91
ATOM     91  S   UNL A   1      45.250  34.970  25.439  1.00  0.00     0.124 S 
ATOM     92  O   UNL A   1      45.226  34.278  24.155  1.00  0.00    -0.237 OA
ATOM     93  O   UNL A   1      43.986  35.555  25.875  1.00  0.00    -0.237 OA
ATOM     94  O   UNL A   1      46.436  35.778  25.694  1.00  0.00    -0.744 OA
ENDBRANCH  90  91
ENDBRANCH  58  83
BRANCH  70  95
ATOM     95  C   UNL A   1      50.759  26.794  29.611  1.00  0.00     0.058 A 
ATOM     96  C   UNL A   1      50.846  26.032  28.435  1.00  0.00     0.135 A 
ATOM     97  C   UNL A   1      51.945  27.347  30.121  1.00  0.00     0.135 A 
ATOM     98  F   UNL A   1      49.745  25.473  27.908  1.00  0.00    -0.206 F 
ATOM     99  C   UNL A   1      52.065  25.813  27.799  1.00  0.00     0.059 A 
ATOM    100  C   UNL A   1      53.170  27.166  29.486  1.00  0.00     0.059 A 
ATOM    101  F   UNL A   1      51.918  28.092  31.237  1.00  0.00    -0.206 F 
ATOM    102  C   UNL A   1      53.221  26.388  28.330  1.00  0.00     0.060 A 
BRANCH 102 103
ATOM    103  S   UNL A   1      54.788  26.130  27.471  1.00  0.00     0.124 S 
ATOM    104  O   UNL A   1      54.895  27.352  26.680  1.00  0.00    -0.237 OA
ATOM    105  O   UNL A   1      55.733  26.004  28.577  1.00  0.00    -0.237 OA
ATOM    106  O   UNL A   1      54.561  24.907  26.706  1.00  0.00    -0.744 OA
ENDBRANCH 102 103
ENDBRANCH  70  95
ENDBRANCH  44  45
ENDBRANCH  37  39
ENDBRANCH  36  37
ENDBRANCH  35  36
ENDBRANCH  34  35
ENDBRANCH  33  34
ENDBRANCH  32  33
ENDBRANCH   1  32
TORSDOF 25
ENDMDL
MODEL 3
REMARK VINA RESULT:      -7.3      3.975     13.207
REMARK SMILES O=C(Nc1cccc(C(=O)OCCOCCOCCOCCOC(=O)c2ccc(-c3c4nc(c(-c5c(F)cc(S(=O)(=O)[O-])cc5F)c5ccc([nH]5)c(-c5c(F)cc(S(=O)(=O)[O-])cc5F)c5nc(c(-c6c(F)cc(S(=O)(=O)[O-])cc6F)c6ccc3[nH]6)C=C5)C=C4)cc2)c1)Nc1cc(Cl)c(Cl)cc1Cl
REMARK SMILES IDX 18 1 17 2 16 3 15 4 14 5 13 6 12 7 11 8 9 9 10 10 8 11 4 12
REMARK SMILES IDX 5 13 92 14 6 15 7 16 3 17 1 18 2 19 93 20 94 23 95 24 101 25
REMARK SMILES IDX 96 26 100 27 102 28 97 29 98 30 99 31 19 32 20 33 21 34
REMARK SMILES IDX 22 35 23 36 24 37 25 38 26 39 27 40 91 41 28 42 90 43 29 44
REMARK SMILES IDX 30 45 31 46 84 47 32 48 89 49 83 50 85 51 33 52 88 53 82 54
REMARK SMILES IDX 81 55 34 57 68 58 47 59 67 60 48 61 51 62 66 63 86 64 49 65
REMARK SMILES IDX 50 66 65 68 87 69 52 70 35 71 36 72 45 73 37 74 38 75 44 76
REMARK SMILES IDX 46 77 39 78 40 79 41 80 42 81 43 82 69 83 70 84 79 85 71 86
REMARK SMILES IDX 72 87 78 88 80 89 73 90 74 91 75 92 76 93 77 94 53 95 54 96
REMARK SMILES IDX 63 97 55 98 56 99 62 100 64 101 57 102 58 103 59 104 60 105
REMARK SMILES IDX 61 106
REMARK H PARENT 3 21 93 22 85 56 51 67
REMARK Flexibility Score: inf
ROOT
ATOM      1  C   UNL A   1      51.032  28.296  25.230  1.00  0.00     0.188 C 
ENDROOT
BRANCH   1   2
ATOM      2  O   UNL A   1      49.662  27.957  25.020  1.00  0.00    -0.377 OA
BRANCH   2   3
ATOM      3  C   UNL A   1      49.313  27.075  23.968  1.00  0.00     0.188 C 
BRANCH   3   4
ATOM      4  C   UNL A   1      48.080  26.179  24.194  1.00  0.00     0.188 C 
BRANCH   4   5
ATOM      5  O   UNL A   1      46.882  26.911  24.400  1.00  0.00    -0.376 OA
BRANCH   5   6
ATOM      6  C   UNL A   1      45.788  26.275  25.037  1.00  0.00     0.202 C 
BRANCH   6   7
ATOM      7  C   UNL A   1      45.985  24.888  25.664  1.00  0.00     0.261 C 
BRANCH   7   8
ATOM      8  O   UNL A   1      45.206  23.830  25.100  1.00  0.00    -0.460 OA
BRANCH   8   9
ATOM      9  C   UNL A   1      45.844  22.781  24.543  1.00  0.00     0.338 C 
ATOM     10  O   UNL A   1      46.974  22.758  24.092  1.00  0.00    -0.246 OA
BRANCH   9  11
ATOM     11  C   UNL A   1      44.993  21.586  24.769  1.00  0.00     0.062 A 
ATOM     12  C   UNL A   1      43.039  20.558  25.780  1.00  0.00     0.043 A 
ATOM     13  C   UNL A   1      43.502  19.306  25.371  1.00  0.00     0.026 A 
ATOM     14  C   UNL A   1      43.829  21.684  25.538  1.00  0.00     0.041 A 
ATOM     15  C   UNL A   1      44.683  19.197  24.626  1.00  0.00     0.003 A 
ATOM     16  C   UNL A   1      45.412  20.341  24.296  1.00  0.00     0.016 A 
BRANCH  12  17
ATOM     17  N   UNL A   1      41.786  20.630  26.415  1.00  0.00    -0.308 N 
ATOM     18  O   UNL A   1      40.075  21.514  27.564  1.00  0.00    -0.248 OA
ATOM     19  C   UNL A   1      41.133  21.708  26.975  1.00  0.00     0.323 C 
ATOM     20  N   UNL A   1      41.658  22.931  26.656  1.00  0.00    -0.306 N 
ATOM     21  H   UNL A   1      41.297  19.776  26.468  1.00  0.00     0.171 HD
ATOM     22  H   UNL A   1      42.341  22.921  25.948  1.00  0.00     0.171 HD
BRANCH  20  23
ATOM     23  C   UNL A   1      41.366  24.202  27.189  1.00  0.00     0.063 A 
ATOM     24  C   UNL A   1      42.397  24.746  27.974  1.00  0.00     0.049 A 
ATOM     25  C   UNL A   1      40.180  24.937  27.032  1.00  0.00     0.066 A 
ATOM     26  C   UNL A   1      42.317  26.047  28.468  1.00  0.00     0.061 A 
ATOM     27  C   UNL A   1      40.106  26.248  27.522  1.00  0.00     0.044 A 
ATOM     28  Cl  UNL A   1      38.721  24.271  26.393  1.00  0.00    -0.082 Cl
ATOM     29  Cl  UNL A   1      43.669  26.638  29.370  1.00  0.00    -0.083 Cl
ATOM     30  C   UNL A   1      41.188  26.818  28.198  1.00  0.00     0.061 A 
ATOM     31  Cl  UNL A   1      41.106  28.480  28.630  1.00  0.00    -0.083 Cl
ENDBRANCH  20  23
ENDBRANCH  12  17
ENDBRANCH   9  11
ENDBRANCH   8   9
ENDBRANCH   7   8
ENDBRANCH   6   7
ENDBRANCH   5   6
ENDBRANCH   4   5
ENDBRANCH   3   4
ENDBRANCH   2   3
ENDBRANCH   1   2
BRANCH   1  32
ATOM     32  C   UNL A   1      52.169  27.810  24.295  1.00  0.00     0.188 C 
BRANCH  32  33
ATOM     33  O   UNL A   1      53.487  28.080  24.753  1.00  0.00    -0.376 OA
BRANCH  33  34
ATOM     34  C   UNL A   1      53.677  28.193  26.152  1.00  0.00     0.202 C 
BRANCH  34  35
ATOM     35  C   UNL A   1      54.429  27.027  26.806  1.00  0.00     0.261 C 
BRANCH  35  36
ATOM     36  O   UNL A   1      53.643  26.198  27.676  1.00  0.00    -0.460 OA
BRANCH  36  37
ATOM     37  C   UNL A   1      52.557  25.596  27.144  1.00  0.00     0.338 C 
ATOM     38  O   UNL A   1      52.530  24.824  26.200  1.00  0.00    -0.246 OA
BRANCH  37  39
ATOM     39  C   UNL A   1      51.413  25.889  28.029  1.00  0.00     0.060 A 
ATOM     40  C   UNL A   1      50.162  25.327  27.743  1.00  0.00     0.016 A 
ATOM     41  C   UNL A   1      51.588  26.694  29.156  1.00  0.00     0.016 A 
ATOM     42  C   UNL A   1      49.076  25.585  28.580  1.00  0.00     0.010 A 
ATOM     43  C   UNL A   1      50.496  26.969  29.980  1.00  0.00     0.010 A 
ATOM     44  C   UNL A   1      49.230  26.436  29.683  1.00  0.00    -0.014 A 
BRANCH  44  45
ATOM     45  C   UNL A   1      48.043  26.900  30.441  1.00  0.00     0.031 A 
ATOM     46  C   UNL A   1      47.256  28.061  29.901  1.00  0.00     0.074 A 
ATOM     47  C   UNL A   1      47.676  26.306  31.591  1.00  0.00     0.049 A 
ATOM     48  N   UNL A   1      46.232  28.684  30.423  1.00  0.00    -0.248 NA
ATOM     49  C   UNL A   1      47.683  28.590  28.595  1.00  0.00     0.031 C 
ATOM     50  C   UNL A   1      48.335  25.152  32.198  1.00  0.00     0.029 A 
ATOM     51  N   UNL A   1      46.658  26.610  32.461  1.00  0.00    -0.354 N 
ATOM     52  C   UNL A   1      45.896  29.682  29.516  1.00  0.00     0.074 A 
ATOM     53  C   UNL A   1      46.842  29.599  28.425  1.00  0.00     0.031 C 
ATOM     54  C   UNL A   1      47.713  24.853  33.351  1.00  0.00     0.029 A 
ATOM     55  C   UNL A   1      46.637  25.816  33.582  1.00  0.00     0.049 A 
ATOM     56  H   UNL A   1      46.006  27.329  32.297  1.00  0.00     0.167 HD
ATOM     57  C   UNL A   1      44.885  30.580  29.583  1.00  0.00     0.037 A 
ATOM     58  C   UNL A   1      45.856  25.880  34.679  1.00  0.00     0.037 A 
ATOM     59  C   UNL A   1      43.953  30.665  30.678  1.00  0.00     0.049 A 
ATOM     60  C   UNL A   1      44.796  26.948  34.775  1.00  0.00     0.074 A 
ATOM     61  C   UNL A   1      42.882  31.530  30.829  1.00  0.00     0.029 A 
ATOM     62  N   UNL A   1      43.987  29.869  31.813  1.00  0.00    -0.354 N 
ATOM     63  N   UNL A   1      44.465  27.866  33.897  1.00  0.00    -0.248 NA
ATOM     64  C   UNL A   1      44.004  26.991  36.014  1.00  0.00     0.031 C 
ATOM     65  C   UNL A   1      42.305  31.294  32.081  1.00  0.00     0.029 A 
ATOM     66  C   UNL A   1      42.978  30.243  32.684  1.00  0.00     0.049 A 
ATOM     67  H   UNL A   1      44.633  29.144  31.974  1.00  0.00     0.167 HD
ATOM     68  C   UNL A   1      43.412  28.577  34.467  1.00  0.00     0.074 A 
ATOM     69  C   UNL A   1      43.151  27.974  35.757  1.00  0.00     0.031 C 
ATOM     70  C   UNL A   1      42.724  29.633  33.966  1.00  0.00     0.037 A 
BRANCH  57  71
ATOM     71  C   UNL A   1      44.754  31.565  28.455  1.00  0.00     0.058 A 
ATOM     72  C   UNL A   1      45.375  32.823  28.496  1.00  0.00     0.135 A 
ATOM     73  C   UNL A   1      44.023  31.233  27.302  1.00  0.00     0.135 A 
ATOM     74  F   UNL A   1      46.069  33.201  29.582  1.00  0.00    -0.206 F 
ATOM     75  C   UNL A   1      45.256  33.729  27.446  1.00  0.00     0.059 A 
ATOM     76  C   UNL A   1      43.916  32.111  26.228  1.00  0.00     0.059 A 
ATOM     77  F   UNL A   1      43.407  30.045  27.212  1.00  0.00    -0.206 F 
ATOM     78  C   UNL A   1      44.525  33.362  26.315  1.00  0.00     0.060 A 
BRANCH  78  79
ATOM     79  S   UNL A   1      44.385  34.545  24.958  1.00  0.00     0.124 S 
ATOM     80  O   UNL A   1      42.948  34.525  24.702  1.00  0.00    -0.237 OA
ATOM     81  O   UNL A   1      44.905  35.769  25.560  1.00  0.00    -0.237 OA
ATOM     82  O   UNL A   1      45.217  33.962  23.911  1.00  0.00    -0.744 OA
ENDBRANCH  78  79
ENDBRANCH  57  71
BRANCH  58  83
ATOM     83  C   UNL A   1      46.053  24.915  35.792  1.00  0.00     0.058 A 
ATOM     84  C   UNL A   1      45.202  23.811  35.949  1.00  0.00     0.135 A 
ATOM     85  C   UNL A   1      47.081  25.088  36.732  1.00  0.00     0.135 A 
ATOM     86  F   UNL A   1      44.196  23.612  35.084  1.00  0.00    -0.206 F 
ATOM     87  C   UNL A   1      45.349  22.924  37.008  1.00  0.00     0.059 A 
ATOM     88  C   UNL A   1      47.265  24.199  37.784  1.00  0.00     0.059 A 
ATOM     89  F   UNL A   1      47.927  26.125  36.624  1.00  0.00    -0.206 F 
ATOM     90  C   UNL A   1      46.387  23.125  37.918  1.00  0.00     0.060 A 
BRANCH  90  91
ATOM     91  S   UNL A   1      46.572  21.954  39.277  1.00  0.00     0.124 S 
ATOM     92  O   UNL A   1      46.842  20.709  38.565  1.00  0.00    -0.237 OA
ATOM     93  O   UNL A   1      47.694  22.528  40.012  1.00  0.00    -0.237 OA
ATOM     94  O   UNL A   1      45.280  22.025  39.948  1.00  0.00    -0.744 OA
ENDBRANCH  90  91
ENDBRANCH  58  83
BRANCH  70  95
ATOM     95  C   UNL A   1      41.601  30.193  34.797  1.00  0.00     0.058 A 
ATOM     96  C   UNL A   1      41.800  31.260  35.687  1.00  0.00     0.135 A 
ATOM     97  C   UNL A   1      40.295  29.693  34.658  1.00  0.00     0.135 A 
ATOM     98  F   UNL A   1      43.028  31.770  35.866  1.00  0.00    -0.206 F 
ATOM     99  C   UNL A   1      40.749  31.799  36.423  1.00  0.00     0.059 A 
ATOM    100  C   UNL A   1      39.224  30.236  35.360  1.00  0.00     0.059 A 
ATOM    101  F   UNL A   1      40.046  28.679  33.813  1.00  0.00    -0.206 F 
ATOM    102  C   UNL A   1      39.463  31.284  36.250  1.00  0.00     0.060 A 
BRANCH 102 103
ATOM    103  S   UNL A   1      38.102  32.022  37.179  1.00  0.00     0.124 S 
ATOM    104  O   UNL A   1      37.402  30.838  37.666  1.00  0.00    -0.237 OA
ATOM    105  O   UNL A   1      38.805  32.805  38.191  1.00  0.00    -0.237 OA
ATOM    106  O   UNL A   1      37.388  32.803  36.174  1.00  0.00    -0.744 OA
ENDBRANCH 102 103
ENDBRANCH  70  95
ENDBRANCH  44  45
ENDBRANCH  37  39
ENDBRANCH  36  37
ENDBRANCH  35  36
ENDBRANCH  34  35
ENDBRANCH  33  34
ENDBRANCH  32  33
ENDBRANCH   1  32
TORSDOF 25
ENDMDL
