MODEL 1
REMARK VINA RESULT:      -8.5      0.000      0.000
REMARK SMILES O=C(CC1(NC(=O)[C@]2(C(F)(F)F)CC[NH2+]C2)CCC1)OCCOCCOCCOCCOC(=O)c1ccc(-c2c3nc(c(-c4c(F)cc(S(=O)(=O)[O-])cc4F)c4ccc([nH]4)c(-c4c(F)cc(S(=O)(=O)[O-])cc4F)c4nc(c(-c5c(F)cc(S(=O)(=O)[O-])cc5F)c5ccc2[nH]5)C=C4)C=C3)cc1
REMARK SMILES IDX 25 1 24 2 23 3 22 4 21 5 20 6 2 7 1 8 3 9 4 10 17 11 19 12
REMARK SMILES IDX 18 13 5 14 6 15 7 17 8 18 13 19 16 20 14 21 15 22 9 25 10 26
REMARK SMILES IDX 11 27 12 28 26 29 27 30 28 31 29 32 30 33 31 34 32 35 33 36
REMARK SMILES IDX 34 37 35 38 36 39 100 40 37 41 99 42 38 43 39 44 40 45 93 46
REMARK SMILES IDX 41 47 98 48 92 49 94 50 42 51 97 52 91 53 90 54 43 56 77 57
REMARK SMILES IDX 56 58 76 59 57 60 60 61 75 62 95 63 58 64 59 65 74 67 96 68
REMARK SMILES IDX 61 69 44 70 45 71 54 72 46 73 47 74 53 75 55 76 48 77 49 78
REMARK SMILES IDX 50 79 51 80 52 81 78 82 79 83 88 84 80 85 81 86 87 87 89 88
REMARK SMILES IDX 82 89 83 90 84 91 85 92 86 93 62 94 63 95 72 96 64 97 65 98
REMARK SMILES IDX 71 99 73 100 66 101 67 102 68 103 69 104 70 105
REMARK H PARENT 5 16 15 23 15 24 94 55 60 66
REMARK Flexibility Score: inf
ROOT
ATOM      1  C   UNL A   1      33.738  29.228  26.493  1.00  0.00     0.188 C 
ENDROOT
BRANCH   1   2
ATOM      2  C   UNL A   1      33.179  27.870  26.037  1.00  0.00     0.188 C 
BRANCH   2   3
ATOM      3  O   UNL A   1      33.621  27.413  24.786  1.00  0.00    -0.376 OA
BRANCH   3   4
ATOM      4  C   UNL A   1      33.816  28.372  23.780  1.00  0.00     0.202 C 
BRANCH   4   5
ATOM      5  C   UNL A   1      32.712  28.254  22.767  1.00  0.00     0.261 C 
BRANCH   5   6
ATOM      6  O   UNL A   1      32.033  26.972  22.719  1.00  0.00    -0.463 OA
BRANCH   6   7
ATOM      7  C   UNL A   1      30.775  26.767  23.165  1.00  0.00     0.308 C 
ATOM      8  O   UNL A   1      29.886  27.568  22.869  1.00  0.00    -0.252 OA
BRANCH   7   9
ATOM      9  C   UNL A   1      30.421  25.470  23.896  1.00  0.00     0.151 C 
BRANCH   9  10
ATOM     10  C   UNL A   1      31.456  24.576  24.586  1.00  0.00     0.051 C 
ATOM     11  C   UNL A   1      31.512  24.821  26.155  1.00  0.00     0.029 C 
ATOM     12  C   UNL A   1      31.032  23.088  24.975  1.00  0.00     0.029 C 
ATOM     13  C   UNL A   1      30.820  23.487  26.425  1.00  0.00     0.005 C 
BRANCH  10  14
ATOM     14  N   UNL A   1      32.900  24.571  24.065  1.00  0.00    -0.349 N 
ATOM     15  C   UNL A   1      34.094  23.923  23.919  1.00  0.00     0.241 C 
ATOM     16  H   UNL A   1      33.025  25.448  23.636  1.00  0.00     0.164 HD
ATOM     17  O   UNL A   1      34.721  24.466  22.982  1.00  0.00    -0.274 OA
BRANCH  15  18
ATOM     18  C   UNL A   1      34.797  22.696  24.623  1.00  0.00     0.197 C 
ATOM     19  C   UNL A   1      33.839  21.045  24.119  1.00  0.00     0.094 C 
ATOM     20  C   UNL A   1      34.477  22.926  26.585  1.00  0.00     0.287 C 
ATOM     21  C   UNL A   1      32.941  20.313  25.796  1.00  0.00     0.262 C 
ATOM     22  N   UNL A   1      33.330  21.532  27.287  1.00  0.00    -0.345 N 
ATOM     23  H   UNL A   1      33.807  21.029  28.036  1.00  0.00     0.346 HD
ATOM     24  H   UNL A   1      32.471  21.923  27.672  1.00  0.00     0.346 HD
BRANCH  18  25
ATOM     25  C   UNL A   1      36.234  22.745  24.203  1.00  0.00     0.408 C 
ATOM     26  F   UNL A   1      36.355  22.636  22.859  1.00  0.00    -0.170 F 
ATOM     27  F   UNL A   1      36.849  23.894  24.562  1.00  0.00    -0.170 F 
ATOM     28  F   UNL A   1      36.969  21.739  24.727  1.00  0.00    -0.170 F 
ENDBRANCH  18  25
ENDBRANCH  15  18
ENDBRANCH  10  14
ENDBRANCH   9  10
ENDBRANCH   7   9
ENDBRANCH   6   7
ENDBRANCH   5   6
ENDBRANCH   4   5
ENDBRANCH   3   4
ENDBRANCH   2   3
ENDBRANCH   1   2
BRANCH   1  29
ATOM     29  O   UNL A   1      33.020  30.268  27.144  1.00  0.00    -0.377 OA
BRANCH  29  30
ATOM     30  C   UNL A   1      33.365  31.592  27.577  1.00  0.00     0.188 C 
BRANCH  30  31
ATOM     31  C   UNL A   1      34.661  32.142  28.449  1.00  0.00     0.188 C 
BRANCH  31  32
ATOM     32  O   UNL A   1      34.709  32.458  30.014  1.00  0.00    -0.376 OA
BRANCH  32  33
ATOM     33  C   UNL A   1      34.693  33.975  31.336  1.00  0.00     0.202 C 
BRANCH  33  34
ATOM     34  C   UNL A   1      36.058  34.504  32.493  1.00  0.00     0.261 C 
BRANCH  34  35
ATOM     35  O   UNL A   1      37.102  33.543  33.046  1.00  0.00    -0.460 OA
BRANCH  35  36
ATOM     36  C   UNL A   1      38.003  33.947  34.001  1.00  0.00     0.338 C 
ATOM     37  O   UNL A   1      37.843  34.960  34.668  1.00  0.00    -0.246 OA
BRANCH  36  38
ATOM     38  C   UNL A   1      39.106  32.924  34.341  1.00  0.00     0.060 A 
ATOM     39  C   UNL A   1      40.441  33.311  34.106  1.00  0.00     0.016 A 
ATOM     40  C   UNL A   1      38.921  31.619  34.822  1.00  0.00     0.016 A 
ATOM     41  C   UNL A   1      41.547  32.443  34.319  1.00  0.00     0.010 A 
ATOM     42  C   UNL A   1      40.039  30.728  35.006  1.00  0.00     0.010 A 
ATOM     43  C   UNL A   1      41.372  31.117  34.740  1.00  0.00    -0.014 A 
BRANCH  43  44
ATOM     44  C   UNL A   1      42.543  30.141  34.691  1.00  0.00     0.031 A 
ATOM     45  C   UNL A   1      42.806  29.379  33.399  1.00  0.00     0.074 A 
ATOM     46  C   UNL A   1      43.433  29.952  35.697  1.00  0.00     0.049 A 
ATOM     47  N   UNL A   1      43.758  28.525  33.097  1.00  0.00    -0.248 NA
ATOM     48  C   UNL A   1      41.865  29.627  32.300  1.00  0.00     0.031 C 
ATOM     49  C   UNL A   1      43.397  30.611  36.999  1.00  0.00     0.029 A 
ATOM     50  N   UNL A   1      44.557  29.140  35.779  1.00  0.00    -0.354 N 
ATOM     51  C   UNL A   1      43.541  28.149  31.772  1.00  0.00     0.074 A 
ATOM     52  C   UNL A   1      42.340  28.838  31.346  1.00  0.00     0.031 C 
ATOM     53  C   UNL A   1      44.429  30.172  37.750  1.00  0.00     0.029 A 
ATOM     54  C   UNL A   1      45.205  29.180  37.000  1.00  0.00     0.049 A 
ATOM     55  H   UNL A   1      44.867  28.582  35.030  1.00  0.00     0.167 HD
ATOM     56  C   UNL A   1      44.264  27.328  30.968  1.00  0.00     0.037 A 
ATOM     57  C   UNL A   1      46.279  28.500  37.475  1.00  0.00     0.037 A 
ATOM     58  C   UNL A   1      45.452  26.608  31.361  1.00  0.00     0.049 A 
ATOM     59  C   UNL A   1      47.025  27.519  36.589  1.00  0.00     0.074 A 
ATOM     60  C   UNL A   1      46.230  25.748  30.599  1.00  0.00     0.029 A 
ATOM     61  N   UNL A   1      46.034  26.650  32.617  1.00  0.00    -0.354 N 
ATOM     62  N   UNL A   1      46.805  27.202  35.335  1.00  0.00    -0.248 NA
ATOM     63  C   UNL A   1      48.172  26.807  37.183  1.00  0.00     0.031 C 
ATOM     64  C   UNL A   1      47.245  25.228  31.410  1.00  0.00     0.029 A 
ATOM     65  C   UNL A   1      47.144  25.815  32.658  1.00  0.00     0.049 A 
ATOM     66  H   UNL A   1      45.710  27.194  33.372  1.00  0.00     0.167 HD
ATOM     67  C   UNL A   1      47.798  26.282  34.989  1.00  0.00     0.074 A 
ATOM     68  C   UNL A   1      48.637  26.114  36.154  1.00  0.00     0.031 C 
ATOM     69  C   UNL A   1      47.991  25.636  33.811  1.00  0.00     0.037 A 
BRANCH  56  70
ATOM     70  C   UNL A   1      43.783  27.141  29.548  1.00  0.00     0.058 A 
ATOM     71  C   UNL A   1      43.999  28.119  28.563  1.00  0.00     0.135 A 
ATOM     72  C   UNL A   1      43.156  25.947  29.153  1.00  0.00     0.135 A 
ATOM     73  F   UNL A   1      44.584  29.284  28.884  1.00  0.00    -0.206 F 
ATOM     74  C   UNL A   1      43.587  27.932  27.246  1.00  0.00     0.059 A 
ATOM     75  C   UNL A   1      42.764  25.725  27.835  1.00  0.00     0.059 A 
ATOM     76  F   UNL A   1      42.930  24.973  30.049  1.00  0.00    -0.206 F 
ATOM     77  C   UNL A   1      42.973  26.729  26.891  1.00  0.00     0.060 A 
BRANCH  77  78
ATOM     78  S   UNL A   1      42.463  26.498  25.174  1.00  0.00     0.124 S 
ATOM     79  O   UNL A   1      42.810  27.791  24.590  1.00  0.00    -0.237 OA
ATOM     80  O   UNL A   1      43.287  25.371  24.753  1.00  0.00    -0.237 OA
ATOM     81  O   UNL A   1      41.033  26.223  25.277  1.00  0.00    -0.744 OA
ENDBRANCH  77  78
ENDBRANCH  56  70
BRANCH  57  82
ATOM     82  C   UNL A   1      46.728  28.672  38.897  1.00  0.00     0.058 A 
ATOM     83  C   UNL A   1      46.172  27.927  39.952  1.00  0.00     0.135 A 
ATOM     84  C   UNL A   1      47.676  29.652  39.237  1.00  0.00     0.135 A 
ATOM     85  F   UNL A   1      45.234  27.002  39.698  1.00  0.00    -0.206 F 
ATOM     86  C   UNL A   1      46.525  28.154  41.283  1.00  0.00     0.059 A 
ATOM     87  C   UNL A   1      48.072  29.873  40.556  1.00  0.00     0.059 A 
ATOM     88  F   UNL A   1      48.236  30.405  38.279  1.00  0.00    -0.206 F 
ATOM     89  C   UNL A   1      47.482  29.126  41.574  1.00  0.00     0.060 A 
BRANCH  89  90
ATOM     90  S   UNL A   1      47.982  29.373  43.294  1.00  0.00     0.124 S 
ATOM     91  O   UNL A   1      48.206  28.003  43.739  1.00  0.00    -0.237 OA
ATOM     92  O   UNL A   1      49.175  30.202  43.148  1.00  0.00    -0.237 OA
ATOM     93  O   UNL A   1      46.829  30.048  43.884  1.00  0.00    -0.744 OA
ENDBRANCH  89  90
ENDBRANCH  57  82
BRANCH  69  94
ATOM     94  C   UNL A   1      49.178  24.705  33.698  1.00  0.00     0.058 A 
ATOM     95  C   UNL A   1      50.379  25.098  33.085  1.00  0.00     0.135 A 
ATOM     96  C   UNL A   1      49.122  23.403  34.226  1.00  0.00     0.135 A 
ATOM     97  F   UNL A   1      50.500  26.330  32.566  1.00  0.00    -0.206 F 
ATOM     98  C   UNL A   1      51.456  24.223  32.951  1.00  0.00     0.059 A 
ATOM     99  C   UNL A   1      50.198  22.522  34.136  1.00  0.00     0.059 A 
ATOM    100  F   UNL A   1      48.010  22.970  34.843  1.00  0.00    -0.206 F 
ATOM    101  C   UNL A   1      51.354  22.933  33.475  1.00  0.00     0.060 A 
BRANCH 101 102
ATOM    102  S   UNL A   1      52.749  21.803  33.277  1.00  0.00     0.124 S 
ATOM    103  O   UNL A   1      53.882  22.721  33.331  1.00  0.00    -0.237 OA
ATOM    104  O   UNL A   1      52.598  20.916  34.427  1.00  0.00    -0.237 OA
ATOM    105  O   UNL A   1      52.505  21.183  31.979  1.00  0.00    -0.744 OA
ENDBRANCH 101 102
ENDBRANCH  69  94
ENDBRANCH  43  44
ENDBRANCH  36  38
ENDBRANCH  35  36
ENDBRANCH  34  35
ENDBRANCH  33  34
ENDBRANCH  32  33
ENDBRANCH  31  32
ENDBRANCH  30  31
ENDBRANCH  29  30
ENDBRANCH   1  29
TORSDOF 27
ENDMDL
MODEL 2
REMARK VINA RESULT:      -8.3      6.706     11.354
REMARK SMILES O=C(CC1(NC(=O)[C@]2(C(F)(F)F)CC[NH2+]C2)CCC1)OCCOCCOCCOCCOC(=O)c1ccc(-c2c3nc(c(-c4c(F)cc(S(=O)(=O)[O-])cc4F)c4ccc([nH]4)c(-c4c(F)cc(S(=O)(=O)[O-])cc4F)c4nc(c(-c5c(F)cc(S(=O)(=O)[O-])cc5F)c5ccc2[nH]5)C=C4)C=C3)cc1
REMARK SMILES IDX 25 1 24 2 23 3 22 4 21 5 20 6 2 7 1 8 3 9 4 10 17 11 19 12
REMARK SMILES IDX 18 13 5 14 6 15 7 17 8 18 13 19 16 20 14 21 15 22 9 25 10 26
REMARK SMILES IDX 11 27 12 28 26 29 27 30 28 31 29 32 30 33 31 34 32 35 33 36
REMARK SMILES IDX 34 37 35 38 36 39 100 40 37 41 99 42 38 43 39 44 40 45 93 46
REMARK SMILES IDX 41 47 98 48 92 49 94 50 42 51 97 52 91 53 90 54 43 56 77 57
REMARK SMILES IDX 56 58 76 59 57 60 60 61 75 62 95 63 58 64 59 65 74 67 96 68
REMARK SMILES IDX 61 69 44 70 45 71 54 72 46 73 47 74 53 75 55 76 48 77 49 78
REMARK SMILES IDX 50 79 51 80 52 81 78 82 79 83 88 84 80 85 81 86 87 87 89 88
REMARK SMILES IDX 82 89 83 90 84 91 85 92 86 93 62 94 63 95 72 96 64 97 65 98
REMARK SMILES IDX 71 99 73 100 66 101 67 102 68 103 69 104 70 105
REMARK H PARENT 5 16 15 23 15 24 94 55 60 66
REMARK Flexibility Score: inf
ROOT
ATOM      1  C   UNL A   1      35.861  20.749  25.356  1.00  0.00     0.188 C 
ENDROOT
BRANCH   1   2
ATOM      2  C   UNL A   1      34.651  20.099  24.667  1.00  0.00     0.188 C 
BRANCH   2   3
ATOM      3  O   UNL A   1      33.474  20.031  25.428  1.00  0.00    -0.376 OA
BRANCH   3   4
ATOM      4  C   UNL A   1      32.572  21.101  25.320  1.00  0.00     0.202 C 
BRANCH   4   5
ATOM      5  C   UNL A   1      32.530  21.567  23.891  1.00  0.00     0.261 C 
BRANCH   5   6
ATOM      6  O   UNL A   1      33.070  22.891  23.643  1.00  0.00    -0.463 OA
BRANCH   6   7
ATOM      7  C   UNL A   1      32.886  23.947  24.463  1.00  0.00     0.308 C 
ATOM      8  O   UNL A   1      33.686  24.154  25.378  1.00  0.00    -0.252 OA
BRANCH   7   9
ATOM      9  C   UNL A   1      31.789  24.971  24.164  1.00  0.00     0.151 C 
BRANCH   9  10
ATOM     10  C   UNL A   1      31.978  26.163  23.219  1.00  0.00     0.051 C 
ATOM     11  C   UNL A   1      33.428  26.191  22.568  1.00  0.00     0.029 C 
ATOM     12  C   UNL A   1      31.460  26.026  21.716  1.00  0.00     0.029 C 
ATOM     13  C   UNL A   1      32.868  25.762  21.214  1.00  0.00     0.005 C 
BRANCH  10  14
ATOM     14  N   UNL A   1      31.672  27.577  23.733  1.00  0.00    -0.349 N 
ATOM     15  C   UNL A   1      31.826  28.537  24.692  1.00  0.00     0.241 C 
ATOM     16  H   UNL A   1      31.089  27.980  23.050  1.00  0.00     0.164 HD
ATOM     17  O   UNL A   1      31.550  29.646  24.183  1.00  0.00    -0.274 OA
BRANCH  15  18
ATOM     18  C   UNL A   1      32.273  28.545  26.207  1.00  0.00     0.197 C 
ATOM     19  C   UNL A   1      31.994  30.357  26.938  1.00  0.00     0.094 C 
ATOM     20  C   UNL A   1      34.255  28.266  26.203  1.00  0.00     0.287 C 
ATOM     21  C   UNL A   1      33.828  31.148  27.350  1.00  0.00     0.262 C 
ATOM     22  N   UNL A   1      35.195  29.833  26.841  1.00  0.00    -0.345 N 
ATOM     23  H   UNL A   1      35.770  29.593  27.649  1.00  0.00     0.346 HD
ATOM     24  H   UNL A   1      35.812  30.209  26.121  1.00  0.00     0.346 HD
BRANCH  18  25
ATOM     25  C   UNL A   1      31.479  27.465  26.878  1.00  0.00     0.408 C 
ATOM     26  F   UNL A   1      31.130  27.824  28.135  1.00  0.00    -0.170 F 
ATOM     27  F   UNL A   1      30.337  27.166  26.220  1.00  0.00    -0.170 F 
ATOM     28  F   UNL A   1      32.166  26.307  26.997  1.00  0.00    -0.170 F 
ENDBRANCH  18  25
ENDBRANCH  15  18
ENDBRANCH  10  14
ENDBRANCH   9  10
ENDBRANCH   7   9
ENDBRANCH   6   7
ENDBRANCH   5   6
ENDBRANCH   4   5
ENDBRANCH   3   4
ENDBRANCH   2   3
ENDBRANCH   1   2
BRANCH   1  29
ATOM     29  O   UNL A   1      36.317  22.086  25.193  1.00  0.00    -0.377 OA
BRANCH  29  30
ATOM     30  C   UNL A   1      36.731  23.112  26.107  1.00  0.00     0.188 C 
BRANCH  30  31
ATOM     31  C   UNL A   1      38.114  24.022  26.157  1.00  0.00     0.188 C 
BRANCH  31  32
ATOM     32  O   UNL A   1      39.096  24.220  27.402  1.00  0.00    -0.376 OA
BRANCH  32  33
ATOM     33  C   UNL A   1      41.026  24.065  27.950  1.00  0.00     0.202 C 
BRANCH  33  34
ATOM     34  C   UNL A   1      42.277  25.436  28.147  1.00  0.00     0.261 C 
BRANCH  34  35
ATOM     35  O   UNL A   1      43.628  25.442  27.444  1.00  0.00    -0.460 OA
BRANCH  35  36
ATOM     36  C   UNL A   1      43.904  26.342  26.445  1.00  0.00     0.338 C 
ATOM     37  O   UNL A   1      43.823  26.053  25.260  1.00  0.00    -0.246 OA
BRANCH  36  38
ATOM     38  C   UNL A   1      44.094  27.802  26.908  1.00  0.00     0.060 A 
ATOM     39  C   UNL A   1      45.065  28.043  27.901  1.00  0.00     0.016 A 
ATOM     40  C   UNL A   1      43.367  28.921  26.476  1.00  0.00     0.016 A 
ATOM     41  C   UNL A   1      45.298  29.331  28.458  1.00  0.00     0.010 A 
ATOM     42  C   UNL A   1      43.580  30.220  27.064  1.00  0.00     0.010 A 
ATOM     43  C   UNL A   1      44.537  30.445  28.079  1.00  0.00    -0.014 A 
BRANCH  43  44
ATOM     44  C   UNL A   1      44.622  31.736  28.887  1.00  0.00     0.031 A 
ATOM     45  C   UNL A   1      45.727  32.733  28.559  1.00  0.00     0.074 A 
ATOM     46  C   UNL A   1      43.731  32.112  29.838  1.00  0.00     0.049 A 
ATOM     47  N   UNL A   1      45.985  33.914  29.076  1.00  0.00    -0.248 NA
ATOM     48  C   UNL A   1      46.658  32.337  27.495  1.00  0.00     0.031 C 
ATOM     49  C   UNL A   1      42.576  31.335  30.276  1.00  0.00     0.029 A 
ATOM     50  N   UNL A   1      43.658  33.262  30.615  1.00  0.00    -0.354 N 
ATOM     51  C   UNL A   1      47.093  34.407  28.388  1.00  0.00     0.074 A 
ATOM     52  C   UNL A   1      47.481  33.375  27.448  1.00  0.00     0.031 C 
ATOM     53  C   UNL A   1      41.924  32.012  31.244  1.00  0.00     0.029 A 
ATOM     54  C   UNL A   1      42.615  33.274  31.522  1.00  0.00     0.049 A 
ATOM     55  H   UNL A   1      44.295  34.006  30.527  1.00  0.00     0.167 HD
ATOM     56  C   UNL A   1      47.730  35.601  28.502  1.00  0.00     0.037 A 
ATOM     57  C   UNL A   1      42.256  34.173  32.474  1.00  0.00     0.037 A 
ATOM     58  C   UNL A   1      47.387  36.644  29.440  1.00  0.00     0.049 A 
ATOM     59  C   UNL A   1      43.032  35.466  32.647  1.00  0.00     0.074 A 
ATOM     60  C   UNL A   1      47.998  37.878  29.618  1.00  0.00     0.029 A 
ATOM     61  N   UNL A   1      46.355  36.584  30.362  1.00  0.00    -0.354 N 
ATOM     62  N   UNL A   1      44.063  35.910  31.967  1.00  0.00    -0.248 NA
ATOM     63  C   UNL A   1      42.590  36.384  33.713  1.00  0.00     0.031 C 
ATOM     64  C   UNL A   1      47.373  38.536  30.682  1.00  0.00     0.029 A 
ATOM     65  C   UNL A   1      46.328  37.745  31.124  1.00  0.00     0.049 A 
ATOM     66  H   UNL A   1      45.731  35.829  30.462  1.00  0.00     0.167 HD
ATOM     67  C   UNL A   1      44.369  37.163  32.505  1.00  0.00     0.074 A 
ATOM     68  C   UNL A   1      43.400  37.420  33.545  1.00  0.00     0.031 C 
ATOM     69  C   UNL A   1      45.368  38.017  32.166  1.00  0.00     0.037 A 
BRANCH  56  70
ATOM     70  C   UNL A   1      48.899  35.858  27.582  1.00  0.00     0.058 A 
ATOM     71  C   UNL A   1      50.203  35.460  27.919  1.00  0.00     0.135 A 
ATOM     72  C   UNL A   1      48.706  36.451  26.322  1.00  0.00     0.135 A 
ATOM     73  F   UNL A   1      50.450  34.897  29.113  1.00  0.00    -0.206 F 
ATOM     74  C   UNL A   1      51.276  35.664  27.055  1.00  0.00     0.059 A 
ATOM     75  C   UNL A   1      49.758  36.637  25.429  1.00  0.00     0.059 A 
ATOM     76  F   UNL A   1      47.480  36.845  25.941  1.00  0.00    -0.206 F 
ATOM     77  C   UNL A   1      51.042  36.251  25.809  1.00  0.00     0.060 A 
BRANCH  77  78
ATOM     78  S   UNL A   1      52.443  36.491  24.696  1.00  0.00     0.124 S 
ATOM     79  O   UNL A   1      53.397  35.512  25.210  1.00  0.00    -0.237 OA
ATOM     80  O   UNL A   1      51.861  36.186  23.393  1.00  0.00    -0.237 OA
ATOM     81  O   UNL A   1      52.809  37.888  24.904  1.00  0.00    -0.744 OA
ENDBRANCH  77  78
ENDBRANCH  56  70
BRANCH  57  82
ATOM     82  C   UNL A   1      41.111  33.891  33.402  1.00  0.00     0.058 A 
ATOM     83  C   UNL A   1      41.277  33.169  34.598  1.00  0.00     0.135 A 
ATOM     84  C   UNL A   1      39.802  34.276  33.066  1.00  0.00     0.135 A 
ATOM     85  F   UNL A   1      42.496  32.740  34.957  1.00  0.00    -0.206 F 
ATOM     86  C   UNL A   1      40.196  32.829  35.412  1.00  0.00     0.059 A 
ATOM     87  C   UNL A   1      38.710  33.980  33.881  1.00  0.00     0.059 A 
ATOM     88  F   UNL A   1      39.573  34.957  31.933  1.00  0.00    -0.206 F 
ATOM     89  C   UNL A   1      38.915  33.246  35.048  1.00  0.00     0.060 A 
BRANCH  89  90
ATOM     90  S   UNL A   1      37.526  32.857  36.138  1.00  0.00     0.124 S 
ATOM     91  O   UNL A   1      37.743  31.440  36.402  1.00  0.00    -0.237 OA
ATOM     92  O   UNL A   1      37.757  33.761  37.260  1.00  0.00    -0.237 OA
ATOM     93  O   UNL A   1      36.359  33.174  35.319  1.00  0.00    -0.744 OA
ENDBRANCH  89  90
ENDBRANCH  57  82
BRANCH  69  94
ATOM     94  C   UNL A   1      45.452  39.338  32.899  1.00  0.00     0.058 A 
ATOM     95  C   UNL A   1      46.250  39.508  34.042  1.00  0.00     0.135 A 
ATOM     96  C   UNL A   1      44.734  40.458  32.443  1.00  0.00     0.135 A 
ATOM     97  F   UNL A   1      46.964  38.479  34.526  1.00  0.00    -0.206 F 
ATOM     98  C   UNL A   1      46.293  40.718  34.735  1.00  0.00     0.059 A 
ATOM     99  C   UNL A   1      44.789  41.687  33.098  1.00  0.00     0.059 A 
ATOM    100  F   UNL A   1      43.967  40.369  31.344  1.00  0.00    -0.206 F 
ATOM    101  C   UNL A   1      45.553  41.801  34.258  1.00  0.00     0.060 A 
BRANCH 101 102
ATOM    102  S   UNL A   1      45.603  43.356  35.175  1.00  0.00     0.124 S 
ATOM    103  O   UNL A   1      45.320  44.328  34.124  1.00  0.00    -0.237 OA
ATOM    104  O   UNL A   1      44.547  43.169  36.165  1.00  0.00    -0.237 OA
ATOM    105  O   UNL A   1      46.959  43.392  35.713  1.00  0.00    -0.744 OA
ENDBRANCH 101 102
ENDBRANCH  69  94
ENDBRANCH  43  44
ENDBRANCH  36  38
ENDBRANCH  35  36
ENDBRANCH  34  35
ENDBRANCH  33  34
ENDBRANCH  32  33
ENDBRANCH  31  32
ENDBRANCH  30  31
ENDBRANCH  29  30
ENDBRANCH   1  29
TORSDOF 27
ENDMDL
MODEL 3
REMARK VINA RESULT:      -8.2      6.010     15.294
REMARK SMILES O=C(CC1(NC(=O)[C@]2(C(F)(F)F)CC[NH2+]C2)CCC1)OCCOCCOCCOCCOC(=O)c1ccc(-c2c3nc(c(-c4c(F)cc(S(=O)(=O)[O-])cc4F)c4ccc([nH]4)c(-c4c(F)cc(S(=O)(=O)[O-])cc4F)c4nc(c(-c5c(F)cc(S(=O)(=O)[O-])cc5F)c5ccc2[nH]5)C=C4)C=C3)cc1
REMARK SMILES IDX 25 1 24 2 23 3 22 4 21 5 20 6 2 7 1 8 3 9 4 10 17 11 19 12
REMARK SMILES IDX 18 13 5 14 6 15 7 17 8 18 13 19 16 20 14 21 15 22 9 25 10 26
REMARK SMILES IDX 11 27 12 28 26 29 27 30 28 31 29 32 30 33 31 34 32 35 33 36
REMARK SMILES IDX 34 37 35 38 36 39 100 40 37 41 99 42 38 43 39 44 40 45 93 46
REMARK SMILES IDX 41 47 98 48 92 49 94 50 42 51 97 52 91 53 90 54 43 56 77 57
REMARK SMILES IDX 56 58 76 59 57 60 60 61 75 62 95 63 58 64 59 65 74 67 96 68
REMARK SMILES IDX 61 69 44 70 45 71 54 72 46 73 47 74 53 75 55 76 48 77 49 78
REMARK SMILES IDX 50 79 51 80 52 81 78 82 79 83 88 84 80 85 81 86 87 87 89 88
REMARK SMILES IDX 82 89 83 90 84 91 85 92 86 93 62 94 63 95 72 96 64 97 65 98
REMARK SMILES IDX 71 99 73 100 66 101 67 102 68 103 69 104 70 105
REMARK H PARENT 5 16 15 23 15 24 94 55 60 66
REMARK Flexibility Score: inf
ROOT
ATOM      1  C   UNL A   1      45.499  25.961  29.440  1.00  0.00     0.188 C 
ENDROOT
BRANCH   1   2
ATOM      2  C   UNL A   1      45.608  25.374  28.023  1.00  0.00     0.188 C 
BRANCH   2   3
ATOM      3  O   UNL A   1      46.901  25.036  27.596  1.00  0.00    -0.376 OA
BRANCH   3   4
ATOM      4  C   UNL A   1      47.061  24.668  26.251  1.00  0.00     0.202 C 
BRANCH   4   5
ATOM      5  C   UNL A   1      47.962  25.662  25.573  1.00  0.00     0.261 C 
BRANCH   5   6
ATOM      6  O   UNL A   1      47.770  25.815  24.142  1.00  0.00    -0.463 OA
BRANCH   6   7
ATOM      7  C   UNL A   1      48.656  26.422  23.323  1.00  0.00     0.308 C 
ATOM      8  O   UNL A   1      48.553  26.279  22.103  1.00  0.00    -0.252 OA
BRANCH   7   9
ATOM      9  C   UNL A   1      49.678  27.408  23.892  1.00  0.00     0.151 C 
BRANCH   9  10
ATOM     10  C   UNL A   1      51.176  27.106  24.002  1.00  0.00     0.051 C 
ATOM     11  C   UNL A   1      51.951  28.203  24.851  1.00  0.00     0.029 C 
ATOM     12  C   UNL A   1      51.662  26.090  25.133  1.00  0.00     0.029 C 
ATOM     13  C   UNL A   1      52.111  27.237  26.022  1.00  0.00     0.005 C 
BRANCH  10  14
ATOM     14  N   UNL A   1      51.982  26.857  22.719  1.00  0.00    -0.349 N 
ATOM     15  C   UNL A   1      52.649  27.355  21.635  1.00  0.00     0.241 C 
ATOM     16  H   UNL A   1      52.048  25.879  22.639  1.00  0.00     0.164 HD
ATOM     17  O   UNL A   1      53.416  26.464  21.206  1.00  0.00    -0.274 OA
BRANCH  15  18
ATOM     18  C   UNL A   1      52.672  28.738  20.872  1.00  0.00     0.197 C 
ATOM     19  C   UNL A   1      53.782  28.547  19.252  1.00  0.00     0.094 C 
ATOM     20  C   UNL A   1      53.664  30.009  22.058  1.00  0.00     0.287 C 
ATOM     21  C   UNL A   1      55.443  29.704  19.499  1.00  0.00     0.262 C 
ATOM     22  N   UNL A   1      55.344  30.557  21.265  1.00  0.00    -0.345 N 
ATOM     23  H   UNL A   1      55.372  31.572  21.167  1.00  0.00     0.346 HD
ATOM     24  H   UNL A   1      56.132  30.278  21.850  1.00  0.00     0.346 HD
BRANCH  18  25
ATOM     25  C   UNL A   1      51.238  29.093  20.617  1.00  0.00     0.408 C 
ATOM     26  F   UNL A   1      50.567  28.052  20.073  1.00  0.00    -0.170 F 
ATOM     27  F   UNL A   1      50.575  29.447  21.741  1.00  0.00    -0.170 F 
ATOM     28  F   UNL A   1      51.099  30.122  19.752  1.00  0.00    -0.170 F 
ENDBRANCH  18  25
ENDBRANCH  15  18
ENDBRANCH  10  14
ENDBRANCH   9  10
ENDBRANCH   7   9
ENDBRANCH   6   7
ENDBRANCH   5   6
ENDBRANCH   4   5
ENDBRANCH   3   4
ENDBRANCH   2   3
ENDBRANCH   1   2
BRANCH   1  29
ATOM     29  O   UNL A   1      45.475  25.235  30.662  1.00  0.00    -0.377 OA
BRANCH  29  30
ATOM     30  C   UNL A   1      44.466  24.478  31.347  1.00  0.00     0.188 C 
BRANCH  30  31
ATOM     31  C   UNL A   1      44.524  23.640  32.775  1.00  0.00     0.188 C 
BRANCH  31  32
ATOM     32  O   UNL A   1      45.403  23.985  34.063  1.00  0.00    -0.376 OA
BRANCH  32  33
ATOM     33  C   UNL A   1      47.195  24.711  34.622  1.00  0.00     0.202 C 
BRANCH  33  34
ATOM     34  C   UNL A   1      48.045  24.523  36.272  1.00  0.00     0.261 C 
BRANCH  34  35
ATOM     35  O   UNL A   1      47.487  25.096  37.569  1.00  0.00    -0.460 OA
BRANCH  35  36
ATOM     36  C   UNL A   1      47.615  26.430  37.868  1.00  0.00     0.338 C 
ATOM     37  O   UNL A   1      48.610  26.888  38.412  1.00  0.00    -0.246 OA
BRANCH  36  38
ATOM     38  C   UNL A   1      46.530  27.347  37.266  1.00  0.00     0.060 A 
ATOM     39  C   UNL A   1      45.186  26.961  37.443  1.00  0.00     0.016 A 
ATOM     40  C   UNL A   1      46.740  28.514  36.515  1.00  0.00     0.016 A 
ATOM     41  C   UNL A   1      44.095  27.683  36.887  1.00  0.00     0.010 A 
ATOM     42  C   UNL A   1      45.636  29.228  35.925  1.00  0.00     0.010 A 
ATOM     43  C   UNL A   1      44.293  28.815  36.085  1.00  0.00    -0.014 A 
BRANCH  43  44
ATOM     44  C   UNL A   1      43.131  29.396  35.286  1.00  0.00     0.031 A 
ATOM     45  C   UNL A   1      42.341  30.554  35.881  1.00  0.00     0.074 A 
ATOM     46  C   UNL A   1      42.787  29.010  34.032  1.00  0.00     0.049 A 
ATOM     47  N   UNL A   1      41.338  31.242  35.381  1.00  0.00    -0.248 NA
ATOM     48  C   UNL A   1      42.752  30.997  37.219  1.00  0.00     0.031 C 
ATOM     49  C   UNL A   1      43.436  27.955  33.259  1.00  0.00     0.029 A 
ATOM     50  N   UNL A   1      41.794  29.470  33.176  1.00  0.00    -0.354 N 
ATOM     51  C   UNL A   1      41.012  32.205  36.335  1.00  0.00     0.074 A 
ATOM     52  C   UNL A   1      41.899  31.983  37.459  1.00  0.00     0.031 C 
ATOM     53  C   UNL A   1      42.822  27.837  32.063  1.00  0.00     0.029 A 
ATOM     54  C   UNL A   1      41.716  28.794  31.973  1.00  0.00     0.049 A 
ATOM     55  H   UNL A   1      41.195  30.216  33.407  1.00  0.00     0.167 HD
ATOM     56  C   UNL A   1      40.082  33.195  36.293  1.00  0.00     0.037 A 
ATOM     57  C   UNL A   1      40.859  28.909  30.926  1.00  0.00     0.037 A 
ATOM     58  C   UNL A   1      39.168  33.436  35.202  1.00  0.00     0.049 A 
ATOM     59  C   UNL A   1      39.769  29.965  30.933  1.00  0.00     0.074 A 
ATOM     60  C   UNL A   1      38.190  34.416  35.098  1.00  0.00     0.029 A 
ATOM     61  N   UNL A   1      39.103  32.695  34.034  1.00  0.00    -0.354 N 
ATOM     62  N   UNL A   1      39.501  30.873  31.842  1.00  0.00    -0.248 NA
ATOM     63  C   UNL A   1      38.869  30.016  29.766  1.00  0.00     0.031 C 
ATOM     64  C   UNL A   1      37.500  34.231  33.895  1.00  0.00     0.029 A 
ATOM     65  C   UNL A   1      38.090  33.181  33.216  1.00  0.00     0.049 A 
ATOM     66  H   UNL A   1      39.690  31.936  33.813  1.00  0.00     0.167 HD
ATOM     67  C   UNL A   1      38.426  31.613  31.342  1.00  0.00     0.074 A 
ATOM     68  C   UNL A   1      38.110  31.069  30.042  1.00  0.00     0.031 C 
ATOM     69  C   UNL A   1      37.762  32.648  31.917  1.00  0.00     0.037 A 
BRANCH  56  70
ATOM     70  C   UNL A   1      39.988  34.114  37.488  1.00  0.00     0.058 A 
ATOM     71  C   UNL A   1      39.174  33.807  38.590  1.00  0.00     0.135 A 
ATOM     72  C   UNL A   1      40.768  35.280  37.561  1.00  0.00     0.135 A 
ATOM     73  F   UNL A   1      38.399  32.711  38.573  1.00  0.00    -0.206 F 
ATOM     74  C   UNL A   1      39.114  34.636  39.708  1.00  0.00     0.059 A 
ATOM     75  C   UNL A   1      40.749  36.108  38.682  1.00  0.00     0.059 A 
ATOM     76  F   UNL A   1      41.573  35.621  36.541  1.00  0.00    -0.206 F 
ATOM     77  C   UNL A   1      39.909  35.783  39.745  1.00  0.00     0.060 A 
BRANCH  77  78
ATOM     78  S   UNL A   1      39.832  36.835  41.210  1.00  0.00     0.124 S 
ATOM     79  O   UNL A   1      38.893  37.868  40.780  1.00  0.00    -0.237 OA
ATOM     80  O   UNL A   1      39.338  35.915  42.229  1.00  0.00    -0.237 OA
ATOM     81  O   UNL A   1      41.211  37.279  41.386  1.00  0.00    -0.744 OA
ENDBRANCH  77  78
ENDBRANCH  56  70
BRANCH  57  82
ATOM     82  C   UNL A   1      40.945  27.970  29.758  1.00  0.00     0.058 A 
ATOM     83  C   UNL A   1      40.040  26.907  29.585  1.00  0.00     0.135 A 
ATOM     84  C   UNL A   1      41.993  28.074  28.828  1.00  0.00     0.135 A 
ATOM     85  F   UNL A   1      39.039  26.730  30.461  1.00  0.00    -0.206 F 
ATOM     86  C   UNL A   1      40.177  25.981  28.551  1.00  0.00     0.059 A 
ATOM     87  C   UNL A   1      42.130  27.182  27.765  1.00  0.00     0.059 A 
ATOM     88  F   UNL A   1      42.897  29.058  28.943  1.00  0.00    -0.206 F 
ATOM     89  C   UNL A   1      41.224  26.132  27.640  1.00  0.00     0.060 A 
BRANCH  89  90
ATOM     90  S   UNL A   1      41.361  24.966  26.265  1.00  0.00     0.124 S 
ATOM     91  O   UNL A   1      40.071  24.287  26.321  1.00  0.00    -0.237 OA
ATOM     92  O   UNL A   1      41.566  25.858  25.129  1.00  0.00    -0.237 OA
ATOM     93  O   UNL A   1      42.518  24.153  26.629  1.00  0.00    -0.744 OA
ENDBRANCH  89  90
ENDBRANCH  57  82
BRANCH  69  94
ATOM     94  C   UNL A   1      36.642  33.295  31.132  1.00  0.00     0.058 A 
ATOM     95  C   UNL A   1      36.889  34.153  30.047  1.00  0.00     0.135 A 
ATOM     96  C   UNL A   1      35.298  33.043  31.459  1.00  0.00     0.135 A 
ATOM     97  F   UNL A   1      38.150  34.431  29.680  1.00  0.00    -0.206 F 
ATOM     98  C   UNL A   1      35.853  34.776  29.352  1.00  0.00     0.059 A 
ATOM     99  C   UNL A   1      34.245  33.626  30.756  1.00  0.00     0.059 A 
ATOM    100  F   UNL A   1      34.992  32.217  32.473  1.00  0.00    -0.206 F 
ATOM    101  C   UNL A   1      34.533  34.510  29.719  1.00  0.00     0.060 A 
BRANCH 101 102
ATOM    102  S   UNL A   1      33.201  35.338  28.823  1.00  0.00     0.124 S 
ATOM    103  O   UNL A   1      33.941  36.310  28.025  1.00  0.00    -0.237 OA
ATOM    104  O   UNL A   1      32.593  34.239  28.080  1.00  0.00    -0.237 OA
ATOM    105  O   UNL A   1      32.373  35.901  29.886  1.00  0.00    -0.744 OA
ENDBRANCH 101 102
ENDBRANCH  69  94
ENDBRANCH  43  44
ENDBRANCH  36  38
ENDBRANCH  35  36
ENDBRANCH  34  35
ENDBRANCH  33  34
ENDBRANCH  32  33
ENDBRANCH  31  32
ENDBRANCH  30  31
ENDBRANCH  29  30
ENDBRANCH   1  29
TORSDOF 27
ENDMDL
