MODEL 1
REMARK VINA RESULT:     -10.1      0.000      0.000
REMARK SMILES CC(=O)Nc1ccc2sc(C(=O)OCCOCCOCCOCCOC(=O)c3ccc(-c4c5nc(c(-c6c(F)cc(S(=O)(=O)[O-])cc6F)c6ccc([nH]6)c(-c6c(F)cc(S(=O)(=O)[O-])cc6F)c6nc(c(-c7c(F)cc(S(=O)(=O)[O-])cc7F)c7ccc4[nH]7)C=C6)C=C5)cc3)cc2c1
REMARK SMILES IDX 20 1 19 2 18 3 17 4 16 5 15 6 14 7 13 8 11 9 12 10 10 11
REMARK SMILES IDX 5 12 6 13 96 14 7 15 95 16 8 17 94 18 9 19 4 20 1 21 2 22
REMARK SMILES IDX 3 23 21 25 22 26 23 27 24 28 25 29 26 30 27 31 28 32 29 33
REMARK SMILES IDX 93 34 30 35 92 36 31 37 32 38 33 39 86 40 34 41 91 42 85 43
REMARK SMILES IDX 87 44 35 45 90 46 84 47 83 48 36 50 70 51 49 52 69 53 50 54
REMARK SMILES IDX 53 55 68 56 88 57 51 58 52 59 67 61 89 62 54 63 37 64 38 65
REMARK SMILES IDX 47 66 39 67 40 68 46 69 48 70 41 71 42 72 43 73 44 74 45 75
REMARK SMILES IDX 71 76 72 77 81 78 73 79 74 80 80 81 82 82 75 83 76 84 77 85
REMARK SMILES IDX 78 86 79 87 55 88 56 89 65 90 57 91 58 92 64 93 66 94 59 95
REMARK SMILES IDX 60 96 61 97 62 98 63 99
REMARK H PARENT 4 24 87 49 53 60
REMARK Flexibility Score: inf
ROOT
ATOM      1  C   UNL A   1      40.110  20.483  25.884  1.00  0.00     0.188 C 
ENDROOT
BRANCH   1   2
ATOM      2  O   UNL A   1      39.149  19.552  25.396  1.00  0.00    -0.377 OA
BRANCH   2   3
ATOM      3  C   UNL A   1      37.878  20.011  24.979  1.00  0.00     0.188 C 
BRANCH   3   4
ATOM      4  C   UNL A   1      37.634  21.526  25.068  1.00  0.00     0.188 C 
BRANCH   4   5
ATOM      5  O   UNL A   1      37.008  22.084  23.916  1.00  0.00    -0.376 OA
BRANCH   5   6
ATOM      6  C   UNL A   1      36.160  23.204  24.136  1.00  0.00     0.202 C 
BRANCH   6   7
ATOM      7  C   UNL A   1      34.830  23.155  23.370  1.00  0.00     0.261 C 
BRANCH   7   8
ATOM      8  O   UNL A   1      33.665  23.114  24.206  1.00  0.00    -0.459 OA
BRANCH   8   9
ATOM      9  C   UNL A   1      32.461  23.257  23.600  1.00  0.00     0.348 C 
ATOM     10  O   UNL A   1      31.769  22.334  23.186  1.00  0.00    -0.245 OA
BRANCH   9  11
ATOM     11  C   UNL A   1      32.025  24.631  23.695  1.00  0.00     0.113 A 
ATOM     12  C   UNL A   1      30.554  29.065  22.894  1.00  0.00     0.041 A 
ATOM     13  C   UNL A   1      30.960  29.280  24.207  1.00  0.00     0.027 A 
ATOM     14  C   UNL A   1      30.543  27.772  22.366  1.00  0.00     0.035 A 
ATOM     15  C   UNL A   1      31.435  28.226  24.990  1.00  0.00     0.022 A 
ATOM     16  C   UNL A   1      31.121  26.710  23.099  1.00  0.00    -0.005 A 
ATOM     17  C   UNL A   1      31.552  26.954  24.404  1.00  0.00     0.035 A 
ATOM     18  C   UNL A   1      31.407  25.365  22.704  1.00  0.00     0.036 A 
ATOM     19  S   UNL A   1      32.215  25.539  25.123  1.00  0.00    -0.128 S 
BRANCH  12  20
ATOM     20  N   UNL A   1      30.170  30.112  22.047  1.00  0.00    -0.326 N 
ATOM     21  C   UNL A   1      27.727  29.898  22.446  1.00  0.00     0.114 C 
ATOM     22  C   UNL A   1      28.899  30.501  21.712  1.00  0.00     0.221 C 
ATOM     23  O   UNL A   1      28.738  31.396  20.881  1.00  0.00    -0.275 OA
ATOM     24  H   UNL A   1      30.901  30.631  21.643  1.00  0.00     0.169 HD
ENDBRANCH  12  20
ENDBRANCH   9  11
ENDBRANCH   8   9
ENDBRANCH   7   8
ENDBRANCH   6   7
ENDBRANCH   5   6
ENDBRANCH   4   5
ENDBRANCH   3   4
ENDBRANCH   2   3
ENDBRANCH   1   2
BRANCH   1  25
ATOM     25  C   UNL A   1      41.219  20.082  26.880  1.00  0.00     0.188 C 
BRANCH  25  26
ATOM     26  O   UNL A   1      42.385  20.900  26.843  1.00  0.00    -0.376 OA
BRANCH  26  27
ATOM     27  C   UNL A   1      42.301  22.068  26.037  1.00  0.00     0.202 C 
BRANCH  27  28
ATOM     28  C   UNL A   1      42.171  23.353  26.861  1.00  0.00     0.261 C 
BRANCH  28  29
ATOM     29  O   UNL A   1      41.752  24.502  26.109  1.00  0.00    -0.460 OA
BRANCH  29  30
ATOM     30  C   UNL A   1      40.512  24.976  26.363  1.00  0.00     0.338 C 
ATOM     31  O   UNL A   1      39.475  24.665  25.806  1.00  0.00    -0.246 OA
BRANCH  30  32
ATOM     32  C   UNL A   1      40.592  25.829  27.562  1.00  0.00     0.060 A 
ATOM     33  C   UNL A   1      39.641  25.661  28.575  1.00  0.00     0.016 A 
ATOM     34  C   UNL A   1      41.597  26.793  27.676  1.00  0.00     0.016 A 
ATOM     35  C   UNL A   1      39.669  26.494  29.693  1.00  0.00     0.010 A 
ATOM     36  C   UNL A   1      41.613  27.636  28.786  1.00  0.00     0.010 A 
ATOM     37  C   UNL A   1      40.628  27.513  29.782  1.00  0.00    -0.014 A 
BRANCH  37  38
ATOM     38  C   UNL A   1      40.484  28.580  30.798  1.00  0.00     0.031 A 
ATOM     39  C   UNL A   1      41.368  28.523  32.013  1.00  0.00     0.074 A 
ATOM     40  C   UNL A   1      39.592  29.575  30.646  1.00  0.00     0.049 A 
ATOM     41  N   UNL A   1      41.387  29.300  33.063  1.00  0.00    -0.248 NA
ATOM     42  C   UNL A   1      42.365  27.438  32.049  1.00  0.00     0.031 C 
ATOM     43  C   UNL A   1      38.704  29.753  29.498  1.00  0.00     0.029 A 
ATOM     44  N   UNL A   1      39.281  30.621  31.479  1.00  0.00    -0.354 N 
ATOM     45  C   UNL A   1      42.400  28.807  33.877  1.00  0.00     0.074 A 
ATOM     46  C   UNL A   1      42.950  27.644  33.219  1.00  0.00     0.031 C 
ATOM     47  C   UNL A   1      37.937  30.839  29.705  1.00  0.00     0.029 A 
ATOM     48  C   UNL A   1      38.261  31.414  31.009  1.00  0.00     0.049 A 
ATOM     49  H   UNL A   1      39.744  30.787  32.331  1.00  0.00     0.167 HD
ATOM     50  C   UNL A   1      42.840  29.288  35.063  1.00  0.00     0.037 A 
ATOM     51  C   UNL A   1      37.650  32.470  31.583  1.00  0.00     0.037 A 
ATOM     52  C   UNL A   1      42.280  30.435  35.725  1.00  0.00     0.049 A 
ATOM     53  C   UNL A   1      38.105  32.937  32.944  1.00  0.00     0.074 A 
ATOM     54  C   UNL A   1      42.642  30.990  36.939  1.00  0.00     0.029 A 
ATOM     55  N   UNL A   1      41.237  31.201  35.228  1.00  0.00    -0.354 N 
ATOM     56  N   UNL A   1      39.071  32.468  33.699  1.00  0.00    -0.248 NA
ATOM     57  C   UNL A   1      37.387  34.079  33.531  1.00  0.00     0.031 C 
ATOM     58  C   UNL A   1      41.796  32.075  37.192  1.00  0.00     0.029 A 
ATOM     59  C   UNL A   1      40.934  32.219  36.115  1.00  0.00     0.049 A 
ATOM     60  H   UNL A   1      40.779  31.045  34.371  1.00  0.00     0.167 HD
ATOM     61  C   UNL A   1      39.096  33.279  34.831  1.00  0.00     0.074 A 
ATOM     62  C   UNL A   1      38.055  34.269  34.661  1.00  0.00     0.031 C 
ATOM     63  C   UNL A   1      39.909  33.210  35.915  1.00  0.00     0.037 A 
BRANCH  50  64
ATOM     64  C   UNL A   1      43.979  28.568  35.722  1.00  0.00     0.058 A 
ATOM     65  C   UNL A   1      45.312  28.928  35.470  1.00  0.00     0.135 A 
ATOM     66  C   UNL A   1      43.739  27.534  36.640  1.00  0.00     0.135 A 
ATOM     67  F   UNL A   1      45.595  29.894  34.581  1.00  0.00    -0.206 F 
ATOM     68  C   UNL A   1      46.370  28.280  36.097  1.00  0.00     0.059 A 
ATOM     69  C   UNL A   1      44.782  26.885  37.295  1.00  0.00     0.059 A 
ATOM     70  F   UNL A   1      42.482  27.145  36.906  1.00  0.00    -0.206 F 
ATOM     71  C   UNL A   1      46.094  27.260  37.010  1.00  0.00     0.060 A 
BRANCH  71  72
ATOM     72  S   UNL A   1      47.477  26.442  37.832  1.00  0.00     0.124 S 
ATOM     73  O   UNL A   1      48.511  27.470  37.754  1.00  0.00    -0.237 OA
ATOM     74  O   UNL A   1      46.940  26.183  39.164  1.00  0.00    -0.237 OA
ATOM     75  O   UNL A   1      47.708  25.257  37.012  1.00  0.00    -0.744 OA
ENDBRANCH  71  72
ENDBRANCH  50  64
BRANCH  51  76
ATOM     76  C   UNL A   1      36.527  33.160  30.893  1.00  0.00     0.058 A 
ATOM     77  C   UNL A   1      36.761  34.005  29.798  1.00  0.00     0.135 A 
ATOM     78  C   UNL A   1      35.206  33.029  31.346  1.00  0.00     0.135 A 
ATOM     79  F   UNL A   1      38.010  34.171  29.335  1.00  0.00    -0.206 F 
ATOM     80  C   UNL A   1      35.732  34.720  29.194  1.00  0.00     0.059 A 
ATOM     81  C   UNL A   1      34.155  33.714  30.744  1.00  0.00     0.059 A 
ATOM     82  F   UNL A   1      34.927  32.227  32.385  1.00  0.00    -0.206 F 
ATOM     83  C   UNL A   1      34.432  34.572  29.680  1.00  0.00     0.060 A 
BRANCH  83  84
ATOM     84  S   UNL A   1      33.097  35.496  28.887  1.00  0.00     0.124 S 
ATOM     85  O   UNL A   1      32.364  35.999  30.043  1.00  0.00    -0.237 OA
ATOM     86  O   UNL A   1      33.828  36.492  28.111  1.00  0.00    -0.237 OA
ATOM     87  O   UNL A   1      32.409  34.479  28.098  1.00  0.00    -0.744 OA
ENDBRANCH  83  84
ENDBRANCH  51  76
BRANCH  63  88
ATOM     88  C   UNL A   1      39.743  34.260  36.977  1.00  0.00     0.058 A 
ATOM     89  C   UNL A   1      39.084  33.990  38.185  1.00  0.00     0.135 A 
ATOM     90  C   UNL A   1      40.307  35.535  36.806  1.00  0.00     0.135 A 
ATOM     91  F   UNL A   1      38.525  32.787  38.396  1.00  0.00    -0.206 F 
ATOM     92  C   UNL A   1      38.971  34.954  39.181  1.00  0.00     0.059 A 
ATOM     93  C   UNL A   1      40.227  36.507  37.798  1.00  0.00     0.059 A 
ATOM     94  F   UNL A   1      40.959  35.839  35.672  1.00  0.00    -0.206 F 
ATOM     95  C   UNL A   1      39.547  36.210  38.979  1.00  0.00     0.060 A 
BRANCH  95  96
ATOM     96  S   UNL A   1      39.430  37.443  40.293  1.00  0.00     0.124 S 
ATOM     97  O   UNL A   1      38.506  36.797  41.219  1.00  0.00    -0.237 OA
ATOM     98  O   UNL A   1      40.813  37.548  40.749  1.00  0.00    -0.237 OA
ATOM     99  O   UNL A   1      38.913  38.622  39.608  1.00  0.00    -0.744 OA
ENDBRANCH  95  96
ENDBRANCH  63  88
ENDBRANCH  37  38
ENDBRANCH  30  32
ENDBRANCH  29  30
ENDBRANCH  28  29
ENDBRANCH  27  28
ENDBRANCH  26  27
ENDBRANCH  25  26
ENDBRANCH   1  25
TORSDOF 24
ENDMDL
MODEL 2
REMARK VINA RESULT:     -10.0      6.616      8.739
REMARK SMILES CC(=O)Nc1ccc2sc(C(=O)OCCOCCOCCOCCOC(=O)c3ccc(-c4c5nc(c(-c6c(F)cc(S(=O)(=O)[O-])cc6F)c6ccc([nH]6)c(-c6c(F)cc(S(=O)(=O)[O-])cc6F)c6nc(c(-c7c(F)cc(S(=O)(=O)[O-])cc7F)c7ccc4[nH]7)C=C6)C=C5)cc3)cc2c1
REMARK SMILES IDX 20 1 19 2 18 3 17 4 16 5 15 6 14 7 13 8 11 9 12 10 10 11
REMARK SMILES IDX 5 12 6 13 96 14 7 15 95 16 8 17 94 18 9 19 4 20 1 21 2 22
REMARK SMILES IDX 3 23 21 25 22 26 23 27 24 28 25 29 26 30 27 31 28 32 29 33
REMARK SMILES IDX 93 34 30 35 92 36 31 37 32 38 33 39 86 40 34 41 91 42 85 43
REMARK SMILES IDX 87 44 35 45 90 46 84 47 83 48 36 50 70 51 49 52 69 53 50 54
REMARK SMILES IDX 53 55 68 56 88 57 51 58 52 59 67 61 89 62 54 63 37 64 38 65
REMARK SMILES IDX 47 66 39 67 40 68 46 69 48 70 41 71 42 72 43 73 44 74 45 75
REMARK SMILES IDX 71 76 72 77 81 78 73 79 74 80 80 81 82 82 75 83 76 84 77 85
REMARK SMILES IDX 78 86 79 87 55 88 56 89 65 90 57 91 58 92 64 93 66 94 59 95
REMARK SMILES IDX 60 96 61 97 62 98 63 99
REMARK H PARENT 4 24 87 49 53 60
REMARK Flexibility Score: inf
ROOT
ATOM      1  C   UNL A   1      40.844  22.150  26.473  1.00  0.00     0.188 C 
ENDROOT
BRANCH   1   2
ATOM      2  O   UNL A   1      39.440  21.966  26.318  1.00  0.00    -0.377 OA
BRANCH   2   3
ATOM      3  C   UNL A   1      38.632  23.051  25.907  1.00  0.00     0.188 C 
BRANCH   3   4
ATOM      4  C   UNL A   1      37.111  22.834  25.973  1.00  0.00     0.188 C 
BRANCH   4   5
ATOM      5  O   UNL A   1      36.713  21.469  25.878  1.00  0.00    -0.376 OA
BRANCH   5   6
ATOM      6  C   UNL A   1      35.372  21.229  25.468  1.00  0.00     0.202 C 
BRANCH   6   7
ATOM      7  C   UNL A   1      34.307  21.740  26.448  1.00  0.00     0.261 C 
BRANCH   7   8
ATOM      8  O   UNL A   1      33.181  22.372  25.823  1.00  0.00    -0.459 OA
BRANCH   8   9
ATOM      9  C   UNL A   1      32.462  23.243  26.572  1.00  0.00     0.348 C 
ATOM     10  O   UNL A   1      32.000  23.001  27.681  1.00  0.00    -0.245 OA
BRANCH   9  11
ATOM     11  C   UNL A   1      32.493  24.553  25.965  1.00  0.00     0.113 A 
ATOM     12  C   UNL A   1      31.598  28.959  24.464  1.00  0.00     0.041 A 
ATOM     13  C   UNL A   1      32.623  28.701  23.558  1.00  0.00     0.027 A 
ATOM     14  C   UNL A   1      31.320  28.049  25.486  1.00  0.00     0.035 A 
ATOM     15  C   UNL A   1      33.334  27.500  23.607  1.00  0.00     0.022 A 
ATOM     16  C   UNL A   1      31.949  26.783  25.489  1.00  0.00    -0.005 A 
ATOM     17  C   UNL A   1      32.952  26.532  24.551  1.00  0.00     0.035 A 
ATOM     18  C   UNL A   1      31.693  25.628  26.293  1.00  0.00     0.036 A 
ATOM     19  S   UNL A   1      33.593  24.945  24.725  1.00  0.00    -0.128 S 
BRANCH  12  20
ATOM     20  N   UNL A   1      30.797  30.104  24.382  1.00  0.00    -0.326 N 
ATOM     21  C   UNL A   1      29.061  29.115  22.907  1.00  0.00     0.114 C 
ATOM     22  C   UNL A   1      29.673  30.294  23.622  1.00  0.00     0.221 C 
ATOM     23  O   UNL A   1      29.131  31.400  23.604  1.00  0.00    -0.275 OA
ATOM     24  H   UNL A   1      31.076  30.867  24.937  1.00  0.00     0.169 HD
ENDBRANCH  12  20
ENDBRANCH   9  11
ENDBRANCH   8   9
ENDBRANCH   7   8
ENDBRANCH   6   7
ENDBRANCH   5   6
ENDBRANCH   4   5
ENDBRANCH   3   4
ENDBRANCH   2   3
ENDBRANCH   1   2
BRANCH   1  25
ATOM     25  C   UNL A   1      41.798  20.987  26.821  1.00  0.00     0.188 C 
BRANCH  25  26
ATOM     26  O   UNL A   1      41.981  20.029  25.784  1.00  0.00    -0.376 OA
BRANCH  26  27
ATOM     27  C   UNL A   1      42.526  18.777  26.183  1.00  0.00     0.202 C 
BRANCH  27  28
ATOM     28  C   UNL A   1      43.670  18.309  25.277  1.00  0.00     0.261 C 
BRANCH  28  29
ATOM     29  O   UNL A   1      43.972  19.197  24.192  1.00  0.00    -0.460 OA
BRANCH  29  30
ATOM     30  C   UNL A   1      45.197  19.769  24.197  1.00  0.00     0.338 C 
ATOM     31  O   UNL A   1      46.224  19.316  23.725  1.00  0.00    -0.246 OA
BRANCH  30  32
ATOM     32  C   UNL A   1      45.056  21.134  24.733  1.00  0.00     0.060 A 
ATOM     33  C   UNL A   1      44.603  22.150  23.884  1.00  0.00     0.016 A 
ATOM     34  C   UNL A   1      45.378  21.405  26.065  1.00  0.00     0.016 A 
ATOM     35  C   UNL A   1      44.513  23.458  24.359  1.00  0.00     0.010 A 
ATOM     36  C   UNL A   1      45.304  22.716  26.534  1.00  0.00     0.010 A 
ATOM     37  C   UNL A   1      44.904  23.753  25.673  1.00  0.00    -0.014 A 
BRANCH  37  38
ATOM     38  C   UNL A   1      45.100  25.160  26.090  1.00  0.00     0.031 A 
ATOM     39  C   UNL A   1      46.486  25.737  26.000  1.00  0.00     0.074 A 
ATOM     40  C   UNL A   1      44.076  25.907  26.538  1.00  0.00     0.049 A 
ATOM     41  N   UNL A   1      46.919  26.915  26.361  1.00  0.00    -0.248 NA
ATOM     42  C   UNL A   1      47.524  24.863  25.424  1.00  0.00     0.031 C 
ATOM     43  C   UNL A   1      42.685  25.467  26.640  1.00  0.00     0.029 A 
ATOM     44  N   UNL A   1      44.056  27.198  27.003  1.00  0.00    -0.354 N 
ATOM     45  C   UNL A   1      48.274  26.929  26.050  1.00  0.00     0.074 A 
ATOM     46  C   UNL A   1      48.601  25.632  25.503  1.00  0.00     0.031 C 
ATOM     47  C   UNL A   1      41.947  26.471  27.151  1.00  0.00     0.029 A 
ATOM     48  C   UNL A   1      42.818  27.610  27.435  1.00  0.00     0.049 A 
ATOM     49  H   UNL A   1      44.853  27.774  27.025  1.00  0.00     0.167 HD
ATOM     50  C   UNL A   1      49.164  27.938  26.197  1.00  0.00     0.037 A 
ATOM     51  C   UNL A   1      42.443  28.769  28.012  1.00  0.00     0.037 A 
ATOM     52  C   UNL A   1      48.842  29.221  26.758  1.00  0.00     0.049 A 
ATOM     53  C   UNL A   1      43.472  29.848  28.241  1.00  0.00     0.074 A 
ATOM     54  C   UNL A   1      49.678  30.303  26.969  1.00  0.00     0.029 A 
ATOM     55  N   UNL A   1      47.582  29.594  27.201  1.00  0.00    -0.354 N 
ATOM     56  N   UNL A   1      44.748  29.852  27.932  1.00  0.00    -0.248 NA
ATOM     57  C   UNL A   1      43.010  31.082  28.895  1.00  0.00     0.031 C 
ATOM     58  C   UNL A   1      48.930  31.321  27.568  1.00  0.00     0.029 A 
ATOM     59  C   UNL A   1      47.619  30.887  27.693  1.00  0.00     0.049 A 
ATOM     60  H   UNL A   1      46.780  29.025  27.169  1.00  0.00     0.167 HD
ATOM     61  C   UNL A   1      45.230  31.098  28.324  1.00  0.00     0.074 A 
ATOM     62  C   UNL A   1      44.111  31.823  28.886  1.00  0.00     0.031 C 
ATOM     63  C   UNL A   1      46.487  31.599  28.227  1.00  0.00     0.037 A 
BRANCH  50  64
ATOM     64  C   UNL A   1      50.574  27.687  25.749  1.00  0.00     0.058 A 
ATOM     65  C   UNL A   1      51.573  27.312  26.661  1.00  0.00     0.135 A 
ATOM     66  C   UNL A   1      50.924  27.786  24.393  1.00  0.00     0.135 A 
ATOM     67  F   UNL A   1      51.294  27.228  27.972  1.00  0.00    -0.206 F 
ATOM     68  C   UNL A   1      52.874  27.055  26.247  1.00  0.00     0.059 A 
ATOM     69  C   UNL A   1      52.216  27.512  23.953  1.00  0.00     0.059 A 
ATOM     70  F   UNL A   1      50.007  28.151  23.484  1.00  0.00    -0.206 F 
ATOM     71  C   UNL A   1      53.186  27.156  24.890  1.00  0.00     0.060 A 
BRANCH  71  72
ATOM     72  S   UNL A   1      54.875  26.798  24.364  1.00  0.00     0.124 S 
ATOM     73  O   UNL A   1      55.108  25.503  24.998  1.00  0.00    -0.237 OA
ATOM     74  O   UNL A   1      54.753  26.779  22.910  1.00  0.00    -0.237 OA
ATOM     75  O   UNL A   1      55.645  27.911  24.909  1.00  0.00    -0.744 OA
ENDBRANCH  71  72
ENDBRANCH  50  64
BRANCH  51  76
ATOM     76  C   UNL A   1      41.033  28.979  28.437  1.00  0.00     0.058 A 
ATOM     77  C   UNL A   1      40.030  29.266  27.499  1.00  0.00     0.135 A 
ATOM     78  C   UNL A   1      40.669  28.949  29.792  1.00  0.00     0.135 A 
ATOM     79  F   UNL A   1      40.330  29.318  26.192  1.00  0.00    -0.206 F 
ATOM     80  C   UNL A   1      38.723  29.546  27.889  1.00  0.00     0.059 A 
ATOM     81  C   UNL A   1      39.365  29.200  30.205  1.00  0.00     0.059 A 
ATOM     82  F   UNL A   1      41.589  28.670  30.729  1.00  0.00    -0.206 F 
ATOM     83  C   UNL A   1      38.403  29.516  29.247  1.00  0.00     0.060 A 
BRANCH  83  84
ATOM     84  S   UNL A   1      36.704  29.872  29.748  1.00  0.00     0.124 S 
ATOM     85  O   UNL A   1      36.606  29.124  30.996  1.00  0.00    -0.237 OA
ATOM     86  O   UNL A   1      36.715  31.325  29.872  1.00  0.00    -0.237 OA
ATOM     87  O   UNL A   1      35.913  29.352  28.637  1.00  0.00    -0.744 OA
ENDBRANCH  83  84
ENDBRANCH  51  76
BRANCH  63  88
ATOM     88  C   UNL A   1      46.711  33.011  28.689  1.00  0.00     0.058 A 
ATOM     89  C   UNL A   1      47.106  33.303  30.004  1.00  0.00     0.135 A 
ATOM     90  C   UNL A   1      46.589  34.080  27.787  1.00  0.00     0.135 A 
ATOM     91  F   UNL A   1      47.234  32.317  30.906  1.00  0.00    -0.206 F 
ATOM     92  C   UNL A   1      47.353  34.609  30.414  1.00  0.00     0.059 A 
ATOM     93  C   UNL A   1      46.853  35.391  28.169  1.00  0.00     0.059 A 
ATOM     94  F   UNL A   1      46.225  33.851  26.514  1.00  0.00    -0.206 F 
ATOM     95  C   UNL A   1      47.224  35.647  29.488  1.00  0.00     0.060 A 
BRANCH  95  96
ATOM     96  S   UNL A   1      47.586  37.335  30.019  1.00  0.00     0.124 S 
ATOM     97  O   UNL A   1      47.720  38.022  28.739  1.00  0.00    -0.237 OA
ATOM     98  O   UNL A   1      46.402  37.678  30.801  1.00  0.00    -0.237 OA
ATOM     99  O   UNL A   1      48.817  37.192  30.789  1.00  0.00    -0.744 OA
ENDBRANCH  95  96
ENDBRANCH  63  88
ENDBRANCH  37  38
ENDBRANCH  30  32
ENDBRANCH  29  30
ENDBRANCH  28  29
ENDBRANCH  27  28
ENDBRANCH  26  27
ENDBRANCH  25  26
ENDBRANCH   1  25
TORSDOF 24
ENDMDL
MODEL 3
REMARK VINA RESULT:     -10.0      1.295      2.231
REMARK SMILES CC(=O)Nc1ccc2sc(C(=O)OCCOCCOCCOCCOC(=O)c3ccc(-c4c5nc(c(-c6c(F)cc(S(=O)(=O)[O-])cc6F)c6ccc([nH]6)c(-c6c(F)cc(S(=O)(=O)[O-])cc6F)c6nc(c(-c7c(F)cc(S(=O)(=O)[O-])cc7F)c7ccc4[nH]7)C=C6)C=C5)cc3)cc2c1
REMARK SMILES IDX 20 1 19 2 18 3 17 4 16 5 15 6 14 7 13 8 11 9 12 10 10 11
REMARK SMILES IDX 5 12 6 13 96 14 7 15 95 16 8 17 94 18 9 19 4 20 1 21 2 22
REMARK SMILES IDX 3 23 21 25 22 26 23 27 24 28 25 29 26 30 27 31 28 32 29 33
REMARK SMILES IDX 93 34 30 35 92 36 31 37 32 38 33 39 86 40 34 41 91 42 85 43
REMARK SMILES IDX 87 44 35 45 90 46 84 47 83 48 36 50 70 51 49 52 69 53 50 54
REMARK SMILES IDX 53 55 68 56 88 57 51 58 52 59 67 61 89 62 54 63 37 64 38 65
REMARK SMILES IDX 47 66 39 67 40 68 46 69 48 70 41 71 42 72 43 73 44 74 45 75
REMARK SMILES IDX 71 76 72 77 81 78 73 79 74 80 80 81 82 82 75 83 76 84 77 85
REMARK SMILES IDX 78 86 79 87 55 88 56 89 65 90 57 91 58 92 64 93 66 94 59 95
REMARK SMILES IDX 60 96 61 97 62 98 63 99
REMARK H PARENT 4 24 87 49 53 60
REMARK Flexibility Score: inf
ROOT
ATOM      1  C   UNL A   1      38.312  21.854  25.414  1.00  0.00     0.188 C 
ENDROOT
BRANCH   1   2
ATOM      2  O   UNL A   1      36.929  22.055  25.689  1.00  0.00    -0.377 OA
BRANCH   2   3
ATOM      3  C   UNL A   1      36.008  21.010  25.450  1.00  0.00     0.188 C 
BRANCH   3   4
ATOM      4  C   UNL A   1      34.520  21.393  25.463  1.00  0.00     0.188 C 
BRANCH   4   5
ATOM      5  O   UNL A   1      33.842  21.137  24.236  1.00  0.00    -0.376 OA
BRANCH   5   6
ATOM      6  C   UNL A   1      32.423  21.225  24.267  1.00  0.00     0.202 C 
BRANCH   6   7
ATOM      7  C   UNL A   1      31.844  21.692  25.610  1.00  0.00     0.261 C 
BRANCH   7   8
ATOM      8  O   UNL A   1      30.880  22.749  25.505  1.00  0.00    -0.459 OA
BRANCH   8   9
ATOM      9  C   UNL A   1      31.078  23.849  26.273  1.00  0.00     0.348 C 
ATOM     10  O   UNL A   1      31.345  23.832  27.469  1.00  0.00    -0.245 OA
BRANCH   9  11
ATOM     11  C   UNL A   1      31.127  25.027  25.438  1.00  0.00     0.113 A 
ATOM     12  C   UNL A   1      30.483  29.249  23.384  1.00  0.00     0.041 A 
ATOM     13  C   UNL A   1      31.187  28.679  22.328  1.00  0.00     0.027 A 
ATOM     14  C   UNL A   1      30.361  28.567  24.596  1.00  0.00     0.035 A 
ATOM     15  C   UNL A   1      31.714  27.390  22.435  1.00  0.00     0.022 A 
ATOM     16  C   UNL A   1      30.789  27.223  24.691  1.00  0.00    -0.005 A 
ATOM     17  C   UNL A   1      31.465  26.658  23.608  1.00  0.00     0.035 A 
ATOM     18  C   UNL A   1      30.598  26.265  25.736  1.00  0.00     0.036 A 
ATOM     19  S   UNL A   1      31.905  25.025  23.923  1.00  0.00    -0.128 S 
BRANCH  12  20
ATOM     20  N   UNL A   1      29.854  30.495  23.278  1.00  0.00    -0.326 N 
ATOM     21  C   UNL A   1      27.551  29.611  22.984  1.00  0.00     0.114 C 
ATOM     22  C   UNL A   1      28.536  30.754  23.003  1.00  0.00     0.221 C 
ATOM     23  O   UNL A   1      28.162  31.919  22.862  1.00  0.00    -0.275 OA
ATOM     24  H   UNL A   1      30.428  31.283  23.417  1.00  0.00     0.169 HD
ENDBRANCH  12  20
ENDBRANCH   9  11
ENDBRANCH   8   9
ENDBRANCH   7   8
ENDBRANCH   6   7
ENDBRANCH   5   6
ENDBRANCH   4   5
ENDBRANCH   3   4
ENDBRANCH   2   3
ENDBRANCH   1   2
BRANCH   1  25
ATOM     25  C   UNL A   1      39.415  22.163  26.449  1.00  0.00     0.188 C 
BRANCH  25  26
ATOM     26  O   UNL A   1      40.219  21.048  26.823  1.00  0.00    -0.376 OA
BRANCH  26  27
ATOM     27  C   UNL A   1      41.357  21.342  27.622  1.00  0.00     0.202 C 
BRANCH  27  28
ATOM     28  C   UNL A   1      42.486  22.009  26.829  1.00  0.00     0.261 C 
BRANCH  28  29
ATOM     29  O   UNL A   1      42.884  23.295  27.327  1.00  0.00    -0.460 OA
BRANCH  29  30
ATOM     30  C   UNL A   1      42.591  24.364  26.553  1.00  0.00     0.338 C 
ATOM     31  O   UNL A   1      42.555  24.406  25.336  1.00  0.00    -0.246 OA
BRANCH  30  32
ATOM     32  C   UNL A   1      42.150  25.456  27.439  1.00  0.00     0.060 A 
ATOM     33  C   UNL A   1      42.874  26.653  27.447  1.00  0.00     0.016 A 
ATOM     34  C   UNL A   1      41.031  25.289  28.260  1.00  0.00     0.016 A 
ATOM     35  C   UNL A   1      42.502  27.679  28.316  1.00  0.00     0.010 A 
ATOM     36  C   UNL A   1      40.672  26.309  29.141  1.00  0.00     0.010 A 
ATOM     37  C   UNL A   1      41.426  27.493  29.197  1.00  0.00    -0.014 A 
BRANCH  37  38
ATOM     38  C   UNL A   1      41.214  28.437  30.317  1.00  0.00     0.031 A 
ATOM     39  C   UNL A   1      42.081  28.293  31.537  1.00  0.00     0.074 A 
ATOM     40  C   UNL A   1      40.276  29.399  30.254  1.00  0.00     0.049 A 
ATOM     41  N   UNL A   1      42.046  28.953  32.663  1.00  0.00    -0.248 NA
ATOM     42  C   UNL A   1      43.131  27.259  31.477  1.00  0.00     0.031 C 
ATOM     43  C   UNL A   1      39.397  29.656  29.114  1.00  0.00     0.029 A 
ATOM     44  N   UNL A   1      39.900  30.334  31.187  1.00  0.00    -0.354 N 
ATOM     45  C   UNL A   1      43.070  28.424  33.441  1.00  0.00     0.074 A 
ATOM     46  C   UNL A   1      43.687  27.366  32.675  1.00  0.00     0.031 C 
ATOM     47  C   UNL A   1      38.574  30.676  29.420  1.00  0.00     0.029 A 
ATOM     48  C   UNL A   1      38.849  31.122  30.784  1.00  0.00     0.049 A 
ATOM     49  H   UNL A   1      40.342  30.429  32.061  1.00  0.00     0.167 HD
ATOM     50  C   UNL A   1      43.467  28.796  34.680  1.00  0.00     0.037 A 
ATOM     51  C   UNL A   1      38.178  32.080  31.455  1.00  0.00     0.037 A 
ATOM     52  C   UNL A   1      42.841  29.837  35.449  1.00  0.00     0.049 A 
ATOM     53  C   UNL A   1      38.588  32.420  32.867  1.00  0.00     0.074 A 
ATOM     54  C   UNL A   1      43.156  30.276  36.723  1.00  0.00     0.029 A 
ATOM     55  N   UNL A   1      41.768  30.601  35.015  1.00  0.00    -0.354 N 
ATOM     56  N   UNL A   1      39.565  31.919  33.587  1.00  0.00    -0.248 NA
ATOM     57  C   UNL A   1      37.805  33.456  33.557  1.00  0.00     0.031 C 
ATOM     58  C   UNL A   1      42.254  31.285  37.072  1.00  0.00     0.029 A 
ATOM     59  C   UNL A   1      41.402  31.502  35.999  1.00  0.00     0.049 A 
ATOM     60  H   UNL A   1      41.332  30.516  34.137  1.00  0.00     0.167 HD
ATOM     61  C   UNL A   1      39.533  32.604  34.799  1.00  0.00     0.074 A 
ATOM     62  C   UNL A   1      38.446  33.556  34.714  1.00  0.00     0.031 C 
ATOM     63  C   UNL A   1      40.332  32.458  35.885  1.00  0.00     0.037 A 
BRANCH  50  64
ATOM     64  C   UNL A   1      44.631  28.065  35.282  1.00  0.00     0.058 A 
ATOM     65  C   UNL A   1      45.946  28.528  35.118  1.00  0.00     0.135 A 
ATOM     66  C   UNL A   1      44.431  26.913  36.058  1.00  0.00     0.135 A 
ATOM     67  F   UNL A   1      46.193  29.611  34.363  1.00  0.00    -0.206 F 
ATOM     68  C   UNL A   1      47.025  27.867  35.694  1.00  0.00     0.059 A 
ATOM     69  C   UNL A   1      45.494  26.248  36.661  1.00  0.00     0.059 A 
ATOM     70  F   UNL A   1      43.193  26.425  36.235  1.00  0.00    -0.206 F 
ATOM     71  C   UNL A   1      46.788  26.728  36.466  1.00  0.00     0.060 A 
BRANCH  71  72
ATOM     72  S   UNL A   1      48.197  25.893  37.225  1.00  0.00     0.124 S 
ATOM     73  O   UNL A   1      47.776  24.497  37.161  1.00  0.00    -0.237 OA
ATOM     74  O   UNL A   1      49.296  26.265  36.339  1.00  0.00    -0.237 OA
ATOM     75  O   UNL A   1      48.253  26.471  38.564  1.00  0.00    -0.744 OA
ENDBRANCH  71  72
ENDBRANCH  50  64
BRANCH  51  76
ATOM     76  C   UNL A   1      37.032  32.785  30.819  1.00  0.00     0.058 A 
ATOM     77  C   UNL A   1      35.708  32.437  31.127  1.00  0.00     0.135 A 
ATOM     78  C   UNL A   1      37.237  33.785  29.856  1.00  0.00     0.135 A 
ATOM     79  F   UNL A   1      35.461  31.479  32.034  1.00  0.00    -0.206 F 
ATOM     80  C   UNL A   1      34.628  33.030  30.481  1.00  0.00     0.059 A 
ATOM     81  C   UNL A   1      36.174  34.411  29.214  1.00  0.00     0.059 A 
ATOM     82  F   UNL A   1      38.484  34.161  29.533  1.00  0.00    -0.206 F 
ATOM     83  C   UNL A   1      34.873  34.013  29.520  1.00  0.00     0.060 A 
BRANCH  83  84
ATOM     84  S   UNL A   1      33.467  34.787  28.691  1.00  0.00     0.124 S 
ATOM     85  O   UNL A   1      33.115  33.772  27.705  1.00  0.00    -0.237 OA
ATOM     86  O   UNL A   1      32.521  34.969  29.787  1.00  0.00    -0.237 OA
ATOM     87  O   UNL A   1      34.034  36.020  28.153  1.00  0.00    -0.744 OA
ENDBRANCH  83  84
ENDBRANCH  51  76
BRANCH  63  88
ATOM     88  C   UNL A   1      40.098  33.379  37.049  1.00  0.00     0.058 A 
ATOM     89  C   UNL A   1      40.852  34.549  37.228  1.00  0.00     0.135 A 
ATOM     90  C   UNL A   1      39.063  33.118  37.963  1.00  0.00     0.135 A 
ATOM     91  F   UNL A   1      41.854  34.842  36.384  1.00  0.00    -0.206 F 
ATOM     92  C   UNL A   1      40.603  35.418  38.284  1.00  0.00     0.059 A 
ATOM     93  C   UNL A   1      38.781  33.986  39.012  1.00  0.00     0.059 A 
ATOM     94  F   UNL A   1      38.305  32.018  37.828  1.00  0.00    -0.206 F 
ATOM     95  C   UNL A   1      39.564  35.129  39.171  1.00  0.00     0.060 A 
BRANCH  95  96
ATOM     96  S   UNL A   1      39.221  36.284  40.516  1.00  0.00     0.124 S 
ATOM     97  O   UNL A   1      38.563  37.374  39.805  1.00  0.00    -0.237 OA
ATOM     98  O   UNL A   1      38.367  35.496  41.398  1.00  0.00    -0.237 OA
ATOM     99  O   UNL A   1      40.546  36.588  41.048  1.00  0.00    -0.744 OA
ENDBRANCH  95  96
ENDBRANCH  63  88
ENDBRANCH  37  38
ENDBRANCH  30  32
ENDBRANCH  29  30
ENDBRANCH  28  29
ENDBRANCH  27  28
ENDBRANCH  26  27
ENDBRANCH  25  26
ENDBRANCH   1  25
TORSDOF 24
ENDMDL
