MODEL 1
REMARK VINA RESULT:      -7.6      0.000      0.000
REMARK SMILES Cc1c(-c2nn(-c3ccccc3)cc2/C=N/O)nnn1-c1ccc(C(=O)OCCOCCOCCOCCOC(=O)c2ccc(-c3c4nc(c(-c5c(F)cc(S(=O)(=O)[O-])cc5F)c5ccc([nH]5)c(-c5c(F)cc(S(=O)(=O)[O-])cc5F)c5nc(c(-c6c(F)cc(S(=O)(=O)[O-])cc6F)c6ccc3[nH]6)C=C5)C=C4)cc2)cc1
REMARK SMILES IDX 32 1 31 2 30 3 29 4 28 5 27 6 25 7 26 8 24 9 21 10 22 11
REMARK SMILES IDX 109 12 23 13 108 14 20 15 1 16 2 17 3 18 18 19 19 20 4 21
REMARK SMILES IDX 5 22 14 23 6 24 13 25 15 26 16 27 17 28 7 30 8 31 12 32 9 33
REMARK SMILES IDX 11 34 10 35 33 36 34 37 35 38 36 39 37 40 38 41 39 42 40 43
REMARK SMILES IDX 41 44 42 45 43 46 107 47 44 48 106 49 45 50 46 51 47 52
REMARK SMILES IDX 100 53 48 54 105 55 99 56 101 57 49 58 104 59 98 60 97 61
REMARK SMILES IDX 50 63 84 64 63 65 83 66 64 67 67 68 82 69 102 70 65 71 66 72
REMARK SMILES IDX 81 74 103 75 68 76 51 77 52 78 61 79 53 80 54 81 60 82 62 83
REMARK SMILES IDX 55 84 56 85 57 86 58 87 59 88 85 89 86 90 95 91 87 92 88 93
REMARK SMILES IDX 94 94 96 95 89 96 90 97 91 98 92 99 93 100 69 101 70 102
REMARK SMILES IDX 79 103 71 104 72 105 78 106 80 107 73 108 74 109 75 110
REMARK SMILES IDX 76 111 77 112
REMARK H PARENT 17 29 101 62 67 73
REMARK Flexibility Score: inf
ROOT
ATOM      1  C   UNL A   1      43.054  40.179  33.625  1.00  0.00     0.188 C 
ENDROOT
BRANCH   1   2
ATOM      2  C   UNL A   1      42.689  41.287  32.613  1.00  0.00     0.188 C 
BRANCH   2   3
ATOM      3  O   UNL A   1      41.797  41.034  31.538  1.00  0.00    -0.376 OA
BRANCH   3   4
ATOM      4  C   UNL A   1      42.139  41.250  30.182  1.00  0.00     0.202 C 
BRANCH   4   5
ATOM      5  C   UNL A   1      41.298  40.798  28.973  1.00  0.00     0.261 C 
BRANCH   5   6
ATOM      6  O   UNL A   1      41.488  39.472  28.489  1.00  0.00    -0.460 OA
BRANCH   6   7
ATOM      7  C   UNL A   1      42.335  39.352  27.446  1.00  0.00     0.338 C 
ATOM      8  O   UNL A   1      42.775  40.246  26.744  1.00  0.00    -0.246 OA
BRANCH   7   9
ATOM      9  C   UNL A   1      42.799  37.949  27.378  1.00  0.00     0.060 A 
ATOM     10  C   UNL A   1      43.729  35.364  26.998  1.00  0.00     0.067 A 
ATOM     11  C   UNL A   1      44.645  36.418  27.036  1.00  0.00     0.029 A 
ATOM     12  C   UNL A   1      42.372  35.582  27.287  1.00  0.00     0.029 A 
ATOM     13  C   UNL A   1      44.169  37.718  27.185  1.00  0.00     0.018 A 
ATOM     14  C   UNL A   1      41.909  36.880  27.500  1.00  0.00     0.018 A 
BRANCH  10  15
ATOM     15  N   UNL A   1      44.167  34.109  26.522  1.00  0.00    -0.217 N 
ATOM     16  C   UNL A   1      44.198  32.857  28.736  1.00  0.00     0.069 C 
ATOM     17  C   UNL A   1      44.417  32.974  27.274  1.00  0.00     0.071 A 
ATOM     18  C   UNL A   1      44.743  32.030  26.322  1.00  0.00     0.137 A 
ATOM     19  N   UNL A   1      44.598  32.552  25.071  1.00  0.00    -0.128 NA
ATOM     20  N   UNL A   1      44.171  33.803  25.202  1.00  0.00    -0.061 NA
BRANCH  18  21
ATOM     21  C   UNL A   1      45.104  30.634  26.539  1.00  0.00     0.124 A 
ATOM     22  N   UNL A   1      44.205  29.642  26.472  1.00  0.00    -0.165 NA
ATOM     23  C   UNL A   1      46.383  30.181  26.932  1.00  0.00     0.044 A 
ATOM     24  N   UNL A   1      44.867  28.562  26.940  1.00  0.00    -0.240 N 
ATOM     25  C   UNL A   1      46.179  28.849  27.233  1.00  0.00     0.125 A 
BRANCH  23  26
ATOM     26  C   UNL A   1      47.648  30.864  27.042  1.00  0.00     0.166 C 
ATOM     27  N   UNL A   1      48.708  30.353  26.510  1.00  0.00    -0.097 NA
BRANCH  27  28
ATOM     28  O   UNL A   1      49.804  31.178  26.788  1.00  0.00    -0.411 OA
ATOM     29  H   UNL A   1      50.673  30.879  26.610  1.00  0.00     0.330 HD
ENDBRANCH  27  28
ENDBRANCH  23  26
BRANCH  24  30
ATOM     30  C   UNL A   1      44.213  27.321  27.109  1.00  0.00     0.065 A 
ATOM     31  C   UNL A   1      44.778  26.163  26.559  1.00  0.00     0.028 A 
ATOM     32  C   UNL A   1      43.007  27.250  27.818  1.00  0.00     0.028 A 
ATOM     33  C   UNL A   1      44.153  24.931  26.755  1.00  0.00     0.002 A 
ATOM     34  C   UNL A   1      42.361  26.021  27.960  1.00  0.00     0.002 A 
ATOM     35  C   UNL A   1      42.941  24.861  27.443  1.00  0.00     0.000 A 
ENDBRANCH  24  30
ENDBRANCH  18  21
ENDBRANCH  10  15
ENDBRANCH   7   9
ENDBRANCH   6   7
ENDBRANCH   5   6
ENDBRANCH   4   5
ENDBRANCH   3   4
ENDBRANCH   2   3
ENDBRANCH   1   2
BRANCH   1  36
ATOM     36  O   UNL A   1      43.896  40.621  34.676  1.00  0.00    -0.377 OA
BRANCH  36  37
ATOM     37  C   UNL A   1      44.340  41.975  34.615  1.00  0.00     0.188 C 
BRANCH  37  38
ATOM     38  C   UNL A   1      45.828  42.289  34.301  1.00  0.00     0.188 C 
BRANCH  38  39
ATOM     39  O   UNL A   1      46.597  41.174  33.876  1.00  0.00    -0.376 OA
BRANCH  39  40
ATOM     40  C   UNL A   1      46.726  40.803  32.516  1.00  0.00     0.202 C 
BRANCH  40  41
ATOM     41  C   UNL A   1      46.932  39.328  32.199  1.00  0.00     0.261 C 
BRANCH  41  42
ATOM     42  O   UNL A   1      45.778  38.542  32.408  1.00  0.00    -0.460 OA
BRANCH  42  43
ATOM     43  C   UNL A   1      45.099  38.245  31.282  1.00  0.00     0.338 C 
ATOM     44  O   UNL A   1      44.615  39.025  30.488  1.00  0.00    -0.246 OA
BRANCH  43  45
ATOM     45  C   UNL A   1      44.916  36.791  31.253  1.00  0.00     0.060 A 
ATOM     46  C   UNL A   1      43.775  36.352  30.589  1.00  0.00     0.016 A 
ATOM     47  C   UNL A   1      45.593  36.014  32.208  1.00  0.00     0.016 A 
ATOM     48  C   UNL A   1      43.124  35.273  31.127  1.00  0.00     0.010 A 
ATOM     49  C   UNL A   1      44.932  34.950  32.754  1.00  0.00     0.010 A 
ATOM     50  C   UNL A   1      43.657  34.676  32.276  1.00  0.00    -0.014 A 
BRANCH  50  51
ATOM     51  C   UNL A   1      42.854  33.683  32.934  1.00  0.00     0.031 A 
ATOM     52  C   UNL A   1      43.339  32.324  32.648  1.00  0.00     0.074 A 
ATOM     53  C   UNL A   1      41.823  33.990  33.738  1.00  0.00     0.049 A 
ATOM     54  N   UNL A   1      42.846  31.491  31.795  1.00  0.00    -0.248 NA
ATOM     55  C   UNL A   1      44.663  31.955  33.167  1.00  0.00     0.031 C 
ATOM     56  C   UNL A   1      41.437  35.288  34.296  1.00  0.00     0.029 A 
ATOM     57  N   UNL A   1      40.923  33.141  34.290  1.00  0.00    -0.354 N 
ATOM     58  C   UNL A   1      43.667  30.376  31.876  1.00  0.00     0.074 A 
ATOM     59  C   UNL A   1      44.878  30.811  32.518  1.00  0.00     0.031 C 
ATOM     60  C   UNL A   1      40.528  35.093  35.281  1.00  0.00     0.029 A 
ATOM     61  C   UNL A   1      40.169  33.684  35.320  1.00  0.00     0.049 A 
ATOM     62  H   UNL A   1      40.812  32.212  33.984  1.00  0.00     0.167 HD
ATOM     63  C   UNL A   1      43.156  29.131  31.685  1.00  0.00     0.037 A 
ATOM     64  C   UNL A   1      39.386  32.976  36.175  1.00  0.00     0.037 A 
ATOM     65  C   UNL A   1      41.882  29.190  31.008  1.00  0.00     0.049 A 
ATOM     66  C   UNL A   1      39.083  31.677  35.505  1.00  0.00     0.074 A 
ATOM     67  C   UNL A   1      41.456  29.697  29.794  1.00  0.00     0.029 A 
ATOM     68  N   UNL A   1      40.746  29.039  31.769  1.00  0.00    -0.354 N 
ATOM     69  N   UNL A   1      38.354  31.573  34.425  1.00  0.00    -0.248 NA
ATOM     70  C   UNL A   1      39.987  30.560  35.748  1.00  0.00     0.031 C 
ATOM     71  C   UNL A   1      40.173  30.260  30.053  1.00  0.00     0.029 A 
ATOM     72  C   UNL A   1      39.854  30.011  31.390  1.00  0.00     0.049 A 
ATOM     73  H   UNL A   1      40.599  28.356  32.463  1.00  0.00     0.167 HD
ATOM     74  C   UNL A   1      38.993  30.615  33.648  1.00  0.00     0.074 A 
ATOM     75  C   UNL A   1      39.951  29.975  34.548  1.00  0.00     0.031 C 
ATOM     76  C   UNL A   1      38.895  30.626  32.284  1.00  0.00     0.037 A 
BRANCH  63  77
ATOM     77  C   UNL A   1      43.613  27.925  32.468  1.00  0.00     0.058 A 
ATOM     78  C   UNL A   1      44.135  26.820  31.770  1.00  0.00     0.135 A 
ATOM     79  C   UNL A   1      43.311  27.697  33.831  1.00  0.00     0.135 A 
ATOM     80  F   UNL A   1      44.449  26.920  30.468  1.00  0.00    -0.206 F 
ATOM     81  C   UNL A   1      44.273  25.565  32.361  1.00  0.00     0.059 A 
ATOM     82  C   UNL A   1      43.498  26.472  34.454  1.00  0.00     0.059 A 
ATOM     83  F   UNL A   1      42.728  28.613  34.612  1.00  0.00    -0.206 F 
ATOM     84  C   UNL A   1      43.937  25.400  33.701  1.00  0.00     0.060 A 
BRANCH  84  85
ATOM     85  S   UNL A   1      44.012  23.764  34.442  1.00  0.00     0.124 S 
ATOM     86  O   UNL A   1      42.727  23.699  35.127  1.00  0.00    -0.237 OA
ATOM     87  O   UNL A   1      44.159  22.910  33.267  1.00  0.00    -0.237 OA
ATOM     88  O   UNL A   1      45.187  23.840  35.305  1.00  0.00    -0.744 OA
ENDBRANCH  84  85
ENDBRANCH  63  77
BRANCH  64  89
ATOM     89  C   UNL A   1      39.247  33.171  37.645  1.00  0.00     0.058 A 
ATOM     90  C   UNL A   1      40.374  33.183  38.487  1.00  0.00     0.135 A 
ATOM     91  C   UNL A   1      38.043  33.632  38.217  1.00  0.00     0.135 A 
ATOM     92  F   UNL A   1      41.567  32.783  38.021  1.00  0.00    -0.206 F 
ATOM     93  C   UNL A   1      40.323  33.673  39.799  1.00  0.00     0.059 A 
ATOM     94  C   UNL A   1      37.966  34.115  39.522  1.00  0.00     0.059 A 
ATOM     95  F   UNL A   1      36.918  33.718  37.492  1.00  0.00    -0.206 F 
ATOM     96  C   UNL A   1      39.116  34.156  40.301  1.00  0.00     0.060 A 
BRANCH  96  97
ATOM     97  S   UNL A   1      39.078  34.952  41.925  1.00  0.00     0.124 S 
ATOM     98  O   UNL A   1      39.621  33.906  42.786  1.00  0.00    -0.237 OA
ATOM     99  O   UNL A   1      39.932  36.116  41.719  1.00  0.00    -0.237 OA
ATOM    100  O   UNL A   1      37.662  35.250  42.124  1.00  0.00    -0.744 OA
ENDBRANCH  96  97
ENDBRANCH  64  89
BRANCH  76 101
ATOM    101  C   UNL A   1      37.847  31.507  31.650  1.00  0.00     0.058 A 
ATOM    102  C   UNL A   1      38.069  32.825  31.210  1.00  0.00     0.135 A 
ATOM    103  C   UNL A   1      36.609  30.929  31.333  1.00  0.00     0.135 A 
ATOM    104  F   UNL A   1      39.260  33.417  31.377  1.00  0.00    -0.206 F 
ATOM    105  C   UNL A   1      37.088  33.547  30.523  1.00  0.00     0.059 A 
ATOM    106  C   UNL A   1      35.629  31.618  30.623  1.00  0.00     0.059 A 
ATOM    107  F   UNL A   1      36.357  29.653  31.670  1.00  0.00    -0.206 F 
ATOM    108  C   UNL A   1      35.869  32.932  30.233  1.00  0.00     0.060 A 
BRANCH 108 109
ATOM    109  S   UNL A   1      34.626  33.837  29.284  1.00  0.00     0.124 S 
ATOM    110  O   UNL A   1      33.685  34.244  30.320  1.00  0.00    -0.237 OA
ATOM    111  O   UNL A   1      35.408  34.911  28.678  1.00  0.00    -0.237 OA
ATOM    112  O   UNL A   1      34.124  32.839  28.342  1.00  0.00    -0.744 OA
ENDBRANCH 108 109
ENDBRANCH  76 101
ENDBRANCH  50  51
ENDBRANCH  43  45
ENDBRANCH  42  43
ENDBRANCH  41  42
ENDBRANCH  40  41
ENDBRANCH  39  40
ENDBRANCH  38  39
ENDBRANCH  37  38
ENDBRANCH  36  37
ENDBRANCH   1  36
TORSDOF 28
ENDMDL
MODEL 2
REMARK VINA RESULT:      -7.4      3.974     10.668
REMARK SMILES Cc1c(-c2nn(-c3ccccc3)cc2/C=N/O)nnn1-c1ccc(C(=O)OCCOCCOCCOCCOC(=O)c2ccc(-c3c4nc(c(-c5c(F)cc(S(=O)(=O)[O-])cc5F)c5ccc([nH]5)c(-c5c(F)cc(S(=O)(=O)[O-])cc5F)c5nc(c(-c6c(F)cc(S(=O)(=O)[O-])cc6F)c6ccc3[nH]6)C=C5)C=C4)cc2)cc1
REMARK SMILES IDX 32 1 31 2 30 3 29 4 28 5 27 6 25 7 26 8 24 9 21 10 22 11
REMARK SMILES IDX 109 12 23 13 108 14 20 15 1 16 2 17 3 18 18 19 19 20 4 21
REMARK SMILES IDX 5 22 14 23 6 24 13 25 15 26 16 27 17 28 7 30 8 31 12 32 9 33
REMARK SMILES IDX 11 34 10 35 33 36 34 37 35 38 36 39 37 40 38 41 39 42 40 43
REMARK SMILES IDX 41 44 42 45 43 46 107 47 44 48 106 49 45 50 46 51 47 52
REMARK SMILES IDX 100 53 48 54 105 55 99 56 101 57 49 58 104 59 98 60 97 61
REMARK SMILES IDX 50 63 84 64 63 65 83 66 64 67 67 68 82 69 102 70 65 71 66 72
REMARK SMILES IDX 81 74 103 75 68 76 51 77 52 78 61 79 53 80 54 81 60 82 62 83
REMARK SMILES IDX 55 84 56 85 57 86 58 87 59 88 85 89 86 90 95 91 87 92 88 93
REMARK SMILES IDX 94 94 96 95 89 96 90 97 91 98 92 99 93 100 69 101 70 102
REMARK SMILES IDX 79 103 71 104 72 105 78 106 80 107 73 108 74 109 75 110
REMARK SMILES IDX 76 111 77 112
REMARK H PARENT 17 29 101 62 67 73
REMARK Flexibility Score: inf
ROOT
ATOM      1  C   UNL A   1      34.782  24.637  25.238  1.00  0.00     0.188 C 
ENDROOT
BRANCH   1   2
ATOM      2  C   UNL A   1      34.715  23.327  26.053  1.00  0.00     0.188 C 
BRANCH   2   3
ATOM      3  O   UNL A   1      35.856  22.497  26.203  1.00  0.00    -0.376 OA
BRANCH   3   4
ATOM      4  C   UNL A   1      37.174  22.936  25.931  1.00  0.00     0.202 C 
BRANCH   4   5
ATOM      5  C   UNL A   1      38.443  22.075  26.080  1.00  0.00     0.261 C 
BRANCH   5   6
ATOM      6  O   UNL A   1      39.478  22.558  26.930  1.00  0.00    -0.460 OA
BRANCH   6   7
ATOM      7  C   UNL A   1      40.555  21.754  27.046  1.00  0.00     0.338 C 
ATOM      8  O   UNL A   1      40.587  20.624  27.499  1.00  0.00    -0.246 OA
BRANCH   7   9
ATOM      9  C   UNL A   1      41.699  22.403  26.370  1.00  0.00     0.060 A 
ATOM     10  C   UNL A   1      43.997  23.521  25.293  1.00  0.00     0.067 A 
ATOM     11  C   UNL A   1      43.817  22.138  25.224  1.00  0.00     0.029 A 
ATOM     12  C   UNL A   1      42.973  24.355  25.771  1.00  0.00     0.029 A 
ATOM     13  C   UNL A   1      42.682  21.578  25.804  1.00  0.00     0.018 A 
ATOM     14  C   UNL A   1      41.808  23.793  26.292  1.00  0.00     0.018 A 
BRANCH  10  15
ATOM     15  N   UNL A   1      45.276  24.049  25.011  1.00  0.00    -0.217 N 
ATOM     16  C   UNL A   1      45.765  25.081  27.284  1.00  0.00     0.069 C 
ATOM     17  C   UNL A   1      46.082  24.779  25.867  1.00  0.00     0.071 A 
ATOM     18  C   UNL A   1      47.229  24.979  25.126  1.00  0.00     0.137 A 
ATOM     19  N   UNL A   1      47.143  24.320  23.936  1.00  0.00    -0.128 NA
ATOM     20  N   UNL A   1      45.974  23.690  23.907  1.00  0.00    -0.061 NA
BRANCH  18  21
ATOM     21  C   UNL A   1      48.436  25.694  25.527  1.00  0.00     0.124 A 
ATOM     22  N   UNL A   1      49.145  25.353  26.613  1.00  0.00    -0.165 NA
ATOM     23  C   UNL A   1      48.932  26.858  24.898  1.00  0.00     0.044 A 
ATOM     24  N   UNL A   1      50.029  26.363  26.762  1.00  0.00    -0.240 N 
ATOM     25  C   UNL A   1      49.926  27.291  25.753  1.00  0.00     0.125 A 
BRANCH  23  26
ATOM     26  C   UNL A   1      48.552  27.521  23.676  1.00  0.00     0.166 C 
ATOM     27  N   UNL A   1      47.307  27.746  23.422  1.00  0.00    -0.097 NA
BRANCH  27  28
ATOM     28  O   UNL A   1      47.198  28.359  22.168  1.00  0.00    -0.411 OA
ATOM     29  H   UNL A   1      47.627  29.175  22.007  1.00  0.00     0.330 HD
ENDBRANCH  27  28
ENDBRANCH  23  26
BRANCH  24  30
ATOM     30  C   UNL A   1      50.905  26.408  27.870  1.00  0.00     0.065 A 
ATOM     31  C   UNL A   1      52.266  26.669  27.661  1.00  0.00     0.028 A 
ATOM     32  C   UNL A   1      50.418  26.190  29.164  1.00  0.00     0.028 A 
ATOM     33  C   UNL A   1      53.128  26.751  28.755  1.00  0.00     0.002 A 
ATOM     34  C   UNL A   1      51.300  26.217  30.247  1.00  0.00     0.002 A 
ATOM     35  C   UNL A   1      52.648  26.512  30.044  1.00  0.00     0.000 A 
ENDBRANCH  24  30
ENDBRANCH  18  21
ENDBRANCH  10  15
ENDBRANCH   7   9
ENDBRANCH   6   7
ENDBRANCH   5   6
ENDBRANCH   4   5
ENDBRANCH   3   4
ENDBRANCH   2   3
ENDBRANCH   1   2
BRANCH   1  36
ATOM     36  O   UNL A   1      33.910  25.650  25.711  1.00  0.00    -0.377 OA
BRANCH  36  37
ATOM     37  C   UNL A   1      33.261  26.449  24.723  1.00  0.00     0.188 C 
BRANCH  37  38
ATOM     38  C   UNL A   1      32.540  27.759  25.138  1.00  0.00     0.188 C 
BRANCH  38  39
ATOM     39  O   UNL A   1      33.401  28.862  25.388  1.00  0.00    -0.376 OA
BRANCH  39  40
ATOM     40  C   UNL A   1      32.948  30.077  25.953  1.00  0.00     0.202 C 
BRANCH  40  41
ATOM     41  C   UNL A   1      33.370  30.397  27.380  1.00  0.00     0.261 C 
BRANCH  41  42
ATOM     42  O   UNL A   1      34.746  30.684  27.509  1.00  0.00    -0.460 OA
BRANCH  42  43
ATOM     43  C   UNL A   1      35.013  31.881  28.071  1.00  0.00     0.338 C 
ATOM     44  O   UNL A   1      34.901  32.975  27.558  1.00  0.00    -0.246 OA
BRANCH  43  45
ATOM     45  C   UNL A   1      35.609  31.622  29.384  1.00  0.00     0.060 A 
ATOM     46  C   UNL A   1      35.321  32.570  30.361  1.00  0.00     0.016 A 
ATOM     47  C   UNL A   1      36.716  30.760  29.457  1.00  0.00     0.016 A 
ATOM     48  C   UNL A   1      36.326  32.878  31.239  1.00  0.00     0.010 A 
ATOM     49  C   UNL A   1      37.725  31.084  30.321  1.00  0.00     0.010 A 
ATOM     50  C   UNL A   1      37.551  32.211  31.113  1.00  0.00    -0.014 A 
BRANCH  50  51
ATOM     51  C   UNL A   1      38.647  32.693  31.907  1.00  0.00     0.031 A 
ATOM     52  C   UNL A   1      39.683  33.315  31.069  1.00  0.00     0.074 A 
ATOM     53  C   UNL A   1      38.674  32.608  33.247  1.00  0.00     0.049 A 
ATOM     54  N   UNL A   1      40.795  32.782  30.690  1.00  0.00    -0.248 NA
ATOM     55  C   UNL A   1      39.328  34.553  30.362  1.00  0.00     0.031 C 
ATOM     56  C   UNL A   1      37.595  32.264  34.175  1.00  0.00     0.029 A 
ATOM     57  N   UNL A   1      39.707  32.900  34.074  1.00  0.00    -0.354 N 
ATOM     58  C   UNL A   1      41.400  33.748  29.900  1.00  0.00     0.074 A 
ATOM     59  C   UNL A   1      40.364  34.675  29.532  1.00  0.00     0.031 C 
ATOM     60  C   UNL A   1      37.975  32.591  35.434  1.00  0.00     0.029 A 
ATOM     61  C   UNL A   1      39.361  33.029  35.411  1.00  0.00     0.049 A 
ATOM     62  H   UNL A   1      40.630  33.011  33.751  1.00  0.00     0.167 HD
ATOM     63  C   UNL A   1      42.754  33.867  29.874  1.00  0.00     0.037 A 
ATOM     64  C   UNL A   1      40.161  33.545  36.380  1.00  0.00     0.037 A 
ATOM     65  C   UNL A   1      43.390  32.671  30.374  1.00  0.00     0.049 A 
ATOM     66  C   UNL A   1      41.564  33.444  35.879  1.00  0.00     0.074 A 
ATOM     67  C   UNL A   1      43.365  31.338  30.007  1.00  0.00     0.029 A 
ATOM     68  N   UNL A   1      43.873  32.694  31.662  1.00  0.00    -0.354 N 
ATOM     69  N   UNL A   1      42.182  32.308  35.685  1.00  0.00    -0.248 NA
ATOM     70  C   UNL A   1      42.102  34.574  35.134  1.00  0.00     0.031 C 
ATOM     71  C   UNL A   1      43.382  30.611  31.233  1.00  0.00     0.029 A 
ATOM     72  C   UNL A   1      43.483  31.532  32.279  1.00  0.00     0.049 A 
ATOM     73  H   UNL A   1      44.403  33.416  32.069  1.00  0.00     0.167 HD
ATOM     74  C   UNL A   1      42.893  32.481  34.505  1.00  0.00     0.074 A 
ATOM     75  C   UNL A   1      42.863  33.920  34.252  1.00  0.00     0.031 C 
ATOM     76  C   UNL A   1      43.190  31.421  33.693  1.00  0.00     0.037 A 
BRANCH  63  77
ATOM     77  C   UNL A   1      43.462  35.196  29.785  1.00  0.00     0.058 A 
ATOM     78  C   UNL A   1      43.354  36.096  30.861  1.00  0.00     0.135 A 
ATOM     79  C   UNL A   1      44.007  35.732  28.594  1.00  0.00     0.135 A 
ATOM     80  F   UNL A   1      42.844  35.698  32.037  1.00  0.00    -0.206 F 
ATOM     81  C   UNL A   1      43.690  37.444  30.739  1.00  0.00     0.059 A 
ATOM     82  C   UNL A   1      44.403  37.055  28.471  1.00  0.00     0.059 A 
ATOM     83  F   UNL A   1      44.095  35.036  27.455  1.00  0.00    -0.206 F 
ATOM     84  C   UNL A   1      44.200  37.914  29.534  1.00  0.00     0.060 A 
BRANCH  84  85
ATOM     85  S   UNL A   1      44.535  39.669  29.334  1.00  0.00     0.124 S 
ATOM     86  O   UNL A   1      43.509  40.257  30.187  1.00  0.00    -0.237 OA
ATOM     87  O   UNL A   1      45.908  39.768  29.819  1.00  0.00    -0.237 OA
ATOM     88  O   UNL A   1      44.367  39.883  27.900  1.00  0.00    -0.744 OA
ENDBRANCH  84  85
ENDBRANCH  63  77
BRANCH  64  89
ATOM     89  C   UNL A   1      39.768  34.469  37.479  1.00  0.00     0.058 A 
ATOM     90  C   UNL A   1      39.710  34.029  38.814  1.00  0.00     0.135 A 
ATOM     91  C   UNL A   1      39.718  35.866  37.286  1.00  0.00     0.135 A 
ATOM     92  F   UNL A   1      39.773  32.718  39.094  1.00  0.00    -0.206 F 
ATOM     93  C   UNL A   1      39.660  34.919  39.894  1.00  0.00     0.059 A 
ATOM     94  C   UNL A   1      39.658  36.770  38.345  1.00  0.00     0.059 A 
ATOM     95  F   UNL A   1      39.822  36.402  36.061  1.00  0.00    -0.206 F 
ATOM     96  C   UNL A   1      39.656  36.291  39.650  1.00  0.00     0.060 A 
BRANCH  96  97
ATOM     97  S   UNL A   1      39.771  37.448  41.035  1.00  0.00     0.124 S 
ATOM     98  O   UNL A   1      38.930  38.549  40.580  1.00  0.00    -0.237 OA
ATOM     99  O   UNL A   1      39.243  36.657  42.142  1.00  0.00    -0.237 OA
ATOM    100  O   UNL A   1      41.199  37.745  41.113  1.00  0.00    -0.744 OA
ENDBRANCH  96  97
ENDBRANCH  64  89
BRANCH  76 101
ATOM    101  C   UNL A   1      42.997  30.028  34.237  1.00  0.00     0.058 A 
ATOM    102  C   UNL A   1      43.927  29.348  35.046  1.00  0.00     0.135 A 
ATOM    103  C   UNL A   1      41.745  29.420  34.056  1.00  0.00     0.135 A 
ATOM    104  F   UNL A   1      45.107  29.904  35.356  1.00  0.00    -0.206 F 
ATOM    105  C   UNL A   1      43.637  28.104  35.614  1.00  0.00     0.059 A 
ATOM    106  C   UNL A   1      41.424  28.197  34.638  1.00  0.00     0.059 A 
ATOM    107  F   UNL A   1      40.792  30.045  33.346  1.00  0.00    -0.206 F 
ATOM    108  C   UNL A   1      42.380  27.536  35.405  1.00  0.00     0.060 A 
BRANCH 108 109
ATOM    109  S   UNL A   1      41.977  25.963  36.197  1.00  0.00     0.124 S 
ATOM    110  O   UNL A   1      40.688  25.639  35.596  1.00  0.00    -0.237 OA
ATOM    111  O   UNL A   1      43.095  25.112  35.800  1.00  0.00    -0.237 OA
ATOM    112  O   UNL A   1      41.936  26.297  37.619  1.00  0.00    -0.744 OA
ENDBRANCH 108 109
ENDBRANCH  76 101
ENDBRANCH  50  51
ENDBRANCH  43  45
ENDBRANCH  42  43
ENDBRANCH  41  42
ENDBRANCH  40  41
ENDBRANCH  39  40
ENDBRANCH  38  39
ENDBRANCH  37  38
ENDBRANCH  36  37
ENDBRANCH   1  36
TORSDOF 28
ENDMDL
MODEL 3
REMARK VINA RESULT:      -7.1      4.001     10.305
REMARK SMILES Cc1c(-c2nn(-c3ccccc3)cc2/C=N/O)nnn1-c1ccc(C(=O)OCCOCCOCCOCCOC(=O)c2ccc(-c3c4nc(c(-c5c(F)cc(S(=O)(=O)[O-])cc5F)c5ccc([nH]5)c(-c5c(F)cc(S(=O)(=O)[O-])cc5F)c5nc(c(-c6c(F)cc(S(=O)(=O)[O-])cc6F)c6ccc3[nH]6)C=C5)C=C4)cc2)cc1
REMARK SMILES IDX 32 1 31 2 30 3 29 4 28 5 27 6 25 7 26 8 24 9 21 10 22 11
REMARK SMILES IDX 109 12 23 13 108 14 20 15 1 16 2 17 3 18 18 19 19 20 4 21
REMARK SMILES IDX 5 22 14 23 6 24 13 25 15 26 16 27 17 28 7 30 8 31 12 32 9 33
REMARK SMILES IDX 11 34 10 35 33 36 34 37 35 38 36 39 37 40 38 41 39 42 40 43
REMARK SMILES IDX 41 44 42 45 43 46 107 47 44 48 106 49 45 50 46 51 47 52
REMARK SMILES IDX 100 53 48 54 105 55 99 56 101 57 49 58 104 59 98 60 97 61
REMARK SMILES IDX 50 63 84 64 63 65 83 66 64 67 67 68 82 69 102 70 65 71 66 72
REMARK SMILES IDX 81 74 103 75 68 76 51 77 52 78 61 79 53 80 54 81 60 82 62 83
REMARK SMILES IDX 55 84 56 85 57 86 58 87 59 88 85 89 86 90 95 91 87 92 88 93
REMARK SMILES IDX 94 94 96 95 89 96 90 97 91 98 92 99 93 100 69 101 70 102
REMARK SMILES IDX 79 103 71 104 72 105 78 106 80 107 73 108 74 109 75 110
REMARK SMILES IDX 76 111 77 112
REMARK H PARENT 17 29 101 62 67 73
REMARK Flexibility Score: inf
ROOT
ATOM      1  C   UNL A   1      34.988  24.450  24.676  1.00  0.00     0.188 C 
ENDROOT
BRANCH   1   2
ATOM      2  C   UNL A   1      35.671  23.461  25.645  1.00  0.00     0.188 C 
BRANCH   2   3
ATOM      3  O   UNL A   1      37.070  23.507  25.876  1.00  0.00    -0.376 OA
BRANCH   3   4
ATOM      4  C   UNL A   1      37.916  22.382  25.730  1.00  0.00     0.202 C 
BRANCH   4   5
ATOM      5  C   UNL A   1      39.259  22.182  26.457  1.00  0.00     0.261 C 
BRANCH   5   6
ATOM      6  O   UNL A   1      40.055  23.335  26.711  1.00  0.00    -0.460 OA
BRANCH   6   7
ATOM      7  C   UNL A   1      41.217  23.105  27.356  1.00  0.00     0.338 C 
ATOM      8  O   UNL A   1      41.524  22.115  27.997  1.00  0.00    -0.246 OA
BRANCH   7   9
ATOM      9  C   UNL A   1      42.161  24.195  27.025  1.00  0.00     0.060 A 
ATOM     10  C   UNL A   1      44.026  26.082  26.216  1.00  0.00     0.067 A 
ATOM     11  C   UNL A   1      42.939  25.800  25.385  1.00  0.00     0.029 A 
ATOM     12  C   UNL A   1      44.107  25.528  27.504  1.00  0.00     0.029 A 
ATOM     13  C   UNL A   1      42.029  24.822  25.777  1.00  0.00     0.018 A 
ATOM     14  C   UNL A   1      43.156  24.596  27.919  1.00  0.00     0.018 A 
BRANCH  10  15
ATOM     15  N   UNL A   1      45.109  26.813  25.682  1.00  0.00    -0.217 N 
ATOM     16  C   UNL A   1      46.628  24.860  25.093  1.00  0.00     0.069 C 
ATOM     17  C   UNL A   1      46.302  26.302  25.200  1.00  0.00     0.071 A 
ATOM     18  C   UNL A   1      46.963  27.424  24.742  1.00  0.00     0.137 A 
ATOM     19  N   UNL A   1      46.164  28.523  24.857  1.00  0.00    -0.128 NA
ATOM     20  N   UNL A   1      45.002  28.126  25.364  1.00  0.00    -0.061 NA
BRANCH  18  21
ATOM     21  C   UNL A   1      48.281  27.490  24.122  1.00  0.00     0.124 A 
ATOM     22  N   UNL A   1      48.453  27.816  22.833  1.00  0.00    -0.165 NA
ATOM     23  C   UNL A   1      49.492  27.131  24.757  1.00  0.00     0.044 A 
ATOM     24  N   UNL A   1      49.756  27.553  22.595  1.00  0.00    -0.240 N 
ATOM     25  C   UNL A   1      50.412  27.133  23.727  1.00  0.00     0.125 A 
BRANCH  23  26
ATOM     26  C   UNL A   1      49.793  26.808  26.128  1.00  0.00     0.166 C 
ATOM     27  N   UNL A   1      50.413  27.661  26.874  1.00  0.00    -0.097 NA
BRANCH  27  28
ATOM     28  O   UNL A   1      50.622  27.099  28.139  1.00  0.00    -0.411 OA
ATOM     29  H   UNL A   1      49.988  26.512  28.500  1.00  0.00     0.330 HD
ENDBRANCH  27  28
ENDBRANCH  23  26
BRANCH  24  30
ATOM     30  C   UNL A   1      50.304  27.689  21.299  1.00  0.00     0.065 A 
ATOM     31  C   UNL A   1      51.099  28.803  21.001  1.00  0.00     0.028 A 
ATOM     32  C   UNL A   1      50.050  26.720  20.321  1.00  0.00     0.028 A 
ATOM     33  C   UNL A   1      51.671  28.922  19.733  1.00  0.00     0.002 A 
ATOM     34  C   UNL A   1      50.580  26.877  19.039  1.00  0.00     0.002 A 
ATOM     35  C   UNL A   1      51.402  27.968  18.751  1.00  0.00     0.000 A 
ENDBRANCH  24  30
ENDBRANCH  18  21
ENDBRANCH  10  15
ENDBRANCH   7   9
ENDBRANCH   6   7
ENDBRANCH   5   6
ENDBRANCH   4   5
ENDBRANCH   3   4
ENDBRANCH   2   3
ENDBRANCH   1   2
BRANCH   1  36
ATOM     36  O   UNL A   1      34.257  25.476  25.326  1.00  0.00    -0.377 OA
BRANCH  36  37
ATOM     37  C   UNL A   1      33.764  26.532  24.503  1.00  0.00     0.188 C 
BRANCH  37  38
ATOM     38  C   UNL A   1      32.937  27.684  25.134  1.00  0.00     0.188 C 
BRANCH  38  39
ATOM     39  O   UNL A   1      33.671  28.871  25.400  1.00  0.00    -0.376 OA
BRANCH  39  40
ATOM     40  C   UNL A   1      33.091  30.013  26.001  1.00  0.00     0.202 C 
BRANCH  40  41
ATOM     41  C   UNL A   1      33.426  30.294  27.460  1.00  0.00     0.261 C 
BRANCH  41  42
ATOM     42  O   UNL A   1      34.805  30.483  27.694  1.00  0.00    -0.460 OA
BRANCH  42  43
ATOM     43  C   UNL A   1      35.117  31.684  28.225  1.00  0.00     0.338 C 
ATOM     44  O   UNL A   1      35.082  32.763  27.671  1.00  0.00    -0.246 OA
BRANCH  43  45
ATOM     45  C   UNL A   1      35.653  31.441  29.566  1.00  0.00     0.060 A 
ATOM     46  C   UNL A   1      35.391  32.441  30.498  1.00  0.00     0.016 A 
ATOM     47  C   UNL A   1      36.703  30.518  29.710  1.00  0.00     0.016 A 
ATOM     48  C   UNL A   1      36.385  32.723  31.398  1.00  0.00     0.010 A 
ATOM     49  C   UNL A   1      37.701  30.814  30.596  1.00  0.00     0.010 A 
ATOM     50  C   UNL A   1      37.570  31.980  31.339  1.00  0.00    -0.014 A 
BRANCH  50  51
ATOM     51  C   UNL A   1      38.668  32.425  32.152  1.00  0.00     0.031 A 
ATOM     52  C   UNL A   1      39.749  32.990  31.331  1.00  0.00     0.074 A 
ATOM     53  C   UNL A   1      38.659  32.359  33.494  1.00  0.00     0.049 A 
ATOM     54  N   UNL A   1      40.845  32.404  30.986  1.00  0.00    -0.248 NA
ATOM     55  C   UNL A   1      39.463  34.232  30.599  1.00  0.00     0.031 C 
ATOM     56  C   UNL A   1      37.545  32.075  34.400  1.00  0.00     0.029 A 
ATOM     57  N   UNL A   1      39.684  32.618  34.341  1.00  0.00    -0.354 N 
ATOM     58  C   UNL A   1      41.509  33.332  30.198  1.00  0.00     0.074 A 
ATOM     59  C   UNL A   1      40.523  34.298  29.793  1.00  0.00     0.031 C 
ATOM     60  C   UNL A   1      37.909  32.403  35.664  1.00  0.00     0.029 A 
ATOM     61  C   UNL A   1      39.313  32.781  35.668  1.00  0.00     0.049 A 
ATOM     62  H   UNL A   1      40.619  32.685  34.039  1.00  0.00     0.167 HD
ATOM     63  C   UNL A   1      42.867  33.393  30.203  1.00  0.00     0.037 A 
ATOM     64  C   UNL A   1      40.112  33.276  36.649  1.00  0.00     0.037 A 
ATOM     65  C   UNL A   1      43.439  32.178  30.734  1.00  0.00     0.049 A 
ATOM     66  C   UNL A   1      41.520  33.107  36.183  1.00  0.00     0.074 A 
ATOM     67  C   UNL A   1      43.365  30.842  30.384  1.00  0.00     0.029 A 
ATOM     68  N   UNL A   1      43.892  32.199  32.033  1.00  0.00    -0.354 N 
ATOM     69  N   UNL A   1      42.094  31.944  36.019  1.00  0.00    -0.248 NA
ATOM     70  C   UNL A   1      42.124  34.203  35.436  1.00  0.00     0.031 C 
ATOM     71  C   UNL A   1      43.322  30.133  31.620  1.00  0.00     0.029 A 
ATOM     72  C   UNL A   1      43.438  31.063  32.655  1.00  0.00     0.049 A 
ATOM     73  H   UNL A   1      44.444  32.904  32.443  1.00  0.00     0.167 HD
ATOM     74  C   UNL A   1      42.839  32.069  34.854  1.00  0.00     0.074 A 
ATOM     75  C   UNL A   1      42.876  33.504  34.581  1.00  0.00     0.031 C 
ATOM     76  C   UNL A   1      43.108  30.986  34.063  1.00  0.00     0.037 A 
BRANCH  63  77
ATOM     77  C   UNL A   1      43.634  34.689  30.113  1.00  0.00     0.058 A 
ATOM     78  C   UNL A   1      44.542  34.868  29.052  1.00  0.00     0.135 A 
ATOM     79  C   UNL A   1      43.723  35.638  31.158  1.00  0.00     0.135 A 
ATOM     80  F   UNL A   1      44.552  34.021  28.011  1.00  0.00    -0.206 F 
ATOM     81  C   UNL A   1      45.513  35.867  29.067  1.00  0.00     0.059 A 
ATOM     82  C   UNL A   1      44.642  36.676  31.163  1.00  0.00     0.059 A 
ATOM     83  F   UNL A   1      42.995  35.560  32.278  1.00  0.00    -0.206 F 
ATOM     84  C   UNL A   1      45.562  36.757  30.135  1.00  0.00     0.060 A 
BRANCH  84  85
ATOM     85  S   UNL A   1      46.877  37.981  30.214  1.00  0.00     0.124 S 
ATOM     86  O   UNL A   1      46.733  38.471  31.579  1.00  0.00    -0.237 OA
ATOM     87  O   UNL A   1      48.058  37.169  29.943  1.00  0.00    -0.237 OA
ATOM     88  O   UNL A   1      46.518  38.926  29.160  1.00  0.00    -0.744 OA
ENDBRANCH  84  85
ENDBRANCH  63  77
BRANCH  64  89
ATOM     89  C   UNL A   1      39.733  34.232  37.725  1.00  0.00     0.058 A 
ATOM     90  C   UNL A   1      39.937  33.918  39.082  1.00  0.00     0.135 A 
ATOM     91  C   UNL A   1      39.431  35.580  37.442  1.00  0.00     0.135 A 
ATOM     92  F   UNL A   1      40.251  32.664  39.443  1.00  0.00    -0.206 F 
ATOM     93  C   UNL A   1      39.897  34.890  40.089  1.00  0.00     0.059 A 
ATOM     94  C   UNL A   1      39.376  36.563  38.429  1.00  0.00     0.059 A 
ATOM     95  F   UNL A   1      39.272  36.006  36.180  1.00  0.00    -0.206 F 
ATOM     96  C   UNL A   1      39.636  36.216  39.750  1.00  0.00     0.060 A 
BRANCH  96  97
ATOM     97  S   UNL A   1      39.756  37.504  41.014  1.00  0.00     0.124 S 
ATOM     98  O   UNL A   1      38.887  38.542  40.471  1.00  0.00    -0.237 OA
ATOM     99  O   UNL A   1      39.264  36.817  42.203  1.00  0.00    -0.237 OA
ATOM    100  O   UNL A   1      41.181  37.831  41.032  1.00  0.00    -0.744 OA
ENDBRANCH  96  97
ENDBRANCH  64  89
BRANCH  76 101
ATOM    101  C   UNL A   1      42.843  29.610  34.621  1.00  0.00     0.058 A 
ATOM    102  C   UNL A   1      41.651  28.885  34.433  1.00  0.00     0.135 A 
ATOM    103  C   UNL A   1      43.906  28.937  35.240  1.00  0.00     0.135 A 
ATOM    104  F   UNL A   1      40.621  29.416  33.758  1.00  0.00    -0.206 F 
ATOM    105  C   UNL A   1      41.512  27.567  34.877  1.00  0.00     0.059 A 
ATOM    106  C   UNL A   1      43.802  27.614  35.662  1.00  0.00     0.059 A 
ATOM    107  F   UNL A   1      45.091  29.551  35.395  1.00  0.00    -0.206 F 
ATOM    108  C   UNL A   1      42.597  26.939  35.490  1.00  0.00     0.060 A 
BRANCH 108 109
ATOM    109  S   UNL A   1      42.446  25.212  36.001  1.00  0.00     0.124 S 
ATOM    110  O   UNL A   1      42.685  24.500  34.750  1.00  0.00    -0.237 OA
ATOM    111  O   UNL A   1      43.491  25.087  37.013  1.00  0.00    -0.237 OA
ATOM    112  O   UNL A   1      41.081  25.127  36.516  1.00  0.00    -0.744 OA
ENDBRANCH 108 109
ENDBRANCH  76 101
ENDBRANCH  50  51
ENDBRANCH  43  45
ENDBRANCH  42  43
ENDBRANCH  41  42
ENDBRANCH  40  41
ENDBRANCH  39  40
ENDBRANCH  38  39
ENDBRANCH  37  38
ENDBRANCH  36  37
ENDBRANCH   1  36
TORSDOF 28
ENDMDL
