MODEL 1
REMARK VINA RESULT:      -8.9      0.000      0.000
REMARK SMILES COc1ccc(OCc2cccs2)c(C(=O)OCCOCCOCCOCCOC(=O)c2ccc(-c3c4nc(c(-c5c(F)cc(S(=O)(=O)[O-])cc5F)c5ccc([nH]5)c(-c5c(F)cc(S(=O)(=O)[O-])cc5F)c5nc(c(-c6c(F)cc(S(=O)(=O)[O-])cc6F)c6ccc3[nH]6)C=C5)C=C4)cc2)c1
REMARK SMILES IDX 23 1 22 2 21 3 20 4 19 5 18 6 17 7 15 8 16 9 14 10 3 11 4 12
REMARK SMILES IDX 98 13 5 14 6 15 2 16 1 17 7 18 8 19 9 20 10 21 13 22 11 23
REMARK SMILES IDX 12 24 24 25 25 26 26 27 27 28 28 29 29 30 30 31 31 32 32 33
REMARK SMILES IDX 33 34 97 35 34 36 96 37 35 38 36 39 37 40 90 41 38 42 95 43
REMARK SMILES IDX 89 44 91 45 39 46 94 47 88 48 87 49 40 51 74 52 53 53 73 54
REMARK SMILES IDX 54 55 57 56 72 57 92 58 55 59 56 60 71 62 93 63 58 64 41 65
REMARK SMILES IDX 42 66 51 67 43 68 44 69 50 70 52 71 45 72 46 73 47 74 48 75
REMARK SMILES IDX 49 76 75 77 76 78 85 79 77 80 78 81 84 82 86 83 79 84 80 85
REMARK SMILES IDX 81 86 82 87 83 88 59 89 60 90 69 91 61 92 62 93 68 94 70 95
REMARK SMILES IDX 63 96 64 97 65 98 66 99 67 100
REMARK H PARENT 91 50 57 61
REMARK Flexibility Score: inf
ROOT
ATOM      1  O   UNL A   1      34.454  23.338  25.726  1.00  0.00    -0.377 OA
ENDROOT
BRANCH   1   2
ATOM      2  C   UNL A   1      33.484  24.179  26.318  1.00  0.00     0.188 C 
BRANCH   2   3
ATOM      3  C   UNL A   1      32.003  23.972  25.956  1.00  0.00     0.188 C 
BRANCH   3   4
ATOM      4  O   UNL A   1      31.055  24.238  26.983  1.00  0.00    -0.376 OA
BRANCH   4   5
ATOM      5  C   UNL A   1      29.862  24.915  26.593  1.00  0.00     0.202 C 
BRANCH   5   6
ATOM      6  C   UNL A   1      30.100  26.223  25.836  1.00  0.00     0.261 C 
BRANCH   6   7
ATOM      7  O   UNL A   1      29.353  26.268  24.610  1.00  0.00    -0.460 OA
BRANCH   7   8
ATOM      8  C   UNL A   1      29.781  27.172  23.697  1.00  0.00     0.342 C 
ATOM      9  O   UNL A   1      29.112  28.084  23.260  1.00  0.00    -0.246 OA
BRANCH   8  10
ATOM     10  C   UNL A   1      31.181  26.832  23.353  1.00  0.00     0.105 A 
ATOM     11  C   UNL A   1      32.567  24.995  22.516  1.00  0.00     0.119 A 
ATOM     12  C   UNL A   1      33.700  25.747  22.773  1.00  0.00     0.050 A 
ATOM     13  C   UNL A   1      31.319  25.521  22.834  1.00  0.00     0.066 A 
ATOM     14  C   UNL A   1      33.573  27.048  23.259  1.00  0.00     0.051 A 
ATOM     15  C   UNL A   1      32.319  27.635  23.527  1.00  0.00     0.134 A 
BRANCH  11  16
ATOM     16  O   UNL A   1      32.777  23.753  21.987  1.00  0.00    -0.497 OA
ATOM     17  C   UNL A   1      33.939  23.087  22.478  1.00  0.00     0.278 C 
ENDBRANCH  11  16
BRANCH  15  18
ATOM     18  O   UNL A   1      32.510  28.931  23.903  1.00  0.00    -0.487 OA
BRANCH  18  19
ATOM     19  C   UNL A   1      32.048  29.556  25.094  1.00  0.00     0.276 C 
BRANCH  19  20
ATOM     20  C   UNL A   1      33.096  29.599  26.154  1.00  0.00     0.042 A 
ATOM     21  C   UNL A   1      34.232  28.831  26.329  1.00  0.00     0.019 A 
ATOM     22  S   UNL A   1      33.025  30.876  27.307  1.00  0.00    -0.145 S 
ATOM     23  C   UNL A   1      35.157  29.455  27.216  1.00  0.00     0.012 A 
ATOM     24  C   UNL A   1      34.640  30.595  27.787  1.00  0.00     0.065 A 
ENDBRANCH  19  20
ENDBRANCH  18  19
ENDBRANCH  15  18
ENDBRANCH   8  10
ENDBRANCH   7   8
ENDBRANCH   6   7
ENDBRANCH   5   6
ENDBRANCH   4   5
ENDBRANCH   3   4
ENDBRANCH   2   3
ENDBRANCH   1   2
BRANCH   1  25
ATOM     25  C   UNL A   1      34.577  21.996  26.171  1.00  0.00     0.188 C 
BRANCH  25  26
ATOM     26  C   UNL A   1      35.235  20.921  25.282  1.00  0.00     0.188 C 
BRANCH  26  27
ATOM     27  O   UNL A   1      36.483  21.291  24.705  1.00  0.00    -0.376 OA
BRANCH  27  28
ATOM     28  C   UNL A   1      37.365  22.015  25.552  1.00  0.00     0.202 C 
BRANCH  28  29
ATOM     29  C   UNL A   1      38.763  21.394  25.658  1.00  0.00     0.261 C 
BRANCH  29  30
ATOM     30  O   UNL A   1      39.554  21.872  26.756  1.00  0.00    -0.460 OA
BRANCH  30  31
ATOM     31  C   UNL A   1      40.751  22.421  26.455  1.00  0.00     0.338 C 
ATOM     32  O   UNL A   1      41.573  22.003  25.658  1.00  0.00    -0.246 OA
BRANCH  31  33
ATOM     33  C   UNL A   1      40.821  23.740  27.110  1.00  0.00     0.060 A 
ATOM     34  C   UNL A   1      40.187  24.828  26.497  1.00  0.00     0.016 A 
ATOM     35  C   UNL A   1      41.488  23.895  28.330  1.00  0.00     0.016 A 
ATOM     36  C   UNL A   1      40.275  26.094  27.073  1.00  0.00     0.010 A 
ATOM     37  C   UNL A   1      41.595  25.166  28.894  1.00  0.00     0.010 A 
ATOM     38  C   UNL A   1      41.034  26.275  28.238  1.00  0.00    -0.014 A 
BRANCH  38  39
ATOM     39  C   UNL A   1      41.503  27.637  28.581  1.00  0.00     0.031 A 
ATOM     40  C   UNL A   1      42.963  27.934  28.367  1.00  0.00     0.074 A 
ATOM     41  C   UNL A   1      40.671  28.586  29.040  1.00  0.00     0.049 A 
ATOM     42  N   UNL A   1      43.625  29.043  28.557  1.00  0.00    -0.248 NA
ATOM     43  C   UNL A   1      43.788  26.818  27.868  1.00  0.00     0.031 C 
ATOM     44  C   UNL A   1      39.235  28.425  29.258  1.00  0.00     0.029 A 
ATOM     45  N   UNL A   1      40.926  29.883  29.404  1.00  0.00    -0.354 N 
ATOM     46  C   UNL A   1      44.939  28.761  28.198  1.00  0.00     0.074 A 
ATOM     47  C   UNL A   1      44.989  27.369  27.815  1.00  0.00     0.031 C 
ATOM     48  C   UNL A   1      38.733  29.586  29.715  1.00  0.00     0.029 A 
ATOM     49  C   UNL A   1      39.815  30.563  29.840  1.00  0.00     0.049 A 
ATOM     50  H   UNL A   1      41.821  30.290  29.357  1.00  0.00     0.167 HD
ATOM     51  C   UNL A   1      46.008  29.588  28.181  1.00  0.00     0.037 A 
ATOM     52  C   UNL A   1      39.695  31.829  30.287  1.00  0.00     0.037 A 
ATOM     53  C   UNL A   1      45.960  30.966  28.584  1.00  0.00     0.049 A 
ATOM     54  C   UNL A   1      40.914  32.716  30.327  1.00  0.00     0.074 A 
ATOM     55  C   UNL A   1      46.983  31.897  28.598  1.00  0.00     0.029 A 
ATOM     56  N   UNL A   1      44.825  31.607  29.058  1.00  0.00    -0.354 N 
ATOM     57  N   UNL A   1      42.145  32.450  29.951  1.00  0.00    -0.248 NA
ATOM     58  C   UNL A   1      40.728  34.078  30.848  1.00  0.00     0.031 C 
ATOM     59  C   UNL A   1      46.474  33.091  29.123  1.00  0.00     0.029 A 
ATOM     60  C   UNL A   1      45.125  32.916  29.390  1.00  0.00     0.049 A 
ATOM     61  H   UNL A   1      43.936  31.190  29.145  1.00  0.00     0.167 HD
ATOM     62  C   UNL A   1      42.868  33.621  30.154  1.00  0.00     0.074 A 
ATOM     63  C   UNL A   1      41.939  34.596  30.689  1.00  0.00     0.031 C 
ATOM     64  C   UNL A   1      44.180  33.872  29.912  1.00  0.00     0.037 A 
BRANCH  51  65
ATOM     65  C   UNL A   1      47.318  28.994  27.749  1.00  0.00     0.058 A 
ATOM     66  C   UNL A   1      47.652  28.853  26.392  1.00  0.00     0.135 A 
ATOM     67  C   UNL A   1      48.231  28.518  28.702  1.00  0.00     0.135 A 
ATOM     68  F   UNL A   1      46.801  29.267  25.439  1.00  0.00    -0.206 F 
ATOM     69  C   UNL A   1      48.825  28.219  25.994  1.00  0.00     0.059 A 
ATOM     70  C   UNL A   1      49.423  27.905  28.328  1.00  0.00     0.059 A 
ATOM     71  F   UNL A   1      47.957  28.621  30.011  1.00  0.00    -0.206 F 
ATOM     72  C   UNL A   1      49.699  27.740  26.971  1.00  0.00     0.060 A 
BRANCH  72  73
ATOM     73  S   UNL A   1      51.199  26.883  26.446  1.00  0.00     0.124 S 
ATOM     74  O   UNL A   1      51.653  27.738  25.353  1.00  0.00    -0.237 OA
ATOM     75  O   UNL A   1      52.017  26.913  27.654  1.00  0.00    -0.237 OA
ATOM     76  O   UNL A   1      50.715  25.564  26.053  1.00  0.00    -0.744 OA
ENDBRANCH  72  73
ENDBRANCH  51  65
BRANCH  52  77
ATOM     77  C   UNL A   1      38.366  32.348  30.706  1.00  0.00     0.058 A 
ATOM     78  C   UNL A   1      37.973  32.314  32.053  1.00  0.00     0.135 A 
ATOM     79  C   UNL A   1      37.468  32.893  29.776  1.00  0.00     0.135 A 
ATOM     80  F   UNL A   1      38.793  31.791  32.977  1.00  0.00    -0.206 F 
ATOM     81  C   UNL A   1      36.734  32.796  32.463  1.00  0.00     0.059 A 
ATOM     82  C   UNL A   1      36.231  33.399  30.165  1.00  0.00     0.059 A 
ATOM     83  F   UNL A   1      37.799  32.953  28.477  1.00  0.00    -0.206 F 
ATOM     84  C   UNL A   1      35.871  33.342  31.511  1.00  0.00     0.060 A 
BRANCH  84  85
ATOM     85  S   UNL A   1      34.292  34.023  32.063  1.00  0.00     0.124 S 
ATOM     86  O   UNL A   1      33.727  34.511  30.810  1.00  0.00    -0.237 OA
ATOM     87  O   UNL A   1      33.641  32.853  32.645  1.00  0.00    -0.237 OA
ATOM     88  O   UNL A   1      34.687  35.051  33.021  1.00  0.00    -0.744 OA
ENDBRANCH  84  85
ENDBRANCH  52  77
BRANCH  64  89
ATOM     89  C   UNL A   1      44.680  35.264  30.176  1.00  0.00     0.058 A 
ATOM     90  C   UNL A   1      44.620  36.271  29.199  1.00  0.00     0.135 A 
ATOM     91  C   UNL A   1      45.173  35.609  31.445  1.00  0.00     0.135 A 
ATOM     92  F   UNL A   1      44.159  35.992  27.969  1.00  0.00    -0.206 F 
ATOM     93  C   UNL A   1      45.055  37.565  29.464  1.00  0.00     0.059 A 
ATOM     94  C   UNL A   1      45.591  36.903  31.739  1.00  0.00     0.059 A 
ATOM     95  F   UNL A   1      45.238  34.687  32.418  1.00  0.00    -0.206 F 
ATOM     96  C   UNL A   1      45.540  37.872  30.738  1.00  0.00     0.060 A 
BRANCH  96  97
ATOM     97  S   UNL A   1      46.077  39.560  31.081  1.00  0.00     0.124 S 
ATOM     98  O   UNL A   1      46.608  39.429  32.434  1.00  0.00    -0.237 OA
ATOM     99  O   UNL A   1      47.066  39.796  30.033  1.00  0.00    -0.237 OA
ATOM    100  O   UNL A   1      44.848  40.338  30.960  1.00  0.00    -0.744 OA
ENDBRANCH  96  97
ENDBRANCH  64  89
ENDBRANCH  38  39
ENDBRANCH  31  33
ENDBRANCH  30  31
ENDBRANCH  29  30
ENDBRANCH  28  29
ENDBRANCH  27  28
ENDBRANCH  26  27
ENDBRANCH  25  26
ENDBRANCH   1  25
TORSDOF 27
ENDMDL
MODEL 2
REMARK VINA RESULT:      -8.6      4.750      6.205
REMARK SMILES COc1ccc(OCc2cccs2)c(C(=O)OCCOCCOCCOCCOC(=O)c2ccc(-c3c4nc(c(-c5c(F)cc(S(=O)(=O)[O-])cc5F)c5ccc([nH]5)c(-c5c(F)cc(S(=O)(=O)[O-])cc5F)c5nc(c(-c6c(F)cc(S(=O)(=O)[O-])cc6F)c6ccc3[nH]6)C=C5)C=C4)cc2)c1
REMARK SMILES IDX 23 1 22 2 21 3 20 4 19 5 18 6 17 7 15 8 16 9 14 10 3 11 4 12
REMARK SMILES IDX 98 13 5 14 6 15 2 16 1 17 7 18 8 19 9 20 10 21 13 22 11 23
REMARK SMILES IDX 12 24 24 25 25 26 26 27 27 28 28 29 29 30 30 31 31 32 32 33
REMARK SMILES IDX 33 34 97 35 34 36 96 37 35 38 36 39 37 40 90 41 38 42 95 43
REMARK SMILES IDX 89 44 91 45 39 46 94 47 88 48 87 49 40 51 74 52 53 53 73 54
REMARK SMILES IDX 54 55 57 56 72 57 92 58 55 59 56 60 71 62 93 63 58 64 41 65
REMARK SMILES IDX 42 66 51 67 43 68 44 69 50 70 52 71 45 72 46 73 47 74 48 75
REMARK SMILES IDX 49 76 75 77 76 78 85 79 77 80 78 81 84 82 86 83 79 84 80 85
REMARK SMILES IDX 81 86 82 87 83 88 59 89 60 90 69 91 61 92 62 93 68 94 70 95
REMARK SMILES IDX 63 96 64 97 65 98 66 99 67 100
REMARK H PARENT 91 50 57 61
REMARK Flexibility Score: inf
ROOT
ATOM      1  O   UNL A   1      36.833  22.164  26.167  1.00  0.00    -0.377 OA
ENDROOT
BRANCH   1   2
ATOM      2  C   UNL A   1      35.458  22.211  25.836  1.00  0.00     0.188 C 
BRANCH   2   3
ATOM      3  C   UNL A   1      34.451  22.649  26.913  1.00  0.00     0.188 C 
BRANCH   3   4
ATOM      4  O   UNL A   1      33.246  21.897  27.000  1.00  0.00    -0.376 OA
BRANCH   4   5
ATOM      5  C   UNL A   1      32.135  22.379  26.249  1.00  0.00     0.202 C 
BRANCH   5   6
ATOM      6  C   UNL A   1      31.475  23.629  26.835  1.00  0.00     0.261 C 
BRANCH   6   7
ATOM      7  O   UNL A   1      31.866  24.815  26.124  1.00  0.00    -0.460 OA
BRANCH   7   8
ATOM      8  C   UNL A   1      30.855  25.521  25.565  1.00  0.00     0.342 C 
ATOM      9  O   UNL A   1      29.866  25.899  26.157  1.00  0.00    -0.246 OA
BRANCH   8  10
ATOM     10  C   UNL A   1      31.190  25.729  24.138  1.00  0.00     0.105 A 
ATOM     11  C   UNL A   1      32.614  24.857  22.347  1.00  0.00     0.119 A 
ATOM     12  C   UNL A   1      32.227  25.913  21.539  1.00  0.00     0.050 A 
ATOM     13  C   UNL A   1      32.124  24.785  23.646  1.00  0.00     0.066 A 
ATOM     14  C   UNL A   1      31.287  26.834  22.005  1.00  0.00     0.051 A 
ATOM     15  C   UNL A   1      30.721  26.748  23.293  1.00  0.00     0.134 A 
BRANCH  11  16
ATOM     16  O   UNL A   1      33.492  23.970  21.794  1.00  0.00    -0.497 OA
ATOM     17  C   UNL A   1      33.946  22.950  22.682  1.00  0.00     0.278 C 
ENDBRANCH  11  16
BRANCH  15  18
ATOM     18  O   UNL A   1      29.780  27.725  23.427  1.00  0.00    -0.487 OA
BRANCH  18  19
ATOM     19  C   UNL A   1      29.972  29.036  23.944  1.00  0.00     0.276 C 
BRANCH  19  20
ATOM     20  C   UNL A   1      29.396  30.085  23.054  1.00  0.00     0.042 A 
ATOM     21  C   UNL A   1      28.944  30.010  21.750  1.00  0.00     0.019 A 
ATOM     22  S   UNL A   1      29.082  31.636  23.734  1.00  0.00    -0.145 S 
ATOM     23  C   UNL A   1      28.110  31.118  21.419  1.00  0.00     0.012 A 
ATOM     24  C   UNL A   1      28.070  32.057  22.424  1.00  0.00     0.065 A 
ENDBRANCH  19  20
ENDBRANCH  18  19
ENDBRANCH  15  18
ENDBRANCH   8  10
ENDBRANCH   7   8
ENDBRANCH   6   7
ENDBRANCH   5   6
ENDBRANCH   4   5
ENDBRANCH   3   4
ENDBRANCH   2   3
ENDBRANCH   1   2
BRANCH   1  25
ATOM     25  C   UNL A   1      37.753  21.609  25.240  1.00  0.00     0.188 C 
BRANCH  25  26
ATOM     26  C   UNL A   1      38.788  20.554  25.683  1.00  0.00     0.188 C 
BRANCH  26  27
ATOM     27  O   UNL A   1      40.004  21.079  26.204  1.00  0.00    -0.376 OA
BRANCH  27  28
ATOM     28  C   UNL A   1      39.941  22.408  26.703  1.00  0.00     0.202 C 
BRANCH  28  29
ATOM     29  C   UNL A   1      41.192  23.239  26.397  1.00  0.00     0.261 C 
BRANCH  29  30
ATOM     30  O   UNL A   1      40.965  24.651  26.277  1.00  0.00    -0.460 OA
BRANCH  30  31
ATOM     31  C   UNL A   1      42.056  25.439  26.152  1.00  0.00     0.338 C 
ATOM     32  O   UNL A   1      42.767  25.561  25.171  1.00  0.00    -0.246 OA
BRANCH  31  33
ATOM     33  C   UNL A   1      42.136  26.293  27.351  1.00  0.00     0.060 A 
ATOM     34  C   UNL A   1      41.667  25.785  28.570  1.00  0.00     0.016 A 
ATOM     35  C   UNL A   1      42.688  27.577  27.277  1.00  0.00     0.016 A 
ATOM     36  C   UNL A   1      41.691  26.588  29.709  1.00  0.00     0.010 A 
ATOM     37  C   UNL A   1      42.689  28.387  28.412  1.00  0.00     0.010 A 
ATOM     38  C   UNL A   1      42.141  27.911  29.615  1.00  0.00    -0.014 A 
BRANCH  38  39
ATOM     39  C   UNL A   1      41.747  28.877  30.666  1.00  0.00     0.031 A 
ATOM     40  C   UNL A   1      42.615  28.946  31.895  1.00  0.00     0.074 A 
ATOM     41  C   UNL A   1      40.678  29.681  30.535  1.00  0.00     0.049 A 
ATOM     42  N   UNL A   1      42.513  29.717  32.944  1.00  0.00    -0.248 NA
ATOM     43  C   UNL A   1      43.755  28.014  31.939  1.00  0.00     0.031 C 
ATOM     44  C   UNL A   1      39.784  29.725  29.380  1.00  0.00     0.029 A 
ATOM     45  N   UNL A   1      40.171  30.622  31.394  1.00  0.00    -0.354 N 
ATOM     46  C   UNL A   1      43.576  29.365  33.770  1.00  0.00     0.074 A 
ATOM     47  C   UNL A   1      44.287  28.289  33.119  1.00  0.00     0.031 C 
ATOM     48  C   UNL A   1      38.836  30.654  29.602  1.00  0.00     0.029 A 
ATOM     49  C   UNL A   1      39.047  31.252  30.920  1.00  0.00     0.049 A 
ATOM     50  H   UNL A   1      40.575  30.827  32.268  1.00  0.00     0.167 HD
ATOM     51  C   UNL A   1      43.934  29.895  34.961  1.00  0.00     0.037 A 
ATOM     52  C   UNL A   1      38.281  32.203  31.492  1.00  0.00     0.037 A 
ATOM     53  C   UNL A   1      43.213  30.950  35.617  1.00  0.00     0.049 A 
ATOM     54  C   UNL A   1      38.658  32.732  32.854  1.00  0.00     0.074 A 
ATOM     55  C   UNL A   1      43.493  31.566  36.823  1.00  0.00     0.029 A 
ATOM     56  N   UNL A   1      42.055  31.534  35.124  1.00  0.00    -0.354 N 
ATOM     57  N   UNL A   1      39.686  32.419  33.609  1.00  0.00    -0.248 NA
ATOM     58  C   UNL A   1      37.772  33.749  33.439  1.00  0.00     0.031 C 
ATOM     59  C   UNL A   1      42.478  32.496  37.079  1.00  0.00     0.029 A 
ATOM     60  C   UNL A   1      41.594  32.490  36.010  1.00  0.00     0.049 A 
ATOM     61  H   UNL A   1      41.626  31.302  34.268  1.00  0.00     0.167 HD
ATOM     62  C   UNL A   1      39.590  33.226  34.739  1.00  0.00     0.074 A 
ATOM     63  C   UNL A   1      38.403  34.039  34.569  1.00  0.00     0.031 C 
ATOM     64  C   UNL A   1      40.414  33.295  35.815  1.00  0.00     0.037 A 
BRANCH  51  65
ATOM     65  C   UNL A   1      45.138  29.299  35.633  1.00  0.00     0.058 A 
ATOM     66  C   UNL A   1      46.434  29.782  35.386  1.00  0.00     0.135 A 
ATOM     67  C   UNL A   1      45.000  28.204  36.499  1.00  0.00     0.135 A 
ATOM     68  F   UNL A   1      46.625  30.810  34.544  1.00  0.00    -0.206 F 
ATOM     69  C   UNL A   1      47.554  29.170  35.939  1.00  0.00     0.059 A 
ATOM     70  C   UNL A   1      46.104  27.593  37.085  1.00  0.00     0.059 A 
ATOM     71  F   UNL A   1      43.784  27.700  36.762  1.00  0.00    -0.206 F 
ATOM     72  C   UNL A   1      47.379  28.070  36.779  1.00  0.00     0.060 A 
BRANCH  72  73
ATOM     73  S   UNL A   1      48.839  27.257  37.460  1.00  0.00     0.124 S 
ATOM     74  O   UNL A   1      49.773  27.356  36.342  1.00  0.00    -0.237 OA
ATOM     75  O   UNL A   1      49.151  28.087  38.619  1.00  0.00    -0.237 OA
ATOM     76  O   UNL A   1      48.366  25.911  37.766  1.00  0.00    -0.744 OA
ENDBRANCH  72  73
ENDBRANCH  51  65
BRANCH  52  77
ATOM     77  C   UNL A   1      37.098  32.741  30.770  1.00  0.00     0.058 A 
ATOM     78  C   UNL A   1      37.234  33.787  29.845  1.00  0.00     0.135 A 
ATOM     79  C   UNL A   1      35.813  32.221  30.985  1.00  0.00     0.135 A 
ATOM     80  F   UNL A   1      38.441  34.326  29.616  1.00  0.00    -0.206 F 
ATOM     81  C   UNL A   1      36.138  34.302  29.161  1.00  0.00     0.059 A 
ATOM     82  C   UNL A   1      34.704  32.706  30.298  1.00  0.00     0.059 A 
ATOM     83  F   UNL A   1      35.631  31.217  31.856  1.00  0.00    -0.206 F 
ATOM     84  C   UNL A   1      34.876  33.751  29.391  1.00  0.00     0.060 A 
BRANCH  84  85
ATOM     85  S   UNL A   1      33.470  34.384  28.450  1.00  0.00     0.124 S 
ATOM     86  O   UNL A   1      34.095  35.436  27.657  1.00  0.00    -0.237 OA
ATOM     87  O   UNL A   1      33.037  33.200  27.713  1.00  0.00    -0.237 OA
ATOM     88  O   UNL A   1      32.549  34.837  29.488  1.00  0.00    -0.744 OA
ENDBRANCH  84  85
ENDBRANCH  52  77
BRANCH  64  89
ATOM     89  C   UNL A   1      40.091  34.316  36.870  1.00  0.00     0.058 A 
ATOM     90  C   UNL A   1      39.247  34.021  37.953  1.00  0.00     0.135 A 
ATOM     91  C   UNL A   1      40.681  35.589  36.825  1.00  0.00     0.135 A 
ATOM     92  F   UNL A   1      38.656  32.818  38.041  1.00  0.00    -0.206 F 
ATOM     93  C   UNL A   1      38.980  34.962  38.941  1.00  0.00     0.059 A 
ATOM     94  C   UNL A   1      40.447  36.538  37.816  1.00  0.00     0.059 A 
ATOM     95  F   UNL A   1      41.506  35.917  35.818  1.00  0.00    -0.206 F 
ATOM     96  C   UNL A   1      39.585  36.220  38.864  1.00  0.00     0.060 A 
BRANCH  96  97
ATOM     97  S   UNL A   1      39.255  37.425  40.165  1.00  0.00     0.124 S 
ATOM     98  O   UNL A   1      38.801  36.565  41.254  1.00  0.00    -0.237 OA
ATOM     99  O   UNL A   1      40.562  38.050  40.355  1.00  0.00    -0.237 OA
ATOM    100  O   UNL A   1      38.236  38.288  39.578  1.00  0.00    -0.744 OA
ENDBRANCH  96  97
ENDBRANCH  64  89
ENDBRANCH  38  39
ENDBRANCH  31  33
ENDBRANCH  30  31
ENDBRANCH  29  30
ENDBRANCH  28  29
ENDBRANCH  27  28
ENDBRANCH  26  27
ENDBRANCH  25  26
ENDBRANCH   1  25
TORSDOF 27
ENDMDL
MODEL 3
REMARK VINA RESULT:      -8.4      1.457      8.071
REMARK SMILES COc1ccc(OCc2cccs2)c(C(=O)OCCOCCOCCOCCOC(=O)c2ccc(-c3c4nc(c(-c5c(F)cc(S(=O)(=O)[O-])cc5F)c5ccc([nH]5)c(-c5c(F)cc(S(=O)(=O)[O-])cc5F)c5nc(c(-c6c(F)cc(S(=O)(=O)[O-])cc6F)c6ccc3[nH]6)C=C5)C=C4)cc2)c1
REMARK SMILES IDX 23 1 22 2 21 3 20 4 19 5 18 6 17 7 15 8 16 9 14 10 3 11 4 12
REMARK SMILES IDX 98 13 5 14 6 15 2 16 1 17 7 18 8 19 9 20 10 21 13 22 11 23
REMARK SMILES IDX 12 24 24 25 25 26 26 27 27 28 28 29 29 30 30 31 31 32 32 33
REMARK SMILES IDX 33 34 97 35 34 36 96 37 35 38 36 39 37 40 90 41 38 42 95 43
REMARK SMILES IDX 89 44 91 45 39 46 94 47 88 48 87 49 40 51 74 52 53 53 73 54
REMARK SMILES IDX 54 55 57 56 72 57 92 58 55 59 56 60 71 62 93 63 58 64 41 65
REMARK SMILES IDX 42 66 51 67 43 68 44 69 50 70 52 71 45 72 46 73 47 74 48 75
REMARK SMILES IDX 49 76 75 77 76 78 85 79 77 80 78 81 84 82 86 83 79 84 80 85
REMARK SMILES IDX 81 86 82 87 83 88 59 89 60 90 69 91 61 92 62 93 68 94 70 95
REMARK SMILES IDX 63 96 64 97 65 98 66 99 67 100
REMARK H PARENT 91 50 57 61
REMARK Flexibility Score: inf
ROOT
ATOM      1  O   UNL A   1      34.671  23.545  24.829  1.00  0.00    -0.377 OA
ENDROOT
BRANCH   1   2
ATOM      2  C   UNL A   1      33.607  24.115  25.566  1.00  0.00     0.188 C 
BRANCH   2   3
ATOM      3  C   UNL A   1      32.218  24.208  24.912  1.00  0.00     0.188 C 
BRANCH   3   4
ATOM      4  O   UNL A   1      31.114  23.777  25.699  1.00  0.00    -0.376 OA
BRANCH   4   5
ATOM      5  C   UNL A   1      30.166  24.774  26.073  1.00  0.00     0.202 C 
BRANCH   5   6
ATOM      6  C   UNL A   1      30.377  26.129  25.393  1.00  0.00     0.261 C 
BRANCH   6   7
ATOM      7  O   UNL A   1      29.522  26.284  24.250  1.00  0.00    -0.460 OA
BRANCH   7   8
ATOM      8  C   UNL A   1      29.695  27.424  23.541  1.00  0.00     0.342 C 
ATOM      9  O   UNL A   1      28.817  28.221  23.287  1.00  0.00    -0.246 OA
BRANCH   8  10
ATOM     10  C   UNL A   1      31.123  27.497  23.151  1.00  0.00     0.105 A 
ATOM     11  C   UNL A   1      32.801  26.370  21.770  1.00  0.00     0.119 A 
ATOM     12  C   UNL A   1      33.781  27.179  22.320  1.00  0.00     0.050 A 
ATOM     13  C   UNL A   1      31.488  26.507  22.207  1.00  0.00     0.066 A 
ATOM     14  C   UNL A   1      33.427  28.174  23.231  1.00  0.00     0.051 A 
ATOM     15  C   UNL A   1      32.095  28.383  23.642  1.00  0.00     0.134 A 
BRANCH  11  16
ATOM     16  O   UNL A   1      33.224  25.461  20.843  1.00  0.00    -0.497 OA
ATOM     17  C   UNL A   1      32.463  25.442  19.637  1.00  0.00     0.278 C 
ENDBRANCH  11  16
BRANCH  15  18
ATOM     18  O   UNL A   1      32.050  29.471  24.461  1.00  0.00    -0.487 OA
BRANCH  18  19
ATOM     19  C   UNL A   1      31.760  29.486  25.853  1.00  0.00     0.276 C 
BRANCH  19  20
ATOM     20  C   UNL A   1      32.993  29.576  26.687  1.00  0.00     0.042 A 
ATOM     21  C   UNL A   1      33.992  28.648  26.920  1.00  0.00     0.019 A 
ATOM     22  S   UNL A   1      33.378  31.096  27.397  1.00  0.00    -0.145 S 
ATOM     23  C   UNL A   1      35.171  29.264  27.433  1.00  0.00     0.012 A 
ATOM     24  C   UNL A   1      34.984  30.601  27.702  1.00  0.00     0.065 A 
ENDBRANCH  19  20
ENDBRANCH  18  19
ENDBRANCH  15  18
ENDBRANCH   8  10
ENDBRANCH   7   8
ENDBRANCH   6   7
ENDBRANCH   5   6
ENDBRANCH   4   5
ENDBRANCH   3   4
ENDBRANCH   2   3
ENDBRANCH   1   2
BRANCH   1  25
ATOM     25  C   UNL A   1      34.888  22.143  24.891  1.00  0.00     0.188 C 
BRANCH  25  26
ATOM     26  C   UNL A   1      36.125  21.501  24.230  1.00  0.00     0.188 C 
BRANCH  26  27
ATOM     27  O   UNL A   1      37.364  22.145  24.507  1.00  0.00    -0.376 OA
BRANCH  27  28
ATOM     28  C   UNL A   1      37.856  21.995  25.832  1.00  0.00     0.202 C 
BRANCH  28  29
ATOM     29  C   UNL A   1      39.170  21.209  25.913  1.00  0.00     0.261 C 
BRANCH  29  30
ATOM     30  O   UNL A   1      39.795  21.209  27.205  1.00  0.00    -0.460 OA
BRANCH  30  31
ATOM     31  C   UNL A   1      41.138  21.353  27.235  1.00  0.00     0.338 C 
ATOM     32  O   UNL A   1      41.973  20.551  26.857  1.00  0.00    -0.246 OA
BRANCH  31  33
ATOM     33  C   UNL A   1      41.434  22.745  27.624  1.00  0.00     0.060 A 
ATOM     34  C   UNL A   1      40.893  23.785  26.858  1.00  0.00     0.016 A 
ATOM     35  C   UNL A   1      42.222  23.019  28.747  1.00  0.00     0.016 A 
ATOM     36  C   UNL A   1      41.193  25.108  27.177  1.00  0.00     0.010 A 
ATOM     37  C   UNL A   1      42.541  24.342  29.051  1.00  0.00     0.010 A 
ATOM     38  C   UNL A   1      42.070  25.384  28.235  1.00  0.00    -0.014 A 
BRANCH  38  39
ATOM     39  C   UNL A   1      42.739  26.704  28.283  1.00  0.00     0.031 A 
ATOM     40  C   UNL A   1      41.964  27.844  28.890  1.00  0.00     0.074 A 
ATOM     41  C   UNL A   1      43.991  26.890  27.832  1.00  0.00     0.049 A 
ATOM     42  N   UNL A   1      42.319  29.085  29.080  1.00  0.00    -0.248 NA
ATOM     43  C   UNL A   1      40.597  27.532  29.344  1.00  0.00     0.031 C 
ATOM     44  C   UNL A   1      44.848  25.857  27.254  1.00  0.00     0.029 A 
ATOM     45  N   UNL A   1      44.757  28.027  27.798  1.00  0.00    -0.354 N 
ATOM     46  C   UNL A   1      41.224  29.700  29.678  1.00  0.00     0.074 A 
ATOM     47  C   UNL A   1      40.181  28.707  29.785  1.00  0.00     0.031 C 
ATOM     48  C   UNL A   1      46.030  26.410  26.925  1.00  0.00     0.029 A 
ATOM     49  C   UNL A   1      46.003  27.836  27.252  1.00  0.00     0.049 A 
ATOM     50  H   UNL A   1      44.444  28.897  28.133  1.00  0.00     0.167 HD
ATOM     51  C   UNL A   1      41.100  30.976  30.107  1.00  0.00     0.037 A 
ATOM     52  C   UNL A   1      47.001  28.717  27.043  1.00  0.00     0.037 A 
ATOM     53  C   UNL A   1      42.131  31.968  29.980  1.00  0.00     0.049 A 
ATOM     54  C   UNL A   1      46.816  30.154  27.465  1.00  0.00     0.074 A 
ATOM     55  C   UNL A   1      42.113  33.289  30.388  1.00  0.00     0.029 A 
ATOM     56  N   UNL A   1      43.364  31.746  29.384  1.00  0.00    -0.354 N 
ATOM     57  N   UNL A   1      45.790  30.716  28.063  1.00  0.00    -0.248 NA
ATOM     58  C   UNL A   1      47.927  31.075  27.189  1.00  0.00     0.031 C 
ATOM     59  C   UNL A   1      43.322  33.878  30.000  1.00  0.00     0.029 A 
ATOM     60  C   UNL A   1      44.109  32.911  29.392  1.00  0.00     0.049 A 
ATOM     61  H   UNL A   1      43.664  30.885  29.010  1.00  0.00     0.167 HD
ATOM     62  C   UNL A   1      46.149  32.045  28.267  1.00  0.00     0.074 A 
ATOM     63  C   UNL A   1      47.484  32.203  27.727  1.00  0.00     0.031 C 
ATOM     64  C   UNL A   1      45.442  33.043  28.857  1.00  0.00     0.037 A 
BRANCH  51  65
ATOM     65  C   UNL A   1      39.781  31.362  30.713  1.00  0.00     0.058 A 
ATOM     66  C   UNL A   1      38.720  31.841  29.927  1.00  0.00     0.135 A 
ATOM     67  C   UNL A   1      39.590  31.295  32.102  1.00  0.00     0.135 A 
ATOM     68  F   UNL A   1      38.859  31.950  28.596  1.00  0.00    -0.206 F 
ATOM     69  C   UNL A   1      37.532  32.282  30.501  1.00  0.00     0.059 A 
ATOM     70  C   UNL A   1      38.401  31.706  32.695  1.00  0.00     0.059 A 
ATOM     71  F   UNL A   1      40.576  30.853  32.898  1.00  0.00    -0.206 F 
ATOM     72  C   UNL A   1      37.387  32.220  31.888  1.00  0.00     0.060 A 
BRANCH  72  73
ATOM     73  S   UNL A   1      35.859  32.833  32.628  1.00  0.00     0.124 S 
ATOM     74  O   UNL A   1      35.963  34.265  32.363  1.00  0.00    -0.237 OA
ATOM     75  O   UNL A   1      34.834  32.123  31.870  1.00  0.00    -0.237 OA
ATOM     76  O   UNL A   1      35.981  32.443  34.029  1.00  0.00    -0.744 OA
ENDBRANCH  72  73
ENDBRANCH  51  65
BRANCH  52  77
ATOM     77  C   UNL A   1      48.278  28.266  26.430  1.00  0.00     0.058 A 
ATOM     78  C   UNL A   1      49.433  28.106  27.210  1.00  0.00     0.135 A 
ATOM     79  C   UNL A   1      48.369  27.981  25.059  1.00  0.00     0.135 A 
ATOM     80  F   UNL A   1      49.398  28.380  28.523  1.00  0.00    -0.206 F 
ATOM     81  C   UNL A   1      50.636  27.685  26.653  1.00  0.00     0.059 A 
ATOM     82  C   UNL A   1      49.556  27.538  24.482  1.00  0.00     0.059 A 
ATOM     83  F   UNL A   1      47.291  28.113  24.271  1.00  0.00    -0.206 F 
ATOM     84  C   UNL A   1      50.687  27.398  25.287  1.00  0.00     0.060 A 
BRANCH  84  85
ATOM     85  S   UNL A   1      52.236  26.790  24.586  1.00  0.00     0.124 S 
ATOM     86  O   UNL A   1      51.932  26.783  23.160  1.00  0.00    -0.237 OA
ATOM     87  O   UNL A   1      53.191  27.801  25.031  1.00  0.00    -0.237 OA
ATOM     88  O   UNL A   1      52.393  25.478  25.206  1.00  0.00    -0.744 OA
ENDBRANCH  84  85
ENDBRANCH  52  77
BRANCH  64  89
ATOM     89  C   UNL A   1      46.113  34.380  28.994  1.00  0.00     0.058 A 
ATOM     90  C   UNL A   1      46.100  35.326  27.957  1.00  0.00     0.135 A 
ATOM     91  C   UNL A   1      46.730  34.740  30.203  1.00  0.00     0.135 A 
ATOM     92  F   UNL A   1      45.525  35.030  26.780  1.00  0.00    -0.206 F 
ATOM     93  C   UNL A   1      46.697  36.573  28.105  1.00  0.00     0.059 A 
ATOM     94  C   UNL A   1      47.312  35.992  30.381  1.00  0.00     0.059 A 
ATOM     95  F   UNL A   1      46.758  33.877  31.231  1.00  0.00    -0.206 F 
ATOM     96  C   UNL A   1      47.301  36.898  29.322  1.00  0.00     0.060 A 
BRANCH  96  97
ATOM     97  S   UNL A   1      48.049  38.529  29.516  1.00  0.00     0.124 S 
ATOM     98  O   UNL A   1      48.598  38.759  28.183  1.00  0.00    -0.237 OA
ATOM     99  O   UNL A   1      46.904  39.359  29.880  1.00  0.00    -0.237 OA
ATOM    100  O   UNL A   1      49.031  38.328  30.576  1.00  0.00    -0.744 OA
ENDBRANCH  96  97
ENDBRANCH  64  89
ENDBRANCH  38  39
ENDBRANCH  31  33
ENDBRANCH  30  31
ENDBRANCH  29  30
ENDBRANCH  28  29
ENDBRANCH  27  28
ENDBRANCH  26  27
ENDBRANCH  25  26
ENDBRANCH   1  25
TORSDOF 27
ENDMDL
