MODEL 1
REMARK VINA RESULT:      -8.4      0.000      0.000
REMARK SMILES COc1ccc(Cl)cc1C(=O)Nc1ccc(OCC(=O)OCCOCCOCCOCCOC(=O)c2ccc(-c3c4nc(c(-c5c(F)cc(S(=O)(=O)[O-])cc5F)c5ccc([nH]5)c(-c5c(F)cc(S(=O)(=O)[O-])cc5F)c5nc(c(-c6c(F)cc(S(=O)(=O)[O-])cc6F)c6ccc3[nH]6)C=C5)C=C4)cc2)cc1
REMARK SMILES IDX 26 1 25 2 24 3 23 4 22 5 21 6 19 7 20 8 18 9 17 10 16 11
REMARK SMILES IDX 13 12 14 13 103 14 15 15 102 16 12 17 10 18 11 19 9 21 3 22
REMARK SMILES IDX 4 23 5 24 8 25 6 26 7 27 2 28 1 29 27 30 28 31 29 32 30 33
REMARK SMILES IDX 31 34 32 35 33 36 34 37 35 38 36 39 37 40 101 41 38 42
REMARK SMILES IDX 100 43 39 44 40 45 41 46 94 47 42 48 99 49 93 50 95 51 43 52
REMARK SMILES IDX 98 53 92 54 91 55 44 57 78 58 57 59 77 60 58 61 61 62 76 63
REMARK SMILES IDX 96 64 59 65 60 66 75 68 97 69 62 70 45 71 46 72 55 73 47 74
REMARK SMILES IDX 48 75 54 76 56 77 49 78 50 79 51 80 52 81 53 82 79 83 80 84
REMARK SMILES IDX 89 85 81 86 82 87 88 88 90 89 83 90 84 91 85 92 86 93 87 94
REMARK SMILES IDX 63 95 64 96 73 97 65 98 66 99 72 100 74 101 67 102 68 103
REMARK SMILES IDX 69 104 70 105 71 106
REMARK H PARENT 12 20 95 56 61 67
REMARK Flexibility Score: inf
ROOT
ATOM      1  C   UNL A   1      33.267  33.958  28.209  1.00  0.00     0.188 C 
ENDROOT
BRANCH   1   2
ATOM      2  C   UNL A   1      34.770  34.139  27.913  1.00  0.00     0.188 C 
BRANCH   2   3
ATOM      3  O   UNL A   1      35.754  33.229  28.389  1.00  0.00    -0.376 OA
BRANCH   3   4
ATOM      4  C   UNL A   1      35.540  32.612  29.647  1.00  0.00     0.202 C 
BRANCH   4   5
ATOM      5  C   UNL A   1      36.543  31.515  30.056  1.00  0.00     0.261 C 
BRANCH   5   6
ATOM      6  O   UNL A   1      36.139  30.160  29.731  1.00  0.00    -0.461 OA
BRANCH   6   7
ATOM      7  C   UNL A   1      36.563  29.606  28.569  1.00  0.00     0.344 C 
ATOM      8  O   UNL A   1      37.688  29.140  28.410  1.00  0.00    -0.248 OA
BRANCH   7   9
ATOM      9  C   UNL A   1      35.490  29.571  27.420  1.00  0.00     0.351 C 
BRANCH   9  10
ATOM     10  O   UNL A   1      34.354  28.706  27.367  1.00  0.00    -0.482 OA
BRANCH  10  11
ATOM     11  C   UNL A   1      33.802  28.274  26.185  1.00  0.00     0.120 A 
ATOM     12  C   UNL A   1      33.208  26.850  23.790  1.00  0.00     0.041 A 
ATOM     13  C   UNL A   1      32.877  26.316  25.035  1.00  0.00     0.030 A 
ATOM     14  C   UNL A   1      33.515  28.201  23.763  1.00  0.00     0.030 A 
ATOM     15  C   UNL A   1      33.198  27.012  26.222  1.00  0.00     0.048 A 
ATOM     16  C   UNL A   1      33.816  28.915  24.952  1.00  0.00     0.048 A 
BRANCH  12  17
ATOM     17  N   UNL A   1      33.025  26.084  22.623  1.00  0.00    -0.322 N 
ATOM     18  C   UNL A   1      33.409  24.813  22.190  1.00  0.00     0.259 C 
ATOM     19  O   UNL A   1      33.148  24.546  21.009  1.00  0.00    -0.269 OA
ATOM     20  H   UNL A   1      32.496  26.563  21.944  1.00  0.00     0.170 HD
BRANCH  18  21
ATOM     21  C   UNL A   1      33.788  23.639  23.051  1.00  0.00     0.083 A 
ATOM     22  C   UNL A   1      32.973  22.587  23.472  1.00  0.00     0.131 A 
ATOM     23  C   UNL A   1      33.516  21.526  24.232  1.00  0.00     0.049 A 
ATOM     24  C   UNL A   1      34.867  21.481  24.563  1.00  0.00     0.024 A 
ATOM     25  C   UNL A   1      35.132  23.635  23.516  1.00  0.00     0.038 A 
ATOM     26  C   UNL A   1      35.670  22.553  24.222  1.00  0.00     0.042 A 
ATOM     27  Cl  UNL A   1      37.331  22.534  24.672  1.00  0.00    -0.084 Cl
BRANCH  22  28
ATOM     28  O   UNL A   1      31.622  22.632  23.266  1.00  0.00    -0.496 OA
ATOM     29  C   UNL A   1      30.962  23.398  24.272  1.00  0.00     0.278 C 
ENDBRANCH  22  28
ENDBRANCH  18  21
ENDBRANCH  12  17
ENDBRANCH  10  11
ENDBRANCH   9  10
ENDBRANCH   7   9
ENDBRANCH   6   7
ENDBRANCH   5   6
ENDBRANCH   4   5
ENDBRANCH   3   4
ENDBRANCH   2   3
ENDBRANCH   1   2
BRANCH   1  30
ATOM     30  O   UNL A   1      32.531  35.146  28.405  1.00  0.00    -0.377 OA
BRANCH  30  31
ATOM     31  C   UNL A   1      33.198  36.199  29.085  1.00  0.00     0.188 C 
BRANCH  31  32
ATOM     32  C   UNL A   1      32.684  36.397  30.515  1.00  0.00     0.188 C 
BRANCH  32  33
ATOM     33  O   UNL A   1      33.025  37.641  31.133  1.00  0.00    -0.376 OA
BRANCH  33  34
ATOM     34  C   UNL A   1      33.812  37.599  32.317  1.00  0.00     0.202 C 
BRANCH  34  35
ATOM     35  C   UNL A   1      33.399  36.445  33.228  1.00  0.00     0.261 C 
BRANCH  35  36
ATOM     36  O   UNL A   1      34.570  35.736  33.613  1.00  0.00    -0.460 OA
BRANCH  36  37
ATOM     37  C   UNL A   1      34.553  34.457  33.150  1.00  0.00     0.338 C 
ATOM     38  O   UNL A   1      33.650  33.881  32.596  1.00  0.00    -0.246 OA
BRANCH  37  39
ATOM     39  C   UNL A   1      35.954  34.018  33.190  1.00  0.00     0.060 A 
ATOM     40  C   UNL A   1      36.229  32.785  33.791  1.00  0.00     0.016 A 
ATOM     41  C   UNL A   1      36.951  34.768  32.557  1.00  0.00     0.016 A 
ATOM     42  C   UNL A   1      37.528  32.307  33.791  1.00  0.00     0.010 A 
ATOM     43  C   UNL A   1      38.250  34.299  32.567  1.00  0.00     0.010 A 
ATOM     44  C   UNL A   1      38.537  33.091  33.219  1.00  0.00    -0.014 A 
BRANCH  44  45
ATOM     45  C   UNL A   1      39.935  32.799  33.546  1.00  0.00     0.031 A 
ATOM     46  C   UNL A   1      40.697  31.987  32.543  1.00  0.00     0.074 A 
ATOM     47  C   UNL A   1      40.462  33.231  34.700  1.00  0.00     0.049 A 
ATOM     48  N   UNL A   1      41.910  31.518  32.613  1.00  0.00    -0.248 NA
ATOM     49  C   UNL A   1      39.989  31.651  31.290  1.00  0.00     0.031 C 
ATOM     50  C   UNL A   1      39.765  34.046  35.696  1.00  0.00     0.029 A 
ATOM     51  N   UNL A   1      41.702  33.028  35.234  1.00  0.00    -0.354 N 
ATOM     52  C   UNL A   1      42.113  30.842  31.417  1.00  0.00     0.074 A 
ATOM     53  C   UNL A   1      40.892  30.924  30.652  1.00  0.00     0.031 C 
ATOM     54  C   UNL A   1      40.590  34.260  36.735  1.00  0.00     0.029 A 
ATOM     55  C   UNL A   1      41.851  33.566  36.489  1.00  0.00     0.049 A 
ATOM     56  H   UNL A   1      42.419  32.543  34.766  1.00  0.00     0.167 HD
ATOM     57  C   UNL A   1      43.234  30.218  30.999  1.00  0.00     0.037 A 
ATOM     58  C   UNL A   1      42.890  33.467  37.339  1.00  0.00     0.037 A 
ATOM     59  C   UNL A   1      44.420  30.136  31.805  1.00  0.00     0.049 A 
ATOM     60  C   UNL A   1      44.097  32.685  36.883  1.00  0.00     0.074 A 
ATOM     61  C   UNL A   1      45.624  29.530  31.510  1.00  0.00     0.029 A 
ATOM     62  N   UNL A   1      44.535  30.675  33.081  1.00  0.00    -0.354 N 
ATOM     63  N   UNL A   1      44.302  32.080  35.735  1.00  0.00    -0.248 NA
ATOM     64  C   UNL A   1      45.210  32.568  37.833  1.00  0.00     0.031 C 
ATOM     65  C   UNL A   1      46.450  29.654  32.630  1.00  0.00     0.029 A 
ATOM     66  C   UNL A   1      45.781  30.388  33.602  1.00  0.00     0.049 A 
ATOM     67  H   UNL A   1      43.832  31.185  33.546  1.00  0.00     0.167 HD
ATOM     68  C   UNL A   1      45.575  31.526  35.816  1.00  0.00     0.074 A 
ATOM     69  C   UNL A   1      46.098  31.888  37.119  1.00  0.00     0.031 C 
ATOM     70  C   UNL A   1      46.254  30.782  34.906  1.00  0.00     0.037 A 
BRANCH  57  71
ATOM     71  C   UNL A   1      43.211  29.568  29.646  1.00  0.00     0.058 A 
ATOM     72  C   UNL A   1      42.808  28.233  29.476  1.00  0.00     0.135 A 
ATOM     73  C   UNL A   1      43.577  30.292  28.502  1.00  0.00     0.135 A 
ATOM     74  F   UNL A   1      42.483  27.483  30.542  1.00  0.00    -0.206 F 
ATOM     75  C   UNL A   1      42.775  27.639  28.220  1.00  0.00     0.059 A 
ATOM     76  C   UNL A   1      43.526  29.726  27.232  1.00  0.00     0.059 A 
ATOM     77  F   UNL A   1      43.993  31.564  28.611  1.00  0.00    -0.206 F 
ATOM     78  C   UNL A   1      43.127  28.397  27.102  1.00  0.00     0.060 A 
BRANCH  78  79
ATOM     79  S   UNL A   1      43.032  27.622  25.475  1.00  0.00     0.124 S 
ATOM     80  O   UNL A   1      44.431  27.643  25.057  1.00  0.00    -0.237 OA
ATOM     81  O   UNL A   1      42.485  26.307  25.791  1.00  0.00    -0.237 OA
ATOM     82  O   UNL A   1      42.142  28.505  24.727  1.00  0.00    -0.744 OA
ENDBRANCH  78  79
ENDBRANCH  57  71
BRANCH  58  83
ATOM     83  C   UNL A   1      42.827  34.090  38.687  1.00  0.00     0.058 A 
ATOM     84  C   UNL A   1      43.243  35.414  38.895  1.00  0.00     0.135 A 
ATOM     85  C   UNL A   1      42.357  33.375  39.801  1.00  0.00     0.135 A 
ATOM     86  F   UNL A   1      43.702  36.141  37.866  1.00  0.00    -0.206 F 
ATOM     87  C   UNL A   1      43.223  35.996  40.159  1.00  0.00     0.059 A 
ATOM     88  C   UNL A   1      42.299  33.944  41.069  1.00  0.00     0.059 A 
ATOM     89  F   UNL A   1      41.930  32.110  39.658  1.00  0.00    -0.206 F 
ATOM     90  C   UNL A   1      42.750  35.252  41.241  1.00  0.00     0.060 A 
BRANCH  90  91
ATOM     91  S   UNL A   1      42.712  36.024  42.873  1.00  0.00     0.124 S 
ATOM     92  O   UNL A   1      41.344  36.528  42.927  1.00  0.00    -0.237 OA
ATOM     93  O   UNL A   1      43.014  34.897  43.749  1.00  0.00    -0.237 OA
ATOM     94  O   UNL A   1      43.756  37.041  42.789  1.00  0.00    -0.744 OA
ENDBRANCH  90  91
ENDBRANCH  58  83
BRANCH  70  95
ATOM     95  C   UNL A   1      47.634  30.332  35.286  1.00  0.00     0.058 A 
ATOM     96  C   UNL A   1      48.755  31.148  35.068  1.00  0.00     0.135 A 
ATOM     97  C   UNL A   1      47.822  29.113  35.957  1.00  0.00     0.135 A 
ATOM     98  F   UNL A   1      48.625  32.319  34.425  1.00  0.00    -0.206 F 
ATOM     99  C   UNL A   1      50.020  30.762  35.492  1.00  0.00     0.059 A 
ATOM    100  C   UNL A   1      49.072  28.723  36.420  1.00  0.00     0.059 A 
ATOM    101  F   UNL A   1      46.775  28.306  36.199  1.00  0.00    -0.206 F 
ATOM    102  C   UNL A   1      50.166  29.553  36.176  1.00  0.00     0.060 A 
BRANCH 102 103
ATOM    103  S   UNL A   1      51.805  29.098  36.775  1.00  0.00     0.124 S 
ATOM    104  O   UNL A   1      51.968  27.767  36.202  1.00  0.00    -0.237 OA
ATOM    105  O   UNL A   1      52.646  30.144  36.199  1.00  0.00    -0.237 OA
ATOM    106  O   UNL A   1      51.663  29.145  38.227  1.00  0.00    -0.744 OA
ENDBRANCH 102 103
ENDBRANCH  70  95
ENDBRANCH  44  45
ENDBRANCH  37  39
ENDBRANCH  36  37
ENDBRANCH  35  36
ENDBRANCH  34  35
ENDBRANCH  33  34
ENDBRANCH  32  33
ENDBRANCH  31  32
ENDBRANCH  30  31
ENDBRANCH   1  30
TORSDOF 28
ENDMDL
MODEL 2
REMARK VINA RESULT:      -8.2      1.721      2.214
REMARK SMILES COc1ccc(Cl)cc1C(=O)Nc1ccc(OCC(=O)OCCOCCOCCOCCOC(=O)c2ccc(-c3c4nc(c(-c5c(F)cc(S(=O)(=O)[O-])cc5F)c5ccc([nH]5)c(-c5c(F)cc(S(=O)(=O)[O-])cc5F)c5nc(c(-c6c(F)cc(S(=O)(=O)[O-])cc6F)c6ccc3[nH]6)C=C5)C=C4)cc2)cc1
REMARK SMILES IDX 26 1 25 2 24 3 23 4 22 5 21 6 19 7 20 8 18 9 17 10 16 11
REMARK SMILES IDX 13 12 14 13 103 14 15 15 102 16 12 17 10 18 11 19 9 21 3 22
REMARK SMILES IDX 4 23 5 24 8 25 6 26 7 27 2 28 1 29 27 30 28 31 29 32 30 33
REMARK SMILES IDX 31 34 32 35 33 36 34 37 35 38 36 39 37 40 101 41 38 42
REMARK SMILES IDX 100 43 39 44 40 45 41 46 94 47 42 48 99 49 93 50 95 51 43 52
REMARK SMILES IDX 98 53 92 54 91 55 44 57 78 58 57 59 77 60 58 61 61 62 76 63
REMARK SMILES IDX 96 64 59 65 60 66 75 68 97 69 62 70 45 71 46 72 55 73 47 74
REMARK SMILES IDX 48 75 54 76 56 77 49 78 50 79 51 80 52 81 53 82 79 83 80 84
REMARK SMILES IDX 89 85 81 86 82 87 88 88 90 89 83 90 84 91 85 92 86 93 87 94
REMARK SMILES IDX 63 95 64 96 73 97 65 98 66 99 72 100 74 101 67 102 68 103
REMARK SMILES IDX 69 104 70 105 71 106
REMARK H PARENT 12 20 95 56 61 67
REMARK Flexibility Score: inf
ROOT
ATOM      1  C   UNL A   1      33.253  34.095  28.396  1.00  0.00     0.188 C 
ENDROOT
BRANCH   1   2
ATOM      2  C   UNL A   1      34.596  34.287  27.661  1.00  0.00     0.188 C 
BRANCH   2   3
ATOM      3  O   UNL A   1      35.615  33.294  27.667  1.00  0.00    -0.376 OA
BRANCH   3   4
ATOM      4  C   UNL A   1      36.101  32.843  28.919  1.00  0.00     0.202 C 
BRANCH   4   5
ATOM      5  C   UNL A   1      37.468  32.131  28.912  1.00  0.00     0.261 C 
BRANCH   5   6
ATOM      6  O   UNL A   1      37.432  30.726  29.272  1.00  0.00    -0.461 OA
BRANCH   6   7
ATOM      7  C   UNL A   1      37.525  29.793  28.293  1.00  0.00     0.344 C 
ATOM      8  O   UNL A   1      38.530  29.116  28.095  1.00  0.00    -0.248 OA
BRANCH   7   9
ATOM      9  C   UNL A   1      36.224  29.606  27.429  1.00  0.00     0.351 C 
BRANCH   9  10
ATOM     10  O   UNL A   1      34.985  29.068  27.893  1.00  0.00    -0.482 OA
BRANCH  10  11
ATOM     11  C   UNL A   1      33.780  29.353  27.297  1.00  0.00     0.120 A 
ATOM     12  C   UNL A   1      31.519  29.413  25.565  1.00  0.00     0.041 A 
ATOM     13  C   UNL A   1      31.708  28.352  26.451  1.00  0.00     0.030 A 
ATOM     14  C   UNL A   1      32.270  30.553  25.802  1.00  0.00     0.030 A 
ATOM     15  C   UNL A   1      32.844  28.312  27.289  1.00  0.00     0.048 A 
ATOM     16  C   UNL A   1      33.400  30.528  26.660  1.00  0.00     0.048 A 
BRANCH  12  17
ATOM     17  N   UNL A   1      30.469  29.370  24.628  1.00  0.00    -0.322 N 
ATOM     18  C   UNL A   1      30.127  28.556  23.545  1.00  0.00     0.259 C 
ATOM     19  O   UNL A   1      29.157  28.936  22.874  1.00  0.00    -0.269 OA
ATOM     20  H   UNL A   1      29.814  30.092  24.771  1.00  0.00     0.170 HD
BRANCH  18  21
ATOM     21  C   UNL A   1      30.568  27.139  23.302  1.00  0.00     0.083 A 
ATOM     22  C   UNL A   1      30.246  26.002  24.044  1.00  0.00     0.131 A 
ATOM     23  C   UNL A   1      30.701  24.729  23.631  1.00  0.00     0.049 A 
ATOM     24  C   UNL A   1      31.457  24.564  22.475  1.00  0.00     0.024 A 
ATOM     25  C   UNL A   1      31.451  26.957  22.202  1.00  0.00     0.038 A 
ATOM     26  C   UNL A   1      31.852  25.687  21.773  1.00  0.00     0.042 A 
ATOM     27  Cl  UNL A   1      32.831  25.500  20.370  1.00  0.00    -0.084 Cl
BRANCH  22  28
ATOM     28  O   UNL A   1      29.597  26.118  25.242  1.00  0.00    -0.496 OA
ATOM     29  C   UNL A   1      30.077  25.170  26.194  1.00  0.00     0.278 C 
ENDBRANCH  22  28
ENDBRANCH  18  21
ENDBRANCH  12  17
ENDBRANCH  10  11
ENDBRANCH   9  10
ENDBRANCH   7   9
ENDBRANCH   6   7
ENDBRANCH   5   6
ENDBRANCH   4   5
ENDBRANCH   3   4
ENDBRANCH   2   3
ENDBRANCH   1   2
BRANCH   1  30
ATOM     30  O   UNL A   1      32.529  35.274  28.673  1.00  0.00    -0.377 OA
BRANCH  30  31
ATOM     31  C   UNL A   1      33.232  36.303  29.354  1.00  0.00     0.188 C 
BRANCH  31  32
ATOM     32  C   UNL A   1      32.816  36.429  30.823  1.00  0.00     0.188 C 
BRANCH  32  33
ATOM     33  O   UNL A   1      32.987  37.722  31.411  1.00  0.00    -0.376 OA
BRANCH  33  34
ATOM     34  C   UNL A   1      33.867  37.833  32.524  1.00  0.00     0.202 C 
BRANCH  34  35
ATOM     35  C   UNL A   1      33.825  36.585  33.403  1.00  0.00     0.261 C 
BRANCH  35  36
ATOM     36  O   UNL A   1      35.083  35.929  33.312  1.00  0.00    -0.460 OA
BRANCH  36  37
ATOM     37  C   UNL A   1      34.942  34.576  33.341  1.00  0.00     0.338 C 
ATOM     38  O   UNL A   1      33.937  33.931  33.172  1.00  0.00    -0.246 OA
BRANCH  37  39
ATOM     39  C   UNL A   1      36.314  34.049  33.318  1.00  0.00     0.060 A 
ATOM     40  C   UNL A   1      36.541  32.811  33.928  1.00  0.00     0.016 A 
ATOM     41  C   UNL A   1      37.321  34.724  32.620  1.00  0.00     0.016 A 
ATOM     42  C   UNL A   1      37.805  32.252  33.871  1.00  0.00     0.010 A 
ATOM     43  C   UNL A   1      38.587  34.173  32.573  1.00  0.00     0.010 A 
ATOM     44  C   UNL A   1      38.831  32.960  33.234  1.00  0.00    -0.014 A 
BRANCH  44  45
ATOM     45  C   UNL A   1      40.223  32.585  33.494  1.00  0.00     0.031 A 
ATOM     46  C   UNL A   1      40.881  31.715  32.467  1.00  0.00     0.074 A 
ATOM     47  C   UNL A   1      40.834  32.997  34.614  1.00  0.00     0.049 A 
ATOM     48  N   UNL A   1      42.065  31.172  32.484  1.00  0.00    -0.248 NA
ATOM     49  C   UNL A   1      40.091  31.408  31.257  1.00  0.00     0.031 C 
ATOM     50  C   UNL A   1      40.240  33.867  35.631  1.00  0.00     0.029 A 
ATOM     51  N   UNL A   1      42.084  32.723  35.088  1.00  0.00    -0.354 N 
ATOM     52  C   UNL A   1      42.164  30.470  31.290  1.00  0.00     0.074 A 
ATOM     53  C   UNL A   1      40.913  30.618  30.586  1.00  0.00     0.031 C 
ATOM     54  C   UNL A   1      41.129  34.041  36.624  1.00  0.00     0.029 A 
ATOM     55  C   UNL A   1      42.330  33.266  36.326  1.00  0.00     0.049 A 
ATOM     56  H   UNL A   1      42.745  32.189  34.592  1.00  0.00     0.167 HD
ATOM     57  C   UNL A   1      43.222  29.771  30.826  1.00  0.00     0.037 A 
ATOM     58  C   UNL A   1      43.402  33.113  37.124  1.00  0.00     0.037 A 
ATOM     59  C   UNL A   1      44.439  29.625  31.573  1.00  0.00     0.049 A 
ATOM     60  C   UNL A   1      44.534  32.252  36.621  1.00  0.00     0.074 A 
ATOM     61  C   UNL A   1      45.587  28.941  31.228  1.00  0.00     0.029 A 
ATOM     62  N   UNL A   1      44.652  30.171  32.833  1.00  0.00    -0.354 N 
ATOM     63  N   UNL A   1      44.643  31.620  35.473  1.00  0.00    -0.248 NA
ATOM     64  C   UNL A   1      45.684  32.076  37.515  1.00  0.00     0.031 C 
ATOM     65  C   UNL A   1      46.475  29.027  32.303  1.00  0.00     0.029 A 
ATOM     66  C   UNL A   1      45.904  29.813  33.295  1.00  0.00     0.049 A 
ATOM     67  H   UNL A   1      44.008  30.730  33.324  1.00  0.00     0.167 HD
ATOM     68  C   UNL A   1      45.881  30.989  35.499  1.00  0.00     0.074 A 
ATOM     69  C   UNL A   1      46.491  31.334  36.768  1.00  0.00     0.031 C 
ATOM     70  C   UNL A   1      46.466  30.193  34.568  1.00  0.00     0.037 A 
BRANCH  57  71
ATOM     71  C   UNL A   1      43.089  29.107  29.486  1.00  0.00     0.058 A 
ATOM     72  C   UNL A   1      42.649  27.779  29.362  1.00  0.00     0.135 A 
ATOM     73  C   UNL A   1      43.387  29.812  28.310  1.00  0.00     0.135 A 
ATOM     74  F   UNL A   1      42.387  27.047  30.456  1.00  0.00    -0.206 F 
ATOM     75  C   UNL A   1      42.515  27.172  28.118  1.00  0.00     0.059 A 
ATOM     76  C   UNL A   1      43.235  29.233  27.054  1.00  0.00     0.059 A 
ATOM     77  F   UNL A   1      43.835  31.076  28.374  1.00  0.00    -0.206 F 
ATOM     78  C   UNL A   1      42.801  27.911  26.969  1.00  0.00     0.060 A 
BRANCH  78  79
ATOM     79  S   UNL A   1      42.576  27.121  25.362  1.00  0.00     0.124 S 
ATOM     80  O   UNL A   1      42.416  28.277  24.485  1.00  0.00    -0.237 OA
ATOM     81  O   UNL A   1      43.821  26.376  25.207  1.00  0.00    -0.237 OA
ATOM     82  O   UNL A   1      41.380  26.305  25.548  1.00  0.00    -0.744 OA
ENDBRANCH  78  79
ENDBRANCH  57  71
BRANCH  58  83
ATOM     83  C   UNL A   1      43.447  33.756  38.464  1.00  0.00     0.058 A 
ATOM     84  C   UNL A   1      42.851  33.148  39.580  1.00  0.00     0.135 A 
ATOM     85  C   UNL A   1      44.078  34.995  38.659  1.00  0.00     0.135 A 
ATOM     86  F   UNL A   1      42.234  31.965  39.449  1.00  0.00    -0.206 F 
ATOM     87  C   UNL A   1      42.855  33.757  40.831  1.00  0.00     0.059 A 
ATOM     88  C   UNL A   1      44.120  35.610  39.907  1.00  0.00     0.059 A 
ATOM     89  F   UNL A   1      44.678  35.615  37.631  1.00  0.00    -0.206 F 
ATOM     90  C   UNL A   1      43.491  34.990  40.984  1.00  0.00     0.060 A 
BRANCH  90  91
ATOM     91  S   UNL A   1      43.504  35.762  42.617  1.00  0.00     0.124 S 
ATOM     92  O   UNL A   1      43.847  37.140  42.287  1.00  0.00    -0.237 OA
ATOM     93  O   UNL A   1      42.136  35.534  43.072  1.00  0.00    -0.237 OA
ATOM     94  O   UNL A   1      44.529  35.011  43.336  1.00  0.00    -0.744 OA
ENDBRANCH  90  91
ENDBRANCH  58  83
BRANCH  70  95
ATOM     95  C   UNL A   1      47.832  29.662  34.885  1.00  0.00     0.058 A 
ATOM     96  C   UNL A   1      48.989  30.401  34.596  1.00  0.00     0.135 A 
ATOM     97  C   UNL A   1      47.978  28.443  35.568  1.00  0.00     0.135 A 
ATOM     98  F   UNL A   1      48.900  31.568  33.940  1.00  0.00    -0.206 F 
ATOM     99  C   UNL A   1      50.248  29.942  34.962  1.00  0.00     0.059 A 
ATOM    100  C   UNL A   1      49.224  27.982  35.974  1.00  0.00     0.059 A 
ATOM    101  F   UNL A   1      46.897  27.708  35.877  1.00  0.00    -0.206 F 
ATOM    102  C   UNL A   1      50.353  28.737  35.660  1.00  0.00     0.060 A 
BRANCH 102 103
ATOM    103  S   UNL A   1      51.990  28.188  36.183  1.00  0.00     0.124 S 
ATOM    104  O   UNL A   1      52.655  29.459  36.448  1.00  0.00    -0.237 OA
ATOM    105  O   UNL A   1      51.683  27.375  37.356  1.00  0.00    -0.237 OA
ATOM    106  O   UNL A   1      52.487  27.448  35.027  1.00  0.00    -0.744 OA
ENDBRANCH 102 103
ENDBRANCH  70  95
ENDBRANCH  44  45
ENDBRANCH  37  39
ENDBRANCH  36  37
ENDBRANCH  35  36
ENDBRANCH  34  35
ENDBRANCH  33  34
ENDBRANCH  32  33
ENDBRANCH  31  32
ENDBRANCH  30  31
ENDBRANCH   1  30
TORSDOF 28
ENDMDL
MODEL 3
REMARK VINA RESULT:      -8.1      5.807      8.634
REMARK SMILES COc1ccc(Cl)cc1C(=O)Nc1ccc(OCC(=O)OCCOCCOCCOCCOC(=O)c2ccc(-c3c4nc(c(-c5c(F)cc(S(=O)(=O)[O-])cc5F)c5ccc([nH]5)c(-c5c(F)cc(S(=O)(=O)[O-])cc5F)c5nc(c(-c6c(F)cc(S(=O)(=O)[O-])cc6F)c6ccc3[nH]6)C=C5)C=C4)cc2)cc1
REMARK SMILES IDX 26 1 25 2 24 3 23 4 22 5 21 6 19 7 20 8 18 9 17 10 16 11
REMARK SMILES IDX 13 12 14 13 103 14 15 15 102 16 12 17 10 18 11 19 9 21 3 22
REMARK SMILES IDX 4 23 5 24 8 25 6 26 7 27 2 28 1 29 27 30 28 31 29 32 30 33
REMARK SMILES IDX 31 34 32 35 33 36 34 37 35 38 36 39 37 40 101 41 38 42
REMARK SMILES IDX 100 43 39 44 40 45 41 46 94 47 42 48 99 49 93 50 95 51 43 52
REMARK SMILES IDX 98 53 92 54 91 55 44 57 78 58 57 59 77 60 58 61 61 62 76 63
REMARK SMILES IDX 96 64 59 65 60 66 75 68 97 69 62 70 45 71 46 72 55 73 47 74
REMARK SMILES IDX 48 75 54 76 56 77 49 78 50 79 51 80 52 81 53 82 79 83 80 84
REMARK SMILES IDX 89 85 81 86 82 87 88 88 90 89 83 90 84 91 85 92 86 93 87 94
REMARK SMILES IDX 63 95 64 96 73 97 65 98 66 99 72 100 74 101 67 102 68 103
REMARK SMILES IDX 69 104 70 105 71 106
REMARK H PARENT 12 20 95 56 61 67
REMARK Flexibility Score: inf
ROOT
ATOM      1  C   UNL A   1      33.176  33.828  28.367  1.00  0.00     0.188 C 
ENDROOT
BRANCH   1   2
ATOM      2  C   UNL A   1      34.547  34.076  27.704  1.00  0.00     0.188 C 
BRANCH   2   3
ATOM      3  O   UNL A   1      35.580  33.099  27.706  1.00  0.00    -0.376 OA
BRANCH   3   4
ATOM      4  C   UNL A   1      36.596  33.202  28.689  1.00  0.00     0.202 C 
BRANCH   4   5
ATOM      5  C   UNL A   1      37.616  32.048  28.750  1.00  0.00     0.261 C 
BRANCH   5   6
ATOM      6  O   UNL A   1      37.103  30.802  29.288  1.00  0.00    -0.461 OA
BRANCH   6   7
ATOM      7  C   UNL A   1      37.589  29.629  28.813  1.00  0.00     0.344 C 
ATOM      8  O   UNL A   1      37.063  28.996  27.901  1.00  0.00    -0.248 OA
BRANCH   7   9
ATOM      9  C   UNL A   1      38.915  29.134  29.499  1.00  0.00     0.351 C 
BRANCH   9  10
ATOM     10  O   UNL A   1      40.194  29.761  29.389  1.00  0.00    -0.482 OA
BRANCH  10  11
ATOM     11  C   UNL A   1      41.231  29.215  28.671  1.00  0.00     0.120 A 
ATOM     12  C   UNL A   1      43.281  28.713  26.758  1.00  0.00     0.041 A 
ATOM     13  C   UNL A   1      43.455  29.679  27.749  1.00  0.00     0.030 A 
ATOM     14  C   UNL A   1      42.246  27.812  26.953  1.00  0.00     0.030 A 
ATOM     15  C   UNL A   1      42.426  29.945  28.679  1.00  0.00     0.048 A 
ATOM     16  C   UNL A   1      41.220  28.059  27.902  1.00  0.00     0.048 A 
BRANCH  12  17
ATOM     17  N   UNL A   1      44.246  28.562  25.744  1.00  0.00    -0.322 N 
ATOM     18  C   UNL A   1      45.518  27.993  25.650  1.00  0.00     0.259 C 
ATOM     19  O   UNL A   1      46.113  28.182  24.579  1.00  0.00    -0.269 OA
ATOM     20  H   UNL A   1      43.951  28.954  24.890  1.00  0.00     0.170 HD
BRANCH  18  21
ATOM     21  C   UNL A   1      46.101  26.926  26.535  1.00  0.00     0.083 A 
ATOM     22  C   UNL A   1      45.616  25.635  26.755  1.00  0.00     0.131 A 
ATOM     23  C   UNL A   1      46.333  24.736  27.577  1.00  0.00     0.049 A 
ATOM     24  C   UNL A   1      47.540  25.091  28.169  1.00  0.00     0.024 A 
ATOM     25  C   UNL A   1      47.265  27.305  27.259  1.00  0.00     0.038 A 
ATOM     26  C   UNL A   1      47.994  26.389  28.027  1.00  0.00     0.042 A 
ATOM     27  Cl  UNL A   1      49.459  26.857  28.798  1.00  0.00    -0.084 Cl
BRANCH  22  28
ATOM     28  O   UNL A   1      44.386  25.269  26.284  1.00  0.00    -0.496 OA
ATOM     29  C   UNL A   1      44.490  24.476  25.103  1.00  0.00     0.278 C 
ENDBRANCH  22  28
ENDBRANCH  18  21
ENDBRANCH  12  17
ENDBRANCH  10  11
ENDBRANCH   9  10
ENDBRANCH   7   9
ENDBRANCH   6   7
ENDBRANCH   5   6
ENDBRANCH   4   5
ENDBRANCH   3   4
ENDBRANCH   2   3
ENDBRANCH   1   2
BRANCH   1  30
ATOM     30  O   UNL A   1      32.659  34.896  29.131  1.00  0.00    -0.377 OA
BRANCH  30  31
ATOM     31  C   UNL A   1      33.570  35.551  30.001  1.00  0.00     0.188 C 
BRANCH  31  32
ATOM     32  C   UNL A   1      33.022  35.702  31.424  1.00  0.00     0.188 C 
BRANCH  32  33
ATOM     33  O   UNL A   1      33.330  36.934  32.083  1.00  0.00    -0.376 OA
BRANCH  33  34
ATOM     34  C   UNL A   1      34.234  36.891  33.181  1.00  0.00     0.202 C 
BRANCH  34  35
ATOM     35  C   UNL A   1      34.387  35.474  33.729  1.00  0.00     0.261 C 
BRANCH  35  36
ATOM     36  O   UNL A   1      35.710  35.029  33.459  1.00  0.00    -0.460 OA
BRANCH  36  37
ATOM     37  C   UNL A   1      35.911  33.762  33.913  1.00  0.00     0.338 C 
ATOM     38  O   UNL A   1      35.104  33.014  34.407  1.00  0.00    -0.246 OA
BRANCH  37  39
ATOM     39  C   UNL A   1      37.235  33.380  33.403  1.00  0.00     0.060 A 
ATOM     40  C   UNL A   1      38.353  33.983  33.991  1.00  0.00     0.016 A 
ATOM     41  C   UNL A   1      37.361  32.375  32.439  1.00  0.00     0.016 A 
ATOM     42  C   UNL A   1      39.619  33.601  33.583  1.00  0.00     0.010 A 
ATOM     43  C   UNL A   1      38.624  32.002  32.021  1.00  0.00     0.010 A 
ATOM     44  C   UNL A   1      39.743  32.647  32.567  1.00  0.00    -0.014 A 
BRANCH  44  45
ATOM     45  C   UNL A   1      41.023  32.518  31.865  1.00  0.00     0.031 A 
ATOM     46  C   UNL A   1      41.812  31.274  32.140  1.00  0.00     0.074 A 
ATOM     47  C   UNL A   1      41.443  33.493  31.046  1.00  0.00     0.049 A 
ATOM     48  N   UNL A   1      43.001  30.944  31.725  1.00  0.00    -0.248 NA
ATOM     49  C   UNL A   1      41.174  30.267  33.013  1.00  0.00     0.031 C 
ATOM     50  C   UNL A   1      40.697  34.711  30.727  1.00  0.00     0.029 A 
ATOM     51  N   UNL A   1      42.610  33.616  30.347  1.00  0.00    -0.354 N 
ATOM     52  C   UNL A   1      43.249  29.693  32.276  1.00  0.00     0.074 A 
ATOM     53  C   UNL A   1      42.110  29.335  33.086  1.00  0.00     0.031 C 
ATOM     54  C   UNL A   1      41.439  35.470  29.903  1.00  0.00     0.029 A 
ATOM     55  C   UNL A   1      42.719  34.807  29.672  1.00  0.00     0.049 A 
ATOM     56  H   UNL A   1      43.305  32.919  30.329  1.00  0.00     0.167 HD
ATOM     57  C   UNL A   1      44.337  28.913  32.103  1.00  0.00     0.037 A 
ATOM     58  C   UNL A   1      43.761  35.299  28.978  1.00  0.00     0.037 A 
ATOM     59  C   UNL A   1      45.461  29.321  31.308  1.00  0.00     0.049 A 
ATOM     60  C   UNL A   1      45.001  34.445  28.876  1.00  0.00     0.074 A 
ATOM     61  C   UNL A   1      46.631  28.635  31.053  1.00  0.00     0.029 A 
ATOM     62  N   UNL A   1      45.552  30.542  30.652  1.00  0.00    -0.354 N 
ATOM     63  N   UNL A   1      45.219  33.245  29.365  1.00  0.00    -0.248 NA
ATOM     64  C   UNL A   1      46.137  35.008  28.136  1.00  0.00     0.031 C 
ATOM     65  C   UNL A   1      47.453  29.464  30.286  1.00  0.00     0.029 A 
ATOM     66  C   UNL A   1      46.773  30.644  30.014  1.00  0.00     0.049 A 
ATOM     67  H   UNL A   1      44.850  31.233  30.642  1.00  0.00     0.167 HD
ATOM     68  C   UNL A   1      46.508  32.900  28.975  1.00  0.00     0.074 A 
ATOM     69  C   UNL A   1      47.011  34.012  28.192  1.00  0.00     0.031 C 
ATOM     70  C   UNL A   1      47.220  31.775  29.239  1.00  0.00     0.037 A 
BRANCH  57  71
ATOM     71  C   UNL A   1      44.362  27.583  32.797  1.00  0.00     0.058 A 
ATOM     72  C   UNL A   1      44.104  26.387  32.108  1.00  0.00     0.135 A 
ATOM     73  C   UNL A   1      44.665  27.499  34.164  1.00  0.00     0.135 A 
ATOM     74  F   UNL A   1      43.772  26.413  30.807  1.00  0.00    -0.206 F 
ATOM     75  C   UNL A   1      44.141  25.155  32.752  1.00  0.00     0.059 A 
ATOM     76  C   UNL A   1      44.734  26.275  34.823  1.00  0.00     0.059 A 
ATOM     77  F   UNL A   1      44.896  28.613  34.876  1.00  0.00    -0.206 F 
ATOM     78  C   UNL A   1      44.467  25.109  34.108  1.00  0.00     0.060 A 
BRANCH  78  79
ATOM     79  S   UNL A   1      44.556  23.497  34.915  1.00  0.00     0.124 S 
ATOM     80  O   UNL A   1      44.870  22.621  33.790  1.00  0.00    -0.237 OA
ATOM     81  O   UNL A   1      45.629  23.695  35.884  1.00  0.00    -0.237 OA
ATOM     82  O   UNL A   1      43.223  23.328  35.486  1.00  0.00    -0.744 OA
ENDBRANCH  78  79
ENDBRANCH  57  71
BRANCH  58  83
ATOM     83  C   UNL A   1      43.690  36.649  28.359  1.00  0.00     0.058 A 
ATOM     84  C   UNL A   1      44.169  37.782  29.032  1.00  0.00     0.135 A 
ATOM     85  C   UNL A   1      43.133  36.838  27.084  1.00  0.00     0.135 A 
ATOM     86  F   UNL A   1      44.710  37.657  30.253  1.00  0.00    -0.206 F 
ATOM     87  C   UNL A   1      44.075  39.055  28.478  1.00  0.00     0.059 A 
ATOM     88  C   UNL A   1      43.053  38.097  26.496  1.00  0.00     0.059 A 
ATOM     89  F   UNL A   1      42.672  35.788  26.386  1.00  0.00    -0.206 F 
ATOM     90  C   UNL A   1      43.513  39.203  27.209  1.00  0.00     0.060 A 
BRANCH  90  91
ATOM     91  S   UNL A   1      43.412  40.858  26.493  1.00  0.00     0.124 S 
ATOM     92  O   UNL A   1      43.909  41.682  27.589  1.00  0.00    -0.237 OA
ATOM     93  O   UNL A   1      44.289  40.741  25.332  1.00  0.00    -0.237 OA
ATOM     94  O   UNL A   1      41.992  41.005  26.186  1.00  0.00    -0.744 OA
ENDBRANCH  90  91
ENDBRANCH  58  83
BRANCH  70  95
ATOM     95  C   UNL A   1      48.602  31.691  28.662  1.00  0.00     0.058 A 
ATOM     96  C   UNL A   1      48.839  31.094  27.414  1.00  0.00     0.135 A 
ATOM     97  C   UNL A   1      49.684  32.295  29.322  1.00  0.00     0.135 A 
ATOM     98  F   UNL A   1      47.837  30.497  26.749  1.00  0.00    -0.206 F 
ATOM     99  C   UNL A   1      50.106  31.087  26.847  1.00  0.00     0.059 A 
ATOM    100  C   UNL A   1      50.952  32.331  28.758  1.00  0.00     0.059 A 
ATOM    101  F   UNL A   1      49.502  32.891  30.513  1.00  0.00    -0.206 F 
ATOM    102  C   UNL A   1      51.153  31.717  27.522  1.00  0.00     0.060 A 
BRANCH 102 103
ATOM    103  S   UNL A   1      52.779  31.754  26.741  1.00  0.00     0.124 S 
ATOM    104  O   UNL A   1      52.435  32.082  25.362  1.00  0.00    -0.237 OA
ATOM    105  O   UNL A   1      53.459  32.806  27.491  1.00  0.00    -0.237 OA
ATOM    106  O   UNL A   1      53.292  30.405  26.957  1.00  0.00    -0.744 OA
ENDBRANCH 102 103
ENDBRANCH  70  95
ENDBRANCH  44  45
ENDBRANCH  37  39
ENDBRANCH  36  37
ENDBRANCH  35  36
ENDBRANCH  34  35
ENDBRANCH  33  34
ENDBRANCH  32  33
ENDBRANCH  31  32
ENDBRANCH  30  31
ENDBRANCH   1  30
TORSDOF 28
ENDMDL
