MODEL 1
REMARK VINA RESULT:      -8.0      0.000      0.000
REMARK SMILES CC(C)N1C[C@@H](C(=O)N2CCC(C(=O)OCCOCCOCCOCCOC(=O)c3ccc(-c4c5nc(c(-c6c(F)cc(S(=O)(=O)[O-])cc6F)c6ccc([nH]6)c(-c6c(F)cc(S(=O)(=O)[O-])cc6F)c6nc(c(-c7c(F)cc(S(=O)(=O)[O-])cc7F)c7ccc4[nH]7)C=C6)C=C5)cc3)CC2)CC1=O
REMARK SMILES IDX 22 1 21 2 20 3 19 4 18 5 17 6 16 7 15 8 13 9 14 10 12 11
REMARK SMILES IDX 7 12 8 13 9 14 10 15 97 16 11 17 96 18 6 19 4 20 5 21 99 22
REMARK SMILES IDX 98 23 100 24 2 25 1 26 3 27 23 28 24 29 25 30 26 31 27 32
REMARK SMILES IDX 28 33 29 34 30 35 31 36 95 37 32 38 94 39 33 40 34 41 35 42
REMARK SMILES IDX 88 43 36 44 93 45 87 46 89 47 37 48 92 49 86 50 85 51 38 53
REMARK SMILES IDX 72 54 51 55 71 56 52 57 55 58 70 59 90 60 53 61 54 62 69 64
REMARK SMILES IDX 91 65 56 66 39 67 40 68 49 69 41 70 42 71 48 72 50 73 43 74
REMARK SMILES IDX 44 75 45 76 46 77 47 78 73 79 74 80 83 81 75 82 76 83 82 84
REMARK SMILES IDX 84 85 77 86 78 87 79 88 80 89 81 90 57 91 58 92 67 93 59 94
REMARK SMILES IDX 60 95 66 96 68 97 61 98 62 99 63 100 64 101 65 102
REMARK H PARENT 89 52 55 63
REMARK Flexibility Score: inf
ROOT
ATOM      1  C   UNL A   1      32.538  36.120  30.979  1.00  0.00     0.188 C 
ENDROOT
BRANCH   1   2
ATOM      2  O   UNL A   1      32.777  37.273  31.782  1.00  0.00    -0.377 OA
BRANCH   2   3
ATOM      3  C   UNL A   1      33.616  37.138  32.909  1.00  0.00     0.188 C 
BRANCH   3   4
ATOM      4  C   UNL A   1      34.699  36.058  32.810  1.00  0.00     0.188 C 
BRANCH   4   5
ATOM      5  O   UNL A   1      35.181  35.372  33.951  1.00  0.00    -0.376 OA
BRANCH   5   6
ATOM      6  C   UNL A   1      36.195  34.381  33.872  1.00  0.00     0.202 C 
BRANCH   6   7
ATOM      7  C   UNL A   1      37.212  34.112  34.993  1.00  0.00     0.261 C 
BRANCH   7   8
ATOM      8  O   UNL A   1      36.916  33.033  35.891  1.00  0.00    -0.463 OA
BRANCH   8   9
ATOM      9  C   UNL A   1      37.927  32.663  36.701  1.00  0.00     0.309 C 
ATOM     10  O   UNL A   1      37.928  32.800  37.923  1.00  0.00    -0.252 OA
BRANCH   9  11
ATOM     11  C   UNL A   1      39.127  32.085  35.988  1.00  0.00     0.103 C 
ATOM     12  C   UNL A   1      41.783  29.045  35.804  1.00  0.00     0.227 C 
ATOM     13  O   UNL A   1      42.331  29.134  36.907  1.00  0.00    -0.274 OA
ATOM     14  N   UNL A   1      41.106  30.125  35.264  1.00  0.00    -0.342 N 
ATOM     15  C   UNL A   1      41.516  31.450  35.705  1.00  0.00     0.120 C 
ATOM     16  C   UNL A   1      39.789  30.074  34.642  1.00  0.00     0.120 C 
ATOM     17  C   UNL A   1      40.499  32.036  36.678  1.00  0.00     0.037 C 
ATOM     18  C   UNL A   1      38.737  30.669  35.568  1.00  0.00     0.037 C 
BRANCH  12  19
ATOM     19  C   UNL A   1      42.143  27.865  34.918  1.00  0.00     0.107 C 
ATOM     20  N   UNL A   1      44.118  26.884  34.092  1.00  0.00    -0.339 N 
ATOM     21  C   UNL A   1      43.538  27.393  35.306  1.00  0.00     0.133 C 
ATOM     22  C   UNL A   1      43.371  27.206  32.973  1.00  0.00     0.223 C 
ATOM     23  C   UNL A   1      42.136  27.949  33.401  1.00  0.00     0.115 C 
ATOM     24  O   UNL A   1      43.660  26.947  31.814  1.00  0.00    -0.275 OA
BRANCH  20  25
ATOM     25  C   UNL A   1      45.361  26.115  34.036  1.00  0.00     0.078 C 
ATOM     26  C   UNL A   1      46.601  26.908  34.454  1.00  0.00     0.031 C 
ATOM     27  C   UNL A   1      45.232  24.852  34.888  1.00  0.00     0.031 C 
ENDBRANCH  20  25
ENDBRANCH  12  19
ENDBRANCH   9  11
ENDBRANCH   8   9
ENDBRANCH   7   8
ENDBRANCH   6   7
ENDBRANCH   5   6
ENDBRANCH   4   5
ENDBRANCH   3   4
ENDBRANCH   2   3
ENDBRANCH   1   2
BRANCH   1  28
ATOM     28  C   UNL A   1      32.917  36.171  29.486  1.00  0.00     0.188 C 
BRANCH  28  29
ATOM     29  O   UNL A   1      32.608  34.987  28.763  1.00  0.00    -0.376 OA
BRANCH  29  30
ATOM     30  C   UNL A   1      33.668  34.186  28.262  1.00  0.00     0.202 C 
BRANCH  30  31
ATOM     31  C   UNL A   1      34.139  32.978  29.090  1.00  0.00     0.261 C 
BRANCH  31  32
ATOM     32  O   UNL A   1      35.283  33.173  29.936  1.00  0.00    -0.460 OA
BRANCH  32  33
ATOM     33  C   UNL A   1      35.540  32.256  30.890  1.00  0.00     0.338 C 
ATOM     34  O   UNL A   1      34.783  31.885  31.773  1.00  0.00    -0.246 OA
BRANCH  33  35
ATOM     35  C   UNL A   1      36.827  31.611  30.560  1.00  0.00     0.060 A 
ATOM     36  C   UNL A   1      37.620  31.107  31.600  1.00  0.00     0.016 A 
ATOM     37  C   UNL A   1      37.255  31.512  29.234  1.00  0.00     0.016 A 
ATOM     38  C   UNL A   1      38.862  30.543  31.321  1.00  0.00     0.010 A 
ATOM     39  C   UNL A   1      38.512  30.966  28.957  1.00  0.00     0.010 A 
ATOM     40  C   UNL A   1      39.337  30.516  30.003  1.00  0.00    -0.014 A 
BRANCH  40  41
ATOM     41  C   UNL A   1      40.767  30.219  29.746  1.00  0.00     0.031 A 
ATOM     42  C   UNL A   1      41.131  28.835  29.278  1.00  0.00     0.074 A 
ATOM     43  C   UNL A   1      41.718  31.158  29.890  1.00  0.00     0.049 A 
ATOM     44  N   UNL A   1      42.309  28.319  29.043  1.00  0.00    -0.248 NA
ATOM     45  C   UNL A   1      40.011  27.908  29.042  1.00  0.00     0.031 C 
ATOM     46  C   UNL A   1      41.483  32.547  30.280  1.00  0.00     0.029 A 
ATOM     47  N   UNL A   1      43.079  31.080  29.726  1.00  0.00    -0.354 N 
ATOM     48  C   UNL A   1      42.074  27.011  28.638  1.00  0.00     0.074 A 
ATOM     49  C   UNL A   1      40.645  26.799  28.692  1.00  0.00     0.031 C 
ATOM     50  C   UNL A   1      42.662  33.189  30.335  1.00  0.00     0.029 A 
ATOM     51  C   UNL A   1      43.738  32.249  30.022  1.00  0.00     0.049 A 
ATOM     52  H   UNL A   1      43.539  30.263  29.426  1.00  0.00     0.167 HD
ATOM     53  C   UNL A   1      42.969  26.073  28.244  1.00  0.00     0.037 A 
ATOM     54  C   UNL A   1      45.059  32.520  30.058  1.00  0.00     0.037 A 
ATOM     55  C   UNL A   1      44.391  26.290  28.200  1.00  0.00     0.049 A 
ATOM     56  C   UNL A   1      46.044  31.433  29.705  1.00  0.00     0.074 A 
ATOM     57  C   UNL A   1      45.384  25.403  27.823  1.00  0.00     0.029 A 
ATOM     58  N   UNL A   1      45.024  27.474  28.549  1.00  0.00    -0.354 N 
ATOM     59  N   UNL A   1      45.812  30.197  29.327  1.00  0.00    -0.248 NA
ATOM     60  C   UNL A   1      47.471  31.776  29.781  1.00  0.00     0.031 C 
ATOM     61  C   UNL A   1      46.620  26.033  27.996  1.00  0.00     0.029 A 
ATOM     62  C   UNL A   1      46.396  27.335  28.418  1.00  0.00     0.049 A 
ATOM     63  H   UNL A   1      44.566  28.293  28.846  1.00  0.00     0.167 HD
ATOM     64  C   UNL A   1      47.060  29.629  29.089  1.00  0.00     0.074 A 
ATOM     65  C   UNL A   1      48.043  30.658  29.357  1.00  0.00     0.031 C 
ATOM     66  C   UNL A   1      47.364  28.371  28.680  1.00  0.00     0.037 A 
BRANCH  53  67
ATOM     67  C   UNL A   1      42.437  24.721  27.855  1.00  0.00     0.058 A 
ATOM     68  C   UNL A   1      41.850  24.489  26.601  1.00  0.00     0.135 A 
ATOM     69  C   UNL A   1      42.548  23.632  28.735  1.00  0.00     0.135 A 
ATOM     70  F   UNL A   1      41.697  25.498  25.729  1.00  0.00    -0.206 F 
ATOM     71  C   UNL A   1      41.375  23.232  26.240  1.00  0.00     0.059 A 
ATOM     72  C   UNL A   1      42.108  22.360  28.385  1.00  0.00     0.059 A 
ATOM     73  F   UNL A   1      43.094  23.798  29.951  1.00  0.00    -0.206 F 
ATOM     74  C   UNL A   1      41.512  22.172  27.139  1.00  0.00     0.060 A 
BRANCH  74  75
ATOM     75  S   UNL A   1      40.907  20.544  26.647  1.00  0.00     0.124 S 
ATOM     76  O   UNL A   1      39.580  20.869  26.134  1.00  0.00    -0.237 OA
ATOM     77  O   UNL A   1      41.890  20.136  25.648  1.00  0.00    -0.237 OA
ATOM     78  O   UNL A   1      40.929  19.782  27.892  1.00  0.00    -0.744 OA
ENDBRANCH  74  75
ENDBRANCH  53  67
BRANCH  54  79
ATOM     79  C   UNL A   1      45.531  33.877  30.446  1.00  0.00     0.058 A 
ATOM     80  C   UNL A   1      45.750  34.870  29.482  1.00  0.00     0.135 A 
ATOM     81  C   UNL A   1      45.767  34.209  31.790  1.00  0.00     0.135 A 
ATOM     82  F   UNL A   1      45.557  34.598  28.182  1.00  0.00    -0.206 F 
ATOM     83  C   UNL A   1      46.193  36.143  29.831  1.00  0.00     0.059 A 
ATOM     84  C   UNL A   1      46.181  35.483  32.168  1.00  0.00     0.059 A 
ATOM     85  F   UNL A   1      45.567  33.296  32.754  1.00  0.00    -0.206 F 
ATOM     86  C   UNL A   1      46.397  36.441  31.179  1.00  0.00     0.060 A 
BRANCH  86  87
ATOM     87  S   UNL A   1      46.906  38.116  31.624  1.00  0.00     0.124 S 
ATOM     88  O   UNL A   1      48.081  37.859  32.449  1.00  0.00    -0.237 OA
ATOM     89  O   UNL A   1      47.161  38.713  30.318  1.00  0.00    -0.237 OA
ATOM     90  O   UNL A   1      45.742  38.645  32.330  1.00  0.00    -0.744 OA
ENDBRANCH  86  87
ENDBRANCH  54  79
BRANCH  66  91
ATOM     91  C   UNL A   1      48.815  28.040  28.450  1.00  0.00     0.058 A 
ATOM     92  C   UNL A   1      49.437  28.240  27.208  1.00  0.00     0.135 A 
ATOM     93  C   UNL A   1      49.612  27.575  29.511  1.00  0.00     0.135 A 
ATOM     94  F   UNL A   1      48.725  28.679  26.158  1.00  0.00    -0.206 F 
ATOM     95  C   UNL A   1      50.788  27.967  27.019  1.00  0.00     0.059 A 
ATOM     96  C   UNL A   1      50.971  27.326  29.353  1.00  0.00     0.059 A 
ATOM     97  F   UNL A   1      49.073  27.378  30.725  1.00  0.00    -0.206 F 
ATOM     98  C   UNL A   1      51.549  27.514  28.099  1.00  0.00     0.060 A 
BRANCH  98  99
ATOM     99  S   UNL A   1      53.308  27.198  27.847  1.00  0.00     0.124 S 
ATOM    100  O   UNL A   1      53.785  27.069  29.220  1.00  0.00    -0.237 OA
ATOM    101  O   UNL A   1      53.295  25.967  27.062  1.00  0.00    -0.237 OA
ATOM    102  O   UNL A   1      53.769  28.385  27.132  1.00  0.00    -0.744 OA
ENDBRANCH  98  99
ENDBRANCH  66  91
ENDBRANCH  40  41
ENDBRANCH  33  35
ENDBRANCH  32  33
ENDBRANCH  31  32
ENDBRANCH  30  31
ENDBRANCH  29  30
ENDBRANCH  28  29
ENDBRANCH   1  28
TORSDOF 25
ENDMDL
MODEL 2
REMARK VINA RESULT:      -7.8      2.002      2.848
REMARK SMILES CC(C)N1C[C@@H](C(=O)N2CCC(C(=O)OCCOCCOCCOCCOC(=O)c3ccc(-c4c5nc(c(-c6c(F)cc(S(=O)(=O)[O-])cc6F)c6ccc([nH]6)c(-c6c(F)cc(S(=O)(=O)[O-])cc6F)c6nc(c(-c7c(F)cc(S(=O)(=O)[O-])cc7F)c7ccc4[nH]7)C=C6)C=C5)cc3)CC2)CC1=O
REMARK SMILES IDX 22 1 21 2 20 3 19 4 18 5 17 6 16 7 15 8 13 9 14 10 12 11
REMARK SMILES IDX 7 12 8 13 9 14 10 15 97 16 11 17 96 18 6 19 4 20 5 21 99 22
REMARK SMILES IDX 98 23 100 24 2 25 1 26 3 27 23 28 24 29 25 30 26 31 27 32
REMARK SMILES IDX 28 33 29 34 30 35 31 36 95 37 32 38 94 39 33 40 34 41 35 42
REMARK SMILES IDX 88 43 36 44 93 45 87 46 89 47 37 48 92 49 86 50 85 51 38 53
REMARK SMILES IDX 72 54 51 55 71 56 52 57 55 58 70 59 90 60 53 61 54 62 69 64
REMARK SMILES IDX 91 65 56 66 39 67 40 68 49 69 41 70 42 71 48 72 50 73 43 74
REMARK SMILES IDX 44 75 45 76 46 77 47 78 73 79 74 80 83 81 75 82 76 83 82 84
REMARK SMILES IDX 84 85 77 86 78 87 79 88 80 89 81 90 57 91 58 92 67 93 59 94
REMARK SMILES IDX 60 95 66 96 68 97 61 98 62 99 63 100 64 101 65 102
REMARK H PARENT 89 52 55 63
REMARK Flexibility Score: inf
ROOT
ATOM      1  C   UNL A   1      33.265  34.796  29.814  1.00  0.00     0.188 C 
ENDROOT
BRANCH   1   2
ATOM      2  O   UNL A   1      34.421  35.019  30.616  1.00  0.00    -0.377 OA
BRANCH   2   3
ATOM      3  C   UNL A   1      34.745  34.061  31.600  1.00  0.00     0.188 C 
BRANCH   3   4
ATOM      4  C   UNL A   1      36.226  33.681  31.700  1.00  0.00     0.188 C 
BRANCH   4   5
ATOM      5  O   UNL A   1      37.205  34.593  32.165  1.00  0.00    -0.376 OA
BRANCH   5   6
ATOM      6  C   UNL A   1      38.532  34.194  32.476  1.00  0.00     0.202 C 
BRANCH   6   7
ATOM      7  C   UNL A   1      38.910  33.413  33.744  1.00  0.00     0.261 C 
BRANCH   7   8
ATOM      8  O   UNL A   1      38.988  31.985  33.626  1.00  0.00    -0.463 OA
BRANCH   8   9
ATOM      9  C   UNL A   1      39.400  31.337  34.733  1.00  0.00     0.309 C 
ATOM     10  O   UNL A   1      39.216  31.730  35.882  1.00  0.00    -0.252 OA
BRANCH   9  11
ATOM     11  C   UNL A   1      40.173  30.065  34.466  1.00  0.00     0.103 C 
ATOM     12  C   UNL A   1      43.781  28.248  34.545  1.00  0.00     0.227 C 
ATOM     13  O   UNL A   1      44.422  28.946  33.753  1.00  0.00    -0.274 OA
ATOM     14  N   UNL A   1      42.398  28.241  34.517  1.00  0.00    -0.342 N 
ATOM     15  C   UNL A   1      41.760  28.581  33.254  1.00  0.00     0.120 C 
ATOM     16  C   UNL A   1      41.526  28.337  35.682  1.00  0.00     0.120 C 
ATOM     17  C   UNL A   1      41.176  29.988  33.304  1.00  0.00     0.037 C 
ATOM     18  C   UNL A   1      40.899  29.723  35.766  1.00  0.00     0.037 C 
BRANCH  12  19
ATOM     19  C   UNL A   1      44.524  27.165  35.309  1.00  0.00     0.107 C 
ATOM     20  N   UNL A   1      44.260  24.859  35.700  1.00  0.00    -0.339 N 
ATOM     21  C   UNL A   1      44.229  25.830  34.639  1.00  0.00     0.133 C 
ATOM     22  C   UNL A   1      44.285  25.444  36.953  1.00  0.00     0.223 C 
ATOM     23  C   UNL A   1      44.333  26.939  36.799  1.00  0.00     0.115 C 
ATOM     24  O   UNL A   1      44.261  24.856  38.025  1.00  0.00    -0.275 OA
BRANCH  20  25
ATOM     25  C   UNL A   1      44.260  23.411  35.489  1.00  0.00     0.078 C 
ATOM     26  C   UNL A   1      43.402  22.956  34.306  1.00  0.00     0.031 C 
ATOM     27  C   UNL A   1      45.695  22.909  35.321  1.00  0.00     0.031 C 
ENDBRANCH  20  25
ENDBRANCH  12  19
ENDBRANCH   9  11
ENDBRANCH   8   9
ENDBRANCH   7   8
ENDBRANCH   6   7
ENDBRANCH   5   6
ENDBRANCH   4   5
ENDBRANCH   3   4
ENDBRANCH   2   3
ENDBRANCH   1   2
BRANCH   1  28
ATOM     28  C   UNL A   1      33.457  34.422  28.330  1.00  0.00     0.188 C 
BRANCH  28  29
ATOM     29  O   UNL A   1      34.793  34.092  27.979  1.00  0.00    -0.376 OA
BRANCH  29  30
ATOM     30  C   UNL A   1      35.194  32.729  27.989  1.00  0.00     0.202 C 
BRANCH  30  31
ATOM     31  C   UNL A   1      34.151  31.648  27.653  1.00  0.00     0.261 C 
BRANCH  31  32
ATOM     32  O   UNL A   1      34.218  30.423  28.402  1.00  0.00    -0.460 OA
BRANCH  32  33
ATOM     33  C   UNL A   1      34.860  29.372  27.856  1.00  0.00     0.338 C 
ATOM     34  O   UNL A   1      34.403  28.565  27.062  1.00  0.00    -0.246 OA
BRANCH  33  35
ATOM     35  C   UNL A   1      36.288  29.479  28.218  1.00  0.00     0.060 A 
ATOM     36  C   UNL A   1      37.228  29.725  27.208  1.00  0.00     0.016 A 
ATOM     37  C   UNL A   1      36.700  29.328  29.544  1.00  0.00     0.016 A 
ATOM     38  C   UNL A   1      38.586  29.778  27.514  1.00  0.00     0.010 A 
ATOM     39  C   UNL A   1      38.065  29.358  29.847  1.00  0.00     0.010 A 
ATOM     40  C   UNL A   1      39.015  29.544  28.827  1.00  0.00    -0.014 A 
BRANCH  40  41
ATOM     41  C   UNL A   1      40.450  29.280  29.092  1.00  0.00     0.031 A 
ATOM     42  C   UNL A   1      40.993  27.914  28.769  1.00  0.00     0.074 A 
ATOM     43  C   UNL A   1      41.263  30.236  29.577  1.00  0.00     0.049 A 
ATOM     44  N   UNL A   1      42.190  27.427  28.963  1.00  0.00    -0.248 NA
ATOM     45  C   UNL A   1      40.054  26.970  28.139  1.00  0.00     0.031 C 
ATOM     46  C   UNL A   1      40.869  31.611  29.874  1.00  0.00     0.029 A 
ATOM     47  N   UNL A   1      42.595  30.188  29.908  1.00  0.00    -0.354 N 
ATOM     48  C   UNL A   1      42.148  26.122  28.486  1.00  0.00     0.074 A 
ATOM     49  C   UNL A   1      40.800  25.880  28.025  1.00  0.00     0.031 C 
ATOM     50  C   UNL A   1      41.934  32.276  30.353  1.00  0.00     0.029 A 
ATOM     51  C   UNL A   1      43.075  31.364  30.433  1.00  0.00     0.049 A 
ATOM     52  H   UNL A   1      43.152  29.386  29.782  1.00  0.00     0.167 HD
ATOM     53  C   UNL A   1      43.149  25.210  28.427  1.00  0.00     0.037 A 
ATOM     54  C   UNL A   1      44.289  31.660  30.941  1.00  0.00     0.037 A 
ATOM     55  C   UNL A   1      44.487  25.456  28.894  1.00  0.00     0.049 A 
ATOM     56  C   UNL A   1      45.363  30.600  30.949  1.00  0.00     0.074 A 
ATOM     57  C   UNL A   1      45.572  24.597  28.886  1.00  0.00     0.029 A 
ATOM     58  N   UNL A   1      44.924  26.646  29.460  1.00  0.00    -0.354 N 
ATOM     59  N   UNL A   1      45.312  29.368  30.499  1.00  0.00    -0.248 NA
ATOM     60  C   UNL A   1      46.660  30.971  31.533  1.00  0.00     0.031 C 
ATOM     61  C   UNL A   1      46.649  25.248  29.496  1.00  0.00     0.029 A 
ATOM     62  C   UNL A   1      46.255  26.537  29.824  1.00  0.00     0.049 A 
ATOM     63  H   UNL A   1      44.369  27.450  29.583  1.00  0.00     0.167 HD
ATOM     64  C   UNL A   1      46.578  28.829  30.714  1.00  0.00     0.074 A 
ATOM     65  C   UNL A   1      47.374  29.873  31.328  1.00  0.00     0.031 C 
ATOM     66  C   UNL A   1      47.040  27.587  30.426  1.00  0.00     0.037 A 
BRANCH  53  67
ATOM     67  C   UNL A   1      42.825  23.856  27.858  1.00  0.00     0.058 A 
ATOM     68  C   UNL A   1      42.806  23.619  26.474  1.00  0.00     0.135 A 
ATOM     69  C   UNL A   1      42.566  22.770  28.710  1.00  0.00     0.135 A 
ATOM     70  F   UNL A   1      43.024  24.626  25.613  1.00  0.00    -0.206 F 
ATOM     71  C   UNL A   1      42.523  22.360  25.955  1.00  0.00     0.059 A 
ATOM     72  C   UNL A   1      42.310  21.496  28.214  1.00  0.00     0.059 A 
ATOM     73  F   UNL A   1      42.563  22.940  30.042  1.00  0.00    -0.206 F 
ATOM     74  C   UNL A   1      42.280  21.303  26.834  1.00  0.00     0.060 A 
BRANCH  74  75
ATOM     75  S   UNL A   1      41.932  19.672  26.142  1.00  0.00     0.124 S 
ATOM     76  O   UNL A   1      40.507  19.780  25.842  1.00  0.00    -0.237 OA
ATOM     77  O   UNL A   1      42.821  19.629  24.986  1.00  0.00    -0.237 OA
ATOM     78  O   UNL A   1      42.276  18.760  27.229  1.00  0.00    -0.744 OA
ENDBRANCH  74  75
ENDBRANCH  53  67
BRANCH  54  79
ATOM     79  C   UNL A   1      44.557  33.018  31.487  1.00  0.00     0.058 A 
ATOM     80  C   UNL A   1      44.256  33.334  32.820  1.00  0.00     0.135 A 
ATOM     81  C   UNL A   1      45.123  34.026  30.690  1.00  0.00     0.135 A 
ATOM     82  F   UNL A   1      43.697  32.413  33.619  1.00  0.00    -0.206 F 
ATOM     83  C   UNL A   1      44.499  34.601  33.342  1.00  0.00     0.059 A 
ATOM     84  C   UNL A   1      45.403  35.291  31.197  1.00  0.00     0.059 A 
ATOM     85  F   UNL A   1      45.434  33.774  29.408  1.00  0.00    -0.206 F 
ATOM     86  C   UNL A   1      45.082  35.570  32.524  1.00  0.00     0.060 A 
BRANCH  86  87
ATOM     87  S   UNL A   1      45.455  37.189  33.234  1.00  0.00     0.124 S 
ATOM     88  O   UNL A   1      46.041  36.820  34.518  1.00  0.00    -0.237 OA
ATOM     89  O   UNL A   1      46.376  37.747  32.249  1.00  0.00    -0.237 OA
ATOM     90  O   UNL A   1      44.149  37.837  33.298  1.00  0.00    -0.744 OA
ENDBRANCH  86  87
ENDBRANCH  54  79
BRANCH  66  91
ATOM     91  C   UNL A   1      48.486  27.290  30.725  1.00  0.00     0.058 A 
ATOM     92  C   UNL A   1      48.889  26.691  31.929  1.00  0.00     0.135 A 
ATOM     93  C   UNL A   1      49.477  27.553  29.763  1.00  0.00     0.135 A 
ATOM     94  F   UNL A   1      47.988  26.420  32.885  1.00  0.00    -0.206 F 
ATOM     95  C   UNL A   1      50.224  26.386  32.177  1.00  0.00     0.059 A 
ATOM     96  C   UNL A   1      50.812  27.227  29.977  1.00  0.00     0.059 A 
ATOM     97  F   UNL A   1      49.146  28.114  28.588  1.00  0.00    -0.206 F 
ATOM     98  C   UNL A   1      51.178  26.655  31.194  1.00  0.00     0.060 A 
BRANCH  98  99
ATOM     99  S   UNL A   1      52.901  26.221  31.517  1.00  0.00     0.124 S 
ATOM    100  O   UNL A   1      53.204  27.060  32.673  1.00  0.00    -0.237 OA
ATOM    101  O   UNL A   1      52.817  24.787  31.779  1.00  0.00    -0.237 OA
ATOM    102  O   UNL A   1      53.584  26.587  30.280  1.00  0.00    -0.744 OA
ENDBRANCH  98  99
ENDBRANCH  66  91
ENDBRANCH  40  41
ENDBRANCH  33  35
ENDBRANCH  32  33
ENDBRANCH  31  32
ENDBRANCH  30  31
ENDBRANCH  29  30
ENDBRANCH  28  29
ENDBRANCH   1  28
TORSDOF 25
ENDMDL
MODEL 3
REMARK VINA RESULT:      -7.6      3.806      5.732
REMARK SMILES CC(C)N1C[C@@H](C(=O)N2CCC(C(=O)OCCOCCOCCOCCOC(=O)c3ccc(-c4c5nc(c(-c6c(F)cc(S(=O)(=O)[O-])cc6F)c6ccc([nH]6)c(-c6c(F)cc(S(=O)(=O)[O-])cc6F)c6nc(c(-c7c(F)cc(S(=O)(=O)[O-])cc7F)c7ccc4[nH]7)C=C6)C=C5)cc3)CC2)CC1=O
REMARK SMILES IDX 22 1 21 2 20 3 19 4 18 5 17 6 16 7 15 8 13 9 14 10 12 11
REMARK SMILES IDX 7 12 8 13 9 14 10 15 97 16 11 17 96 18 6 19 4 20 5 21 99 22
REMARK SMILES IDX 98 23 100 24 2 25 1 26 3 27 23 28 24 29 25 30 26 31 27 32
REMARK SMILES IDX 28 33 29 34 30 35 31 36 95 37 32 38 94 39 33 40 34 41 35 42
REMARK SMILES IDX 88 43 36 44 93 45 87 46 89 47 37 48 92 49 86 50 85 51 38 53
REMARK SMILES IDX 72 54 51 55 71 56 52 57 55 58 70 59 90 60 53 61 54 62 69 64
REMARK SMILES IDX 91 65 56 66 39 67 40 68 49 69 41 70 42 71 48 72 50 73 43 74
REMARK SMILES IDX 44 75 45 76 46 77 47 78 73 79 74 80 83 81 75 82 76 83 82 84
REMARK SMILES IDX 84 85 77 86 78 87 79 88 80 89 81 90 57 91 58 92 67 93 59 94
REMARK SMILES IDX 60 95 66 96 68 97 61 98 62 99 63 100 64 101 65 102
REMARK H PARENT 89 52 55 63
REMARK Flexibility Score: inf
ROOT
ATOM      1  C   UNL A   1      32.994  35.194  29.954  1.00  0.00     0.188 C 
ENDROOT
BRANCH   1   2
ATOM      2  O   UNL A   1      33.274  36.540  30.327  1.00  0.00    -0.377 OA
BRANCH   2   3
ATOM      3  C   UNL A   1      32.872  36.975  31.608  1.00  0.00     0.188 C 
BRANCH   3   4
ATOM      4  C   UNL A   1      33.998  37.433  32.542  1.00  0.00     0.188 C 
BRANCH   4   5
ATOM      5  O   UNL A   1      34.608  36.554  33.470  1.00  0.00    -0.376 OA
BRANCH   5   6
ATOM      6  C   UNL A   1      34.504  35.142  33.363  1.00  0.00     0.202 C 
BRANCH   6   7
ATOM      7  C   UNL A   1      35.584  34.254  32.725  1.00  0.00     0.261 C 
BRANCH   7   8
ATOM      8  O   UNL A   1      36.871  34.243  33.359  1.00  0.00    -0.463 OA
BRANCH   8   9
ATOM      9  C   UNL A   1      37.144  33.144  34.089  1.00  0.00     0.309 C 
ATOM     10  O   UNL A   1      36.602  32.052  33.938  1.00  0.00    -0.252 OA
BRANCH   9  11
ATOM     11  C   UNL A   1      38.169  33.353  35.180  1.00  0.00     0.103 C 
ATOM     12  C   UNL A   1      39.491  35.780  38.128  1.00  0.00     0.227 C 
ATOM     13  O   UNL A   1      39.785  36.798  37.492  1.00  0.00    -0.274 OA
ATOM     14  N   UNL A   1      39.391  34.556  37.492  1.00  0.00    -0.342 N 
ATOM     15  C   UNL A   1      40.156  34.383  36.266  1.00  0.00     0.120 C 
ATOM     16  C   UNL A   1      38.313  33.592  37.674  1.00  0.00     0.120 C 
ATOM     17  C   UNL A   1      39.245  34.441  35.046  1.00  0.00     0.037 C 
ATOM     18  C   UNL A   1      37.383  33.596  36.468  1.00  0.00     0.037 C 
BRANCH  12  19
ATOM     19  C   UNL A   1      39.570  35.836  39.644  1.00  0.00     0.107 C 
ATOM     20  N   UNL A   1      39.348  34.316  41.427  1.00  0.00    -0.339 N 
ATOM     21  C   UNL A   1      39.984  34.459  40.145  1.00  0.00     0.133 C 
ATOM     22  C   UNL A   1      38.408  35.302  41.666  1.00  0.00     0.223 C 
ATOM     23  C   UNL A   1      38.396  36.263  40.508  1.00  0.00     0.115 C 
ATOM     24  O   UNL A   1      37.686  35.388  42.648  1.00  0.00    -0.275 OA
BRANCH  20  25
ATOM     25  C   UNL A   1      39.650  33.246  42.378  1.00  0.00     0.078 C 
ATOM     26  C   UNL A   1      40.185  31.968  41.728  1.00  0.00     0.031 C 
ATOM     27  C   UNL A   1      40.633  33.750  43.435  1.00  0.00     0.031 C 
ENDBRANCH  20  25
ENDBRANCH  12  19
ENDBRANCH   9  11
ENDBRANCH   8   9
ENDBRANCH   7   8
ENDBRANCH   6   7
ENDBRANCH   5   6
ENDBRANCH   4   5
ENDBRANCH   3   4
ENDBRANCH   2   3
ENDBRANCH   1   2
BRANCH   1  28
ATOM     28  C   UNL A   1      33.338  34.739  28.522  1.00  0.00     0.188 C 
BRANCH  28  29
ATOM     29  O   UNL A   1      34.721  34.807  28.203  1.00  0.00    -0.376 OA
BRANCH  29  30
ATOM     30  C   UNL A   1      35.461  33.602  28.073  1.00  0.00     0.202 C 
BRANCH  30  31
ATOM     31  C   UNL A   1      34.698  32.266  28.020  1.00  0.00     0.261 C 
BRANCH  31  32
ATOM     32  O   UNL A   1      34.991  31.306  29.048  1.00  0.00    -0.460 OA
BRANCH  32  33
ATOM     33  C   UNL A   1      35.617  30.164  28.699  1.00  0.00     0.338 C 
ATOM     34  O   UNL A   1      35.292  29.393  27.810  1.00  0.00    -0.246 OA
BRANCH  33  35
ATOM     35  C   UNL A   1      36.893  30.105  29.440  1.00  0.00     0.060 A 
ATOM     36  C   UNL A   1      37.978  30.866  28.984  1.00  0.00     0.016 A 
ATOM     37  C   UNL A   1      37.023  29.297  30.571  1.00  0.00     0.016 A 
ATOM     38  C   UNL A   1      39.208  30.788  29.633  1.00  0.00     0.010 A 
ATOM     39  C   UNL A   1      38.265  29.201  31.207  1.00  0.00     0.010 A 
ATOM     40  C   UNL A   1      39.372  29.916  30.717  1.00  0.00    -0.014 A 
BRANCH  40  41
ATOM     41  C   UNL A   1      40.737  29.591  31.196  1.00  0.00     0.031 A 
ATOM     42  C   UNL A   1      41.475  28.462  30.528  1.00  0.00     0.074 A 
ATOM     43  C   UNL A   1      41.325  30.299  32.177  1.00  0.00     0.049 A 
ATOM     44  N   UNL A   1      42.647  27.955  30.804  1.00  0.00    -0.248 NA
ATOM     45  C   UNL A   1      40.794  27.819  29.391  1.00  0.00     0.031 C 
ATOM     46  C   UNL A   1      40.736  31.448  32.860  1.00  0.00     0.029 A 
ATOM     47  N   UNL A   1      42.553  30.146  32.771  1.00  0.00    -0.354 N 
ATOM     48  C   UNL A   1      42.843  26.933  29.883  1.00  0.00     0.074 A 
ATOM     49  C   UNL A   1      41.655  26.868  29.061  1.00  0.00     0.031 C 
ATOM     50  C   UNL A   1      41.601  31.893  33.788  1.00  0.00     0.029 A 
ATOM     51  C   UNL A   1      42.787  31.037  33.792  1.00  0.00     0.049 A 
ATOM     52  H   UNL A   1      43.205  29.463  32.493  1.00  0.00     0.167 HD
ATOM     53  C   UNL A   1      43.922  26.129  29.728  1.00  0.00     0.037 A 
ATOM     54  C   UNL A   1      43.828  31.132  34.644  1.00  0.00     0.037 A 
ATOM     55  C   UNL A   1      45.097  26.195  30.555  1.00  0.00     0.049 A 
ATOM     56  C   UNL A   1      44.979  30.166  34.512  1.00  0.00     0.074 A 
ATOM     57  C   UNL A   1      46.242  25.421  30.485  1.00  0.00     0.029 A 
ATOM     58  N   UNL A   1      45.278  27.082  31.606  1.00  0.00    -0.354 N 
ATOM     59  N   UNL A   1      45.153  29.201  33.640  1.00  0.00    -0.248 NA
ATOM     60  C   UNL A   1      46.077  30.303  35.480  1.00  0.00     0.031 C 
ATOM     61  C   UNL A   1      47.092  25.803  31.528  1.00  0.00     0.029 A 
ATOM     62  C   UNL A   1      46.506  26.860  32.207  1.00  0.00     0.049 A 
ATOM     63  H   UNL A   1      44.630  27.769  31.884  1.00  0.00     0.167 HD
ATOM     64  C   UNL A   1      46.393  28.639  33.932  1.00  0.00     0.074 A 
ATOM     65  C   UNL A   1      46.929  29.378  35.058  1.00  0.00     0.031 C 
ATOM     66  C   UNL A   1      47.032  27.609  33.322  1.00  0.00     0.037 A 
BRANCH  53  67
ATOM     67  C   UNL A   1      43.868  25.093  28.638  1.00  0.00     0.058 A 
ATOM     68  C   UNL A   1      43.473  23.770  28.893  1.00  0.00     0.135 A 
ATOM     69  C   UNL A   1      44.181  25.437  27.313  1.00  0.00     0.135 A 
ATOM     70  F   UNL A   1      43.184  23.379  30.144  1.00  0.00    -0.206 F 
ATOM     71  C   UNL A   1      43.409  22.821  27.878  1.00  0.00     0.059 A 
ATOM     72  C   UNL A   1      44.095  24.513  26.277  1.00  0.00     0.059 A 
ATOM     73  F   UNL A   1      44.573  26.686  27.013  1.00  0.00    -0.206 F 
ATOM     74  C   UNL A   1      43.719  23.203  26.571  1.00  0.00     0.060 A 
BRANCH  74  75
ATOM     75  S   UNL A   1      43.613  21.964  25.264  1.00  0.00     0.124 S 
ATOM     76  O   UNL A   1      42.310  21.365  25.533  1.00  0.00    -0.237 OA
ATOM     77  O   UNL A   1      43.698  22.779  24.055  1.00  0.00    -0.237 OA
ATOM     78  O   UNL A   1      44.763  21.102  25.517  1.00  0.00    -0.744 OA
ENDBRANCH  74  75
ENDBRANCH  53  67
BRANCH  54  79
ATOM     79  C   UNL A   1      43.831  32.180  35.701  1.00  0.00     0.058 A 
ATOM     80  C   UNL A   1      44.427  33.430  35.480  1.00  0.00     0.135 A 
ATOM     81  C   UNL A   1      43.234  31.955  36.951  1.00  0.00     0.135 A 
ATOM     82  F   UNL A   1      45.028  33.689  34.308  1.00  0.00    -0.206 F 
ATOM     83  C   UNL A   1      44.439  34.418  36.460  1.00  0.00     0.059 A 
ATOM     84  C   UNL A   1      43.206  32.937  37.938  1.00  0.00     0.059 A 
ATOM     85  F   UNL A   1      42.645  30.778  37.213  1.00  0.00    -0.206 F 
ATOM     86  C   UNL A   1      43.816  34.163  37.684  1.00  0.00     0.060 A 
BRANCH  86  87
ATOM     87  S   UNL A   1      43.779  35.478  38.922  1.00  0.00     0.124 S 
ATOM     88  O   UNL A   1      43.303  34.761  40.100  1.00  0.00    -0.237 OA
ATOM     89  O   UNL A   1      45.175  35.903  38.955  1.00  0.00    -0.237 OA
ATOM     90  O   UNL A   1      42.848  36.449  38.354  1.00  0.00    -0.744 OA
ENDBRANCH  86  87
ENDBRANCH  54  79
BRANCH  66  91
ATOM     91  C   UNL A   1      48.404  27.241  33.822  1.00  0.00     0.058 A 
ATOM     92  C   UNL A   1      49.563  27.877  33.351  1.00  0.00     0.135 A 
ATOM     93  C   UNL A   1      48.553  26.278  34.836  1.00  0.00     0.135 A 
ATOM     94  F   UNL A   1      49.482  28.801  32.382  1.00  0.00    -0.206 F 
ATOM     95  C   UNL A   1      50.822  27.555  33.849  1.00  0.00     0.059 A 
ATOM     96  C   UNL A   1      49.799  25.964  35.371  1.00  0.00     0.059 A 
ATOM     97  F   UNL A   1      47.477  25.647  35.333  1.00  0.00    -0.206 F 
ATOM     98  C   UNL A   1      50.930  26.599  34.862  1.00  0.00     0.060 A 
BRANCH  98  99
ATOM     99  S   UNL A   1      52.566  26.218  35.522  1.00  0.00     0.124 S 
ATOM    100  O   UNL A   1      53.308  25.900  34.306  1.00  0.00    -0.237 OA
ATOM    101  O   UNL A   1      52.935  27.467  36.181  1.00  0.00    -0.237 OA
ATOM    102  O   UNL A   1      52.319  25.092  36.418  1.00  0.00    -0.744 OA
ENDBRANCH  98  99
ENDBRANCH  66  91
ENDBRANCH  40  41
ENDBRANCH  33  35
ENDBRANCH  32  33
ENDBRANCH  31  32
ENDBRANCH  30  31
ENDBRANCH  29  30
ENDBRANCH  28  29
ENDBRANCH   1  28
TORSDOF 25
ENDMDL
