MODEL 1
REMARK VINA RESULT:      -9.1      0.000      0.000
REMARK SMILES O=C(OCCOCCOCCOCCOC(=O)[C@H]1CCCN(c2cc(-c3ccccn3)nc(-c3ccccc3F)n2)C1)c1ccc(-c2c3nc(c(-c4c(F)cc(S(=O)(=O)[O-])cc4F)c4ccc([nH]4)c(-c4c(F)cc(S(=O)(=O)[O-])cc4F)c4nc(c(-c5c(F)cc(S(=O)(=O)[O-])cc5F)c5ccc2[nH]5)C=C4)C=C3)cc1
REMARK SMILES IDX 8 1 7 2 6 3 5 4 4 5 3 6 2 7 1 8 43 9 44 10 108 11 45 12
REMARK SMILES IDX 107 13 46 14 47 15 48 16 101 17 49 18 106 19 100 20 102 21
REMARK SMILES IDX 50 22 105 23 99 24 98 25 51 27 85 28 64 29 84 30 65 31 68 32
REMARK SMILES IDX 83 33 103 34 66 35 67 36 82 38 104 39 69 40 52 41 53 42
REMARK SMILES IDX 62 43 54 44 55 45 61 46 63 47 56 48 57 49 58 50 59 51 60 52
REMARK SMILES IDX 86 53 87 54 96 55 88 56 89 57 95 58 97 59 90 60 91 61 92 62
REMARK SMILES IDX 93 63 94 64 70 65 71 66 80 67 72 68 73 69 79 70 81 71 74 72
REMARK SMILES IDX 75 73 76 74 77 75 78 76 9 77 10 78 11 79 12 80 13 81 14 82
REMARK SMILES IDX 15 83 16 84 17 85 18 86 19 87 42 88 20 89 22 90 21 91 23 92
REMARK SMILES IDX 24 93 41 94 25 95 33 96 32 97 26 98 27 99 31 100 28 101
REMARK SMILES IDX 30 102 29 103 34 104 35 105 39 106 36 107 38 108 40 109
REMARK SMILES IDX 37 110
REMARK H PARENT 102 26 68 37
REMARK Flexibility Score: inf
ROOT
ATOM      1  C   UNL A   1      38.201  21.480  25.463  1.00  0.00     0.188 C 
ENDROOT
BRANCH   1   2
ATOM      2  C   UNL A   1      39.455  21.930  26.180  1.00  0.00     0.188 C 
BRANCH   2   3
ATOM      3  O   UNL A   1      40.030  20.827  26.851  1.00  0.00    -0.376 OA
BRANCH   3   4
ATOM      4  C   UNL A   1      40.394  19.665  26.121  1.00  0.00     0.202 C 
BRANCH   4   5
ATOM      5  C   UNL A   1      41.866  19.285  26.126  1.00  0.00     0.261 C 
BRANCH   5   6
ATOM      6  O   UNL A   1      42.804  20.316  26.498  1.00  0.00    -0.460 OA
BRANCH   6   7
ATOM      7  C   UNL A   1      43.463  21.260  25.788  1.00  0.00     0.338 C 
ATOM      8  O   UNL A   1      43.781  21.002  24.627  1.00  0.00    -0.246 OA
BRANCH   7   9
ATOM      9  C   UNL A   1      43.822  22.601  26.318  1.00  0.00     0.060 A 
ATOM     10  C   UNL A   1      43.679  23.787  25.616  1.00  0.00     0.016 A 
ATOM     11  C   UNL A   1      44.237  22.691  27.652  1.00  0.00     0.016 A 
ATOM     12  C   UNL A   1      44.112  24.995  26.099  1.00  0.00     0.010 A 
ATOM     13  C   UNL A   1      44.595  23.927  28.201  1.00  0.00     0.010 A 
ATOM     14  C   UNL A   1      44.589  25.069  27.392  1.00  0.00    -0.014 A 
BRANCH  14  15
ATOM     15  C   UNL A   1      45.293  26.309  27.726  1.00  0.00     0.031 A 
ATOM     16  C   UNL A   1      44.545  27.294  28.568  1.00  0.00     0.074 A 
ATOM     17  C   UNL A   1      46.618  26.400  27.508  1.00  0.00     0.049 A 
ATOM     18  N   UNL A   1      44.903  28.478  28.967  1.00  0.00    -0.248 NA
ATOM     19  C   UNL A   1      43.210  26.876  29.045  1.00  0.00     0.031 C 
ATOM     20  C   UNL A   1      47.450  25.350  26.902  1.00  0.00     0.029 A 
ATOM     21  N   UNL A   1      47.509  27.383  27.826  1.00  0.00    -0.354 N 
ATOM     22  C   UNL A   1      43.824  28.965  29.693  1.00  0.00     0.074 A 
ATOM     23  C   UNL A   1      42.793  27.958  29.680  1.00  0.00     0.031 C 
ATOM     24  C   UNL A   1      48.734  25.738  26.927  1.00  0.00     0.029 A 
ATOM     25  C   UNL A   1      48.798  27.095  27.450  1.00  0.00     0.049 A 
ATOM     26  H   UNL A   1      47.253  28.217  28.281  1.00  0.00     0.167 HD
ATOM     27  C   UNL A   1      43.722  30.161  30.310  1.00  0.00     0.037 A 
ATOM     28  C   UNL A   1      49.893  27.876  27.487  1.00  0.00     0.037 A 
ATOM     29  C   UNL A   1      44.792  31.116  30.298  1.00  0.00     0.049 A 
ATOM     30  C   UNL A   1      49.716  29.263  28.039  1.00  0.00     0.074 A 
ATOM     31  C   UNL A   1      44.805  32.412  30.768  1.00  0.00     0.029 A 
ATOM     32  N   UNL A   1      46.060  30.855  29.782  1.00  0.00    -0.354 N 
ATOM     33  N   UNL A   1      48.645  29.797  28.583  1.00  0.00    -0.248 NA
ATOM     34  C   UNL A   1      50.869  30.162  27.961  1.00  0.00     0.031 C 
ATOM     35  C   UNL A   1      46.066  32.951  30.491  1.00  0.00     0.029 A 
ATOM     36  C   UNL A   1      46.860  31.972  29.907  1.00  0.00     0.049 A 
ATOM     37  H   UNL A   1      46.343  29.998  29.387  1.00  0.00     0.167 HD
ATOM     38  C   UNL A   1      48.996  31.094  28.928  1.00  0.00     0.074 A 
ATOM     39  C   UNL A   1      50.388  31.254  28.541  1.00  0.00     0.031 C 
ATOM     40  C   UNL A   1      48.245  32.067  29.505  1.00  0.00     0.037 A 
BRANCH  27  41
ATOM     41  C   UNL A   1      42.400  30.497  30.936  1.00  0.00     0.058 A 
ATOM     42  C   UNL A   1      42.121  30.083  32.249  1.00  0.00     0.135 A 
ATOM     43  C   UNL A   1      41.436  31.282  30.280  1.00  0.00     0.135 A 
ATOM     44  F   UNL A   1      43.020  29.360  32.935  1.00  0.00    -0.206 F 
ATOM     45  C   UNL A   1      40.934  30.427  32.886  1.00  0.00     0.059 A 
ATOM     46  C   UNL A   1      40.252  31.662  30.909  1.00  0.00     0.059 A 
ATOM     47  F   UNL A   1      41.673  31.752  29.045  1.00  0.00    -0.206 F 
ATOM     48  C   UNL A   1      40.007  31.222  32.210  1.00  0.00     0.060 A 
BRANCH  48  49
ATOM     49  S   UNL A   1      38.502  31.712  33.079  1.00  0.00     0.124 S 
ATOM     50  O   UNL A   1      38.994  32.775  33.949  1.00  0.00    -0.237 OA
ATOM     51  O   UNL A   1      37.638  32.136  31.981  1.00  0.00    -0.237 OA
ATOM     52  O   UNL A   1      38.086  30.486  33.754  1.00  0.00    -0.744 OA
ENDBRANCH  48  49
ENDBRANCH  27  41
BRANCH  28  53
ATOM     53  C   UNL A   1      51.185  27.379  26.940  1.00  0.00     0.058 A 
ATOM     54  C   UNL A   1      51.478  27.480  25.567  1.00  0.00     0.135 A 
ATOM     55  C   UNL A   1      52.131  26.746  27.757  1.00  0.00     0.135 A 
ATOM     56  F   UNL A   1      50.610  28.073  24.733  1.00  0.00    -0.206 F 
ATOM     57  C   UNL A   1      52.637  26.937  25.022  1.00  0.00     0.059 A 
ATOM     58  C   UNL A   1      53.314  26.220  27.239  1.00  0.00     0.059 A 
ATOM     59  F   UNL A   1      51.908  26.632  29.075  1.00  0.00    -0.206 F 
ATOM     60  C   UNL A   1      53.548  26.305  25.866  1.00  0.00     0.060 A 
BRANCH  60  61
ATOM     61  S   UNL A   1      55.036  25.594  25.129  1.00  0.00     0.124 S 
ATOM     62  O   UNL A   1      54.666  24.188  25.017  1.00  0.00    -0.237 OA
ATOM     63  O   UNL A   1      55.135  26.328  23.874  1.00  0.00    -0.237 OA
ATOM     64  O   UNL A   1      56.077  25.893  26.113  1.00  0.00    -0.744 OA
ENDBRANCH  60  61
ENDBRANCH  28  53
BRANCH  40  65
ATOM     65  C   UNL A   1      48.925  33.373  29.777  1.00  0.00     0.058 A 
ATOM     66  C   UNL A   1      48.927  34.378  28.797  1.00  0.00     0.135 A 
ATOM     67  C   UNL A   1      49.654  33.589  30.955  1.00  0.00     0.135 A 
ATOM     68  F   UNL A   1      48.251  34.209  27.650  1.00  0.00    -0.206 F 
ATOM     69  C   UNL A   1      49.653  35.548  28.967  1.00  0.00     0.059 A 
ATOM     70  C   UNL A   1      50.361  34.767  31.159  1.00  0.00     0.059 A 
ATOM     71  F   UNL A   1      49.671  32.656  31.921  1.00  0.00    -0.206 F 
ATOM     72  C   UNL A   1      50.370  35.731  30.150  1.00  0.00     0.060 A 
BRANCH  72  73
ATOM     73  S   UNL A   1      51.302  37.260  30.354  1.00  0.00     0.124 S 
ATOM     74  O   UNL A   1      50.354  38.090  31.088  1.00  0.00    -0.237 OA
ATOM     75  O   UNL A   1      52.468  36.809  31.107  1.00  0.00    -0.237 OA
ATOM     76  O   UNL A   1      51.574  37.676  28.981  1.00  0.00    -0.744 OA
ENDBRANCH  72  73
ENDBRANCH  40  65
ENDBRANCH  14  15
ENDBRANCH   7   9
ENDBRANCH   6   7
ENDBRANCH   5   6
ENDBRANCH   4   5
ENDBRANCH   3   4
ENDBRANCH   2   3
ENDBRANCH   1   2
BRANCH   1  77
ATOM     77  O   UNL A   1      37.401  22.553  24.997  1.00  0.00    -0.377 OA
BRANCH  77  78
ATOM     78  C   UNL A   1      36.348  22.291  24.077  1.00  0.00     0.188 C 
BRANCH  78  79
ATOM     79  C   UNL A   1      34.939  21.945  24.598  1.00  0.00     0.188 C 
BRANCH  79  80
ATOM     80  O   UNL A   1      34.529  22.704  25.714  1.00  0.00    -0.376 OA
BRANCH  80  81
ATOM     81  C   UNL A   1      33.141  22.870  25.984  1.00  0.00     0.202 C 
BRANCH  81  82
ATOM     82  C   UNL A   1      32.301  24.067  25.481  1.00  0.00     0.261 C 
BRANCH  82  83
ATOM     83  O   UNL A   1      32.742  25.367  25.900  1.00  0.00    -0.463 OA
BRANCH  83  84
ATOM     84  C   UNL A   1      33.368  26.122  24.957  1.00  0.00     0.310 C 
ATOM     85  O   UNL A   1      34.021  25.654  24.031  1.00  0.00    -0.252 OA
BRANCH  84  86
ATOM     86  C   UNL A   1      33.022  27.598  25.055  1.00  0.00     0.118 C 
ATOM     87  C   UNL A   1      31.556  28.016  24.834  1.00  0.00     0.019 C 
ATOM     88  C   UNL A   1      33.488  28.125  26.400  1.00  0.00     0.133 C 
ATOM     89  C   UNL A   1      31.403  29.542  24.909  1.00  0.00     0.022 C 
ATOM     90  N   UNL A   1      33.266  29.572  26.419  1.00  0.00    -0.356 N 
ATOM     91  C   UNL A   1      31.902  30.043  26.257  1.00  0.00     0.118 C 
BRANCH  90  92
ATOM     92  C   UNL A   1      34.160  30.244  27.222  1.00  0.00     0.133 A 
ATOM     93  C   UNL A   1      33.883  31.517  27.637  1.00  0.00     0.077 A 
ATOM     94  N   UNL A   1      35.216  29.559  27.682  1.00  0.00    -0.211 NA
ATOM     95  C   UNL A   1      34.703  32.047  28.607  1.00  0.00     0.095 A 
ATOM     96  C   UNL A   1      35.984  30.162  28.603  1.00  0.00     0.165 A 
ATOM     97  N   UNL A   1      35.770  31.390  29.101  1.00  0.00    -0.226 NA
BRANCH  95  98
ATOM     98  C   UNL A   1      34.354  33.345  29.181  1.00  0.00     0.089 A 
ATOM     99  C   UNL A   1      34.771  33.682  30.472  1.00  0.00     0.030 A 
ATOM    100  N   UNL A   1      33.481  34.105  28.476  1.00  0.00    -0.255 NA
ATOM    101  C   UNL A   1      34.270  34.833  31.064  1.00  0.00     0.004 A 
ATOM    102  C   UNL A   1      33.026  35.228  29.069  1.00  0.00     0.112 A 
ATOM    103  C   UNL A   1      33.378  35.622  30.349  1.00  0.00     0.020 A 
ENDBRANCH  95  98
BRANCH  96 104
ATOM    104  C   UNL A   1      37.149  29.427  29.080  1.00  0.00     0.055 A 
ATOM    105  C   UNL A   1      38.194  29.069  28.208  1.00  0.00     0.015 A 
ATOM    106  C   UNL A   1      37.267  29.059  30.423  1.00  0.00     0.134 A 
ATOM    107  C   UNL A   1      39.333  28.409  28.682  1.00  0.00     0.001 A 
ATOM    108  C   UNL A   1      38.395  28.391  30.901  1.00  0.00     0.040 A 
ATOM    109  F   UNL A   1      36.277  29.327  31.290  1.00  0.00    -0.206 F 
ATOM    110  C   UNL A   1      39.437  28.076  30.031  1.00  0.00     0.003 A 
ENDBRANCH  96 104
ENDBRANCH  90  92
ENDBRANCH  84  86
ENDBRANCH  83  84
ENDBRANCH  82  83
ENDBRANCH  81  82
ENDBRANCH  80  81
ENDBRANCH  79  80
ENDBRANCH  78  79
ENDBRANCH  77  78
ENDBRANCH   1  77
TORSDOF 26
ENDMDL
MODEL 2
REMARK VINA RESULT:      -8.6      4.302      6.417
REMARK SMILES O=C(OCCOCCOCCOCCOC(=O)[C@H]1CCCN(c2cc(-c3ccccn3)nc(-c3ccccc3F)n2)C1)c1ccc(-c2c3nc(c(-c4c(F)cc(S(=O)(=O)[O-])cc4F)c4ccc([nH]4)c(-c4c(F)cc(S(=O)(=O)[O-])cc4F)c4nc(c(-c5c(F)cc(S(=O)(=O)[O-])cc5F)c5ccc2[nH]5)C=C4)C=C3)cc1
REMARK SMILES IDX 8 1 7 2 6 3 5 4 4 5 3 6 2 7 1 8 43 9 44 10 108 11 45 12
REMARK SMILES IDX 107 13 46 14 47 15 48 16 101 17 49 18 106 19 100 20 102 21
REMARK SMILES IDX 50 22 105 23 99 24 98 25 51 27 85 28 64 29 84 30 65 31 68 32
REMARK SMILES IDX 83 33 103 34 66 35 67 36 82 38 104 39 69 40 52 41 53 42
REMARK SMILES IDX 62 43 54 44 55 45 61 46 63 47 56 48 57 49 58 50 59 51 60 52
REMARK SMILES IDX 86 53 87 54 96 55 88 56 89 57 95 58 97 59 90 60 91 61 92 62
REMARK SMILES IDX 93 63 94 64 70 65 71 66 80 67 72 68 73 69 79 70 81 71 74 72
REMARK SMILES IDX 75 73 76 74 77 75 78 76 9 77 10 78 11 79 12 80 13 81 14 82
REMARK SMILES IDX 15 83 16 84 17 85 18 86 19 87 42 88 20 89 22 90 21 91 23 92
REMARK SMILES IDX 24 93 41 94 25 95 33 96 32 97 26 98 27 99 31 100 28 101
REMARK SMILES IDX 30 102 29 103 34 104 35 105 39 106 36 107 38 108 40 109
REMARK SMILES IDX 37 110
REMARK H PARENT 102 26 68 37
REMARK Flexibility Score: inf
ROOT
ATOM      1  C   UNL A   1      38.459  23.822  26.807  1.00  0.00     0.188 C 
ENDROOT
BRANCH   1   2
ATOM      2  C   UNL A   1      39.146  25.081  27.290  1.00  0.00     0.188 C 
BRANCH   2   3
ATOM      3  O   UNL A   1      40.297  24.729  28.030  1.00  0.00    -0.376 OA
BRANCH   3   4
ATOM      4  C   UNL A   1      41.345  24.002  27.407  1.00  0.00     0.202 C 
BRANCH   4   5
ATOM      5  C   UNL A   1      42.453  24.816  26.759  1.00  0.00     0.261 C 
BRANCH   5   6
ATOM      6  O   UNL A   1      42.720  26.118  27.320  1.00  0.00    -0.460 OA
BRANCH   6   7
ATOM      7  C   UNL A   1      43.507  26.538  28.337  1.00  0.00     0.338 C 
ATOM      8  O   UNL A   1      44.366  25.768  28.768  1.00  0.00    -0.246 OA
BRANCH   7   9
ATOM      9  C   UNL A   1      43.407  27.880  28.968  1.00  0.00     0.060 A 
ATOM     10  C   UNL A   1      42.676  28.938  28.452  1.00  0.00     0.016 A 
ATOM     11  C   UNL A   1      44.007  28.064  30.219  1.00  0.00     0.016 A 
ATOM     12  C   UNL A   1      42.685  30.191  29.007  1.00  0.00     0.010 A 
ATOM     13  C   UNL A   1      43.951  29.310  30.855  1.00  0.00     0.010 A 
ATOM     14  C   UNL A   1      43.339  30.388  30.207  1.00  0.00    -0.014 A 
BRANCH  14  15
ATOM     15  C   UNL A   1      43.551  31.790  30.577  1.00  0.00     0.031 A 
ATOM     16  C   UNL A   1      42.880  32.255  31.831  1.00  0.00     0.074 A 
ATOM     17  C   UNL A   1      44.513  32.501  29.961  1.00  0.00     0.049 A 
ATOM     18  N   UNL A   1      42.857  33.442  32.362  1.00  0.00    -0.248 NA
ATOM     19  C   UNL A   1      42.146  31.234  32.607  1.00  0.00     0.031 C 
ATOM     20  C   UNL A   1      45.374  32.001  28.880  1.00  0.00     0.029 A 
ATOM     21  N   UNL A   1      44.975  33.764  30.194  1.00  0.00    -0.354 N 
ATOM     22  C   UNL A   1      42.068  33.322  33.499  1.00  0.00     0.074 A 
ATOM     23  C   UNL A   1      41.624  31.954  33.585  1.00  0.00     0.031 C 
ATOM     24  C   UNL A   1      46.281  32.940  28.571  1.00  0.00     0.029 A 
ATOM     25  C   UNL A   1      45.997  34.135  29.355  1.00  0.00     0.049 A 
ATOM     26  H   UNL A   1      44.612  34.351  30.895  1.00  0.00     0.167 HD
ATOM     27  C   UNL A   1      41.751  34.290  34.384  1.00  0.00     0.037 A 
ATOM     28  C   UNL A   1      46.595  35.332  29.214  1.00  0.00     0.037 A 
ATOM     29  C   UNL A   1      42.238  35.632  34.248  1.00  0.00     0.049 A 
ATOM     30  C   UNL A   1      46.112  36.437  30.110  1.00  0.00     0.074 A 
ATOM     31  C   UNL A   1      41.916  36.752  34.985  1.00  0.00     0.029 A 
ATOM     32  N   UNL A   1      43.175  36.026  33.295  1.00  0.00    -0.354 N 
ATOM     33  N   UNL A   1      45.238  36.375  31.090  1.00  0.00    -0.248 NA
ATOM     34  C   UNL A   1      46.664  37.774  29.875  1.00  0.00     0.031 C 
ATOM     35  C   UNL A   1      42.620  37.833  34.446  1.00  0.00     0.029 A 
ATOM     36  C   UNL A   1      43.431  37.377  33.413  1.00  0.00     0.049 A 
ATOM     37  H   UNL A   1      43.593  35.428  32.634  1.00  0.00     0.167 HD
ATOM     38  C   UNL A   1      45.142  37.660  31.601  1.00  0.00     0.074 A 
ATOM     39  C   UNL A   1      46.062  38.476  30.826  1.00  0.00     0.031 C 
ATOM     40  C   UNL A   1      44.366  38.132  32.611  1.00  0.00     0.037 A 
BRANCH  27  41
ATOM     41  C   UNL A   1      40.784  33.930  35.474  1.00  0.00     0.058 A 
ATOM     42  C   UNL A   1      41.262  33.587  36.748  1.00  0.00     0.135 A 
ATOM     43  C   UNL A   1      39.391  33.990  35.292  1.00  0.00     0.135 A 
ATOM     44  F   UNL A   1      42.582  33.548  36.988  1.00  0.00    -0.206 F 
ATOM     45  C   UNL A   1      40.397  33.308  37.801  1.00  0.00     0.059 A 
ATOM     46  C   UNL A   1      38.506  33.741  36.340  1.00  0.00     0.059 A 
ATOM     47  F   UNL A   1      38.879  34.366  34.110  1.00  0.00    -0.206 F 
ATOM     48  C   UNL A   1      39.020  33.392  37.589  1.00  0.00     0.060 A 
BRANCH  48  49
ATOM     49  S   UNL A   1      37.917  33.091  38.986  1.00  0.00     0.124 S 
ATOM     50  O   UNL A   1      38.491  31.882  39.564  1.00  0.00    -0.237 OA
ATOM     51  O   UNL A   1      38.078  34.311  39.771  1.00  0.00    -0.237 OA
ATOM     52  O   UNL A   1      36.609  32.931  38.356  1.00  0.00    -0.744 OA
ENDBRANCH  48  49
ENDBRANCH  27  41
BRANCH  28  53
ATOM     53  C   UNL A   1      47.634  35.531  28.167  1.00  0.00     0.058 A 
ATOM     54  C   UNL A   1      47.300  36.047  26.901  1.00  0.00     0.135 A 
ATOM     55  C   UNL A   1      48.969  35.162  28.381  1.00  0.00     0.135 A 
ATOM     56  F   UNL A   1      46.036  36.415  26.635  1.00  0.00    -0.206 F 
ATOM     57  C   UNL A   1      48.237  36.152  25.880  1.00  0.00     0.059 A 
ATOM     58  C   UNL A   1      49.934  35.285  27.382  1.00  0.00     0.059 A 
ATOM     59  F   UNL A   1      49.345  34.674  29.573  1.00  0.00    -0.206 F 
ATOM     60  C   UNL A   1      49.553  35.764  26.129  1.00  0.00     0.060 A 
BRANCH  60  61
ATOM     61  S   UNL A   1      50.745  35.894  24.778  1.00  0.00     0.124 S 
ATOM     62  O   UNL A   1      50.003  36.687  23.806  1.00  0.00    -0.237 OA
ATOM     63  O   UNL A   1      51.866  36.564  25.424  1.00  0.00    -0.237 OA
ATOM     64  O   UNL A   1      50.982  34.499  24.402  1.00  0.00    -0.744 OA
ENDBRANCH  60  61
ENDBRANCH  28  53
BRANCH  40  65
ATOM     65  C   UNL A   1      44.506  39.584  32.949  1.00  0.00     0.058 A 
ATOM     66  C   UNL A   1      43.666  40.529  32.339  1.00  0.00     0.135 A 
ATOM     67  C   UNL A   1      45.529  40.046  33.790  1.00  0.00     0.135 A 
ATOM     68  F   UNL A   1      42.680  40.131  31.519  1.00  0.00    -0.206 F 
ATOM     69  C   UNL A   1      43.852  41.889  32.533  1.00  0.00     0.059 A 
ATOM     70  C   UNL A   1      45.711  41.403  34.024  1.00  0.00     0.059 A 
ATOM     71  F   UNL A   1      46.348  39.175  34.400  1.00  0.00    -0.206 F 
ATOM     72  C   UNL A   1      44.880  42.317  33.375  1.00  0.00     0.060 A 
BRANCH  72  73
ATOM     73  S   UNL A   1      45.102  44.088  33.618  1.00  0.00     0.124 S 
ATOM     74  O   UNL A   1      44.903  44.601  32.266  1.00  0.00    -0.237 OA
ATOM     75  O   UNL A   1      44.047  44.400  34.577  1.00  0.00    -0.237 OA
ATOM     76  O   UNL A   1      46.463  44.191  34.136  1.00  0.00    -0.744 OA
ENDBRANCH  72  73
ENDBRANCH  40  65
ENDBRANCH  14  15
ENDBRANCH   7   9
ENDBRANCH   6   7
ENDBRANCH   5   6
ENDBRANCH   4   5
ENDBRANCH   3   4
ENDBRANCH   2   3
ENDBRANCH   1   2
BRANCH   1  77
ATOM     77  O   UNL A   1      37.632  24.028  25.674  1.00  0.00    -0.377 OA
BRANCH  77  78
ATOM     78  C   UNL A   1      36.923  22.928  25.117  1.00  0.00     0.188 C 
BRANCH  78  79
ATOM     79  C   UNL A   1      35.658  22.394  25.817  1.00  0.00     0.188 C 
BRANCH  79  80
ATOM     80  O   UNL A   1      34.775  23.397  26.268  1.00  0.00    -0.376 OA
BRANCH  80  81
ATOM     81  C   UNL A   1      33.719  23.841  25.422  1.00  0.00     0.202 C 
BRANCH  81  82
ATOM     82  C   UNL A   1      33.842  25.026  24.437  1.00  0.00     0.261 C 
BRANCH  82  83
ATOM     83  O   UNL A   1      33.753  26.338  25.014  1.00  0.00    -0.463 OA
BRANCH  83  84
ATOM     84  C   UNL A   1      33.764  27.380  24.140  1.00  0.00     0.310 C 
ATOM     85  O   UNL A   1      34.022  27.269  22.947  1.00  0.00    -0.252 OA
BRANCH  84  86
ATOM     86  C   UNL A   1      33.238  28.669  24.751  1.00  0.00     0.118 C 
ATOM     87  C   UNL A   1      31.713  28.879  24.801  1.00  0.00     0.019 C 
ATOM     88  C   UNL A   1      33.803  28.816  26.152  1.00  0.00     0.133 C 
ATOM     89  C   UNL A   1      31.368  30.254  25.391  1.00  0.00     0.022 C 
ATOM     90  N   UNL A   1      33.393  30.123  26.669  1.00  0.00    -0.356 N 
ATOM     91  C   UNL A   1      31.968  30.382  26.783  1.00  0.00     0.118 C 
BRANCH  90  92
ATOM     92  C   UNL A   1      34.287  30.649  27.574  1.00  0.00     0.133 A 
ATOM     93  C   UNL A   1      34.035  31.859  28.159  1.00  0.00     0.077 A 
ATOM     94  N   UNL A   1      35.314  29.877  27.951  1.00  0.00    -0.211 NA
ATOM     95  C   UNL A   1      34.847  32.224  29.208  1.00  0.00     0.095 A 
ATOM     96  C   UNL A   1      36.078  30.322  28.961  1.00  0.00     0.165 A 
ATOM     97  N   UNL A   1      35.885  31.473  29.623  1.00  0.00    -0.226 NA
BRANCH  95  98
ATOM     98  C   UNL A   1      34.519  33.438  29.953  1.00  0.00     0.089 A 
ATOM     99  C   UNL A   1      34.792  33.522  31.321  1.00  0.00     0.030 A 
ATOM    100  N   UNL A   1      33.799  34.378  29.294  1.00  0.00    -0.255 NA
ATOM    101  C   UNL A   1      34.301  34.603  32.041  1.00  0.00     0.004 A 
ATOM    102  C   UNL A   1      33.353  35.427  30.016  1.00  0.00     0.112 A 
ATOM    103  C   UNL A   1      33.566  35.575  31.376  1.00  0.00     0.020 A 
ENDBRANCH  95  98
BRANCH  96 104
ATOM    104  C   UNL A   1      37.213  29.494  29.350  1.00  0.00     0.055 A 
ATOM    105  C   UNL A   1      37.321  28.966  30.650  1.00  0.00     0.015 A 
ATOM    106  C   UNL A   1      38.230  29.193  28.439  1.00  0.00     0.134 A 
ATOM    107  C   UNL A   1      38.386  28.130  31.002  1.00  0.00     0.001 A 
ATOM    108  C   UNL A   1      39.301  28.369  28.786  1.00  0.00     0.040 A 
ATOM    109  F   UNL A   1      38.207  29.712  27.200  1.00  0.00    -0.206 F 
ATOM    110  C   UNL A   1      39.373  27.826  30.066  1.00  0.00     0.003 A 
ENDBRANCH  96 104
ENDBRANCH  90  92
ENDBRANCH  84  86
ENDBRANCH  83  84
ENDBRANCH  82  83
ENDBRANCH  81  82
ENDBRANCH  80  81
ENDBRANCH  79  80
ENDBRANCH  78  79
ENDBRANCH  77  78
ENDBRANCH   1  77
TORSDOF 26
ENDMDL
MODEL 3
REMARK VINA RESULT:      -8.6      4.885      6.959
REMARK SMILES O=C(OCCOCCOCCOCCOC(=O)[C@H]1CCCN(c2cc(-c3ccccn3)nc(-c3ccccc3F)n2)C1)c1ccc(-c2c3nc(c(-c4c(F)cc(S(=O)(=O)[O-])cc4F)c4ccc([nH]4)c(-c4c(F)cc(S(=O)(=O)[O-])cc4F)c4nc(c(-c5c(F)cc(S(=O)(=O)[O-])cc5F)c5ccc2[nH]5)C=C4)C=C3)cc1
REMARK SMILES IDX 8 1 7 2 6 3 5 4 4 5 3 6 2 7 1 8 43 9 44 10 108 11 45 12
REMARK SMILES IDX 107 13 46 14 47 15 48 16 101 17 49 18 106 19 100 20 102 21
REMARK SMILES IDX 50 22 105 23 99 24 98 25 51 27 85 28 64 29 84 30 65 31 68 32
REMARK SMILES IDX 83 33 103 34 66 35 67 36 82 38 104 39 69 40 52 41 53 42
REMARK SMILES IDX 62 43 54 44 55 45 61 46 63 47 56 48 57 49 58 50 59 51 60 52
REMARK SMILES IDX 86 53 87 54 96 55 88 56 89 57 95 58 97 59 90 60 91 61 92 62
REMARK SMILES IDX 93 63 94 64 70 65 71 66 80 67 72 68 73 69 79 70 81 71 74 72
REMARK SMILES IDX 75 73 76 74 77 75 78 76 9 77 10 78 11 79 12 80 13 81 14 82
REMARK SMILES IDX 15 83 16 84 17 85 18 86 19 87 42 88 20 89 22 90 21 91 23 92
REMARK SMILES IDX 24 93 41 94 25 95 33 96 32 97 26 98 27 99 31 100 28 101
REMARK SMILES IDX 30 102 29 103 34 104 35 105 39 106 36 107 38 108 40 109
REMARK SMILES IDX 37 110
REMARK H PARENT 102 26 68 37
REMARK Flexibility Score: inf
ROOT
ATOM      1  C   UNL A   1      37.383  22.979  25.921  1.00  0.00     0.188 C 
ENDROOT
BRANCH   1   2
ATOM      2  C   UNL A   1      38.666  23.745  26.156  1.00  0.00     0.188 C 
BRANCH   2   3
ATOM      3  O   UNL A   1      39.516  22.987  26.991  1.00  0.00    -0.376 OA
BRANCH   3   4
ATOM      4  C   UNL A   1      40.015  21.735  26.546  1.00  0.00     0.202 C 
BRANCH   4   5
ATOM      5  C   UNL A   1      41.499  21.665  26.221  1.00  0.00     0.261 C 
BRANCH   5   6
ATOM      6  O   UNL A   1      42.015  22.659  25.313  1.00  0.00    -0.460 OA
BRANCH   6   7
ATOM      7  C   UNL A   1      43.123  23.435  25.331  1.00  0.00     0.338 C 
ATOM      8  O   UNL A   1      43.931  23.323  24.409  1.00  0.00    -0.246 OA
BRANCH   7   9
ATOM      9  C   UNL A   1      43.427  24.427  26.394  1.00  0.00     0.060 A 
ATOM     10  C   UNL A   1      44.652  25.056  26.555  1.00  0.00     0.016 A 
ATOM     11  C   UNL A   1      42.382  24.836  27.231  1.00  0.00     0.016 A 
ATOM     12  C   UNL A   1      44.927  25.893  27.606  1.00  0.00     0.010 A 
ATOM     13  C   UNL A   1      42.613  25.762  28.254  1.00  0.00     0.010 A 
ATOM     14  C   UNL A   1      43.911  26.238  28.473  1.00  0.00    -0.014 A 
BRANCH  14  15
ATOM     15  C   UNL A   1      44.344  26.884  29.714  1.00  0.00     0.031 A 
ATOM     16  C   UNL A   1      44.151  28.366  29.795  1.00  0.00     0.074 A 
ATOM     17  C   UNL A   1      44.633  26.130  30.790  1.00  0.00     0.049 A 
ATOM     18  N   UNL A   1      44.484  29.190  30.744  1.00  0.00    -0.248 NA
ATOM     19  C   UNL A   1      43.466  29.007  28.654  1.00  0.00     0.031 C 
ATOM     20  C   UNL A   1      44.596  24.661  30.828  1.00  0.00     0.029 A 
ATOM     21  N   UNL A   1      44.946  26.485  32.070  1.00  0.00    -0.354 N 
ATOM     22  C   UNL A   1      44.100  30.446  30.293  1.00  0.00     0.074 A 
ATOM     23  C   UNL A   1      43.514  30.286  28.986  1.00  0.00     0.031 C 
ATOM     24  C   UNL A   1      44.844  24.247  32.080  1.00  0.00     0.029 A 
ATOM     25  C   UNL A   1      45.156  25.410  32.899  1.00  0.00     0.049 A 
ATOM     26  H   UNL A   1      45.013  27.420  32.370  1.00  0.00     0.167 HD
ATOM     27  C   UNL A   1      44.238  31.626  30.933  1.00  0.00     0.037 A 
ATOM     28  C   UNL A   1      45.601  25.385  34.168  1.00  0.00     0.037 A 
ATOM     29  C   UNL A   1      44.819  31.717  32.242  1.00  0.00     0.049 A 
ATOM     30  C   UNL A   1      45.896  26.713  34.808  1.00  0.00     0.074 A 
ATOM     31  C   UNL A   1      45.140  32.840  32.973  1.00  0.00     0.029 A 
ATOM     32  N   UNL A   1      45.160  30.612  33.018  1.00  0.00    -0.354 N 
ATOM     33  N   UNL A   1      45.690  27.919  34.324  1.00  0.00    -0.248 NA
ATOM     34  C   UNL A   1      46.504  26.690  36.140  1.00  0.00     0.031 C 
ATOM     35  C   UNL A   1      45.722  32.415  34.172  1.00  0.00     0.029 A 
ATOM     36  C   UNL A   1      45.704  31.026  34.217  1.00  0.00     0.049 A 
ATOM     37  H   UNL A   1      45.032  29.673  32.751  1.00  0.00     0.167 HD
ATOM     38  C   UNL A   1      46.130  28.803  35.298  1.00  0.00     0.074 A 
ATOM     39  C   UNL A   1      46.600  27.987  36.405  1.00  0.00     0.031 C 
ATOM     40  C   UNL A   1      46.151  30.160  35.285  1.00  0.00     0.037 A 
BRANCH  27  41
ATOM     41  C   UNL A   1      43.845  32.863  30.180  1.00  0.00     0.058 A 
ATOM     42  C   UNL A   1      44.766  33.482  29.321  1.00  0.00     0.135 A 
ATOM     43  C   UNL A   1      42.548  33.402  30.245  1.00  0.00     0.135 A 
ATOM     44  F   UNL A   1      46.008  32.990  29.194  1.00  0.00    -0.206 F 
ATOM     45  C   UNL A   1      44.421  34.593  28.559  1.00  0.00     0.059 A 
ATOM     46  C   UNL A   1      42.172  34.498  29.470  1.00  0.00     0.059 A 
ATOM     47  F   UNL A   1      41.611  32.818  31.008  1.00  0.00    -0.206 F 
ATOM     48  C   UNL A   1      43.120  35.091  28.637  1.00  0.00     0.060 A 
BRANCH  48  49
ATOM     49  S   UNL A   1      42.674  36.493  27.589  1.00  0.00     0.124 S 
ATOM     50  O   UNL A   1      43.788  36.529  26.649  1.00  0.00    -0.237 OA
ATOM     51  O   UNL A   1      41.390  36.069  27.040  1.00  0.00    -0.237 OA
ATOM     52  O   UNL A   1      42.605  37.609  28.529  1.00  0.00    -0.744 OA
ENDBRANCH  48  49
ENDBRANCH  27  41
BRANCH  28  53
ATOM     53  C   UNL A   1      45.840  24.085  34.852  1.00  0.00     0.058 A 
ATOM     54  C   UNL A   1      47.065  23.406  34.714  1.00  0.00     0.135 A 
ATOM     55  C   UNL A   1      44.840  23.463  35.611  1.00  0.00     0.135 A 
ATOM     56  F   UNL A   1      48.060  23.951  33.997  1.00  0.00    -0.206 F 
ATOM     57  C   UNL A   1      47.274  22.147  35.267  1.00  0.00     0.059 A 
ATOM     58  C   UNL A   1      45.035  22.213  36.200  1.00  0.00     0.059 A 
ATOM     59  F   UNL A   1      43.656  24.069  35.785  1.00  0.00    -0.206 F 
ATOM     60  C   UNL A   1      46.250  21.556  36.006  1.00  0.00     0.060 A 
BRANCH  60  61
ATOM     61  S   UNL A   1      46.542  19.913  36.696  1.00  0.00     0.124 S 
ATOM     62  O   UNL A   1      47.998  19.843  36.683  1.00  0.00    -0.237 OA
ATOM     63  O   UNL A   1      45.922  20.019  38.010  1.00  0.00    -0.237 OA
ATOM     64  O   UNL A   1      45.862  19.025  35.752  1.00  0.00    -0.744 OA
ENDBRANCH  60  61
ENDBRANCH  28  53
BRANCH  40  65
ATOM     65  C   UNL A   1      46.672  30.840  36.513  1.00  0.00     0.058 A 
ATOM     66  C   UNL A   1      45.790  31.182  37.550  1.00  0.00     0.135 A 
ATOM     67  C   UNL A   1      48.012  31.240  36.618  1.00  0.00     0.135 A 
ATOM     68  F   UNL A   1      44.496  30.828  37.486  1.00  0.00    -0.206 F 
ATOM     69  C   UNL A   1      46.216  31.923  38.642  1.00  0.00     0.059 A 
ATOM     70  C   UNL A   1      48.466  31.954  37.719  1.00  0.00     0.059 A 
ATOM     71  F   UNL A   1      48.890  30.924  35.652  1.00  0.00    -0.206 F 
ATOM     72  C   UNL A   1      47.556  32.307  38.716  1.00  0.00     0.060 A 
BRANCH  72  73
ATOM     73  S   UNL A   1      48.091  33.265  40.145  1.00  0.00     0.124 S 
ATOM     74  O   UNL A   1      49.530  33.350  39.925  1.00  0.00    -0.237 OA
ATOM     75  O   UNL A   1      47.347  34.510  39.975  1.00  0.00    -0.237 OA
ATOM     76  O   UNL A   1      47.674  32.444  41.278  1.00  0.00    -0.744 OA
ENDBRANCH  72  73
ENDBRANCH  40  65
ENDBRANCH  14  15
ENDBRANCH   7   9
ENDBRANCH   6   7
ENDBRANCH   5   6
ENDBRANCH   4   5
ENDBRANCH   3   4
ENDBRANCH   2   3
ENDBRANCH   1   2
BRANCH   1  77
ATOM     77  O   UNL A   1      37.333  22.334  24.659  1.00  0.00    -0.377 OA
BRANCH  77  78
ATOM     78  C   UNL A   1      36.069  22.052  24.069  1.00  0.00     0.188 C 
BRANCH  78  79
ATOM     79  C   UNL A   1      34.894  21.589  24.952  1.00  0.00     0.188 C 
BRANCH  79  80
ATOM     80  O   UNL A   1      33.837  22.518  25.047  1.00  0.00    -0.376 OA
BRANCH  80  81
ATOM     81  C   UNL A   1      33.946  23.781  24.400  1.00  0.00     0.202 C 
BRANCH  81  82
ATOM     82  C   UNL A   1      34.072  25.127  25.150  1.00  0.00     0.261 C 
BRANCH  82  83
ATOM     83  O   UNL A   1      33.335  25.237  26.377  1.00  0.00    -0.463 OA
BRANCH  83  84
ATOM     84  C   UNL A   1      32.210  26.001  26.335  1.00  0.00     0.310 C 
ATOM     85  O   UNL A   1      31.121  25.639  26.767  1.00  0.00    -0.252 OA
BRANCH  84  86
ATOM     86  C   UNL A   1      32.478  27.424  25.873  1.00  0.00     0.118 C 
ATOM     87  C   UNL A   1      31.386  28.139  25.055  1.00  0.00     0.019 C 
ATOM     88  C   UNL A   1      32.828  28.276  27.079  1.00  0.00     0.133 C 
ATOM     89  C   UNL A   1      31.850  29.538  24.624  1.00  0.00     0.022 C 
ATOM     90  N   UNL A   1      33.211  29.605  26.597  1.00  0.00    -0.356 N 
ATOM     91  C   UNL A   1      32.219  30.358  25.851  1.00  0.00     0.118 C 
BRANCH  90  92
ATOM     92  C   UNL A   1      34.113  30.237  27.422  1.00  0.00     0.133 A 
ATOM     93  C   UNL A   1      35.321  29.655  27.688  1.00  0.00     0.077 A 
ATOM     94  N   UNL A   1      33.820  31.481  27.824  1.00  0.00    -0.211 NA
ATOM     95  C   UNL A   1      36.257  30.429  28.333  1.00  0.00     0.095 A 
ATOM     96  C   UNL A   1      34.778  32.157  28.476  1.00  0.00     0.165 A 
ATOM     97  N   UNL A   1      36.006  31.686  28.747  1.00  0.00    -0.226 NA
BRANCH  95  98
ATOM     98  C   UNL A   1      37.606  29.894  28.504  1.00  0.00     0.089 A 
ATOM     99  C   UNL A   1      37.877  28.553  28.217  1.00  0.00     0.030 A 
ATOM    100  N   UNL A   1      38.509  30.706  29.106  1.00  0.00    -0.255 NA
ATOM    101  C   UNL A   1      39.111  28.023  28.566  1.00  0.00     0.004 A 
ATOM    102  C   UNL A   1      39.707  30.170  29.415  1.00  0.00     0.112 A 
ATOM    103  C   UNL A   1      40.046  28.847  29.179  1.00  0.00     0.020 A 
ENDBRANCH  95  98
BRANCH  96 104
ATOM    104  C   UNL A   1      34.446  33.499  28.939  1.00  0.00     0.055 A 
ATOM    105  C   UNL A   1      34.383  34.585  28.046  1.00  0.00     0.015 A 
ATOM    106  C   UNL A   1      34.174  33.748  30.287  1.00  0.00     0.134 A 
ATOM    107  C   UNL A   1      34.013  35.860  28.487  1.00  0.00     0.001 A 
ATOM    108  C   UNL A   1      33.815  35.020  30.737  1.00  0.00     0.040 A 
ATOM    109  F   UNL A   1      34.271  32.762  31.193  1.00  0.00    -0.206 F 
ATOM    110  C   UNL A   1      33.722  36.076  29.833  1.00  0.00     0.003 A 
ENDBRANCH  96 104
ENDBRANCH  90  92
ENDBRANCH  84  86
ENDBRANCH  83  84
ENDBRANCH  82  83
ENDBRANCH  81  82
ENDBRANCH  80  81
ENDBRANCH  79  80
ENDBRANCH  78  79
ENDBRANCH  77  78
ENDBRANCH   1  77
TORSDOF 26
ENDMDL
