MODEL 1
REMARK VINA RESULT:      -9.2      0.000      0.000
REMARK SMILES CCc1cc(Oc2cncc(C(=O)OCCOCCOCCOCCOC(=O)c3ccc(-c4c5nc(c(-c6c(F)cc(S(=O)(=O)[O-])cc6F)c6ccc([nH]6)c(-c6c(F)cc(S(=O)(=O)[O-])cc6F)c6nc(c(-c7c(F)cc(S(=O)(=O)[O-])cc7F)c7ccc4[nH]7)C=C6)C=C5)cc3)n2)ccc1Cl
REMARK SMILES IDX 20 1 19 2 18 3 17 4 16 5 15 6 14 7 12 8 13 9 11 10 7 11 8 12
REMARK SMILES IDX 95 13 9 14 10 15 6 16 5 17 3 18 4 19 98 20 97 21 99 22 96 23
REMARK SMILES IDX 2 24 1 25 21 26 22 27 23 28 24 29 25 30 26 31 27 32 28 33
REMARK SMILES IDX 29 34 30 35 94 36 31 37 93 38 32 39 33 40 34 41 87 42 35 43
REMARK SMILES IDX 92 44 86 45 88 46 36 47 91 48 85 49 84 50 37 52 71 53 50 54
REMARK SMILES IDX 70 55 51 56 54 57 69 58 89 59 52 60 53 61 68 63 90 64 55 65
REMARK SMILES IDX 38 66 39 67 48 68 40 69 41 70 47 71 49 72 42 73 43 74 44 75
REMARK SMILES IDX 45 76 46 77 72 78 73 79 82 80 74 81 75 82 81 83 83 84 76 85
REMARK SMILES IDX 77 86 78 87 79 88 80 89 56 90 57 91 66 92 58 93 59 94 65 95
REMARK SMILES IDX 67 96 60 97 61 98 62 99 63 100 64 101
REMARK H PARENT 88 51 54 62
REMARK Flexibility Score: inf
ROOT
ATOM      1  O   UNL A   1      34.899  33.813  27.498  1.00  0.00    -0.377 OA
ENDROOT
BRANCH   1   2
ATOM      2  C   UNL A   1      34.988  32.472  27.961  1.00  0.00     0.188 C 
BRANCH   2   3
ATOM      3  C   UNL A   1      33.988  31.380  27.514  1.00  0.00     0.188 C 
BRANCH   3   4
ATOM      4  O   UNL A   1      34.400  30.050  27.765  1.00  0.00    -0.376 OA
BRANCH   4   5
ATOM      5  C   UNL A   1      33.650  28.971  27.243  1.00  0.00     0.202 C 
BRANCH   5   6
ATOM      6  C   UNL A   1      34.005  28.424  25.852  1.00  0.00     0.261 C 
BRANCH   6   7
ATOM      7  O   UNL A   1      33.018  28.620  24.833  1.00  0.00    -0.458 OA
BRANCH   7   8
ATOM      8  C   UNL A   1      31.993  27.742  24.785  1.00  0.00     0.358 C 
ATOM      9  O   UNL A   1      31.001  27.750  25.500  1.00  0.00    -0.244 OA
BRANCH   8  10
ATOM     10  C   UNL A   1      32.132  26.896  23.572  1.00  0.00     0.170 A 
ATOM     11  C   UNL A   1      33.189  25.242  22.374  1.00  0.00     0.238 A 
ATOM     12  C   UNL A   1      32.416  25.578  21.263  1.00  0.00     0.179 A 
ATOM     13  N   UNL A   1      33.040  25.884  23.557  1.00  0.00    -0.203 NA
ATOM     14  N   UNL A   1      31.531  26.610  21.260  1.00  0.00    -0.257 NA
ATOM     15  C   UNL A   1      31.410  27.261  22.444  1.00  0.00     0.147 A 
BRANCH  11  16
ATOM     16  O   UNL A   1      34.077  24.191  22.387  1.00  0.00    -0.437 OA
BRANCH  16  17
ATOM     17  C   UNL A   1      33.762  23.025  23.049  1.00  0.00     0.129 A 
ATOM     18  C   UNL A   1      34.611  21.301  24.610  1.00  0.00    -0.026 A 
ATOM     19  C   UNL A   1      34.765  22.510  23.881  1.00  0.00     0.052 A 
ATOM     20  C   UNL A   1      33.379  20.640  24.494  1.00  0.00     0.044 A 
ATOM     21  C   UNL A   1      32.386  21.139  23.634  1.00  0.00     0.024 A 
ATOM     22  Cl  UNL A   1      32.949  19.206  25.350  1.00  0.00    -0.084 Cl
ATOM     23  C   UNL A   1      32.583  22.307  22.895  1.00  0.00     0.049 A 
BRANCH  18  24
ATOM     24  C   UNL A   1      35.829  20.888  25.415  1.00  0.00     0.034 C 
ATOM     25  C   UNL A   1      37.190  20.686  24.766  1.00  0.00     0.009 C 
ENDBRANCH  18  24
ENDBRANCH  16  17
ENDBRANCH  11  16
ENDBRANCH   8  10
ENDBRANCH   7   8
ENDBRANCH   6   7
ENDBRANCH   5   6
ENDBRANCH   4   5
ENDBRANCH   3   4
ENDBRANCH   2   3
ENDBRANCH   1   2
BRANCH   1  26
ATOM     26  C   UNL A   1      34.599  34.869  28.400  1.00  0.00     0.188 C 
BRANCH  26  27
ATOM     27  C   UNL A   1      33.133  35.315  28.576  1.00  0.00     0.188 C 
BRANCH  27  28
ATOM     28  O   UNL A   1      32.584  34.986  29.844  1.00  0.00    -0.376 OA
BRANCH  28  29
ATOM     29  C   UNL A   1      32.946  35.811  30.937  1.00  0.00     0.202 C 
BRANCH  29  30
ATOM     30  C   UNL A   1      33.583  35.136  32.162  1.00  0.00     0.261 C 
BRANCH  30  31
ATOM     31  O   UNL A   1      34.217  33.868  31.944  1.00  0.00    -0.460 OA
BRANCH  31  32
ATOM     32  C   UNL A   1      34.843  33.289  32.990  1.00  0.00     0.338 C 
ATOM     33  O   UNL A   1      34.392  33.116  34.111  1.00  0.00    -0.246 OA
BRANCH  32  34
ATOM     34  C   UNL A   1      36.114  32.725  32.488  1.00  0.00     0.060 A 
ATOM     35  C   UNL A   1      36.903  31.941  33.340  1.00  0.00     0.016 A 
ATOM     36  C   UNL A   1      36.509  32.951  31.168  1.00  0.00     0.016 A 
ATOM     37  C   UNL A   1      38.107  31.404  32.879  1.00  0.00     0.010 A 
ATOM     38  C   UNL A   1      37.724  32.433  30.715  1.00  0.00     0.010 A 
ATOM     39  C   UNL A   1      38.544  31.683  31.578  1.00  0.00    -0.014 A 
BRANCH  39  40
ATOM     40  C   UNL A   1      39.937  31.364  31.177  1.00  0.00     0.031 A 
ATOM     41  C   UNL A   1      40.990  32.421  31.373  1.00  0.00     0.074 A 
ATOM     42  C   UNL A   1      40.264  30.168  30.657  1.00  0.00     0.049 A 
ATOM     43  N   UNL A   1      42.254  32.407  31.040  1.00  0.00    -0.248 NA
ATOM     44  C   UNL A   1      40.554  33.665  32.029  1.00  0.00     0.031 C 
ATOM     45  C   UNL A   1      39.341  29.052  30.455  1.00  0.00     0.029 A 
ATOM     46  N   UNL A   1      41.468  29.699  30.191  1.00  0.00    -0.354 N 
ATOM     47  C   UNL A   1      42.761  33.640  31.435  1.00  0.00     0.074 A 
ATOM     48  C   UNL A   1      41.662  34.389  32.005  1.00  0.00     0.031 C 
ATOM     49  C   UNL A   1      40.010  28.031  29.889  1.00  0.00     0.029 A 
ATOM     50  C   UNL A   1      41.397  28.434  29.656  1.00  0.00     0.049 A 
ATOM     51  H   UNL A   1      42.302  30.218  30.236  1.00  0.00     0.167 HD
ATOM     52  C   UNL A   1      44.029  34.103  31.338  1.00  0.00     0.037 A 
ATOM     53  C   UNL A   1      42.337  27.700  29.026  1.00  0.00     0.037 A 
ATOM     54  C   UNL A   1      45.116  33.352  30.765  1.00  0.00     0.049 A 
ATOM     55  C   UNL A   1      43.727  28.264  28.865  1.00  0.00     0.074 A 
ATOM     56  C   UNL A   1      46.443  33.724  30.637  1.00  0.00     0.029 A 
ATOM     57  N   UNL A   1      45.002  32.085  30.214  1.00  0.00    -0.354 N 
ATOM     58  N   UNL A   1      44.203  29.419  29.266  1.00  0.00    -0.248 NA
ATOM     59  C   UNL A   1      44.711  27.424  28.165  1.00  0.00     0.031 C 
ATOM     60  C   UNL A   1      47.117  32.706  29.955  1.00  0.00     0.029 A 
ATOM     61  C   UNL A   1      46.226  31.670  29.718  1.00  0.00     0.049 A 
ATOM     62  H   UNL A   1      44.171  31.556  30.181  1.00  0.00     0.167 HD
ATOM     63  C   UNL A   1      45.546  29.430  28.899  1.00  0.00     0.074 A 
ATOM     64  C   UNL A   1      45.809  28.162  28.250  1.00  0.00     0.031 C 
ATOM     65  C   UNL A   1      46.477  30.400  29.084  1.00  0.00     0.037 A 
BRANCH  52  66
ATOM     66  C   UNL A   1      44.303  35.498  31.831  1.00  0.00     0.058 A 
ATOM     67  C   UNL A   1      44.177  36.620  30.997  1.00  0.00     0.135 A 
ATOM     68  C   UNL A   1      44.670  35.717  33.170  1.00  0.00     0.135 A 
ATOM     69  F   UNL A   1      43.848  36.469  29.704  1.00  0.00    -0.206 F 
ATOM     70  C   UNL A   1      44.429  37.906  31.465  1.00  0.00     0.059 A 
ATOM     71  C   UNL A   1      44.897  36.996  33.666  1.00  0.00     0.059 A 
ATOM     72  F   UNL A   1      44.812  34.679  34.010  1.00  0.00    -0.206 F 
ATOM     73  C   UNL A   1      44.786  38.083  32.802  1.00  0.00     0.060 A 
BRANCH  73  74
ATOM     74  S   UNL A   1      45.100  39.759  33.395  1.00  0.00     0.124 S 
ATOM     75  O   UNL A   1      44.825  40.549  32.198  1.00  0.00    -0.237 OA
ATOM     76  O   UNL A   1      44.129  39.893  34.477  1.00  0.00    -0.237 OA
ATOM     77  O   UNL A   1      46.498  39.719  33.811  1.00  0.00    -0.744 OA
ENDBRANCH  73  74
ENDBRANCH  52  66
BRANCH  53  78
ATOM     78  C   UNL A   1      41.996  26.355  28.485  1.00  0.00     0.058 A 
ATOM     79  C   UNL A   1      42.502  25.185  29.070  1.00  0.00     0.135 A 
ATOM     80  C   UNL A   1      41.158  26.213  27.367  1.00  0.00     0.135 A 
ATOM     81  F   UNL A   1      43.319  25.265  30.132  1.00  0.00    -0.206 F 
ATOM     82  C   UNL A   1      42.203  23.925  28.560  1.00  0.00     0.059 A 
ATOM     83  C   UNL A   1      40.821  24.963  26.856  1.00  0.00     0.059 A 
ATOM     84  F   UNL A   1      40.642  27.299  26.771  1.00  0.00    -0.206 F 
ATOM     85  C   UNL A   1      41.357  23.825  27.455  1.00  0.00     0.060 A 
BRANCH  85  86
ATOM     86  S   UNL A   1      40.935  22.181  26.835  1.00  0.00     0.124 S 
ATOM     87  O   UNL A   1      42.145  21.821  26.106  1.00  0.00    -0.237 OA
ATOM     88  O   UNL A   1      40.690  21.443  28.071  1.00  0.00    -0.237 OA
ATOM     89  O   UNL A   1      39.753  22.424  26.014  1.00  0.00    -0.744 OA
ENDBRANCH  85  86
ENDBRANCH  53  78
BRANCH  65  90
ATOM     90  C   UNL A   1      47.884  30.119  28.622  1.00  0.00     0.058 A 
ATOM     91  C   UNL A   1      48.815  29.453  29.433  1.00  0.00     0.135 A 
ATOM     92  C   UNL A   1      48.282  30.466  27.319  1.00  0.00     0.135 A 
ATOM     93  F   UNL A   1      48.490  29.102  30.688  1.00  0.00    -0.206 F 
ATOM     94  C   UNL A   1      50.099  29.164  28.980  1.00  0.00     0.059 A 
ATOM     95  C   UNL A   1      49.549  30.158  26.834  1.00  0.00     0.059 A 
ATOM     96  F   UNL A   1      47.428  31.093  26.495  1.00  0.00    -0.206 F 
ATOM     97  C   UNL A   1      50.456  29.517  27.676  1.00  0.00     0.060 A 
BRANCH  97  98
ATOM     98  S   UNL A   1      52.112  29.102  27.090  1.00  0.00     0.124 S 
ATOM     99  O   UNL A   1      51.848  28.721  25.706  1.00  0.00    -0.237 OA
ATOM    100  O   UNL A   1      52.832  30.358  27.276  1.00  0.00    -0.237 OA
ATOM    101  O   UNL A   1      52.523  28.013  27.972  1.00  0.00    -0.744 OA
ENDBRANCH  97  98
ENDBRANCH  65  90
ENDBRANCH  39  40
ENDBRANCH  32  34
ENDBRANCH  31  32
ENDBRANCH  30  31
ENDBRANCH  29  30
ENDBRANCH  28  29
ENDBRANCH  27  28
ENDBRANCH  26  27
ENDBRANCH   1  26
TORSDOF 26
ENDMDL
MODEL 2
REMARK VINA RESULT:      -8.6      3.955      4.859
REMARK SMILES CCc1cc(Oc2cncc(C(=O)OCCOCCOCCOCCOC(=O)c3ccc(-c4c5nc(c(-c6c(F)cc(S(=O)(=O)[O-])cc6F)c6ccc([nH]6)c(-c6c(F)cc(S(=O)(=O)[O-])cc6F)c6nc(c(-c7c(F)cc(S(=O)(=O)[O-])cc7F)c7ccc4[nH]7)C=C6)C=C5)cc3)n2)ccc1Cl
REMARK SMILES IDX 20 1 19 2 18 3 17 4 16 5 15 6 14 7 12 8 13 9 11 10 7 11 8 12
REMARK SMILES IDX 95 13 9 14 10 15 6 16 5 17 3 18 4 19 98 20 97 21 99 22 96 23
REMARK SMILES IDX 2 24 1 25 21 26 22 27 23 28 24 29 25 30 26 31 27 32 28 33
REMARK SMILES IDX 29 34 30 35 94 36 31 37 93 38 32 39 33 40 34 41 87 42 35 43
REMARK SMILES IDX 92 44 86 45 88 46 36 47 91 48 85 49 84 50 37 52 71 53 50 54
REMARK SMILES IDX 70 55 51 56 54 57 69 58 89 59 52 60 53 61 68 63 90 64 55 65
REMARK SMILES IDX 38 66 39 67 48 68 40 69 41 70 47 71 49 72 42 73 43 74 44 75
REMARK SMILES IDX 45 76 46 77 72 78 73 79 82 80 74 81 75 82 81 83 83 84 76 85
REMARK SMILES IDX 77 86 78 87 79 88 80 89 56 90 57 91 66 92 58 93 59 94 65 95
REMARK SMILES IDX 67 96 60 97 61 98 62 99 63 100 64 101
REMARK H PARENT 88 51 54 62
REMARK Flexibility Score: inf
ROOT
ATOM      1  O   UNL A   1      34.594  34.284  29.654  1.00  0.00    -0.377 OA
ENDROOT
BRANCH   1   2
ATOM      2  C   UNL A   1      34.669  32.876  29.478  1.00  0.00     0.188 C 
BRANCH   2   3
ATOM      3  C   UNL A   1      35.022  32.236  28.114  1.00  0.00     0.188 C 
BRANCH   3   4
ATOM      4  O   UNL A   1      33.915  31.790  27.356  1.00  0.00    -0.376 OA
BRANCH   4   5
ATOM      5  C   UNL A   1      33.441  30.467  27.513  1.00  0.00     0.202 C 
BRANCH   5   6
ATOM      6  C   UNL A   1      32.055  30.104  26.958  1.00  0.00     0.261 C 
BRANCH   6   7
ATOM      7  O   UNL A   1      31.883  30.278  25.547  1.00  0.00    -0.458 OA
BRANCH   7   8
ATOM      8  C   UNL A   1      32.270  29.262  24.744  1.00  0.00     0.358 C 
ATOM      9  O   UNL A   1      33.414  29.013  24.395  1.00  0.00    -0.244 OA
BRANCH   8  10
ATOM     10  C   UNL A   1      31.122  28.342  24.537  1.00  0.00     0.170 A 
ATOM     11  C   UNL A   1      30.036  26.351  24.917  1.00  0.00     0.238 A 
ATOM     12  C   UNL A   1      29.111  26.688  23.930  1.00  0.00     0.179 A 
ATOM     13  N   UNL A   1      31.046  27.188  25.253  1.00  0.00    -0.203 NA
ATOM     14  N   UNL A   1      29.199  27.823  23.188  1.00  0.00    -0.257 NA
ATOM     15  C   UNL A   1      30.230  28.642  23.517  1.00  0.00     0.147 A 
BRANCH  11  16
ATOM     16  O   UNL A   1      29.945  25.210  25.680  1.00  0.00    -0.437 OA
BRANCH  16  17
ATOM     17  C   UNL A   1      30.991  24.314  25.716  1.00  0.00     0.129 A 
ATOM     18  C   UNL A   1      32.378  22.779  24.357  1.00  0.00    -0.026 A 
ATOM     19  C   UNL A   1      31.343  23.741  24.486  1.00  0.00     0.052 A 
ATOM     20  C   UNL A   1      33.077  22.435  25.524  1.00  0.00     0.044 A 
ATOM     21  C   UNL A   1      32.703  22.984  26.761  1.00  0.00     0.024 A 
ATOM     22  Cl  UNL A   1      34.419  21.352  25.582  1.00  0.00    -0.084 Cl
ATOM     23  C   UNL A   1      31.651  23.895  26.864  1.00  0.00     0.049 A 
BRANCH  18  24
ATOM     24  C   UNL A   1      32.573  22.244  22.950  1.00  0.00     0.034 C 
ATOM     25  C   UNL A   1      33.222  23.077  21.856  1.00  0.00     0.009 C 
ENDBRANCH  18  24
ENDBRANCH  16  17
ENDBRANCH  11  16
ENDBRANCH   8  10
ENDBRANCH   7   8
ENDBRANCH   6   7
ENDBRANCH   5   6
ENDBRANCH   4   5
ENDBRANCH   3   4
ENDBRANCH   2   3
ENDBRANCH   1   2
BRANCH   1  26
ATOM     26  C   UNL A   1      33.358  34.966  29.491  1.00  0.00     0.188 C 
BRANCH  26  27
ATOM     27  C   UNL A   1      33.229  36.420  29.994  1.00  0.00     0.188 C 
BRANCH  27  28
ATOM     28  O   UNL A   1      32.230  36.593  30.988  1.00  0.00    -0.376 OA
BRANCH  28  29
ATOM     29  C   UNL A   1      32.659  37.034  32.264  1.00  0.00     0.202 C 
BRANCH  29  30
ATOM     30  C   UNL A   1      34.156  36.927  32.592  1.00  0.00     0.261 C 
BRANCH  30  31
ATOM     31  O   UNL A   1      34.535  35.938  33.561  1.00  0.00    -0.460 OA
BRANCH  31  32
ATOM     32  C   UNL A   1      34.366  34.640  33.234  1.00  0.00     0.338 C 
ATOM     33  O   UNL A   1      33.319  34.091  32.929  1.00  0.00    -0.246 OA
BRANCH  32  34
ATOM     34  C   UNL A   1      35.708  34.033  33.124  1.00  0.00     0.060 A 
ATOM     35  C   UNL A   1      35.926  32.745  33.634  1.00  0.00     0.016 A 
ATOM     36  C   UNL A   1      36.743  34.727  32.494  1.00  0.00     0.016 A 
ATOM     37  C   UNL A   1      37.190  32.162  33.539  1.00  0.00     0.010 A 
ATOM     38  C   UNL A   1      38.013  34.152  32.420  1.00  0.00     0.010 A 
ATOM     39  C   UNL A   1      38.251  32.878  32.969  1.00  0.00    -0.014 A 
BRANCH  39  40
ATOM     40  C   UNL A   1      39.644  32.390  33.121  1.00  0.00     0.031 A 
ATOM     41  C   UNL A   1      40.421  32.831  34.333  1.00  0.00     0.074 A 
ATOM     42  C   UNL A   1      40.208  31.575  32.213  1.00  0.00     0.049 A 
ATOM     43  N   UNL A   1      41.667  32.597  34.651  1.00  0.00    -0.248 NA
ATOM     44  C   UNL A   1      39.692  33.651  35.314  1.00  0.00     0.031 C 
ATOM     45  C   UNL A   1      39.545  31.051  31.020  1.00  0.00     0.029 A 
ATOM     46  N   UNL A   1      41.478  31.055  32.149  1.00  0.00    -0.354 N 
ATOM     47  C   UNL A   1      41.874  33.249  35.862  1.00  0.00     0.074 A 
ATOM     48  C   UNL A   1      40.636  33.912  36.205  1.00  0.00     0.031 C 
ATOM     49  C   UNL A   1      40.420  30.296  30.332  1.00  0.00     0.029 A 
ATOM     50  C   UNL A   1      41.714  30.313  31.015  1.00  0.00     0.049 A 
ATOM     51  H   UNL A   1      42.154  31.200  32.848  1.00  0.00     0.167 HD
ATOM     52  C   UNL A   1      42.994  33.285  36.622  1.00  0.00     0.037 A 
ATOM     53  C   UNL A   1      42.850  29.740  30.570  1.00  0.00     0.037 A 
ATOM     54  C   UNL A   1      44.225  32.624  36.270  1.00  0.00     0.049 A 
ATOM     55  C   UNL A   1      44.107  29.853  31.398  1.00  0.00     0.074 A 
ATOM     56  C   UNL A   1      45.411  32.583  36.981  1.00  0.00     0.029 A 
ATOM     57  N   UNL A   1      44.432  31.901  35.105  1.00  0.00    -0.354 N 
ATOM     58  N   UNL A   1      44.285  30.448  32.554  1.00  0.00    -0.248 NA
ATOM     59  C   UNL A   1      45.319  29.214  30.862  1.00  0.00     0.031 C 
ATOM     60  C   UNL A   1      46.353  31.887  36.218  1.00  0.00     0.029 A 
ATOM     61  C   UNL A   1      45.735  31.435  35.062  1.00  0.00     0.049 A 
ATOM     62  H   UNL A   1      43.752  31.743  34.410  1.00  0.00     0.167 HD
ATOM     63  C   UNL A   1      45.616  30.227  32.898  1.00  0.00     0.074 A 
ATOM     64  C   UNL A   1      46.195  29.436  31.832  1.00  0.00     0.031 C 
ATOM     65  C   UNL A   1      46.296  30.639  33.998  1.00  0.00     0.037 A 
BRANCH  52  66
ATOM     66  C   UNL A   1      42.951  34.091  37.892  1.00  0.00     0.058 A 
ATOM     67  C   UNL A   1      42.632  33.510  39.130  1.00  0.00     0.135 A 
ATOM     68  C   UNL A   1      43.262  35.461  37.873  1.00  0.00     0.135 A 
ATOM     69  F   UNL A   1      42.306  32.211  39.204  1.00  0.00    -0.206 F 
ATOM     70  C   UNL A   1      42.598  34.264  40.299  1.00  0.00     0.059 A 
ATOM     71  C   UNL A   1      43.265  36.226  39.034  1.00  0.00     0.059 A 
ATOM     72  F   UNL A   1      43.569  36.068  36.715  1.00  0.00    -0.206 F 
ATOM     73  C   UNL A   1      42.919  35.621  40.241  1.00  0.00     0.060 A 
BRANCH  73  74
ATOM     74  S   UNL A   1      42.881  36.582  41.768  1.00  0.00     0.124 S 
ATOM     75  O   UNL A   1      44.295  36.615  42.127  1.00  0.00    -0.237 OA
ATOM     76  O   UNL A   1      42.312  37.850  41.324  1.00  0.00    -0.237 OA
ATOM     77  O   UNL A   1      42.030  35.789  42.650  1.00  0.00    -0.744 OA
ENDBRANCH  73  74
ENDBRANCH  52  66
BRANCH  53  78
ATOM     78  C   UNL A   1      42.862  29.018  29.267  1.00  0.00     0.058 A 
ATOM     79  C   UNL A   1      43.049  29.703  28.058  1.00  0.00     0.135 A 
ATOM     80  C   UNL A   1      42.681  27.627  29.206  1.00  0.00     0.135 A 
ATOM     81  F   UNL A   1      43.211  31.035  28.059  1.00  0.00    -0.206 F 
ATOM     82  C   UNL A   1      43.043  29.040  26.834  1.00  0.00     0.059 A 
ATOM     83  C   UNL A   1      42.701  26.937  27.997  1.00  0.00     0.059 A 
ATOM     84  F   UNL A   1      42.503  26.921  30.334  1.00  0.00    -0.206 F 
ATOM     85  C   UNL A   1      42.873  27.654  26.815  1.00  0.00     0.060 A 
BRANCH  85  86
ATOM     86  S   UNL A   1      42.921  26.799  25.225  1.00  0.00     0.124 S 
ATOM     87  O   UNL A   1      42.752  27.905  24.290  1.00  0.00    -0.237 OA
ATOM     88  O   UNL A   1      44.242  26.180  25.251  1.00  0.00    -0.237 OA
ATOM     89  O   UNL A   1      41.799  25.869  25.310  1.00  0.00    -0.744 OA
ENDBRANCH  85  86
ENDBRANCH  53  78
BRANCH  65  90
ATOM     90  C   UNL A   1      47.734  30.208  34.136  1.00  0.00     0.058 A 
ATOM     91  C   UNL A   1      48.092  28.992  34.738  1.00  0.00     0.135 A 
ATOM     92  C   UNL A   1      48.763  30.999  33.597  1.00  0.00     0.135 A 
ATOM     93  F   UNL A   1      47.150  28.199  35.274  1.00  0.00    -0.206 F 
ATOM     94  C   UNL A   1      49.421  28.587  34.824  1.00  0.00     0.059 A 
ATOM     95  C   UNL A   1      50.095  30.599  33.642  1.00  0.00     0.059 A 
ATOM     96  F   UNL A   1      48.477  32.166  32.998  1.00  0.00    -0.206 F 
ATOM     97  C   UNL A   1      50.416  29.396  34.268  1.00  0.00     0.060 A 
BRANCH  97  98
ATOM     98  S   UNL A   1      52.131  28.839  34.353  1.00  0.00     0.124 S 
ATOM     99  O   UNL A   1      52.754  29.921  35.109  1.00  0.00    -0.237 OA
ATOM    100  O   UNL A   1      52.010  27.564  35.052  1.00  0.00    -0.237 OA
ATOM    101  O   UNL A   1      52.528  28.744  32.951  1.00  0.00    -0.744 OA
ENDBRANCH  97  98
ENDBRANCH  65  90
ENDBRANCH  39  40
ENDBRANCH  32  34
ENDBRANCH  31  32
ENDBRANCH  30  31
ENDBRANCH  29  30
ENDBRANCH  28  29
ENDBRANCH  27  28
ENDBRANCH  26  27
ENDBRANCH   1  26
TORSDOF 26
ENDMDL
MODEL 3
REMARK VINA RESULT:      -8.1      7.104     10.145
REMARK SMILES CCc1cc(Oc2cncc(C(=O)OCCOCCOCCOCCOC(=O)c3ccc(-c4c5nc(c(-c6c(F)cc(S(=O)(=O)[O-])cc6F)c6ccc([nH]6)c(-c6c(F)cc(S(=O)(=O)[O-])cc6F)c6nc(c(-c7c(F)cc(S(=O)(=O)[O-])cc7F)c7ccc4[nH]7)C=C6)C=C5)cc3)n2)ccc1Cl
REMARK SMILES IDX 20 1 19 2 18 3 17 4 16 5 15 6 14 7 12 8 13 9 11 10 7 11 8 12
REMARK SMILES IDX 95 13 9 14 10 15 6 16 5 17 3 18 4 19 98 20 97 21 99 22 96 23
REMARK SMILES IDX 2 24 1 25 21 26 22 27 23 28 24 29 25 30 26 31 27 32 28 33
REMARK SMILES IDX 29 34 30 35 94 36 31 37 93 38 32 39 33 40 34 41 87 42 35 43
REMARK SMILES IDX 92 44 86 45 88 46 36 47 91 48 85 49 84 50 37 52 71 53 50 54
REMARK SMILES IDX 70 55 51 56 54 57 69 58 89 59 52 60 53 61 68 63 90 64 55 65
REMARK SMILES IDX 38 66 39 67 48 68 40 69 41 70 47 71 49 72 42 73 43 74 44 75
REMARK SMILES IDX 45 76 46 77 72 78 73 79 82 80 74 81 75 82 81 83 83 84 76 85
REMARK SMILES IDX 77 86 78 87 79 88 80 89 56 90 57 91 66 92 58 93 59 94 65 95
REMARK SMILES IDX 67 96 60 97 61 98 62 99 63 100 64 101
REMARK H PARENT 88 51 54 62
REMARK Flexibility Score: inf
ROOT
ATOM      1  O   UNL A   1      35.247  33.457  29.412  1.00  0.00    -0.377 OA
ENDROOT
BRANCH   1   2
ATOM      2  C   UNL A   1      35.677  32.119  29.201  1.00  0.00     0.188 C 
BRANCH   2   3
ATOM      3  C   UNL A   1      35.699  31.474  27.795  1.00  0.00     0.188 C 
BRANCH   3   4
ATOM      4  O   UNL A   1      34.431  31.298  27.195  1.00  0.00    -0.376 OA
BRANCH   4   5
ATOM      5  C   UNL A   1      33.708  30.103  27.415  1.00  0.00     0.202 C 
BRANCH   5   6
ATOM      6  C   UNL A   1      32.329  29.938  26.757  1.00  0.00     0.261 C 
BRANCH   6   7
ATOM      7  O   UNL A   1      32.300  30.052  25.330  1.00  0.00    -0.458 OA
BRANCH   7   8
ATOM      8  C   UNL A   1      32.610  28.949  24.613  1.00  0.00     0.358 C 
ATOM      9  O   UNL A   1      33.729  28.611  24.256  1.00  0.00    -0.244 OA
BRANCH   8  10
ATOM     10  C   UNL A   1      31.412  28.077  24.521  1.00  0.00     0.170 A 
ATOM     11  C   UNL A   1      30.262  26.161  25.066  1.00  0.00     0.238 A 
ATOM     12  C   UNL A   1      29.294  26.494  24.119  1.00  0.00     0.179 A 
ATOM     13  N   UNL A   1      31.327  26.964  25.298  1.00  0.00    -0.203 NA
ATOM     14  N   UNL A   1      29.388  27.586  23.315  1.00  0.00    -0.257 NA
ATOM     15  C   UNL A   1      30.473  28.369  23.541  1.00  0.00     0.147 A 
BRANCH  11  16
ATOM     16  O   UNL A   1      30.166  25.064  25.890  1.00  0.00    -0.437 OA
BRANCH  16  17
ATOM     17  C   UNL A   1      31.151  24.100  25.879  1.00  0.00     0.129 A 
ATOM     18  C   UNL A   1      32.196  22.301  24.538  1.00  0.00    -0.026 A 
ATOM     19  C   UNL A   1      31.254  23.351  24.699  1.00  0.00     0.052 A 
ATOM     20  C   UNL A   1      33.063  22.053  25.612  1.00  0.00     0.044 A 
ATOM     21  C   UNL A   1      32.937  22.781  26.807  1.00  0.00     0.024 A 
ATOM     22  Cl  UNL A   1      34.331  20.883  25.601  1.00  0.00    -0.084 Cl
ATOM     23  C   UNL A   1      31.972  23.778  26.953  1.00  0.00     0.049 A 
BRANCH  18  24
ATOM     24  C   UNL A   1      32.116  21.580  23.205  1.00  0.00     0.034 C 
ATOM     25  C   UNL A   1      32.382  20.086  23.083  1.00  0.00     0.009 C 
ENDBRANCH  18  24
ENDBRANCH  16  17
ENDBRANCH  11  16
ENDBRANCH   8  10
ENDBRANCH   7   8
ENDBRANCH   6   7
ENDBRANCH   5   6
ENDBRANCH   4   5
ENDBRANCH   3   4
ENDBRANCH   2   3
ENDBRANCH   1   2
BRANCH   1  26
ATOM     26  C   UNL A   1      34.060  33.938  28.795  1.00  0.00     0.188 C 
BRANCH  26  27
ATOM     27  C   UNL A   1      33.554  35.355  29.139  1.00  0.00     0.188 C 
BRANCH  27  28
ATOM     28  O   UNL A   1      32.376  35.364  29.931  1.00  0.00    -0.376 OA
BRANCH  28  29
ATOM     29  C   UNL A   1      32.494  35.843  31.258  1.00  0.00     0.202 C 
BRANCH  29  30
ATOM     30  C   UNL A   1      33.886  35.817  31.908  1.00  0.00     0.261 C 
BRANCH  30  31
ATOM     31  O   UNL A   1      34.043  34.983  33.066  1.00  0.00    -0.460 OA
BRANCH  31  32
ATOM     32  C   UNL A   1      34.403  33.698  32.870  1.00  0.00     0.338 C 
ATOM     33  O   UNL A   1      33.913  32.910  32.075  1.00  0.00    -0.246 OA
BRANCH  32  34
ATOM     34  C   UNL A   1      35.631  33.458  33.657  1.00  0.00     0.060 A 
ATOM     35  C   UNL A   1      36.215  32.183  33.650  1.00  0.00     0.016 A 
ATOM     36  C   UNL A   1      36.215  34.499  34.381  1.00  0.00     0.016 A 
ATOM     37  C   UNL A   1      37.373  31.943  34.391  1.00  0.00     0.010 A 
ATOM     38  C   UNL A   1      37.360  34.251  35.141  1.00  0.00     0.010 A 
ATOM     39  C   UNL A   1      37.928  32.964  35.174  1.00  0.00    -0.014 A 
BRANCH  39  40
ATOM     40  C   UNL A   1      38.974  32.647  36.178  1.00  0.00     0.031 A 
ATOM     41  C   UNL A   1      38.582  32.638  37.631  1.00  0.00     0.074 A 
ATOM     42  C   UNL A   1      40.238  32.369  35.813  1.00  0.00     0.049 A 
ATOM     43  N   UNL A   1      39.326  32.460  38.691  1.00  0.00    -0.248 NA
ATOM     44  C   UNL A   1      37.158  32.868  37.926  1.00  0.00     0.031 C 
ATOM     45  C   UNL A   1      40.728  32.310  34.437  1.00  0.00     0.029 A 
ATOM     46  N   UNL A   1      41.346  32.097  36.578  1.00  0.00    -0.354 N 
ATOM     47  C   UNL A   1      38.465  32.566  39.777  1.00  0.00     0.074 A 
ATOM     48  C   UNL A   1      37.149  32.854  39.250  1.00  0.00     0.031 C 
ATOM     49  C   UNL A   1      42.045  32.035  34.456  1.00  0.00     0.029 A 
ATOM     50  C   UNL A   1      42.498  31.937  35.844  1.00  0.00     0.049 A 
ATOM     51  H   UNL A   1      41.318  32.024  37.559  1.00  0.00     0.167 HD
ATOM     52  C   UNL A   1      38.744  32.429  41.094  1.00  0.00     0.037 A 
ATOM     53  C   UNL A   1      43.772  31.758  36.248  1.00  0.00     0.037 A 
ATOM     54  C   UNL A   1      40.058  32.146  41.611  1.00  0.00     0.049 A 
ATOM     55  C   UNL A   1      44.072  31.680  37.726  1.00  0.00     0.074 A 
ATOM     56  C   UNL A   1      40.443  31.968  42.928  1.00  0.00     0.029 A 
ATOM     57  N   UNL A   1      41.202  32.011  40.839  1.00  0.00    -0.354 N 
ATOM     58  N   UNL A   1      43.247  31.754  38.743  1.00  0.00    -0.248 NA
ATOM     59  C   UNL A   1      45.479  31.491  38.111  1.00  0.00     0.031 C 
ATOM     60  C   UNL A   1      41.829  31.787  42.957  1.00  0.00     0.029 A 
ATOM     61  C   UNL A   1      42.299  31.783  41.653  1.00  0.00     0.049 A 
ATOM     62  H   UNL A   1      41.230  32.070  39.856  1.00  0.00     0.167 HD
ATOM     63  C   UNL A   1      44.028  31.588  39.884  1.00  0.00     0.074 A 
ATOM     64  C   UNL A   1      45.390  31.400  39.431  1.00  0.00     0.031 C 
ATOM     65  C   UNL A   1      43.650  31.587  41.187  1.00  0.00     0.037 A 
BRANCH  52  66
ATOM     66  C   UNL A   1      37.615  32.616  42.071  1.00  0.00     0.058 A 
ATOM     67  C   UNL A   1      37.240  33.885  42.541  1.00  0.00     0.135 A 
ATOM     68  C   UNL A   1      36.877  31.508  42.522  1.00  0.00     0.135 A 
ATOM     69  F   UNL A   1      37.922  34.976  42.160  1.00  0.00    -0.206 F 
ATOM     70  C   UNL A   1      36.192  34.047  43.441  1.00  0.00     0.059 A 
ATOM     71  C   UNL A   1      35.806  31.650  43.398  1.00  0.00     0.059 A 
ATOM     72  F   UNL A   1      37.196  30.271  42.110  1.00  0.00    -0.206 F 
ATOM     73  C   UNL A   1      35.479  32.923  43.862  1.00  0.00     0.060 A 
BRANCH  73  74
ATOM     74  S   UNL A   1      34.115  33.152  45.022  1.00  0.00     0.124 S 
ATOM     75  O   UNL A   1      34.541  32.318  46.141  1.00  0.00    -0.237 OA
ATOM     76  O   UNL A   1      34.147  34.591  45.258  1.00  0.00    -0.237 OA
ATOM     77  O   UNL A   1      32.954  32.665  44.284  1.00  0.00    -0.744 OA
ENDBRANCH  73  74
ENDBRANCH  52  66
BRANCH  53  78
ATOM     78  C   UNL A   1      44.867  31.657  35.244  1.00  0.00     0.058 A 
ATOM     79  C   UNL A   1      45.557  32.795  34.803  1.00  0.00     0.135 A 
ATOM     80  C   UNL A   1      45.242  30.417  34.701  1.00  0.00     0.135 A 
ATOM     81  F   UNL A   1      45.228  34.006  35.279  1.00  0.00    -0.206 F 
ATOM     82  C   UNL A   1      46.570  32.712  33.852  1.00  0.00     0.059 A 
ATOM     83  C   UNL A   1      46.271  30.305  33.771  1.00  0.00     0.059 A 
ATOM     84  F   UNL A   1      44.617  29.295  35.092  1.00  0.00    -0.206 F 
ATOM     85  C   UNL A   1      46.923  31.460  33.345  1.00  0.00     0.060 A 
BRANCH  85  86
ATOM     86  S   UNL A   1      48.273  31.360  32.150  1.00  0.00     0.124 S 
ATOM     87  O   UNL A   1      47.778  30.344  31.229  1.00  0.00    -0.237 OA
ATOM     88  O   UNL A   1      48.323  32.724  31.632  1.00  0.00    -0.237 OA
ATOM     89  O   UNL A   1      49.417  30.966  32.967  1.00  0.00    -0.744 OA
ENDBRANCH  85  86
ENDBRANCH  53  78
BRANCH  65  90
ATOM     90  C   UNL A   1      44.713  31.333  42.224  1.00  0.00     0.058 A 
ATOM     91  C   UNL A   1      45.046  30.037  42.647  1.00  0.00     0.135 A 
ATOM     92  C   UNL A   1      45.453  32.404  42.755  1.00  0.00     0.135 A 
ATOM     93  F   UNL A   1      44.369  28.978  42.177  1.00  0.00    -0.206 F 
ATOM     94  C   UNL A   1      46.058  29.813  43.577  1.00  0.00     0.059 A 
ATOM     95  C   UNL A   1      46.490  32.201  43.660  1.00  0.00     0.059 A 
ATOM     96  F   UNL A   1      45.186  33.664  42.376  1.00  0.00    -0.206 F 
ATOM     97  C   UNL A   1      46.778  30.902  44.075  1.00  0.00     0.060 A 
BRANCH  97  98
ATOM     98  S   UNL A   1      48.111  30.592  45.251  1.00  0.00     0.124 S 
ATOM     99  O   UNL A   1      48.224  29.139  45.193  1.00  0.00    -0.237 OA
ATOM    100  O   UNL A   1      49.221  31.339  44.668  1.00  0.00    -0.237 OA
ATOM    101  O   UNL A   1      47.591  31.130  46.505  1.00  0.00    -0.744 OA
ENDBRANCH  97  98
ENDBRANCH  65  90
ENDBRANCH  39  40
ENDBRANCH  32  34
ENDBRANCH  31  32
ENDBRANCH  30  31
ENDBRANCH  29  30
ENDBRANCH  28  29
ENDBRANCH  27  28
ENDBRANCH  26  27
ENDBRANCH   1  26
TORSDOF 26
ENDMDL
