MODEL 1
REMARK VINA RESULT:      -7.4      0.000      0.000
REMARK SMILES Cc1c(C[NH2+]Cc2cccc(F)c2)c(C(=O)OCCOCCOCCOCCOC(=O)c2ccc(-c3c4nc(c(-c5c(F)cc(S(=O)(=O)[O-])cc5F)c5ccc([nH]5)c(-c5c(F)cc(S(=O)(=O)[O-])cc5F)c5nc(c(-c6c(F)cc(S(=O)(=O)[O-])cc6F)c6ccc3[nH]6)C=C5)C=C4)cc2)c(C)n1Cc1c(F)cccc1Cl
REMARK SMILES IDX 22 1 21 2 20 3 19 4 18 5 17 6 15 7 16 8 14 9 1 10 2 11 3 12
REMARK SMILES IDX 100 13 98 14 99 15 4 16 5 17 6 20 7 21 8 22 13 23 9 24 11 25
REMARK SMILES IDX 10 26 12 27 101 28 102 29 103 30 108 31 104 32 105 33 107 34
REMARK SMILES IDX 109 35 106 36 23 37 24 38 25 39 26 40 27 41 28 42 29 43
REMARK SMILES IDX 30 44 31 45 32 46 33 47 97 48 34 49 96 50 35 51 36 52 37 53
REMARK SMILES IDX 90 54 38 55 95 56 89 57 91 58 39 59 94 60 88 61 87 62 40 64
REMARK SMILES IDX 74 65 53 66 73 67 54 68 57 69 72 70 92 71 55 72 56 73 71 75
REMARK SMILES IDX 93 76 58 77 41 78 42 79 51 80 43 81 44 82 50 83 52 84 45 85
REMARK SMILES IDX 46 86 47 87 48 88 49 89 75 90 76 91 85 92 77 93 78 94 84 95
REMARK SMILES IDX 86 96 79 97 80 98 81 99 82 100 83 101 59 102 60 103 69 104
REMARK SMILES IDX 61 105 62 106 68 107 70 108 63 109 64 110 65 111 66 112
REMARK SMILES IDX 67 113
REMARK H PARENT 5 18 5 19 91 63 57 74
REMARK Flexibility Score: inf
ROOT
ATOM      1  C   UNL A   1      47.295  40.338  36.677  1.00  0.00     0.188 C 
ENDROOT
BRANCH   1   2
ATOM      2  C   UNL A   1      46.356  40.018  35.496  1.00  0.00     0.188 C 
BRANCH   2   3
ATOM      3  O   UNL A   1      46.676  40.748  34.322  1.00  0.00    -0.376 OA
BRANCH   3   4
ATOM      4  C   UNL A   1      45.641  41.145  33.439  1.00  0.00     0.202 C 
BRANCH   4   5
ATOM      5  C   UNL A   1      44.595  40.113  32.997  1.00  0.00     0.261 C 
BRANCH   5   6
ATOM      6  O   UNL A   1      45.120  38.868  32.544  1.00  0.00    -0.460 OA
BRANCH   6   7
ATOM      7  C   UNL A   1      45.597  38.784  31.267  1.00  0.00     0.340 C 
ATOM      8  O   UNL A   1      46.752  38.974  30.961  1.00  0.00    -0.246 OA
BRANCH   7   9
ATOM      9  C   UNL A   1      44.513  38.373  30.355  1.00  0.00     0.089 A 
ATOM     10  C   UNL A   1      41.783  38.731  27.840  1.00  0.00     0.065 C 
ATOM     11  C   UNL A   1      42.866  38.350  28.793  1.00  0.00     0.025 A 
ATOM     12  C   UNL A   1      43.852  39.160  29.360  1.00  0.00     0.042 A 
ATOM     13  N   UNL A   1      43.068  37.045  29.233  1.00  0.00    -0.343 N 
ATOM     14  C   UNL A   1      44.007  37.080  30.253  1.00  0.00     0.030 A 
ATOM     15  C   UNL A   1      44.436  35.897  31.055  1.00  0.00     0.065 C 
BRANCH  12  16
ATOM     16  C   UNL A   1      44.217  40.568  28.971  1.00  0.00     0.300 C 
BRANCH  16  17
ATOM     17  N   UNL A   1      44.804  40.568  27.644  1.00  0.00    -0.339 N 
ATOM     18  H   UNL A   1      44.118  40.197  26.988  1.00  0.00     0.346 HD
ATOM     19  H   UNL A   1      45.647  39.995  27.692  1.00  0.00     0.346 HD
BRANCH  17  20
ATOM     20  C   UNL A   1      45.214  41.888  27.182  1.00  0.00     0.297 C 
BRANCH  20  21
ATOM     21  C   UNL A   1      44.444  42.456  26.004  1.00  0.00     0.009 A 
ATOM     22  C   UNL A   1      43.419  41.764  25.340  1.00  0.00     0.010 A 
ATOM     23  C   UNL A   1      44.801  43.723  25.515  1.00  0.00     0.048 A 
ATOM     24  C   UNL A   1      42.791  42.296  24.211  1.00  0.00     0.004 A 
ATOM     25  C   UNL A   1      44.157  44.256  24.401  1.00  0.00     0.123 A 
ATOM     26  C   UNL A   1      43.162  43.549  23.739  1.00  0.00     0.039 A 
ATOM     27  F   UNL A   1      44.505  45.471  23.956  1.00  0.00    -0.207 F 
ENDBRANCH  20  21
ENDBRANCH  17  20
ENDBRANCH  16  17
ENDBRANCH  12  16
BRANCH  13  28
ATOM     28  C   UNL A   1      42.298  35.855  28.800  1.00  0.00     0.162 C 
BRANCH  28  29
ATOM     29  C   UNL A   1      42.977  34.987  27.760  1.00  0.00     0.026 A 
ATOM     30  C   UNL A   1      43.029  35.404  26.422  1.00  0.00     0.129 A 
ATOM     31  C   UNL A   1      43.656  33.792  28.054  1.00  0.00     0.048 A 
ATOM     32  F   UNL A   1      42.622  36.631  26.085  1.00  0.00    -0.207 F 
ATOM     33  C   UNL A   1      43.591  34.635  25.403  1.00  0.00     0.040 A 
ATOM     34  C   UNL A   1      44.258  33.025  27.040  1.00  0.00     0.021 A 
ATOM     35  Cl  UNL A   1      43.900  33.239  29.674  1.00  0.00    -0.084 Cl
ATOM     36  C   UNL A   1      44.199  33.430  25.710  1.00  0.00     0.005 A 
ENDBRANCH  28  29
ENDBRANCH  13  28
ENDBRANCH   7   9
ENDBRANCH   6   7
ENDBRANCH   5   6
ENDBRANCH   4   5
ENDBRANCH   3   4
ENDBRANCH   2   3
ENDBRANCH   1   2
BRANCH   1  37
ATOM     37  O   UNL A   1      48.299  39.398  37.037  1.00  0.00    -0.377 OA
BRANCH  37  38
ATOM     38  C   UNL A   1      48.489  39.088  38.410  1.00  0.00     0.188 C 
BRANCH  38  39
ATOM     39  C   UNL A   1      47.346  38.265  39.041  1.00  0.00     0.188 C 
BRANCH  39  40
ATOM     40  O   UNL A   1      47.369  38.016  40.432  1.00  0.00    -0.376 OA
BRANCH  40  41
ATOM     41  C   UNL A   1      46.144  37.692  41.053  1.00  0.00     0.202 C 
BRANCH  41  42
ATOM     42  C   UNL A   1      45.652  38.238  42.463  1.00  0.00     0.261 C 
BRANCH  42  43
ATOM     43  O   UNL A   1      45.207  37.566  43.746  1.00  0.00    -0.460 OA
BRANCH  43  44
ATOM     44  C   UNL A   1      43.898  37.136  44.025  1.00  0.00     0.338 C 
ATOM     45  O   UNL A   1      43.435  37.272  45.150  1.00  0.00    -0.246 OA
BRANCH  44  46
ATOM     46  C   UNL A   1      42.995  36.485  42.828  1.00  0.00     0.060 A 
ATOM     47  C   UNL A   1      42.838  35.122  42.372  1.00  0.00     0.016 A 
ATOM     48  C   UNL A   1      42.307  37.266  41.962  1.00  0.00     0.016 A 
ATOM     49  C   UNL A   1      41.971  34.547  41.107  1.00  0.00     0.010 A 
ATOM     50  C   UNL A   1      41.536  36.674  40.803  1.00  0.00     0.010 A 
ATOM     51  C   UNL A   1      41.235  35.317  40.167  1.00  0.00    -0.014 A 
BRANCH  51  52
ATOM     52  C   UNL A   1      39.825  34.915  38.961  1.00  0.00     0.031 A 
ATOM     53  C   UNL A   1      39.549  36.160  38.158  1.00  0.00     0.074 A 
ATOM     54  C   UNL A   1      39.026  33.962  38.049  1.00  0.00     0.049 A 
ATOM     55  N   UNL A   1      40.013  36.180  36.931  1.00  0.00    -0.248 NA
ATOM     56  C   UNL A   1      39.911  37.366  38.860  1.00  0.00     0.031 C 
ATOM     57  C   UNL A   1      38.835  32.476  37.953  1.00  0.00     0.029 A 
ATOM     58  N   UNL A   1      38.239  34.263  36.691  1.00  0.00    -0.354 N 
ATOM     59  C   UNL A   1      41.354  36.296  37.284  1.00  0.00     0.074 A 
ATOM     60  C   UNL A   1      41.147  37.380  38.324  1.00  0.00     0.031 C 
ATOM     61  C   UNL A   1      38.146  32.044  36.837  1.00  0.00     0.029 A 
ATOM     62  C   UNL A   1      37.719  33.117  35.881  1.00  0.00     0.049 A 
ATOM     63  H   UNL A   1      38.099  35.191  36.391  1.00  0.00     0.167 HD
ATOM     64  C   UNL A   1      42.111  35.102  37.087  1.00  0.00     0.037 A 
ATOM     65  C   UNL A   1      37.117  32.778  34.567  1.00  0.00     0.037 A 
ATOM     66  C   UNL A   1      42.686  35.373  35.798  1.00  0.00     0.049 A 
ATOM     67  C   UNL A   1      38.409  33.229  33.963  1.00  0.00     0.074 A 
ATOM     68  C   UNL A   1      42.533  36.448  34.937  1.00  0.00     0.029 A 
ATOM     69  N   UNL A   1      43.048  34.330  34.996  1.00  0.00    -0.354 N 
ATOM     70  N   UNL A   1      39.312  32.399  33.528  1.00  0.00    -0.248 NA
ATOM     71  C   UNL A   1      38.552  34.654  33.564  1.00  0.00     0.031 C 
ATOM     72  C   UNL A   1      41.846  35.780  33.896  1.00  0.00     0.029 A 
ATOM     73  C   UNL A   1      42.125  34.406  33.989  1.00  0.00     0.049 A 
ATOM     74  H   UNL A   1      43.785  33.687  35.113  1.00  0.00     0.167 HD
ATOM     75  C   UNL A   1      40.280  33.262  33.096  1.00  0.00     0.074 A 
ATOM     76  C   UNL A   1      39.630  34.513  32.798  1.00  0.00     0.031 C 
ATOM     77  C   UNL A   1      41.523  33.160  33.601  1.00  0.00     0.037 A 
BRANCH  64  78
ATOM     78  C   UNL A   1      42.748  33.744  37.961  1.00  0.00     0.058 A 
ATOM     79  C   UNL A   1      44.115  33.774  38.325  1.00  0.00     0.135 A 
ATOM     80  C   UNL A   1      42.120  32.573  38.541  1.00  0.00     0.135 A 
ATOM     81  F   UNL A   1      44.909  34.753  37.873  1.00  0.00    -0.206 F 
ATOM     82  C   UNL A   1      44.735  32.867  39.218  1.00  0.00     0.059 A 
ATOM     83  C   UNL A   1      42.692  31.712  39.502  1.00  0.00     0.059 A 
ATOM     84  F   UNL A   1      40.862  32.204  38.335  1.00  0.00    -0.206 F 
ATOM     85  C   UNL A   1      44.004  31.879  39.860  1.00  0.00     0.060 A 
BRANCH  85  86
ATOM     86  S   UNL A   1      44.676  30.992  41.287  1.00  0.00     0.124 S 
ATOM     87  O   UNL A   1      45.676  30.120  40.691  1.00  0.00    -0.237 OA
ATOM     88  O   UNL A   1      45.194  32.084  42.111  1.00  0.00    -0.237 OA
ATOM     89  O   UNL A   1      43.505  30.319  41.848  1.00  0.00    -0.744 OA
ENDBRANCH  85  86
ENDBRANCH  64  78
BRANCH  65  90
ATOM     90  C   UNL A   1      36.310  32.792  32.978  1.00  0.00     0.058 A 
ATOM     91  C   UNL A   1      36.127  31.716  32.003  1.00  0.00     0.135 A 
ATOM     92  C   UNL A   1      35.527  33.881  32.497  1.00  0.00     0.135 A 
ATOM     93  F   UNL A   1      36.232  30.424  32.303  1.00  0.00    -0.206 F 
ATOM     94  C   UNL A   1      35.625  31.785  30.679  1.00  0.00     0.059 A 
ATOM     95  C   UNL A   1      34.894  33.951  31.166  1.00  0.00     0.059 A 
ATOM     96  F   UNL A   1      35.255  34.908  33.316  1.00  0.00    -0.206 F 
ATOM     97  C   UNL A   1      35.040  32.929  30.227  1.00  0.00     0.060 A 
BRANCH  97  98
ATOM     98  S   UNL A   1      34.459  32.934  28.495  1.00  0.00     0.124 S 
ATOM     99  O   UNL A   1      34.050  31.542  28.313  1.00  0.00    -0.237 OA
ATOM    100  O   UNL A   1      33.358  33.896  28.504  1.00  0.00    -0.237 OA
ATOM    101  O   UNL A   1      35.632  33.343  27.731  1.00  0.00    -0.744 OA
ENDBRANCH  97  98
ENDBRANCH  65  90
BRANCH  77 102
ATOM    102  C   UNL A   1      41.845  31.789  34.138  1.00  0.00     0.058 A 
ATOM    103  C   UNL A   1      41.432  31.326  35.402  1.00  0.00     0.135 A 
ATOM    104  C   UNL A   1      42.479  30.866  33.309  1.00  0.00     0.135 A 
ATOM    105  F   UNL A   1      40.742  32.138  36.205  1.00  0.00    -0.206 F 
ATOM    106  C   UNL A   1      41.707  30.037  35.864  1.00  0.00     0.059 A 
ATOM    107  C   UNL A   1      42.748  29.565  33.730  1.00  0.00     0.059 A 
ATOM    108  F   UNL A   1      42.849  31.226  32.071  1.00  0.00    -0.206 F 
ATOM    109  C   UNL A   1      42.368  29.159  35.011  1.00  0.00     0.060 A 
BRANCH 109 110
ATOM    110  S   UNL A   1      42.803  27.500  35.580  1.00  0.00     0.124 S 
ATOM    111  O   UNL A   1      44.170  27.348  35.101  1.00  0.00    -0.237 OA
ATOM    112  O   UNL A   1      42.643  27.621  37.025  1.00  0.00    -0.237 OA
ATOM    113  O   UNL A   1      41.816  26.655  34.910  1.00  0.00    -0.744 OA
ENDBRANCH 109 110
ENDBRANCH  77 102
ENDBRANCH  51  52
ENDBRANCH  44  46
ENDBRANCH  43  44
ENDBRANCH  42  43
ENDBRANCH  41  42
ENDBRANCH  40  41
ENDBRANCH  39  40
ENDBRANCH  38  39
ENDBRANCH  37  38
ENDBRANCH   1  37
TORSDOF 29
ENDMDL
MODEL 2
REMARK VINA RESULT:      -7.2      4.755      9.941
REMARK SMILES Cc1c(C[NH2+]Cc2cccc(F)c2)c(C(=O)OCCOCCOCCOCCOC(=O)c2ccc(-c3c4nc(c(-c5c(F)cc(S(=O)(=O)[O-])cc5F)c5ccc([nH]5)c(-c5c(F)cc(S(=O)(=O)[O-])cc5F)c5nc(c(-c6c(F)cc(S(=O)(=O)[O-])cc6F)c6ccc3[nH]6)C=C5)C=C4)cc2)c(C)n1Cc1c(F)cccc1Cl
REMARK SMILES IDX 22 1 21 2 20 3 19 4 18 5 17 6 15 7 16 8 14 9 1 10 2 11 3 12
REMARK SMILES IDX 100 13 98 14 99 15 4 16 5 17 6 20 7 21 8 22 13 23 9 24 11 25
REMARK SMILES IDX 10 26 12 27 101 28 102 29 103 30 108 31 104 32 105 33 107 34
REMARK SMILES IDX 109 35 106 36 23 37 24 38 25 39 26 40 27 41 28 42 29 43
REMARK SMILES IDX 30 44 31 45 32 46 33 47 97 48 34 49 96 50 35 51 36 52 37 53
REMARK SMILES IDX 90 54 38 55 95 56 89 57 91 58 39 59 94 60 88 61 87 62 40 64
REMARK SMILES IDX 74 65 53 66 73 67 54 68 57 69 72 70 92 71 55 72 56 73 71 75
REMARK SMILES IDX 93 76 58 77 41 78 42 79 51 80 43 81 44 82 50 83 52 84 45 85
REMARK SMILES IDX 46 86 47 87 48 88 49 89 75 90 76 91 85 92 77 93 78 94 84 95
REMARK SMILES IDX 86 96 79 97 80 98 81 99 82 100 83 101 59 102 60 103 69 104
REMARK SMILES IDX 61 105 62 106 68 107 70 108 63 109 64 110 65 111 66 112
REMARK SMILES IDX 67 113
REMARK H PARENT 5 18 5 19 91 63 57 74
REMARK Flexibility Score: inf
ROOT
ATOM      1  C   UNL A   1      46.076  39.457  27.864  1.00  0.00     0.188 C 
ENDROOT
BRANCH   1   2
ATOM      2  C   UNL A   1      46.343  40.972  27.968  1.00  0.00     0.188 C 
BRANCH   2   3
ATOM      3  O   UNL A   1      46.991  41.501  26.821  1.00  0.00    -0.376 OA
BRANCH   3   4
ATOM      4  C   UNL A   1      47.612  42.773  26.890  1.00  0.00     0.202 C 
BRANCH   4   5
ATOM      5  C   UNL A   1      47.265  43.835  25.839  1.00  0.00     0.261 C 
BRANCH   5   6
ATOM      6  O   UNL A   1      46.291  43.444  24.874  1.00  0.00    -0.460 OA
BRANCH   6   7
ATOM      7  C   UNL A   1      45.411  44.382  24.416  1.00  0.00     0.340 C 
ATOM      8  O   UNL A   1      45.249  45.467  24.926  1.00  0.00    -0.246 OA
BRANCH   7   9
ATOM      9  C   UNL A   1      44.751  43.891  23.191  1.00  0.00     0.089 A 
ATOM     10  C   UNL A   1      42.287  42.043  21.088  1.00  0.00     0.065 C 
ATOM     11  C   UNL A   1      43.328  42.902  21.725  1.00  0.00     0.025 A 
ATOM     12  C   UNL A   1      43.501  43.204  23.077  1.00  0.00     0.042 A 
ATOM     13  N   UNL A   1      44.297  43.588  20.997  1.00  0.00    -0.343 N 
ATOM     14  C   UNL A   1      45.215  44.110  21.896  1.00  0.00     0.030 A 
ATOM     15  C   UNL A   1      46.460  44.839  21.514  1.00  0.00     0.065 C 
BRANCH  12  16
ATOM     16  C   UNL A   1      42.543  42.933  24.206  1.00  0.00     0.300 C 
BRANCH  16  17
ATOM     17  N   UNL A   1      42.876  41.667  24.831  1.00  0.00    -0.339 N 
ATOM     18  H   UNL A   1      43.531  41.845  25.591  1.00  0.00     0.346 HD
ATOM     19  H   UNL A   1      43.274  41.072  24.104  1.00  0.00     0.346 HD
BRANCH  17  20
ATOM     20  C   UNL A   1      41.723  40.959  25.375  1.00  0.00     0.297 C 
BRANCH  20  21
ATOM     21  C   UNL A   1      41.981  40.093  26.593  1.00  0.00     0.009 A 
ATOM     22  C   UNL A   1      42.389  40.602  27.836  1.00  0.00     0.010 A 
ATOM     23  C   UNL A   1      41.853  38.700  26.468  1.00  0.00     0.048 A 
ATOM     24  C   UNL A   1      42.690  39.758  28.909  1.00  0.00     0.004 A 
ATOM     25  C   UNL A   1      42.135  37.865  27.547  1.00  0.00     0.123 A 
ATOM     26  C   UNL A   1      42.563  38.382  28.763  1.00  0.00     0.039 A 
ATOM     27  F   UNL A   1      41.997  36.540  27.409  1.00  0.00    -0.207 F 
ENDBRANCH  20  21
ENDBRANCH  17  20
ENDBRANCH  16  17
ENDBRANCH  12  16
BRANCH  13  28
ATOM     28  C   UNL A   1      44.414  43.616  19.520  1.00  0.00     0.162 C 
BRANCH  28  29
ATOM     29  C   UNL A   1      43.824  44.839  18.847  1.00  0.00     0.026 A 
ATOM     30  C   UNL A   1      44.658  45.896  18.453  1.00  0.00     0.129 A 
ATOM     31  C   UNL A   1      42.469  44.968  18.497  1.00  0.00     0.048 A 
ATOM     32  F   UNL A   1      45.986  45.766  18.527  1.00  0.00    -0.207 F 
ATOM     33  C   UNL A   1      44.181  47.072  17.877  1.00  0.00     0.040 A 
ATOM     34  C   UNL A   1      41.981  46.136  17.882  1.00  0.00     0.021 A 
ATOM     35  Cl  UNL A   1      41.336  43.677  18.688  1.00  0.00    -0.084 Cl
ATOM     36  C   UNL A   1      42.830  47.201  17.600  1.00  0.00     0.005 A 
ENDBRANCH  28  29
ENDBRANCH  13  28
ENDBRANCH   7   9
ENDBRANCH   6   7
ENDBRANCH   5   6
ENDBRANCH   4   5
ENDBRANCH   3   4
ENDBRANCH   2   3
ENDBRANCH   1   2
BRANCH   1  37
ATOM     37  O   UNL A   1      47.010  38.550  28.435  1.00  0.00    -0.377 OA
BRANCH  37  38
ATOM     38  C   UNL A   1      47.585  37.547  27.610  1.00  0.00     0.188 C 
BRANCH  38  39
ATOM     39  C   UNL A   1      47.861  37.996  26.160  1.00  0.00     0.188 C 
BRANCH  39  40
ATOM     40  O   UNL A   1      48.668  37.182  25.332  1.00  0.00    -0.376 OA
BRANCH  40  41
ATOM     41  C   UNL A   1      48.959  35.880  25.789  1.00  0.00     0.202 C 
BRANCH  41  42
ATOM     42  C   UNL A   1      48.127  34.572  25.438  1.00  0.00     0.261 C 
BRANCH  42  43
ATOM     43  O   UNL A   1      46.647  34.245  25.428  1.00  0.00    -0.460 OA
BRANCH  43  44
ATOM     44  C   UNL A   1      46.048  33.176  26.115  1.00  0.00     0.338 C 
ATOM     45  O   UNL A   1      46.258  32.023  25.759  1.00  0.00    -0.246 OA
BRANCH  44  46
ATOM     46  C   UNL A   1      45.097  33.486  27.409  1.00  0.00     0.060 A 
ATOM     47  C   UNL A   1      44.043  32.721  28.035  1.00  0.00     0.016 A 
ATOM     48  C   UNL A   1      45.130  34.688  28.033  1.00  0.00     0.016 A 
ATOM     49  C   UNL A   1      43.071  33.131  29.289  1.00  0.00     0.010 A 
ATOM     50  C   UNL A   1      44.195  35.010  29.178  1.00  0.00     0.010 A 
ATOM     51  C   UNL A   1      43.058  34.373  29.977  1.00  0.00    -0.014 A 
BRANCH  51  52
ATOM     52  C   UNL A   1      42.418  34.922  31.678  1.00  0.00     0.031 A 
ATOM     53  C   UNL A   1      40.960  34.546  31.755  1.00  0.00     0.074 A 
ATOM     54  C   UNL A   1      42.585  35.202  33.185  1.00  0.00     0.049 A 
ATOM     55  N   UNL A   1      40.666  33.485  32.468  1.00  0.00    -0.248 NA
ATOM     56  C   UNL A   1      40.334  34.478  30.458  1.00  0.00     0.031 C 
ATOM     57  C   UNL A   1      43.736  35.499  34.101  1.00  0.00     0.029 A 
ATOM     58  N   UNL A   1      41.529  35.063  34.377  1.00  0.00    -0.354 N 
ATOM     59  C   UNL A   1      41.208  32.559  31.581  1.00  0.00     0.074 A 
ATOM     60  C   UNL A   1      40.594  33.162  30.333  1.00  0.00     0.031 C 
ATOM     61  C   UNL A   1      43.429  35.508  35.447  1.00  0.00     0.029 A 
ATOM     62  C   UNL A   1      42.004  35.193  35.790  1.00  0.00     0.049 A 
ATOM     63  H   UNL A   1      40.578  34.893  34.183  1.00  0.00     0.167 HD
ATOM     64  C   UNL A   1      42.435  31.981  32.025  1.00  0.00     0.037 A 
ATOM     65  C   UNL A   1      41.577  35.009  37.200  1.00  0.00     0.037 A 
ATOM     66  C   UNL A   1      41.949  30.761  32.609  1.00  0.00     0.049 A 
ATOM     67  C   UNL A   1      41.463  33.553  36.878  1.00  0.00     0.074 A 
ATOM     68  C   UNL A   1      40.661  30.274  32.764  1.00  0.00     0.029 A 
ATOM     69  N   UNL A   1      42.675  30.156  33.593  1.00  0.00    -0.354 N 
ATOM     70  N   UNL A   1      42.350  32.677  37.251  1.00  0.00    -0.248 NA
ATOM     71  C   UNL A   1      40.161  33.031  36.384  1.00  0.00     0.031 C 
ATOM     72  C   UNL A   1      40.582  30.352  34.175  1.00  0.00     0.029 A 
ATOM     73  C   UNL A   1      41.887  30.352  34.695  1.00  0.00     0.049 A 
ATOM     74  H   UNL A   1      43.543  29.696  33.527  1.00  0.00     0.167 HD
ATOM     75  C   UNL A   1      41.827  31.529  36.725  1.00  0.00     0.074 A 
ATOM     76  C   UNL A   1      40.408  31.738  36.577  1.00  0.00     0.031 C 
ATOM     77  C   UNL A   1      42.572  30.796  35.877  1.00  0.00     0.037 A 
BRANCH  64  78
ATOM     78  C   UNL A   1      44.153  32.113  31.801  1.00  0.00     0.058 A 
ATOM     79  C   UNL A   1      44.809  31.080  31.093  1.00  0.00     0.135 A 
ATOM     80  C   UNL A   1      45.097  33.174  32.091  1.00  0.00     0.135 A 
ATOM     81  F   UNL A   1      44.139  29.974  30.745  1.00  0.00    -0.206 F 
ATOM     82  C   UNL A   1      46.148  31.135  30.634  1.00  0.00     0.059 A 
ATOM     83  C   UNL A   1      46.402  33.292  31.568  1.00  0.00     0.059 A 
ATOM     84  F   UNL A   1      44.826  34.258  32.808  1.00  0.00    -0.206 F 
ATOM     85  C   UNL A   1      46.920  32.273  30.813  1.00  0.00     0.060 A 
BRANCH  85  86
ATOM     86  S   UNL A   1      48.459  32.516  29.893  1.00  0.00     0.124 S 
ATOM     87  O   UNL A   1      48.102  32.109  28.543  1.00  0.00    -0.237 OA
ATOM     88  O   UNL A   1      48.709  33.944  30.082  1.00  0.00    -0.237 OA
ATOM     89  O   UNL A   1      49.406  31.643  30.586  1.00  0.00    -0.744 OA
ENDBRANCH  85  86
ENDBRANCH  64  78
BRANCH  65  90
ATOM     90  C   UNL A   1      40.672  34.796  38.721  1.00  0.00     0.058 A 
ATOM     91  C   UNL A   1      41.071  34.157  39.975  1.00  0.00     0.135 A 
ATOM     92  C   UNL A   1      39.422  35.425  38.992  1.00  0.00     0.135 A 
ATOM     93  F   UNL A   1      42.336  33.928  40.316  1.00  0.00    -0.206 F 
ATOM     94  C   UNL A   1      40.284  33.857  41.116  1.00  0.00     0.059 A 
ATOM     95  C   UNL A   1      38.618  35.226  40.213  1.00  0.00     0.059 A 
ATOM     96  F   UNL A   1      38.941  36.334  38.130  1.00  0.00    -0.206 F 
ATOM     97  C   UNL A   1      39.021  34.355  41.225  1.00  0.00     0.060 A 
BRANCH  97  98
ATOM     98  S   UNL A   1      38.071  33.880  42.712  1.00  0.00     0.124 S 
ATOM     99  O   UNL A   1      39.110  33.877  43.742  1.00  0.00    -0.237 OA
ATOM    100  O   UNL A   1      37.084  34.950  42.847  1.00  0.00    -0.237 OA
ATOM    101  O   UNL A   1      37.523  32.571  42.378  1.00  0.00    -0.744 OA
ENDBRANCH  97  98
ENDBRANCH  65  90
BRANCH  77 102
ATOM    102  C   UNL A   1      44.055  31.004  36.046  1.00  0.00     0.058 A 
ATOM    103  C   UNL A   1      44.763  32.083  35.483  1.00  0.00     0.135 A 
ATOM    104  C   UNL A   1      44.768  30.165  36.900  1.00  0.00     0.135 A 
ATOM    105  F   UNL A   1      44.114  32.971  34.727  1.00  0.00    -0.206 F 
ATOM    106  C   UNL A   1      46.131  32.279  35.684  1.00  0.00     0.059 A 
ATOM    107  C   UNL A   1      46.127  30.347  37.142  1.00  0.00     0.059 A 
ATOM    108  F   UNL A   1      44.140  29.150  37.513  1.00  0.00    -0.206 F 
ATOM    109  C   UNL A   1      46.806  31.399  36.524  1.00  0.00     0.060 A 
BRANCH 109 110
ATOM    110  S   UNL A   1      48.588  31.570  36.770  1.00  0.00     0.124 S 
ATOM    111  O   UNL A   1      49.126  31.189  35.472  1.00  0.00    -0.237 OA
ATOM    112  O   UNL A   1      48.714  32.980  37.124  1.00  0.00    -0.237 OA
ATOM    113  O   UNL A   1      48.861  30.626  37.853  1.00  0.00    -0.744 OA
ENDBRANCH 109 110
ENDBRANCH  77 102
ENDBRANCH  51  52
ENDBRANCH  44  46
ENDBRANCH  43  44
ENDBRANCH  42  43
ENDBRANCH  41  42
ENDBRANCH  40  41
ENDBRANCH  39  40
ENDBRANCH  38  39
ENDBRANCH  37  38
ENDBRANCH   1  37
TORSDOF 29
ENDMDL
MODEL 3
REMARK VINA RESULT:      -7.2      6.262     14.233
REMARK SMILES Cc1c(C[NH2+]Cc2cccc(F)c2)c(C(=O)OCCOCCOCCOCCOC(=O)c2ccc(-c3c4nc(c(-c5c(F)cc(S(=O)(=O)[O-])cc5F)c5ccc([nH]5)c(-c5c(F)cc(S(=O)(=O)[O-])cc5F)c5nc(c(-c6c(F)cc(S(=O)(=O)[O-])cc6F)c6ccc3[nH]6)C=C5)C=C4)cc2)c(C)n1Cc1c(F)cccc1Cl
REMARK SMILES IDX 22 1 21 2 20 3 19 4 18 5 17 6 15 7 16 8 14 9 1 10 2 11 3 12
REMARK SMILES IDX 100 13 98 14 99 15 4 16 5 17 6 20 7 21 8 22 13 23 9 24 11 25
REMARK SMILES IDX 10 26 12 27 101 28 102 29 103 30 108 31 104 32 105 33 107 34
REMARK SMILES IDX 109 35 106 36 23 37 24 38 25 39 26 40 27 41 28 42 29 43
REMARK SMILES IDX 30 44 31 45 32 46 33 47 97 48 34 49 96 50 35 51 36 52 37 53
REMARK SMILES IDX 90 54 38 55 95 56 89 57 91 58 39 59 94 60 88 61 87 62 40 64
REMARK SMILES IDX 74 65 53 66 73 67 54 68 57 69 72 70 92 71 55 72 56 73 71 75
REMARK SMILES IDX 93 76 58 77 41 78 42 79 51 80 43 81 44 82 50 83 52 84 45 85
REMARK SMILES IDX 46 86 47 87 48 88 49 89 75 90 76 91 85 92 77 93 78 94 84 95
REMARK SMILES IDX 86 96 79 97 80 98 81 99 82 100 83 101 59 102 60 103 69 104
REMARK SMILES IDX 61 105 62 106 68 107 70 108 63 109 64 110 65 111 66 112
REMARK SMILES IDX 67 113
REMARK H PARENT 5 18 5 19 91 63 57 74
REMARK Flexibility Score: inf
ROOT
ATOM      1  C   UNL A   1      40.993  28.529  31.891  1.00  0.00     0.188 C 
ENDROOT
BRANCH   1   2
ATOM      2  C   UNL A   1      42.321  28.218  32.610  1.00  0.00     0.188 C 
BRANCH   2   3
ATOM      3  O   UNL A   1      43.438  28.217  31.735  1.00  0.00    -0.376 OA
BRANCH   3   4
ATOM      4  C   UNL A   1      44.709  27.816  32.219  1.00  0.00     0.202 C 
BRANCH   4   5
ATOM      5  C   UNL A   1      45.503  26.755  31.447  1.00  0.00     0.261 C 
BRANCH   5   6
ATOM      6  O   UNL A   1      44.921  26.330  30.217  1.00  0.00    -0.460 OA
BRANCH   6   7
ATOM      7  C   UNL A   1      45.697  26.326  29.093  1.00  0.00     0.340 C 
ATOM      8  O   UNL A   1      46.903  26.423  29.101  1.00  0.00    -0.246 OA
BRANCH   7   9
ATOM      9  C   UNL A   1      44.850  26.124  27.902  1.00  0.00     0.089 A 
ATOM     10  C   UNL A   1      42.614  27.014  25.053  1.00  0.00     0.065 C 
ATOM     11  C   UNL A   1      43.534  26.444  26.080  1.00  0.00     0.025 A 
ATOM     12  C   UNL A   1      44.308  27.118  27.027  1.00  0.00     0.042 A 
ATOM     13  N   UNL A   1      43.784  25.080  26.204  1.00  0.00    -0.343 N 
ATOM     14  C   UNL A   1      44.508  24.883  27.370  1.00  0.00     0.030 A 
ATOM     15  C   UNL A   1      44.899  23.550  27.914  1.00  0.00     0.065 C 
BRANCH  12  16
ATOM     16  C   UNL A   1      44.592  28.595  27.095  1.00  0.00     0.300 C 
BRANCH  16  17
ATOM     17  N   UNL A   1      43.721  29.212  28.077  1.00  0.00    -0.339 N 
ATOM     18  H   UNL A   1      43.428  28.496  28.741  1.00  0.00     0.346 HD
ATOM     19  H   UNL A   1      42.935  29.614  27.566  1.00  0.00     0.346 HD
BRANCH  17  20
ATOM     20  C   UNL A   1      44.347  30.299  28.818  1.00  0.00     0.297 C 
BRANCH  20  21
ATOM     21  C   UNL A   1      44.924  31.431  27.989  1.00  0.00     0.009 A 
ATOM     22  C   UNL A   1      44.229  32.061  26.944  1.00  0.00     0.010 A 
ATOM     23  C   UNL A   1      46.241  31.847  28.241  1.00  0.00     0.048 A 
ATOM     24  C   UNL A   1      44.829  33.047  26.157  1.00  0.00     0.004 A 
ATOM     25  C   UNL A   1      46.827  32.845  27.466  1.00  0.00     0.123 A 
ATOM     26  C   UNL A   1      46.136  33.441  26.419  1.00  0.00     0.039 A 
ATOM     27  F   UNL A   1      48.081  33.234  27.729  1.00  0.00    -0.207 F 
ENDBRANCH  20  21
ENDBRANCH  17  20
ENDBRANCH  16  17
ENDBRANCH  12  16
BRANCH  13  28
ATOM     28  C   UNL A   1      43.234  24.015  25.332  1.00  0.00     0.162 C 
BRANCH  28  29
ATOM     29  C   UNL A   1      42.359  22.994  26.029  1.00  0.00     0.026 A 
ATOM     30  C   UNL A   1      42.718  21.638  26.022  1.00  0.00     0.129 A 
ATOM     31  C   UNL A   1      41.217  23.318  26.782  1.00  0.00     0.048 A 
ATOM     32  F   UNL A   1      43.905  21.261  25.538  1.00  0.00    -0.207 F 
ATOM     33  C   UNL A   1      41.936  20.637  26.597  1.00  0.00     0.040 A 
ATOM     34  C   UNL A   1      40.440  22.321  27.397  1.00  0.00     0.021 A 
ATOM     35  Cl  UNL A   1      40.751  24.952  27.101  1.00  0.00    -0.084 Cl
ATOM     36  C   UNL A   1      40.781  20.976  27.279  1.00  0.00     0.005 A 
ENDBRANCH  28  29
ENDBRANCH  13  28
ENDBRANCH   7   9
ENDBRANCH   6   7
ENDBRANCH   5   6
ENDBRANCH   4   5
ENDBRANCH   3   4
ENDBRANCH   2   3
ENDBRANCH   1   2
BRANCH   1  37
ATOM     37  O   UNL A   1      39.806  28.669  32.661  1.00  0.00    -0.377 OA
BRANCH  37  38
ATOM     38  C   UNL A   1      39.381  29.970  33.038  1.00  0.00     0.188 C 
BRANCH  38  39
ATOM     39  C   UNL A   1      40.361  31.098  32.648  1.00  0.00     0.188 C 
BRANCH  39  40
ATOM     40  O   UNL A   1      40.476  32.227  33.491  1.00  0.00    -0.376 OA
BRANCH  40  41
ATOM     41  C   UNL A   1      41.730  32.871  33.544  1.00  0.00     0.202 C 
BRANCH  41  42
ATOM     42  C   UNL A   1      43.075  32.327  32.895  1.00  0.00     0.261 C 
BRANCH  42  43
ATOM     43  O   UNL A   1      43.975  32.826  31.782  1.00  0.00    -0.460 OA
BRANCH  43  44
ATOM     44  C   UNL A   1      43.538  33.490  30.622  1.00  0.00     0.338 C 
ATOM     45  O   UNL A   1      42.447  33.222  30.136  1.00  0.00    -0.246 OA
BRANCH  44  46
ATOM     46  C   UNL A   1      44.487  34.641  29.952  1.00  0.00     0.060 A 
ATOM     47  C   UNL A   1      44.314  35.471  28.782  1.00  0.00     0.016 A 
ATOM     48  C   UNL A   1      45.736  34.881  30.418  1.00  0.00     0.016 A 
ATOM     49  C   UNL A   1      45.348  36.555  28.119  1.00  0.00     0.010 A 
ATOM     50  C   UNL A   1      46.650  35.886  29.751  1.00  0.00     0.010 A 
ATOM     51  C   UNL A   1      46.666  36.846  28.561  1.00  0.00    -0.014 A 
BRANCH  51  52
ATOM     52  C   UNL A   1      47.842  38.312  28.300  1.00  0.00     0.031 A 
ATOM     53  C   UNL A   1      47.867  38.614  26.824  1.00  0.00     0.074 A 
ATOM     54  C   UNL A   1      48.519  39.627  28.737  1.00  0.00     0.049 A 
ATOM     55  N   UNL A   1      47.175  39.656  26.427  1.00  0.00    -0.248 NA
ATOM     56  C   UNL A   1      47.560  37.461  26.015  1.00  0.00     0.031 C 
ATOM     57  C   UNL A   1      48.796  40.308  30.046  1.00  0.00     0.029 A 
ATOM     58  N   UNL A   1      49.005  40.871  27.860  1.00  0.00    -0.354 N 
ATOM     59  C   UNL A   1      45.922  39.086  26.635  1.00  0.00     0.074 A 
ATOM     60  C   UNL A   1      46.246  37.757  25.981  1.00  0.00     0.031 C 
ATOM     61  C   UNL A   1      49.287  41.595  29.946  1.00  0.00     0.029 A 
ATOM     62  C   UNL A   1      49.441  42.124  28.553  1.00  0.00     0.049 A 
ATOM     63  H   UNL A   1      49.017  40.813  26.876  1.00  0.00     0.167 HD
ATOM     64  C   UNL A   1      45.231  39.606  27.770  1.00  0.00     0.037 A 
ATOM     65  C   UNL A   1      49.802  43.543  28.307  1.00  0.00     0.037 A 
ATOM     66  C   UNL A   1      44.400  40.592  27.137  1.00  0.00     0.049 A 
ATOM     67  C   UNL A   1      48.389  43.728  27.854  1.00  0.00     0.074 A 
ATOM     68  C   UNL A   1      44.305  40.992  25.814  1.00  0.00     0.029 A 
ATOM     69  N   UNL A   1      43.968  41.666  27.860  1.00  0.00    -0.354 N 
ATOM     70  N   UNL A   1      47.482  44.303  28.589  1.00  0.00    -0.248 NA
ATOM     71  C   UNL A   1      48.068  43.529  26.415  1.00  0.00     0.031 C 
ATOM     72  C   UNL A   1      44.826  42.300  25.958  1.00  0.00     0.029 A 
ATOM     73  C   UNL A   1      44.672  42.695  27.297  1.00  0.00     0.049 A 
ATOM     74  H   UNL A   1      43.316  41.692  28.598  1.00  0.00     0.167 HD
ATOM     75  C   UNL A   1      46.389  44.224  27.773  1.00  0.00     0.074 A 
ATOM     76  C   UNL A   1      46.875  44.118  26.420  1.00  0.00     0.031 C 
ATOM     77  C   UNL A   1      45.277  43.613  28.222  1.00  0.00     0.037 A 
BRANCH  64  78
ATOM     78  C   UNL A   1      44.875  39.227  29.428  1.00  0.00     0.058 A 
ATOM     79  C   UNL A   1      43.567  38.790  29.739  1.00  0.00     0.135 A 
ATOM     80  C   UNL A   1      45.708  39.138  30.611  1.00  0.00     0.135 A 
ATOM     81  F   UNL A   1      42.609  38.816  28.805  1.00  0.00    -0.206 F 
ATOM     82  C   UNL A   1      43.172  38.236  30.982  1.00  0.00     0.059 A 
ATOM     83  C   UNL A   1      45.364  38.508  31.825  1.00  0.00     0.059 A 
ATOM     84  F   UNL A   1      46.971  39.541  30.683  1.00  0.00    -0.206 F 
ATOM     85  C   UNL A   1      44.092  38.032  32.000  1.00  0.00     0.060 A 
BRANCH  85  86
ATOM     86  S   UNL A   1      43.705  36.968  33.413  1.00  0.00     0.124 S 
ATOM     87  O   UNL A   1      43.071  37.884  34.348  1.00  0.00    -0.237 OA
ATOM     88  O   UNL A   1      42.829  35.965  32.811  1.00  0.00    -0.237 OA
ATOM     89  O   UNL A   1      45.014  36.458  33.818  1.00  0.00    -0.744 OA
ENDBRANCH  85  86
ENDBRANCH  64  78
BRANCH  65  90
ATOM     90  C   UNL A   1      50.285  45.111  27.608  1.00  0.00     0.058 A 
ATOM     91  C   UNL A   1      49.675  46.433  27.746  1.00  0.00     0.135 A 
ATOM     92  C   UNL A   1      51.516  45.327  26.924  1.00  0.00     0.135 A 
ATOM     93  F   UNL A   1      48.836  46.759  28.726  1.00  0.00    -0.206 F 
ATOM     94  C   UNL A   1      49.978  47.635  27.057  1.00  0.00     0.059 A 
ATOM     95  C   UNL A   1      51.923  46.592  26.284  1.00  0.00     0.059 A 
ATOM     96  F   UNL A   1      52.438  44.352  26.905  1.00  0.00    -0.206 F 
ATOM     97  C   UNL A   1      51.091  47.712  26.274  1.00  0.00     0.060 A 
BRANCH  97  98
ATOM     98  S   UNL A   1      51.376  49.288  25.395  1.00  0.00     0.124 S 
ATOM     99  O   UNL A   1      51.872  50.145  26.471  1.00  0.00    -0.237 OA
ATOM    100  O   UNL A   1      52.374  48.943  24.383  1.00  0.00    -0.237 OA
ATOM    101  O   UNL A   1      50.062  49.644  24.873  1.00  0.00    -0.744 OA
ENDBRANCH  97  98
ENDBRANCH  65  90
BRANCH  77 102
ATOM    102  C   UNL A   1      45.166  43.595  29.725  1.00  0.00     0.058 A 
ATOM    103  C   UNL A   1      45.846  42.680  30.550  1.00  0.00     0.135 A 
ATOM    104  C   UNL A   1      44.453  44.607  30.367  1.00  0.00     0.135 A 
ATOM    105  F   UNL A   1      46.617  41.742  29.995  1.00  0.00    -0.206 F 
ATOM    106  C   UNL A   1      45.760  42.706  31.944  1.00  0.00     0.059 A 
ATOM    107  C   UNL A   1      44.367  44.676  31.755  1.00  0.00     0.059 A 
ATOM    108  F   UNL A   1      43.827  45.544  29.640  1.00  0.00    -0.206 F 
ATOM    109  C   UNL A   1      45.014  43.719  32.538  1.00  0.00     0.060 A 
BRANCH 109 110
ATOM    110  S   UNL A   1      44.819  43.763  34.334  1.00  0.00     0.124 S 
ATOM    111  O   UNL A   1      45.531  44.979  34.701  1.00  0.00    -0.237 OA
ATOM    112  O   UNL A   1      43.369  43.803  34.485  1.00  0.00    -0.237 OA
ATOM    113  O   UNL A   1      45.459  42.520  34.764  1.00  0.00    -0.744 OA
ENDBRANCH 109 110
ENDBRANCH  77 102
ENDBRANCH  51  52
ENDBRANCH  44  46
ENDBRANCH  43  44
ENDBRANCH  42  43
ENDBRANCH  41  42
ENDBRANCH  40  41
ENDBRANCH  39  40
ENDBRANCH  38  39
ENDBRANCH  37  38
ENDBRANCH   1  37
TORSDOF 29
ENDMDL
