MODEL 1
REMARK VINA RESULT:      -9.2      0.000      0.000
REMARK SMILES Cc1cc([C@H]([NH3+])C(=O)OCCOCCOCCOCCOC(=O)c2ccc(-c3c4nc(c(-c5c(F)cc(S(=O)(=O)[O-])cc5F)c5ccc([nH]5)c(-c5c(F)cc(S(=O)(=O)[O-])cc5F)c5nc(c(-c6c(F)cc(S(=O)(=O)[O-])cc6F)c6ccc3[nH]6)C=C5)C=C4)cc2)ccc1Cl
REMARK SMILES IDX 16 1 15 2 14 3 13 4 12 5 11 6 10 7 9 8 7 9 8 10 5 11 4 12
REMARK SMILES IDX 1 13 2 14 3 15 92 16 91 17 93 18 90 19 6 20 17 24 18 25
REMARK SMILES IDX 19 26 20 27 21 28 22 29 23 30 24 31 25 32 89 33 26 34 88 35
REMARK SMILES IDX 27 36 28 37 29 38 82 39 30 40 87 41 81 42 83 43 31 44 86 45
REMARK SMILES IDX 80 46 79 47 32 49 66 50 45 51 65 52 46 53 49 54 64 55 84 56
REMARK SMILES IDX 47 57 48 58 63 60 85 61 50 62 33 63 34 64 43 65 35 66 36 67
REMARK SMILES IDX 42 68 44 69 37 70 38 71 39 72 40 73 41 74 67 75 68 76 77 77
REMARK SMILES IDX 69 78 70 79 76 80 78 81 71 82 72 83 73 84 74 85 75 86 51 87
REMARK SMILES IDX 52 88 61 89 53 90 54 91 60 92 62 93 55 94 56 95 57 96 58 97
REMARK SMILES IDX 59 98
REMARK H PARENT 6 21 6 22 6 23 83 48 49 59
REMARK Flexibility Score: inf
ROOT
ATOM      1  C   UNL A   1      40.867  22.236  26.395  1.00  0.00     0.188 C 
ENDROOT
BRANCH   1   2
ATOM      2  O   UNL A   1      39.638  21.596  26.712  1.00  0.00    -0.377 OA
BRANCH   2   3
ATOM      3  C   UNL A   1      38.714  21.493  25.647  1.00  0.00     0.188 C 
BRANCH   3   4
ATOM      4  C   UNL A   1      37.468  22.384  25.795  1.00  0.00     0.188 C 
BRANCH   4   5
ATOM      5  O   UNL A   1      37.015  23.224  24.738  1.00  0.00    -0.376 OA
BRANCH   5   6
ATOM      6  C   UNL A   1      36.095  22.769  23.756  1.00  0.00     0.202 C 
BRANCH   6   7
ATOM      7  C   UNL A   1      34.614  23.174  23.770  1.00  0.00     0.261 C 
BRANCH   7   8
ATOM      8  O   UNL A   1      33.846  22.728  24.891  1.00  0.00    -0.459 OA
BRANCH   8   9
ATOM      9  C   UNL A   1      32.699  22.067  24.581  1.00  0.00     0.369 C 
ATOM     10  O   UNL A   1      32.599  21.227  23.691  1.00  0.00    -0.245 OA
BRANCH   9  11
ATOM     11  C   UNL A   1      31.494  22.534  25.422  1.00  0.00     0.323 C 
BRANCH  11  12
ATOM     12  C   UNL A   1      31.152  23.958  25.079  1.00  0.00     0.021 A 
ATOM     13  C   UNL A   1      31.405  27.390  26.696  1.00  0.00     0.046 C 
ATOM     14  C   UNL A   1      31.115  26.323  25.679  1.00  0.00    -0.032 A 
ATOM     15  C   UNL A   1      31.361  24.988  26.012  1.00  0.00     0.015 A 
ATOM     16  C   UNL A   1      30.633  26.608  24.394  1.00  0.00     0.043 A 
ATOM     17  C   UNL A   1      30.396  25.583  23.472  1.00  0.00     0.021 A 
ATOM     18  Cl  UNL A   1      30.324  28.227  23.885  1.00  0.00    -0.084 Cl
ATOM     19  C   UNL A   1      30.654  24.260  23.812  1.00  0.00     0.012 A 
ENDBRANCH  11  12
BRANCH  11  20
ATOM     20  N   UNL A   1      31.634  22.396  26.883  1.00  0.00    -0.342 N 
ATOM     21  H   UNL A   1      32.508  21.915  27.098  1.00  0.00     0.345 HD
ATOM     22  H   UNL A   1      30.849  21.856  27.250  1.00  0.00     0.345 HD
ATOM     23  H   UNL A   1      31.641  23.321  27.313  1.00  0.00     0.345 HD
ENDBRANCH  11  20
ENDBRANCH   9  11
ENDBRANCH   8   9
ENDBRANCH   7   8
ENDBRANCH   6   7
ENDBRANCH   5   6
ENDBRANCH   4   5
ENDBRANCH   3   4
ENDBRANCH   2   3
ENDBRANCH   1   2
BRANCH   1  24
ATOM     24  C   UNL A   1      42.112  21.340  26.191  1.00  0.00     0.188 C 
BRANCH  24  25
ATOM     25  O   UNL A   1      42.851  21.607  25.005  1.00  0.00    -0.376 OA
BRANCH  25  26
ATOM     26  C   UNL A   1      43.974  22.473  25.069  1.00  0.00     0.202 C 
BRANCH  26  27
ATOM     27  C   UNL A   1      43.747  23.988  24.911  1.00  0.00     0.261 C 
BRANCH  27  28
ATOM     28  O   UNL A   1      43.343  24.705  26.086  1.00  0.00    -0.460 OA
BRANCH  28  29
ATOM     29  C   UNL A   1      42.394  25.653  25.946  1.00  0.00     0.338 C 
ATOM     30  O   UNL A   1      41.607  25.770  25.020  1.00  0.00    -0.246 OA
BRANCH  29  31
ATOM     31  C   UNL A   1      42.323  26.412  27.213  1.00  0.00     0.060 A 
ATOM     32  C   UNL A   1      41.425  25.990  28.204  1.00  0.00     0.016 A 
ATOM     33  C   UNL A   1      43.140  27.523  27.428  1.00  0.00     0.016 A 
ATOM     34  C   UNL A   1      41.310  26.707  29.395  1.00  0.00     0.010 A 
ATOM     35  C   UNL A   1      43.007  28.256  28.610  1.00  0.00     0.010 A 
ATOM     36  C   UNL A   1      42.062  27.873  29.581  1.00  0.00    -0.014 A 
BRANCH  36  37
ATOM     37  C   UNL A   1      41.707  28.808  30.675  1.00  0.00     0.031 A 
ATOM     38  C   UNL A   1      42.522  28.758  31.940  1.00  0.00     0.074 A 
ATOM     39  C   UNL A   1      40.704  29.695  30.547  1.00  0.00     0.049 A 
ATOM     40  N   UNL A   1      42.369  29.422  33.055  1.00  0.00    -0.248 NA
ATOM     41  C   UNL A   1      43.660  27.823  31.947  1.00  0.00     0.031 C 
ATOM     42  C   UNL A   1      39.877  29.871  29.355  1.00  0.00     0.029 A 
ATOM     43  N   UNL A   1      40.204  30.606  31.444  1.00  0.00    -0.354 N 
ATOM     44  C   UNL A   1      43.383  28.981  33.897  1.00  0.00     0.074 A 
ATOM     45  C   UNL A   1      44.124  27.969  33.178  1.00  0.00     0.031 C 
ATOM     46  C   UNL A   1      38.960  30.824  29.601  1.00  0.00     0.029 A 
ATOM     47  C   UNL A   1      39.112  31.296  30.976  1.00  0.00     0.049 A 
ATOM     48  H   UNL A   1      40.592  30.753  32.336  1.00  0.00     0.167 HD
ATOM     49  C   UNL A   1      43.672  29.387  35.156  1.00  0.00     0.037 A 
ATOM     50  C   UNL A   1      38.310  32.185  31.599  1.00  0.00     0.037 A 
ATOM     51  C   UNL A   1      42.927  30.393  35.866  1.00  0.00     0.049 A 
ATOM     52  C   UNL A   1      38.605  32.569  33.028  1.00  0.00     0.074 A 
ATOM     53  C   UNL A   1      43.147  30.887  37.138  1.00  0.00     0.029 A 
ATOM     54  N   UNL A   1      41.810  31.051  35.368  1.00  0.00    -0.354 N 
ATOM     55  N   UNL A   1      39.577  32.159  33.810  1.00  0.00    -0.248 NA
ATOM     56  C   UNL A   1      37.699  33.539  33.659  1.00  0.00     0.031 C 
ATOM     57  C   UNL A   1      42.128  31.799  37.434  1.00  0.00     0.029 A 
ATOM     58  C   UNL A   1      41.314  31.925  36.320  1.00  0.00     0.049 A 
ATOM     59  H   UNL A   1      41.428  30.915  34.471  1.00  0.00     0.167 HD
ATOM     60  C   UNL A   1      39.418  32.848  35.010  1.00  0.00     0.074 A 
ATOM     61  C   UNL A   1      38.262  33.704  34.848  1.00  0.00     0.031 C 
ATOM     62  C   UNL A   1      40.167  32.782  36.141  1.00  0.00     0.037 A 
BRANCH  49  63
ATOM     63  C   UNL A   1      44.822  28.717  35.858  1.00  0.00     0.058 A 
ATOM     64  C   UNL A   1      44.649  27.563  36.637  1.00  0.00     0.135 A 
ATOM     65  C   UNL A   1      46.124  29.226  35.727  1.00  0.00     0.135 A 
ATOM     66  F   UNL A   1      43.422  27.044  36.816  1.00  0.00    -0.206 F 
ATOM     67  C   UNL A   1      45.719  26.953  37.285  1.00  0.00     0.059 A 
ATOM     68  C   UNL A   1      47.215  28.615  36.338  1.00  0.00     0.059 A 
ATOM     69  F   UNL A   1      46.349  30.331  34.998  1.00  0.00    -0.206 F 
ATOM     70  C   UNL A   1      47.000  27.487  37.128  1.00  0.00     0.060 A 
BRANCH  70  71
ATOM     71  S   UNL A   1      48.377  26.682  37.970  1.00  0.00     0.124 S 
ATOM     72  O   UNL A   1      47.695  25.600  38.676  1.00  0.00    -0.237 OA
ATOM     73  O   UNL A   1      49.228  26.275  36.857  1.00  0.00    -0.237 OA
ATOM     74  O   UNL A   1      48.922  27.737  38.819  1.00  0.00    -0.744 OA
ENDBRANCH  70  71
ENDBRANCH  49  63
BRANCH  50  75
ATOM     75  C   UNL A   1      37.143  32.764  30.881  1.00  0.00     0.058 A 
ATOM     76  C   UNL A   1      35.853  32.239  31.046  1.00  0.00     0.135 A 
ATOM     77  C   UNL A   1      37.294  33.858  30.014  1.00  0.00     0.135 A 
ATOM     78  F   UNL A   1      35.657  31.183  31.852  1.00  0.00    -0.206 F 
ATOM     79  C   UNL A   1      34.757  32.767  30.371  1.00  0.00     0.059 A 
ATOM     80  C   UNL A   1      36.208  34.423  29.351  1.00  0.00     0.059 A 
ATOM     81  F   UNL A   1      38.505  34.406  29.825  1.00  0.00    -0.206 F 
ATOM     82  C   UNL A   1      34.945  33.866  29.530  1.00  0.00     0.060 A 
BRANCH  82  83
ATOM     83  S   UNL A   1      33.506  34.581  28.707  1.00  0.00     0.124 S 
ATOM     84  O   UNL A   1      32.650  34.908  29.841  1.00  0.00    -0.237 OA
ATOM     85  O   UNL A   1      34.093  35.715  28.001  1.00  0.00    -0.237 OA
ATOM     86  O   UNL A   1      33.034  33.495  27.852  1.00  0.00    -0.744 OA
ENDBRANCH  82  83
ENDBRANCH  50  75
BRANCH  62  87
ATOM     87  C   UNL A   1      39.799  33.696  37.280  1.00  0.00     0.058 A 
ATOM     88  C   UNL A   1      38.870  33.323  38.264  1.00  0.00     0.135 A 
ATOM     89  C   UNL A   1      40.443  34.936  37.426  1.00  0.00     0.135 A 
ATOM     90  F   UNL A   1      38.221  32.151  38.172  1.00  0.00    -0.206 F 
ATOM     91  C   UNL A   1      38.574  34.158  39.338  1.00  0.00     0.059 A 
ATOM     92  C   UNL A   1      40.188  35.772  38.509  1.00  0.00     0.059 A 
ATOM     93  F   UNL A   1      41.350  35.338  36.522  1.00  0.00    -0.206 F 
ATOM     94  C   UNL A   1      39.243  35.378  39.455  1.00  0.00     0.060 A 
BRANCH  94  95
ATOM     95  S   UNL A   1      38.880  36.433  40.875  1.00  0.00     0.124 S 
ATOM     96  O   UNL A   1      37.796  35.698  41.518  1.00  0.00    -0.237 OA
ATOM     97  O   UNL A   1      40.153  36.440  41.589  1.00  0.00    -0.237 OA
ATOM     98  O   UNL A   1      38.502  37.704  40.267  1.00  0.00    -0.744 OA
ENDBRANCH  94  95
ENDBRANCH  62  87
ENDBRANCH  36  37
ENDBRANCH  29  31
ENDBRANCH  28  29
ENDBRANCH  27  28
ENDBRANCH  26  27
ENDBRANCH  25  26
ENDBRANCH  24  25
ENDBRANCH   1  24
TORSDOF 25
ENDMDL
MODEL 2
REMARK VINA RESULT:      -8.9      3.344      9.152
REMARK SMILES Cc1cc([C@H]([NH3+])C(=O)OCCOCCOCCOCCOC(=O)c2ccc(-c3c4nc(c(-c5c(F)cc(S(=O)(=O)[O-])cc5F)c5ccc([nH]5)c(-c5c(F)cc(S(=O)(=O)[O-])cc5F)c5nc(c(-c6c(F)cc(S(=O)(=O)[O-])cc6F)c6ccc3[nH]6)C=C5)C=C4)cc2)ccc1Cl
REMARK SMILES IDX 16 1 15 2 14 3 13 4 12 5 11 6 10 7 9 8 7 9 8 10 5 11 4 12
REMARK SMILES IDX 1 13 2 14 3 15 92 16 91 17 93 18 90 19 6 20 17 24 18 25
REMARK SMILES IDX 19 26 20 27 21 28 22 29 23 30 24 31 25 32 89 33 26 34 88 35
REMARK SMILES IDX 27 36 28 37 29 38 82 39 30 40 87 41 81 42 83 43 31 44 86 45
REMARK SMILES IDX 80 46 79 47 32 49 66 50 45 51 65 52 46 53 49 54 64 55 84 56
REMARK SMILES IDX 47 57 48 58 63 60 85 61 50 62 33 63 34 64 43 65 35 66 36 67
REMARK SMILES IDX 42 68 44 69 37 70 38 71 39 72 40 73 41 74 67 75 68 76 77 77
REMARK SMILES IDX 69 78 70 79 76 80 78 81 71 82 72 83 73 84 74 85 75 86 51 87
REMARK SMILES IDX 52 88 61 89 53 90 54 91 60 92 62 93 55 94 56 95 57 96 58 97
REMARK SMILES IDX 59 98
REMARK H PARENT 6 21 6 22 6 23 83 48 49 59
REMARK Flexibility Score: inf
ROOT
ATOM      1  C   UNL A   1      30.024  27.899  23.099  1.00  0.00     0.188 C 
ENDROOT
BRANCH   1   2
ATOM      2  O   UNL A   1      29.599  26.777  23.864  1.00  0.00    -0.377 OA
BRANCH   2   3
ATOM      3  C   UNL A   1      30.635  25.977  24.397  1.00  0.00     0.188 C 
BRANCH   3   4
ATOM      4  C   UNL A   1      30.651  25.894  25.933  1.00  0.00     0.188 C 
BRANCH   4   5
ATOM      5  O   UNL A   1      30.327  24.693  26.625  1.00  0.00    -0.376 OA
BRANCH   5   6
ATOM      6  C   UNL A   1      31.234  23.602  26.704  1.00  0.00     0.202 C 
BRANCH   6   7
ATOM      7  C   UNL A   1      30.989  22.278  25.966  1.00  0.00     0.261 C 
BRANCH   7   8
ATOM      8  O   UNL A   1      31.936  21.935  24.951  1.00  0.00    -0.459 OA
BRANCH   8   9
ATOM      9  C   UNL A   1      31.781  22.589  23.769  1.00  0.00     0.369 C 
ATOM     10  O   UNL A   1      30.717  23.049  23.363  1.00  0.00    -0.245 OA
BRANCH   9  11
ATOM     11  C   UNL A   1      33.078  22.636  22.937  1.00  0.00     0.323 C 
BRANCH  11  12
ATOM     12  C   UNL A   1      34.246  22.957  23.829  1.00  0.00     0.021 A 
ATOM     13  C   UNL A   1      37.547  21.363  24.841  1.00  0.00     0.046 C 
ATOM     14  C   UNL A   1      36.424  22.358  24.752  1.00  0.00    -0.032 A 
ATOM     15  C   UNL A   1      35.301  22.041  23.983  1.00  0.00     0.015 A 
ATOM     16  C   UNL A   1      36.463  23.608  25.384  1.00  0.00     0.043 A 
ATOM     17  C   UNL A   1      35.402  24.511  25.257  1.00  0.00     0.021 A 
ATOM     18  Cl  UNL A   1      37.819  24.097  26.333  1.00  0.00    -0.084 Cl
ATOM     19  C   UNL A   1      34.295  24.188  24.483  1.00  0.00     0.012 A 
ENDBRANCH  11  12
BRANCH  11  20
ATOM     20  N   UNL A   1      33.071  23.550  21.781  1.00  0.00    -0.342 N 
ATOM     21  H   UNL A   1      32.353  23.257  21.118  1.00  0.00     0.345 HD
ATOM     22  H   UNL A   1      33.984  23.528  21.325  1.00  0.00     0.345 HD
ATOM     23  H   UNL A   1      32.873  24.499  22.099  1.00  0.00     0.345 HD
ENDBRANCH  11  20
ENDBRANCH   9  11
ENDBRANCH   8   9
ENDBRANCH   7   8
ENDBRANCH   6   7
ENDBRANCH   5   6
ENDBRANCH   4   5
ENDBRANCH   3   4
ENDBRANCH   2   3
ENDBRANCH   1   2
BRANCH   1  24
ATOM     24  C   UNL A   1      30.044  29.278  23.799  1.00  0.00     0.188 C 
BRANCH  24  25
ATOM     25  O   UNL A   1      31.339  29.754  24.144  1.00  0.00    -0.376 OA
BRANCH  25  26
ATOM     26  C   UNL A   1      32.045  29.134  25.209  1.00  0.00     0.202 C 
BRANCH  26  27
ATOM     27  C   UNL A   1      33.432  29.683  25.593  1.00  0.00     0.261 C 
BRANCH  27  28
ATOM     28  O   UNL A   1      33.846  29.497  26.954  1.00  0.00    -0.460 OA
BRANCH  28  29
ATOM     29  C   UNL A   1      34.425  30.541  27.580  1.00  0.00     0.338 C 
ATOM     30  O   UNL A   1      33.914  31.621  27.828  1.00  0.00    -0.246 OA
BRANCH  29  31
ATOM     31  C   UNL A   1      35.726  30.083  28.112  1.00  0.00     0.060 A 
ATOM     32  C   UNL A   1      35.784  29.579  29.419  1.00  0.00     0.016 A 
ATOM     33  C   UNL A   1      36.879  30.141  27.327  1.00  0.00     0.016 A 
ATOM     34  C   UNL A   1      37.003  29.173  29.959  1.00  0.00     0.010 A 
ATOM     35  C   UNL A   1      38.105  29.758  27.877  1.00  0.00     0.010 A 
ATOM     36  C   UNL A   1      38.178  29.310  29.209  1.00  0.00    -0.014 A 
BRANCH  36  37
ATOM     37  C   UNL A   1      39.494  29.201  29.882  1.00  0.00     0.031 A 
ATOM     38  C   UNL A   1      40.444  28.134  29.406  1.00  0.00     0.074 A 
ATOM     39  C   UNL A   1      39.852  30.037  30.873  1.00  0.00     0.049 A 
ATOM     40  N   UNL A   1      41.618  27.798  29.872  1.00  0.00    -0.248 NA
ATOM     41  C   UNL A   1      40.002  27.333  28.252  1.00  0.00     0.031 C 
ATOM     42  C   UNL A   1      39.039  31.138  31.385  1.00  0.00     0.029 A 
ATOM     43  N   UNL A   1      40.993  30.076  31.634  1.00  0.00    -0.354 N 
ATOM     44  C   UNL A   1      42.050  26.743  29.075  1.00  0.00     0.074 A 
ATOM     45  C   UNL A   1      41.000  26.474  28.119  1.00  0.00     0.031 C 
ATOM     46  C   UNL A   1      39.704  31.736  32.390  1.00  0.00     0.029 A 
ATOM     47  C   UNL A   1      40.968  31.037  32.615  1.00  0.00     0.049 A 
ATOM     48  H   UNL A   1      41.758  29.473  31.490  1.00  0.00     0.167 HD
ATOM     49  C   UNL A   1      43.221  26.065  29.134  1.00  0.00     0.037 A 
ATOM     50  C   UNL A   1      41.853  31.303  33.598  1.00  0.00     0.037 A 
ATOM     51  C   UNL A   1      44.260  26.339  30.092  1.00  0.00     0.049 A 
ATOM     52  C   UNL A   1      43.118  30.485  33.693  1.00  0.00     0.074 A 
ATOM     53  C   UNL A   1      45.489  25.720  30.225  1.00  0.00     0.029 A 
ATOM     54  N   UNL A   1      44.187  27.304  31.086  1.00  0.00    -0.354 N 
ATOM     55  N   UNL A   1      43.526  29.502  32.923  1.00  0.00    -0.248 NA
ATOM     56  C   UNL A   1      44.045  30.814  34.784  1.00  0.00     0.031 C 
ATOM     57  C   UNL A   1      46.134  26.268  31.339  1.00  0.00     0.029 A 
ATOM     58  C   UNL A   1      45.337  27.277  31.856  1.00  0.00     0.049 A 
ATOM     59  H   UNL A   1      43.428  27.916  31.225  1.00  0.00     0.167 HD
ATOM     60  C   UNL A   1      44.771  29.121  33.417  1.00  0.00     0.074 A 
ATOM     61  C   UNL A   1      45.052  29.984  34.546  1.00  0.00     0.031 C 
ATOM     62  C   UNL A   1      45.609  28.151  32.971  1.00  0.00     0.037 A 
BRANCH  49  63
ATOM     63  C   UNL A   1      43.423  24.939  28.157  1.00  0.00     0.058 A 
ATOM     64  C   UNL A   1      42.968  23.637  28.416  1.00  0.00     0.135 A 
ATOM     65  C   UNL A   1      44.063  25.173  26.929  1.00  0.00     0.135 A 
ATOM     66  F   UNL A   1      42.369  23.349  29.583  1.00  0.00    -0.206 F 
ATOM     67  C   UNL A   1      43.164  22.602  27.506  1.00  0.00     0.059 A 
ATOM     68  C   UNL A   1      44.241  24.162  25.990  1.00  0.00     0.059 A 
ATOM     69  F   UNL A   1      44.524  26.399  26.630  1.00  0.00    -0.206 F 
ATOM     70  C   UNL A   1      43.801  22.876  26.295  1.00  0.00     0.060 A 
BRANCH  70  71
ATOM     71  S   UNL A   1      44.043  21.523  25.125  1.00  0.00     0.124 S 
ATOM     72  O   UNL A   1      42.954  20.623  25.492  1.00  0.00    -0.237 OA
ATOM     73  O   UNL A   1      43.903  22.196  23.838  1.00  0.00    -0.237 OA
ATOM     74  O   UNL A   1      45.385  21.041  25.434  1.00  0.00    -0.744 OA
ENDBRANCH  70  71
ENDBRANCH  49  63
BRANCH  50  75
ATOM     75  C   UNL A   1      41.570  32.382  34.583  1.00  0.00     0.058 A 
ATOM     76  C   UNL A   1      40.811  32.134  35.736  1.00  0.00     0.135 A 
ATOM     77  C   UNL A   1      42.055  33.685  34.390  1.00  0.00     0.135 A 
ATOM     78  F   UNL A   1      40.311  30.908  35.960  1.00  0.00    -0.206 F 
ATOM     79  C   UNL A   1      40.532  33.140  36.656  1.00  0.00     0.059 A 
ATOM     80  C   UNL A   1      41.815  34.700  35.311  1.00  0.00     0.059 A 
ATOM     81  F   UNL A   1      42.793  33.976  33.307  1.00  0.00    -0.206 F 
ATOM     82  C   UNL A   1      41.046  34.420  36.438  1.00  0.00     0.060 A 
BRANCH  82  83
ATOM     83  S   UNL A   1      40.729  35.701  37.670  1.00  0.00     0.124 S 
ATOM     84  O   UNL A   1      40.136  34.927  38.754  1.00  0.00    -0.237 OA
ATOM     85  O   UNL A   1      42.069  36.223  37.916  1.00  0.00    -0.237 OA
ATOM     86  O   UNL A   1      39.824  36.615  36.978  1.00  0.00    -0.744 OA
ENDBRANCH  82  83
ENDBRANCH  50  75
BRANCH  62  87
ATOM     87  C   UNL A   1      46.937  27.996  33.666  1.00  0.00     0.058 A 
ATOM     88  C   UNL A   1      47.120  27.104  34.733  1.00  0.00     0.135 A 
ATOM     89  C   UNL A   1      48.060  28.704  33.206  1.00  0.00     0.135 A 
ATOM     90  F   UNL A   1      46.080  26.406  35.217  1.00  0.00    -0.206 F 
ATOM     91  C   UNL A   1      48.363  26.936  35.335  1.00  0.00     0.059 A 
ATOM     92  C   UNL A   1      49.320  28.527  33.771  1.00  0.00     0.059 A 
ATOM     93  F   UNL A   1      47.946  29.562  32.180  1.00  0.00    -0.206 F 
ATOM     94  C   UNL A   1      49.459  27.648  34.842  1.00  0.00     0.060 A 
BRANCH  94  95
ATOM     95  S   UNL A   1      51.075  27.390  35.607  1.00  0.00     0.124 S 
ATOM     96  O   UNL A   1      51.281  25.963  35.385  1.00  0.00    -0.237 OA
ATOM     97  O   UNL A   1      51.931  28.283  34.832  1.00  0.00    -0.237 OA
ATOM     98  O   UNL A   1      50.862  27.785  36.995  1.00  0.00    -0.744 OA
ENDBRANCH  94  95
ENDBRANCH  62  87
ENDBRANCH  36  37
ENDBRANCH  29  31
ENDBRANCH  28  29
ENDBRANCH  27  28
ENDBRANCH  26  27
ENDBRANCH  25  26
ENDBRANCH  24  25
ENDBRANCH   1  24
TORSDOF 25
ENDMDL
MODEL 3
REMARK VINA RESULT:      -8.9      4.741     10.578
REMARK SMILES Cc1cc([C@H]([NH3+])C(=O)OCCOCCOCCOCCOC(=O)c2ccc(-c3c4nc(c(-c5c(F)cc(S(=O)(=O)[O-])cc5F)c5ccc([nH]5)c(-c5c(F)cc(S(=O)(=O)[O-])cc5F)c5nc(c(-c6c(F)cc(S(=O)(=O)[O-])cc6F)c6ccc3[nH]6)C=C5)C=C4)cc2)ccc1Cl
REMARK SMILES IDX 16 1 15 2 14 3 13 4 12 5 11 6 10 7 9 8 7 9 8 10 5 11 4 12
REMARK SMILES IDX 1 13 2 14 3 15 92 16 91 17 93 18 90 19 6 20 17 24 18 25
REMARK SMILES IDX 19 26 20 27 21 28 22 29 23 30 24 31 25 32 89 33 26 34 88 35
REMARK SMILES IDX 27 36 28 37 29 38 82 39 30 40 87 41 81 42 83 43 31 44 86 45
REMARK SMILES IDX 80 46 79 47 32 49 66 50 45 51 65 52 46 53 49 54 64 55 84 56
REMARK SMILES IDX 47 57 48 58 63 60 85 61 50 62 33 63 34 64 43 65 35 66 36 67
REMARK SMILES IDX 42 68 44 69 37 70 38 71 39 72 40 73 41 74 67 75 68 76 77 77
REMARK SMILES IDX 69 78 70 79 76 80 78 81 71 82 72 83 73 84 74 85 75 86 51 87
REMARK SMILES IDX 52 88 61 89 53 90 54 91 60 92 62 93 55 94 56 95 57 96 58 97
REMARK SMILES IDX 59 98
REMARK H PARENT 6 21 6 22 6 23 83 48 49 59
REMARK Flexibility Score: inf
ROOT
ATOM      1  C   UNL A   1      30.161  27.905  22.990  1.00  0.00     0.188 C 
ENDROOT
BRANCH   1   2
ATOM      2  O   UNL A   1      29.724  26.712  23.628  1.00  0.00    -0.377 OA
BRANCH   2   3
ATOM      3  C   UNL A   1      30.724  25.989  24.316  1.00  0.00     0.188 C 
BRANCH   3   4
ATOM      4  C   UNL A   1      30.516  25.901  25.838  1.00  0.00     0.188 C 
BRANCH   4   5
ATOM      5  O   UNL A   1      30.037  24.715  26.464  1.00  0.00    -0.376 OA
BRANCH   5   6
ATOM      6  C   UNL A   1      30.879  23.597  26.703  1.00  0.00     0.202 C 
BRANCH   6   7
ATOM      7  C   UNL A   1      30.756  22.292  25.902  1.00  0.00     0.261 C 
BRANCH   7   8
ATOM      8  O   UNL A   1      31.833  21.991  25.013  1.00  0.00    -0.459 OA
BRANCH   8   9
ATOM      9  C   UNL A   1      31.761  22.585  23.791  1.00  0.00     0.369 C 
ATOM     10  O   UNL A   1      30.753  23.122  23.338  1.00  0.00    -0.245 OA
BRANCH   9  11
ATOM     11  C   UNL A   1      33.068  22.455  22.984  1.00  0.00     0.323 C 
BRANCH  11  12
ATOM     12  C   UNL A   1      34.243  22.810  23.853  1.00  0.00     0.021 A 
ATOM     13  C   UNL A   1      37.501  21.211  24.988  1.00  0.00     0.046 C 
ATOM     14  C   UNL A   1      36.404  22.224  24.824  1.00  0.00    -0.032 A 
ATOM     15  C   UNL A   1      35.274  21.881  24.077  1.00  0.00     0.015 A 
ATOM     16  C   UNL A   1      36.475  23.516  25.363  1.00  0.00     0.043 A 
ATOM     17  C   UNL A   1      35.438  24.434  25.167  1.00  0.00     0.021 A 
ATOM     18  Cl  UNL A   1      37.842  24.038  26.276  1.00  0.00    -0.084 Cl
ATOM     19  C   UNL A   1      34.323  24.085  24.415  1.00  0.00     0.012 A 
ENDBRANCH  11  12
BRANCH  11  20
ATOM     20  N   UNL A   1      33.130  23.223  21.728  1.00  0.00    -0.342 N 
ATOM     21  H   UNL A   1      33.878  22.854  21.140  1.00  0.00     0.345 HD
ATOM     22  H   UNL A   1      33.315  24.204  21.939  1.00  0.00     0.345 HD
ATOM     23  H   UNL A   1      32.240  23.143  21.236  1.00  0.00     0.345 HD
ENDBRANCH  11  20
ENDBRANCH   9  11
ENDBRANCH   8   9
ENDBRANCH   7   8
ENDBRANCH   6   7
ENDBRANCH   5   6
ENDBRANCH   4   5
ENDBRANCH   3   4
ENDBRANCH   2   3
ENDBRANCH   1   2
BRANCH   1  24
ATOM     24  C   UNL A   1      30.228  29.193  23.846  1.00  0.00     0.188 C 
BRANCH  24  25
ATOM     25  O   UNL A   1      31.539  29.703  24.055  1.00  0.00    -0.376 OA
BRANCH  25  26
ATOM     26  C   UNL A   1      32.490  28.908  24.748  1.00  0.00     0.202 C 
BRANCH  26  27
ATOM     27  C   UNL A   1      33.757  29.587  25.299  1.00  0.00     0.261 C 
BRANCH  27  28
ATOM     28  O   UNL A   1      34.341  29.006  26.474  1.00  0.00    -0.460 OA
BRANCH  28  29
ATOM     29  C   UNL A   1      34.486  29.797  27.557  1.00  0.00     0.338 C 
ATOM     30  O   UNL A   1      33.595  30.337  28.193  1.00  0.00    -0.246 OA
BRANCH  29  31
ATOM     31  C   UNL A   1      35.901  29.729  27.980  1.00  0.00     0.060 A 
ATOM     32  C   UNL A   1      36.904  29.913  27.017  1.00  0.00     0.016 A 
ATOM     33  C   UNL A   1      36.238  29.497  29.315  1.00  0.00     0.016 A 
ATOM     34  C   UNL A   1      38.247  29.819  27.380  1.00  0.00     0.010 A 
ATOM     35  C   UNL A   1      37.583  29.378  29.673  1.00  0.00     0.010 A 
ATOM     36  C   UNL A   1      38.592  29.499  28.699  1.00  0.00    -0.014 A 
BRANCH  36  37
ATOM     37  C   UNL A   1      39.976  29.072  29.012  1.00  0.00     0.031 A 
ATOM     38  C   UNL A   1      40.898  30.077  29.651  1.00  0.00     0.074 A 
ATOM     39  C   UNL A   1      40.404  27.822  28.759  1.00  0.00     0.049 A 
ATOM     40  N   UNL A   1      42.163  29.967  29.960  1.00  0.00    -0.248 NA
ATOM     41  C   UNL A   1      40.309  31.387  29.979  1.00  0.00     0.031 C 
ATOM     42  C   UNL A   1      39.592  26.750  28.189  1.00  0.00     0.029 A 
ATOM     43  N   UNL A   1      41.639  27.252  28.940  1.00  0.00    -0.354 N 
ATOM     44  C   UNL A   1      42.524  31.192  30.508  1.00  0.00     0.074 A 
ATOM     45  C   UNL A   1      41.354  32.041  30.460  1.00  0.00     0.031 C 
ATOM     46  C   UNL A   1      40.357  25.652  28.052  1.00  0.00     0.029 A 
ATOM     47  C   UNL A   1      41.719  25.957  28.488  1.00  0.00     0.049 A 
ATOM     48  H   UNL A   1      42.396  27.726  29.354  1.00  0.00     0.167 HD
ATOM     49  C   UNL A   1      43.722  31.573  31.011  1.00  0.00     0.037 A 
ATOM     50  C   UNL A   1      42.778  25.124  28.411  1.00  0.00     0.037 A 
ATOM     51  C   UNL A   1      44.882  30.721  31.052  1.00  0.00     0.049 A 
ATOM     52  C   UNL A   1      44.123  25.594  28.908  1.00  0.00     0.074 A 
ATOM     53  C   UNL A   1      46.138  31.006  31.554  1.00  0.00     0.029 A 
ATOM     54  N   UNL A   1      44.930  29.424  30.561  1.00  0.00    -0.354 N 
ATOM     55  N   UNL A   1      44.450  26.749  29.442  1.00  0.00    -0.248 NA
ATOM     56  C   UNL A   1      45.243  24.648  28.797  1.00  0.00     0.031 C 
ATOM     57  C   UNL A   1      46.964  29.903  31.312  1.00  0.00     0.029 A 
ATOM     58  C   UNL A   1      46.204  28.906  30.723  1.00  0.00     0.049 A 
ATOM     59  H   UNL A   1      44.172  28.944  30.157  1.00  0.00     0.167 HD
ATOM     60  C   UNL A   1      45.802  26.653  29.762  1.00  0.00     0.074 A 
ATOM     61  C   UNL A   1      46.229  25.326  29.368  1.00  0.00     0.031 C 
ATOM     62  C   UNL A   1      46.613  27.577  30.337  1.00  0.00     0.037 A 
BRANCH  49  63
ATOM     63  C   UNL A   1      43.847  32.982  31.525  1.00  0.00     0.058 A 
ATOM     64  C   UNL A   1      44.257  34.041  30.701  1.00  0.00     0.135 A 
ATOM     65  C   UNL A   1      43.526  33.280  32.859  1.00  0.00     0.135 A 
ATOM     66  F   UNL A   1      44.598  33.812  29.422  1.00  0.00    -0.206 F 
ATOM     67  C   UNL A   1      44.372  35.340  31.188  1.00  0.00     0.059 A 
ATOM     68  C   UNL A   1      43.602  34.575  33.359  1.00  0.00     0.059 A 
ATOM     69  F   UNL A   1      43.133  32.304  33.694  1.00  0.00    -0.206 F 
ATOM     70  C   UNL A   1      44.041  35.597  32.519  1.00  0.00     0.060 A 
BRANCH  70  71
ATOM     71  S   UNL A   1      44.191  37.287  33.133  1.00  0.00     0.124 S 
ATOM     72  O   UNL A   1      43.764  38.058  31.969  1.00  0.00    -0.237 OA
ATOM     73  O   UNL A   1      43.273  37.290  34.267  1.00  0.00    -0.237 OA
ATOM     74  O   UNL A   1      45.606  37.401  33.475  1.00  0.00    -0.744 OA
ENDBRANCH  70  71
ENDBRANCH  49  63
BRANCH  50  75
ATOM     75  C   UNL A   1      42.615  23.765  27.827  1.00  0.00     0.058 A 
ATOM     76  C   UNL A   1      42.673  23.556  26.442  1.00  0.00     0.135 A 
ATOM     77  C   UNL A   1      42.399  22.646  28.647  1.00  0.00     0.135 A 
ATOM     78  F   UNL A   1      42.862  24.596  25.614  1.00  0.00    -0.206 F 
ATOM     79  C   UNL A   1      42.510  22.290  25.887  1.00  0.00     0.059 A 
ATOM     80  C   UNL A   1      42.264  21.365  28.117  1.00  0.00     0.059 A 
ATOM     81  F   UNL A   1      42.342  22.787  29.980  1.00  0.00    -0.206 F 
ATOM     82  C   UNL A   1      42.314  21.199  26.735  1.00  0.00     0.060 A 
BRANCH  82  83
ATOM     83  S   UNL A   1      42.166  19.554  26.008  1.00  0.00     0.124 S 
ATOM     84  O   UNL A   1      42.584  18.702  27.116  1.00  0.00    -0.237 OA
ATOM     85  O   UNL A   1      40.750  19.501  25.660  1.00  0.00    -0.237 OA
ATOM     86  O   UNL A   1      43.082  19.606  24.872  1.00  0.00    -0.744 OA
ENDBRANCH  82  83
ENDBRANCH  50  75
BRANCH  62  87
ATOM     87  C   UNL A   1      48.036  27.178  30.628  1.00  0.00     0.058 A 
ATOM     88  C   UNL A   1      49.109  27.614  29.836  1.00  0.00     0.135 A 
ATOM     89  C   UNL A   1      48.334  26.403  31.761  1.00  0.00     0.135 A 
ATOM     90  F   UNL A   1      48.883  28.353  28.738  1.00  0.00    -0.206 F 
ATOM     91  C   UNL A   1      50.424  27.277  30.143  1.00  0.00     0.059 A 
ATOM     92  C   UNL A   1      49.643  26.081  32.107  1.00  0.00     0.059 A 
ATOM     93  F   UNL A   1      47.347  25.969  32.562  1.00  0.00    -0.206 F 
ATOM     94  C   UNL A   1      50.681  26.514  31.285  1.00  0.00     0.060 A 
BRANCH  94  95
ATOM     95  S   UNL A   1      52.395  26.118  31.695  1.00  0.00     0.124 S 
ATOM     96  O   UNL A   1      52.798  27.300  32.449  1.00  0.00    -0.237 OA
ATOM     97  O   UNL A   1      52.252  24.889  32.470  1.00  0.00    -0.237 OA
ATOM     98  O   UNL A   1      53.029  25.959  30.390  1.00  0.00    -0.744 OA
ENDBRANCH  94  95
ENDBRANCH  62  87
ENDBRANCH  36  37
ENDBRANCH  29  31
ENDBRANCH  28  29
ENDBRANCH  27  28
ENDBRANCH  26  27
ENDBRANCH  25  26
ENDBRANCH  24  25
ENDBRANCH   1  24
TORSDOF 25
ENDMDL
