MODEL 1
REMARK VINA RESULT:      -7.2      0.000      0.000
REMARK SMILES CC[NH2+][C@@]1(C(=O)OCCOCCOCCOCCOC(=O)c2ccc(-c3c4nc(c(-c5c(F)cc(S(=O)(=O)[O-])cc5F)c5ccc([nH]5)c(-c5c(F)cc(S(=O)(=O)[O-])cc5F)c5nc(c(-c6c(F)cc(S(=O)(=O)[O-])cc6F)c6ccc3[nH]6)C=C5)C=C4)cc2)CC[C@@H]([N@@H+](C)Cc2nccn2C)C1
REMARK SMILES IDX 13 1 12 2 11 3 10 4 9 5 8 6 7 7 5 8 6 9 4 10 88 11 100 12
REMARK SMILES IDX 89 13 90 14 3 15 2 18 1 19 91 20 92 21 93 23 94 24 95 25
REMARK SMILES IDX 98 26 96 27 97 28 99 29 14 30 15 31 16 32 17 33 18 34 19 35
REMARK SMILES IDX 20 36 21 37 22 38 23 39 87 40 24 41 86 42 25 43 26 44 27 45
REMARK SMILES IDX 80 46 28 47 85 48 79 49 81 50 29 51 84 52 78 53 77 54 30 56
REMARK SMILES IDX 64 57 43 58 63 59 44 60 47 61 62 62 82 63 45 64 46 65 61 67
REMARK SMILES IDX 83 68 48 69 31 70 32 71 41 72 33 73 34 74 40 75 42 76 35 77
REMARK SMILES IDX 36 78 37 79 38 80 39 81 65 82 66 83 75 84 67 85 68 86 74 87
REMARK SMILES IDX 76 88 69 89 70 90 71 91 72 92 73 93 49 94 50 95 59 96 51 97
REMARK SMILES IDX 52 98 58 99 60 100 53 101 54 102 55 103 56 104 57 105
REMARK H PARENT 3 16 3 17 91 22 81 55 47 66
REMARK Flexibility Score: inf
ROOT
ATOM      1  O   UNL A   1      40.332  26.162  28.525  1.00  0.00    -0.377 OA
ENDROOT
BRANCH   1   2
ATOM      2  C   UNL A   1      40.229  25.183  27.502  1.00  0.00     0.188 C 
BRANCH   2   3
ATOM      3  C   UNL A   1      41.035  23.890  27.672  1.00  0.00     0.188 C 
BRANCH   3   4
ATOM      4  O   UNL A   1      41.166  23.147  26.479  1.00  0.00    -0.376 OA
BRANCH   4   5
ATOM      5  C   UNL A   1      40.602  21.851  26.371  1.00  0.00     0.202 C 
BRANCH   5   6
ATOM      6  C   UNL A   1      39.241  21.536  25.714  1.00  0.00     0.261 C 
BRANCH   6   7
ATOM      7  O   UNL A   1      38.056  21.981  26.380  1.00  0.00    -0.459 OA
BRANCH   7   8
ATOM      8  C   UNL A   1      37.408  23.004  25.783  1.00  0.00     0.368 C 
ATOM      9  O   UNL A   1      37.985  24.022  25.401  1.00  0.00    -0.245 OA
BRANCH   8  10
ATOM     10  C   UNL A   1      35.872  22.785  25.638  1.00  0.00     0.200 C 
ATOM     11  C   UNL A   1      35.729  21.899  24.400  1.00  0.00     0.087 C 
ATOM     12  C   UNL A   1      34.948  23.973  25.262  1.00  0.00     0.146 C 
ATOM     13  C   UNL A   1      35.717  22.893  23.235  1.00  0.00     0.072 C 
ATOM     14  C   UNL A   1      34.972  24.133  23.739  1.00  0.00     0.191 C 
BRANCH  10  15
ATOM     15  N   UNL A   1      35.315  22.235  26.916  1.00  0.00    -0.332 N 
ATOM     16  H   UNL A   1      34.989  21.287  26.731  1.00  0.00     0.347 HD
ATOM     17  H   UNL A   1      36.077  22.293  27.592  1.00  0.00     0.347 HD
BRANCH  15  18
ATOM     18  C   UNL A   1      34.210  22.978  27.512  1.00  0.00     0.257 C 
ATOM     19  C   UNL A   1      33.016  22.042  27.664  1.00  0.00     0.071 C 
ENDBRANCH  15  18
ENDBRANCH  10  15
BRANCH  14  20
ATOM     20  N   UNL A   1      33.659  24.490  23.166  1.00  0.00    -0.328 N 
ATOM     21  C   UNL A   1      32.555  24.087  24.024  1.00  0.00     0.333 C 
ATOM     22  H   UNL A   1      33.657  23.911  22.326  1.00  0.00     0.348 HD
BRANCH  20  23
ATOM     23  C   UNL A   1      33.467  25.795  22.506  1.00  0.00     0.338 C 
BRANCH  23  24
ATOM     24  C   UNL A   1      33.060  26.956  23.368  1.00  0.00     0.164 A 
ATOM     25  N   UNL A   1      33.854  27.573  24.229  1.00  0.00    -0.236 NA
ATOM     26  N   UNL A   1      31.813  27.531  23.411  1.00  0.00    -0.333 N 
ATOM     27  C   UNL A   1      33.036  28.333  25.018  1.00  0.00     0.131 A 
ATOM     28  C   UNL A   1      31.751  28.306  24.539  1.00  0.00     0.107 A 
ATOM     29  C   UNL A   1      30.734  27.402  22.466  1.00  0.00     0.151 C 
ENDBRANCH  23  24
ENDBRANCH  20  23
ENDBRANCH  14  20
ENDBRANCH   8  10
ENDBRANCH   7   8
ENDBRANCH   6   7
ENDBRANCH   5   6
ENDBRANCH   4   5
ENDBRANCH   3   4
ENDBRANCH   2   3
ENDBRANCH   1   2
BRANCH   1  30
ATOM     30  C   UNL A   1      40.790  27.477  28.232  1.00  0.00     0.188 C 
BRANCH  30  31
ATOM     31  C   UNL A   1      40.381  28.673  29.115  1.00  0.00     0.188 C 
BRANCH  31  32
ATOM     32  O   UNL A   1      38.998  28.758  29.401  1.00  0.00    -0.376 OA
BRANCH  32  33
ATOM     33  C   UNL A   1      38.286  29.899  28.954  1.00  0.00     0.202 C 
BRANCH  33  34
ATOM     34  C   UNL A   1      37.390  30.651  29.951  1.00  0.00     0.261 C 
BRANCH  34  35
ATOM     35  O   UNL A   1      37.643  30.439  31.351  1.00  0.00    -0.460 OA
BRANCH  35  36
ATOM     36  C   UNL A   1      38.452  31.291  32.013  1.00  0.00     0.338 C 
ATOM     37  O   UNL A   1      38.190  32.425  32.381  1.00  0.00    -0.246 OA
BRANCH  36  38
ATOM     38  C   UNL A   1      39.664  30.535  32.395  1.00  0.00     0.060 A 
ATOM     39  C   UNL A   1      40.915  31.170  32.373  1.00  0.00     0.016 A 
ATOM     40  C   UNL A   1      39.557  29.207  32.807  1.00  0.00     0.016 A 
ATOM     41  C   UNL A   1      42.064  30.474  32.760  1.00  0.00     0.010 A 
ATOM     42  C   UNL A   1      40.711  28.503  33.164  1.00  0.00     0.010 A 
ATOM     43  C   UNL A   1      41.972  29.126  33.127  1.00  0.00    -0.014 A 
BRANCH  43  44
ATOM     44  C   UNL A   1      43.193  28.310  33.339  1.00  0.00     0.031 A 
ATOM     45  C   UNL A   1      43.702  28.135  34.743  1.00  0.00     0.074 A 
ATOM     46  C   UNL A   1      43.861  27.773  32.301  1.00  0.00     0.049 A 
ATOM     47  N   UNL A   1      44.821  27.604  35.158  1.00  0.00    -0.248 NA
ATOM     48  C   UNL A   1      42.833  28.631  35.825  1.00  0.00     0.031 C 
ATOM     49  C   UNL A   1      43.441  27.829  30.901  1.00  0.00     0.029 A 
ATOM     50  N   UNL A   1      45.056  27.094  32.264  1.00  0.00    -0.354 N 
ATOM     51  C   UNL A   1      44.806  27.727  36.543  1.00  0.00     0.074 A 
ATOM     52  C   UNL A   1      43.568  28.383  36.899  1.00  0.00     0.031 C 
ATOM     53  C   UNL A   1      44.377  27.236  30.140  1.00  0.00     0.029 A 
ATOM     54  C   UNL A   1      45.485  26.804  30.990  1.00  0.00     0.049 A 
ATOM     55  H   UNL A   1      45.557  26.840  33.073  1.00  0.00     0.167 HD
ATOM     56  C   UNL A   1      45.747  27.333  37.431  1.00  0.00     0.037 A 
ATOM     57  C   UNL A   1      46.658  26.293  30.558  1.00  0.00     0.037 A 
ATOM     58  C   UNL A   1      46.970  26.666  37.067  1.00  0.00     0.049 A 
ATOM     59  C   UNL A   1      47.727  25.943  31.569  1.00  0.00     0.074 A 
ATOM     60  C   UNL A   1      47.959  26.175  37.901  1.00  0.00     0.029 A 
ATOM     61  N   UNL A   1      47.380  26.412  35.768  1.00  0.00    -0.354 N 
ATOM     62  N   UNL A   1      47.680  26.013  32.878  1.00  0.00    -0.248 NA
ATOM     63  C   UNL A   1      49.011  25.455  31.043  1.00  0.00     0.031 C 
ATOM     64  C   UNL A   1      49.000  25.692  37.106  1.00  0.00     0.029 A 
ATOM     65  C   UNL A   1      48.631  25.819  35.776  1.00  0.00     0.049 A 
ATOM     66  H   UNL A   1      46.859  26.622  34.960  1.00  0.00     0.167 HD
ATOM     67  C   UNL A   1      48.915  25.555  33.330  1.00  0.00     0.074 A 
ATOM     68  C   UNL A   1      49.681  25.193  32.157  1.00  0.00     0.031 C 
ATOM     69  C   UNL A   1      49.377  25.448  34.599  1.00  0.00     0.037 A 
BRANCH  56  70
ATOM     70  C   UNL A   1      45.529  27.638  38.886  1.00  0.00     0.058 A 
ATOM     71  C   UNL A   1      44.990  26.694  39.773  1.00  0.00     0.135 A 
ATOM     72  C   UNL A   1      45.959  28.867  39.416  1.00  0.00     0.135 A 
ATOM     73  F   UNL A   1      44.545  25.513  39.315  1.00  0.00    -0.206 F 
ATOM     74  C   UNL A   1      44.890  26.955  41.135  1.00  0.00     0.059 A 
ATOM     75  C   UNL A   1      45.892  29.139  40.779  1.00  0.00     0.059 A 
ATOM     76  F   UNL A   1      46.474  29.807  38.608  1.00  0.00    -0.206 F 
ATOM     77  C   UNL A   1      45.354  28.176  41.630  1.00  0.00     0.060 A 
BRANCH  77  78
ATOM     78  S   UNL A   1      45.272  28.473  43.409  1.00  0.00     0.124 S 
ATOM     79  O   UNL A   1      43.935  27.979  43.726  1.00  0.00    -0.237 OA
ATOM     80  O   UNL A   1      46.380  27.666  43.909  1.00  0.00    -0.237 OA
ATOM     81  O   UNL A   1      45.447  29.917  43.523  1.00  0.00    -0.744 OA
ENDBRANCH  77  78
ENDBRANCH  56  70
BRANCH  57  82
ATOM     82  C   UNL A   1      46.926  26.127  29.102  1.00  0.00     0.058 A 
ATOM     83  C   UNL A   1      47.606  27.114  28.373  1.00  0.00     0.135 A 
ATOM     84  C   UNL A   1      46.456  25.007  28.396  1.00  0.00     0.135 A 
ATOM     85  F   UNL A   1      48.063  28.212  28.995  1.00  0.00    -0.206 F 
ATOM     86  C   UNL A   1      47.781  27.016  26.994  1.00  0.00     0.059 A 
ATOM     87  C   UNL A   1      46.647  24.870  27.025  1.00  0.00     0.059 A 
ATOM     88  F   UNL A   1      45.804  24.028  29.041  1.00  0.00    -0.206 F 
ATOM     89  C   UNL A   1      47.293  25.890  26.330  1.00  0.00     0.060 A 
BRANCH  89  90
ATOM     90  S   UNL A   1      47.525  25.769  24.542  1.00  0.00     0.124 S 
ATOM     91  O   UNL A   1      46.766  26.920  24.069  1.00  0.00    -0.237 OA
ATOM     92  O   UNL A   1      48.976  25.861  24.415  1.00  0.00    -0.237 OA
ATOM     93  O   UNL A   1      46.957  24.463  24.220  1.00  0.00    -0.744 OA
ENDBRANCH  89  90
ENDBRANCH  57  82
BRANCH  69  94
ATOM     94  C   UNL A   1      50.761  24.893  34.804  1.00  0.00     0.058 A 
ATOM     95  C   UNL A   1      50.992  23.513  34.908  1.00  0.00     0.135 A 
ATOM     96  C   UNL A   1      51.878  25.746  34.804  1.00  0.00     0.135 A 
ATOM     97  F   UNL A   1      49.961  22.654  34.922  1.00  0.00    -0.206 F 
ATOM     98  C   UNL A   1      52.280  22.999  35.015  1.00  0.00     0.059 A 
ATOM     99  C   UNL A   1      53.176  25.251  34.878  1.00  0.00     0.059 A 
ATOM    100  F   UNL A   1      51.714  27.075  34.697  1.00  0.00    -0.206 F 
ATOM    101  C   UNL A   1      53.367  23.875  34.987  1.00  0.00     0.060 A 
BRANCH 101 102
ATOM    102  S   UNL A   1      55.033  23.185  35.058  1.00  0.00     0.124 S 
ATOM    103  O   UNL A   1      54.876  22.131  36.055  1.00  0.00    -0.237 OA
ATOM    104  O   UNL A   1      55.241  22.733  33.685  1.00  0.00    -0.237 OA
ATOM    105  O   UNL A   1      55.856  24.319  35.470  1.00  0.00    -0.744 OA
ENDBRANCH 101 102
ENDBRANCH  69  94
ENDBRANCH  43  44
ENDBRANCH  36  38
ENDBRANCH  35  36
ENDBRANCH  34  35
ENDBRANCH  33  34
ENDBRANCH  32  33
ENDBRANCH  31  32
ENDBRANCH  30  31
ENDBRANCH   1  30
TORSDOF 28
ENDMDL
MODEL 2
REMARK VINA RESULT:      -6.9      1.990      8.873
REMARK SMILES CC[NH2+][C@@]1(C(=O)OCCOCCOCCOCCOC(=O)c2ccc(-c3c4nc(c(-c5c(F)cc(S(=O)(=O)[O-])cc5F)c5ccc([nH]5)c(-c5c(F)cc(S(=O)(=O)[O-])cc5F)c5nc(c(-c6c(F)cc(S(=O)(=O)[O-])cc6F)c6ccc3[nH]6)C=C5)C=C4)cc2)CC[C@@H]([N@@H+](C)Cc2nccn2C)C1
REMARK SMILES IDX 13 1 12 2 11 3 10 4 9 5 8 6 7 7 5 8 6 9 4 10 88 11 100 12
REMARK SMILES IDX 89 13 90 14 3 15 2 18 1 19 91 20 92 21 93 23 94 24 95 25
REMARK SMILES IDX 98 26 96 27 97 28 99 29 14 30 15 31 16 32 17 33 18 34 19 35
REMARK SMILES IDX 20 36 21 37 22 38 23 39 87 40 24 41 86 42 25 43 26 44 27 45
REMARK SMILES IDX 80 46 28 47 85 48 79 49 81 50 29 51 84 52 78 53 77 54 30 56
REMARK SMILES IDX 64 57 43 58 63 59 44 60 47 61 62 62 82 63 45 64 46 65 61 67
REMARK SMILES IDX 83 68 48 69 31 70 32 71 41 72 33 73 34 74 40 75 42 76 35 77
REMARK SMILES IDX 36 78 37 79 38 80 39 81 65 82 66 83 75 84 67 85 68 86 74 87
REMARK SMILES IDX 76 88 69 89 70 90 71 91 72 92 73 93 49 94 50 95 59 96 51 97
REMARK SMILES IDX 52 98 58 99 60 100 53 101 54 102 55 103 56 104 57 105
REMARK H PARENT 3 16 3 17 91 22 81 55 47 66
REMARK Flexibility Score: inf
ROOT
ATOM      1  O   UNL A   1      35.327  31.882  29.100  1.00  0.00    -0.377 OA
ENDROOT
BRANCH   1   2
ATOM      2  C   UNL A   1      36.420  31.510  28.273  1.00  0.00     0.188 C 
BRANCH   2   3
ATOM      3  C   UNL A   1      36.489  30.053  27.799  1.00  0.00     0.188 C 
BRANCH   3   4
ATOM      4  O   UNL A   1      35.318  29.316  28.077  1.00  0.00    -0.376 OA
BRANCH   4   5
ATOM      5  C   UNL A   1      34.501  28.837  27.022  1.00  0.00     0.202 C 
BRANCH   5   6
ATOM      6  C   UNL A   1      33.158  29.468  26.593  1.00  0.00     0.261 C 
BRANCH   6   7
ATOM      7  O   UNL A   1      32.999  29.832  25.220  1.00  0.00    -0.459 OA
BRANCH   7   8
ATOM      8  C   UNL A   1      31.746  29.703  24.731  1.00  0.00     0.368 C 
ATOM      9  O   UNL A   1      30.804  30.388  25.131  1.00  0.00    -0.245 OA
BRANCH   8  10
ATOM     10  C   UNL A   1      31.601  28.605  23.635  1.00  0.00     0.200 C 
ATOM     11  C   UNL A   1      30.595  27.613  24.220  1.00  0.00     0.087 C 
ATOM     12  C   UNL A   1      32.793  27.666  23.311  1.00  0.00     0.146 C 
ATOM     13  C   UNL A   1      31.457  26.676  25.073  1.00  0.00     0.072 C 
ATOM     14  C   UNL A   1      32.785  26.518  24.325  1.00  0.00     0.191 C 
BRANCH  10  15
ATOM     15  N   UNL A   1      31.225  29.239  22.329  1.00  0.00    -0.332 N 
ATOM     16  H   UNL A   1      31.542  30.208  22.351  1.00  0.00     0.347 HD
ATOM     17  H   UNL A   1      31.671  28.667  21.612  1.00  0.00     0.347 HD
BRANCH  15  18
ATOM     18  C   UNL A   1      29.805  29.241  21.998  1.00  0.00     0.257 C 
ATOM     19  C   UNL A   1      29.318  30.685  21.935  1.00  0.00     0.071 C 
ENDBRANCH  15  18
ENDBRANCH  10  15
BRANCH  14  20
ATOM     20  N   UNL A   1      33.152  25.214  23.738  1.00  0.00    -0.328 N 
ATOM     21  C   UNL A   1      33.169  25.250  22.284  1.00  0.00     0.333 C 
ATOM     22  H   UNL A   1      32.368  24.641  24.049  1.00  0.00     0.348 HD
BRANCH  20  23
ATOM     23  C   UNL A   1      34.234  24.409  24.337  1.00  0.00     0.338 C 
BRANCH  23  24
ATOM     24  C   UNL A   1      33.850  23.392  25.373  1.00  0.00     0.164 A 
ATOM     25  N   UNL A   1      32.853  23.528  26.234  1.00  0.00    -0.236 NA
ATOM     26  N   UNL A   1      34.480  22.191  25.598  1.00  0.00    -0.333 N 
ATOM     27  C   UNL A   1      33.039  22.560  27.183  1.00  0.00     0.131 A 
ATOM     28  C   UNL A   1      34.064  21.726  26.818  1.00  0.00     0.107 A 
ATOM     29  C   UNL A   1      35.400  21.489  24.742  1.00  0.00     0.151 C 
ENDBRANCH  23  24
ENDBRANCH  20  23
ENDBRANCH  14  20
ENDBRANCH   8  10
ENDBRANCH   7   8
ENDBRANCH   6   7
ENDBRANCH   5   6
ENDBRANCH   4   5
ENDBRANCH   3   4
ENDBRANCH   2   3
ENDBRANCH   1   2
BRANCH   1  30
ATOM     30  C   UNL A   1      35.171  33.226  29.542  1.00  0.00     0.188 C 
BRANCH  30  31
ATOM     31  C   UNL A   1      35.352  33.597  31.027  1.00  0.00     0.188 C 
BRANCH  31  32
ATOM     32  O   UNL A   1      36.686  33.858  31.419  1.00  0.00    -0.376 OA
BRANCH  32  33
ATOM     33  C   UNL A   1      37.066  33.567  32.754  1.00  0.00     0.202 C 
BRANCH  33  34
ATOM     34  C   UNL A   1      36.527  32.291  33.416  1.00  0.00     0.261 C 
BRANCH  34  35
ATOM     35  O   UNL A   1      37.489  31.292  33.801  1.00  0.00    -0.460 OA
BRANCH  35  36
ATOM     36  C   UNL A   1      37.625  30.182  33.047  1.00  0.00     0.338 C 
ATOM     37  O   UNL A   1      36.802  29.697  32.289  1.00  0.00    -0.246 OA
BRANCH  36  38
ATOM     38  C   UNL A   1      39.037  29.755  33.151  1.00  0.00     0.060 A 
ATOM     39  C   UNL A   1      39.345  28.389  33.248  1.00  0.00     0.016 A 
ATOM     40  C   UNL A   1      40.058  30.705  33.120  1.00  0.00     0.016 A 
ATOM     41  C   UNL A   1      40.677  27.972  33.318  1.00  0.00     0.010 A 
ATOM     42  C   UNL A   1      41.388  30.288  33.221  1.00  0.00     0.010 A 
ATOM     43  C   UNL A   1      41.706  28.922  33.336  1.00  0.00    -0.014 A 
BRANCH  43  44
ATOM     44  C   UNL A   1      43.106  28.522  33.618  1.00  0.00     0.031 A 
ATOM     45  C   UNL A   1      43.936  27.978  32.489  1.00  0.00     0.074 A 
ATOM     46  C   UNL A   1      43.616  28.598  34.862  1.00  0.00     0.049 A 
ATOM     47  N   UNL A   1      45.119  27.424  32.522  1.00  0.00    -0.248 NA
ATOM     48  C   UNL A   1      43.350  28.066  31.140  1.00  0.00     0.031 C 
ATOM     49  C   UNL A   1      42.929  29.154  36.027  1.00  0.00     0.029 A 
ATOM     50  N   UNL A   1      44.828  28.178  35.357  1.00  0.00    -0.354 N 
ATOM     51  C   UNL A   1      45.408  27.071  31.209  1.00  0.00     0.074 A 
ATOM     52  C   UNL A   1      44.277  27.473  30.401  1.00  0.00     0.031 C 
ATOM     53  C   UNL A   1      43.719  29.015  37.107  1.00  0.00     0.029 A 
ATOM     54  C   UNL A   1      44.943  28.315  36.721  1.00  0.00     0.049 A 
ATOM     55  H   UNL A   1      45.545  27.813  34.789  1.00  0.00     0.167 HD
ATOM     56  C   UNL A   1      46.514  26.461  30.727  1.00  0.00     0.037 A 
ATOM     57  C   UNL A   1      45.905  27.883  37.564  1.00  0.00     0.037 A 
ATOM     58  C   UNL A   1      47.642  26.080  31.536  1.00  0.00     0.049 A 
ATOM     59  C   UNL A   1      47.089  27.126  37.007  1.00  0.00     0.074 A 
ATOM     60  C   UNL A   1      48.835  25.509  31.129  1.00  0.00     0.029 A 
ATOM     61  N   UNL A   1      47.711  26.213  32.914  1.00  0.00    -0.354 N 
ATOM     62  N   UNL A   1      47.377  26.846  35.758  1.00  0.00    -0.248 NA
ATOM     63  C   UNL A   1      48.072  26.616  37.975  1.00  0.00     0.031 C 
ATOM     64  C   UNL A   1      49.595  25.229  32.268  1.00  0.00     0.029 A 
ATOM     65  C   UNL A   1      48.905  25.687  33.379  1.00  0.00     0.049 A 
ATOM     66  H   UNL A   1      47.016  26.621  33.479  1.00  0.00     0.167 HD
ATOM     67  C   UNL A   1      48.584  26.153  35.790  1.00  0.00     0.074 A 
ATOM     68  C   UNL A   1      48.982  26.071  37.179  1.00  0.00     0.031 C 
ATOM     69  C   UNL A   1      49.296  25.626  34.765  1.00  0.00     0.037 A 
BRANCH  56  70
ATOM     70  C   UNL A   1      46.564  26.123  29.263  1.00  0.00     0.058 A 
ATOM     71  C   UNL A   1      45.974  24.959  28.747  1.00  0.00     0.135 A 
ATOM     72  C   UNL A   1      47.129  27.032  28.353  1.00  0.00     0.135 A 
ATOM     73  F   UNL A   1      45.439  24.048  29.574  1.00  0.00    -0.206 F 
ATOM     74  C   UNL A   1      45.939  24.712  27.379  1.00  0.00     0.059 A 
ATOM     75  C   UNL A   1      47.081  26.818  26.980  1.00  0.00     0.059 A 
ATOM     76  F   UNL A   1      47.712  28.157  28.797  1.00  0.00    -0.206 F 
ATOM     77  C   UNL A   1      46.484  25.653  26.503  1.00  0.00     0.060 A 
BRANCH  77  78
ATOM     78  S   UNL A   1      46.375  25.343  24.728  1.00  0.00     0.124 S 
ATOM     79  O   UNL A   1      44.975  24.955  24.584  1.00  0.00    -0.237 OA
ATOM     80  O   UNL A   1      46.733  26.642  24.165  1.00  0.00    -0.237 OA
ATOM     81  O   UNL A   1      47.345  24.276  24.506  1.00  0.00    -0.744 OA
ENDBRANCH  77  78
ENDBRANCH  56  70
BRANCH  57  82
ATOM     82  C   UNL A   1      45.779  28.093  39.034  1.00  0.00     0.058 A 
ATOM     83  C   UNL A   1      45.104  27.169  39.844  1.00  0.00     0.135 A 
ATOM     84  C   UNL A   1      46.278  29.253  39.650  1.00  0.00     0.135 A 
ATOM     85  F   UNL A   1      44.593  26.051  39.304  1.00  0.00    -0.206 F 
ATOM     86  C   UNL A   1      44.897  27.398  41.202  1.00  0.00     0.059 A 
ATOM     87  C   UNL A   1      46.113  29.490  41.011  1.00  0.00     0.059 A 
ATOM     88  F   UNL A   1      46.938  30.171  38.927  1.00  0.00    -0.206 F 
ATOM     89  C   UNL A   1      45.403  28.566  41.775  1.00  0.00     0.060 A 
BRANCH  89  90
ATOM     90  S   UNL A   1      45.133  28.857  43.537  1.00  0.00     0.124 S 
ATOM     91  O   UNL A   1      46.491  28.770  44.061  1.00  0.00    -0.237 OA
ATOM     92  O   UNL A   1      44.531  30.186  43.538  1.00  0.00    -0.237 OA
ATOM     93  O   UNL A   1      44.237  27.771  43.922  1.00  0.00    -0.744 OA
ENDBRANCH  89  90
ENDBRANCH  57  82
BRANCH  69  94
ATOM     94  C   UNL A   1      50.596  24.938  35.087  1.00  0.00     0.058 A 
ATOM     95  C   UNL A   1      50.652  23.564  35.362  1.00  0.00     0.135 A 
ATOM     96  C   UNL A   1      51.810  25.645  35.031  1.00  0.00     0.135 A 
ATOM     97  F   UNL A   1      49.522  22.843  35.437  1.00  0.00    -0.206 F 
ATOM     98  C   UNL A   1      51.864  22.915  35.579  1.00  0.00     0.059 A 
ATOM     99  C   UNL A   1      53.034  25.010  35.213  1.00  0.00     0.059 A 
ATOM    100  F   UNL A   1      51.814  26.961  34.761  1.00  0.00    -0.206 F 
ATOM    101  C   UNL A   1      53.051  23.645  35.491  1.00  0.00     0.060 A 
BRANCH 101 102
ATOM    102  S   UNL A   1      54.617  22.774  35.708  1.00  0.00     0.124 S 
ATOM    103  O   UNL A   1      55.114  23.361  36.947  1.00  0.00    -0.237 OA
ATOM    104  O   UNL A   1      54.188  21.381  35.793  1.00  0.00    -0.237 OA
ATOM    105  O   UNL A   1      55.369  23.119  34.505  1.00  0.00    -0.744 OA
ENDBRANCH 101 102
ENDBRANCH  69  94
ENDBRANCH  43  44
ENDBRANCH  36  38
ENDBRANCH  35  36
ENDBRANCH  34  35
ENDBRANCH  33  34
ENDBRANCH  32  33
ENDBRANCH  31  32
ENDBRANCH  30  31
ENDBRANCH   1  30
TORSDOF 28
ENDMDL
MODEL 3
REMARK VINA RESULT:      -6.7      0.924      8.037
REMARK SMILES CC[NH2+][C@@]1(C(=O)OCCOCCOCCOCCOC(=O)c2ccc(-c3c4nc(c(-c5c(F)cc(S(=O)(=O)[O-])cc5F)c5ccc([nH]5)c(-c5c(F)cc(S(=O)(=O)[O-])cc5F)c5nc(c(-c6c(F)cc(S(=O)(=O)[O-])cc6F)c6ccc3[nH]6)C=C5)C=C4)cc2)CC[C@@H]([N@@H+](C)Cc2nccn2C)C1
REMARK SMILES IDX 13 1 12 2 11 3 10 4 9 5 8 6 7 7 5 8 6 9 4 10 88 11 100 12
REMARK SMILES IDX 89 13 90 14 3 15 2 18 1 19 91 20 92 21 93 23 94 24 95 25
REMARK SMILES IDX 98 26 96 27 97 28 99 29 14 30 15 31 16 32 17 33 18 34 19 35
REMARK SMILES IDX 20 36 21 37 22 38 23 39 87 40 24 41 86 42 25 43 26 44 27 45
REMARK SMILES IDX 80 46 28 47 85 48 79 49 81 50 29 51 84 52 78 53 77 54 30 56
REMARK SMILES IDX 64 57 43 58 63 59 44 60 47 61 62 62 82 63 45 64 46 65 61 67
REMARK SMILES IDX 83 68 48 69 31 70 32 71 41 72 33 73 34 74 40 75 42 76 35 77
REMARK SMILES IDX 36 78 37 79 38 80 39 81 65 82 66 83 75 84 67 85 68 86 74 87
REMARK SMILES IDX 76 88 69 89 70 90 71 91 72 92 73 93 49 94 50 95 59 96 51 97
REMARK SMILES IDX 52 98 58 99 60 100 53 101 54 102 55 103 56 104 57 105
REMARK H PARENT 3 16 3 17 91 22 81 55 47 66
REMARK Flexibility Score: inf
ROOT
ATOM      1  O   UNL A   1      40.846  26.264  28.303  1.00  0.00    -0.377 OA
ENDROOT
BRANCH   1   2
ATOM      2  C   UNL A   1      41.163  25.206  27.410  1.00  0.00     0.188 C 
BRANCH   2   3
ATOM      3  C   UNL A   1      41.343  23.805  28.006  1.00  0.00     0.188 C 
BRANCH   3   4
ATOM      4  O   UNL A   1      41.166  22.767  27.066  1.00  0.00    -0.376 OA
BRANCH   4   5
ATOM      5  C   UNL A   1      39.928  22.083  26.971  1.00  0.00     0.202 C 
BRANCH   5   6
ATOM      6  C   UNL A   1      39.009  22.095  25.731  1.00  0.00     0.261 C 
BRANCH   6   7
ATOM      7  O   UNL A   1      37.626  21.783  25.920  1.00  0.00    -0.459 OA
BRANCH   7   8
ATOM      8  C   UNL A   1      36.792  22.845  25.925  1.00  0.00     0.368 C 
ATOM      9  O   UNL A   1      37.182  23.995  26.124  1.00  0.00    -0.245 OA
BRANCH   8  10
ATOM     10  C   UNL A   1      35.297  22.481  25.674  1.00  0.00     0.200 C 
ATOM     11  C   UNL A   1      35.081  22.760  24.187  1.00  0.00     0.087 C 
ATOM     12  C   UNL A   1      34.170  23.339  26.306  1.00  0.00     0.146 C 
ATOM     13  C   UNL A   1      34.745  24.255  24.138  1.00  0.00     0.072 C 
ATOM     14  C   UNL A   1      33.926  24.549  25.399  1.00  0.00     0.191 C 
BRANCH  10  15
ATOM     15  N   UNL A   1      35.034  21.077  26.130  1.00  0.00    -0.332 N 
ATOM     16  H   UNL A   1      35.354  20.446  25.396  1.00  0.00     0.347 HD
ATOM     17  H   UNL A   1      35.533  20.981  27.015  1.00  0.00     0.347 HD
BRANCH  15  18
ATOM     18  C   UNL A   1      33.645  20.745  26.429  1.00  0.00     0.257 C 
ATOM     19  C   UNL A   1      33.102  19.861  25.312  1.00  0.00     0.071 C 
ENDBRANCH  15  18
ENDBRANCH  10  15
BRANCH  14  20
ATOM     20  N   UNL A   1      32.502  24.920  25.285  1.00  0.00    -0.328 N 
ATOM     21  C   UNL A   1      31.622  23.767  25.401  1.00  0.00     0.333 C 
ATOM     22  H   UNL A   1      32.475  25.266  24.326  1.00  0.00     0.348 HD
BRANCH  20  23
ATOM     23  C   UNL A   1      31.996  26.137  25.948  1.00  0.00     0.338 C 
BRANCH  23  24
ATOM     24  C   UNL A   1      31.760  27.347  25.091  1.00  0.00     0.164 A 
ATOM     25  N   UNL A   1      32.606  28.356  24.956  1.00  0.00    -0.236 NA
ATOM     26  N   UNL A   1      30.634  27.599  24.343  1.00  0.00    -0.333 N 
ATOM     27  C   UNL A   1      31.897  29.367  24.368  1.00  0.00     0.131 A 
ATOM     28  C   UNL A   1      30.654  28.924  23.996  1.00  0.00     0.107 A 
ATOM     29  C   UNL A   1      29.599  26.680  23.946  1.00  0.00     0.151 C 
ENDBRANCH  23  24
ENDBRANCH  20  23
ENDBRANCH  14  20
ENDBRANCH   8  10
ENDBRANCH   7   8
ENDBRANCH   6   7
ENDBRANCH   5   6
ENDBRANCH   4   5
ENDBRANCH   3   4
ENDBRANCH   2   3
ENDBRANCH   1   2
BRANCH   1  30
ATOM     30  C   UNL A   1      41.053  27.622  27.927  1.00  0.00     0.188 C 
BRANCH  30  31
ATOM     31  C   UNL A   1      40.227  28.755  28.568  1.00  0.00     0.188 C 
BRANCH  31  32
ATOM     32  O   UNL A   1      38.963  28.363  29.067  1.00  0.00    -0.376 OA
BRANCH  32  33
ATOM     33  C   UNL A   1      37.870  29.253  28.911  1.00  0.00     0.202 C 
BRANCH  33  34
ATOM     34  C   UNL A   1      36.861  29.395  30.061  1.00  0.00     0.261 C 
BRANCH  34  35
ATOM     35  O   UNL A   1      37.358  29.215  31.399  1.00  0.00    -0.460 OA
BRANCH  35  36
ATOM     36  C   UNL A   1      37.878  30.270  32.059  1.00  0.00     0.338 C 
ATOM     37  O   UNL A   1      37.300  31.291  32.393  1.00  0.00    -0.246 OA
BRANCH  36  38
ATOM     38  C   UNL A   1      39.241  29.889  32.486  1.00  0.00     0.060 A 
ATOM     39  C   UNL A   1      40.244  30.866  32.568  1.00  0.00     0.016 A 
ATOM     40  C   UNL A   1      39.518  28.568  32.839  1.00  0.00     0.016 A 
ATOM     41  C   UNL A   1      41.528  30.523  32.998  1.00  0.00     0.010 A 
ATOM     42  C   UNL A   1      40.811  28.220  33.240  1.00  0.00     0.010 A 
ATOM     43  C   UNL A   1      41.827  29.190  33.307  1.00  0.00    -0.014 A 
BRANCH  43  44
ATOM     44  C   UNL A   1      43.225  28.765  33.563  1.00  0.00     0.031 A 
ATOM     45  C   UNL A   1      44.057  28.301  32.399  1.00  0.00     0.074 A 
ATOM     46  C   UNL A   1      43.731  28.748  34.811  1.00  0.00     0.049 A 
ATOM     47  N   UNL A   1      45.237  27.742  32.396  1.00  0.00    -0.248 NA
ATOM     48  C   UNL A   1      43.476  28.490  31.058  1.00  0.00     0.031 C 
ATOM     49  C   UNL A   1      43.043  29.221  36.011  1.00  0.00     0.029 A 
ATOM     50  N   UNL A   1      44.940  28.288  35.277  1.00  0.00    -0.354 N 
ATOM     51  C   UNL A   1      45.529  27.484  31.061  1.00  0.00     0.074 A 
ATOM     52  C   UNL A   1      44.403  27.948  30.282  1.00  0.00     0.031 C 
ATOM     53  C   UNL A   1      43.828  29.000  37.080  1.00  0.00     0.029 A 
ATOM     54  C   UNL A   1      45.051  28.325  36.648  1.00  0.00     0.049 A 
ATOM     55  H   UNL A   1      45.657  27.963  34.687  1.00  0.00     0.167 HD
ATOM     56  C   UNL A   1      46.635  26.906  30.540  1.00  0.00     0.037 A 
ATOM     57  C   UNL A   1      46.008  27.829  37.460  1.00  0.00     0.037 A 
ATOM     58  C   UNL A   1      47.758  26.463  31.323  1.00  0.00     0.049 A 
ATOM     59  C   UNL A   1      47.191  27.110  36.853  1.00  0.00     0.074 A 
ATOM     60  C   UNL A   1      48.951  25.918  30.879  1.00  0.00     0.029 A 
ATOM     61  N   UNL A   1      47.824  26.495  32.707  1.00  0.00    -0.354 N 
ATOM     62  N   UNL A   1      47.482  26.920  35.588  1.00  0.00    -0.248 NA
ATOM     63  C   UNL A   1      48.169  26.526  37.784  1.00  0.00     0.031 C 
ATOM     64  C   UNL A   1      49.705  25.553  31.996  1.00  0.00     0.029 A 
ATOM     65  C   UNL A   1      49.014  25.931  33.136  1.00  0.00     0.049 A 
ATOM     66  H   UNL A   1      47.128  26.863  33.297  1.00  0.00     0.167 HD
ATOM     67  C   UNL A   1      48.687  26.222  35.574  1.00  0.00     0.074 A 
ATOM     68  C   UNL A   1      49.079  26.037  36.954  1.00  0.00     0.031 C 
ATOM     69  C   UNL A   1      49.400  25.768  34.515  1.00  0.00     0.037 A 
BRANCH  56  70
ATOM     70  C   UNL A   1      46.689  26.675  29.055  1.00  0.00     0.058 A 
ATOM     71  C   UNL A   1      47.187  27.642  28.169  1.00  0.00     0.135 A 
ATOM     72  C   UNL A   1      46.323  25.426  28.528  1.00  0.00     0.135 A 
ATOM     73  F   UNL A   1      47.531  28.858  28.618  1.00  0.00    -0.206 F 
ATOM     74  C   UNL A   1      47.326  27.374  26.811  1.00  0.00     0.059 A 
ATOM     75  C   UNL A   1      46.478  25.128  27.178  1.00  0.00     0.059 A 
ATOM     76  F   UNL A   1      45.833  24.470  29.333  1.00  0.00    -0.206 F 
ATOM     77  C   UNL A   1      46.980  26.111  26.327  1.00  0.00     0.060 A 
BRANCH  77  78
ATOM     78  S   UNL A   1      47.224  25.763  24.572  1.00  0.00     0.124 S 
ATOM     79  O   UNL A   1      46.454  24.533  24.409  1.00  0.00    -0.237 OA
ATOM     80  O   UNL A   1      46.660  26.952  23.941  1.00  0.00    -0.237 OA
ATOM     81  O   UNL A   1      48.670  25.616  24.450  1.00  0.00    -0.744 OA
ENDBRANCH  77  78
ENDBRANCH  56  70
BRANCH  57  82
ATOM     82  C   UNL A   1      45.878  27.932  38.941  1.00  0.00     0.058 A 
ATOM     83  C   UNL A   1      45.070  27.041  39.663  1.00  0.00     0.135 A 
ATOM     84  C   UNL A   1      46.510  28.962  39.659  1.00  0.00     0.135 A 
ATOM     85  F   UNL A   1      44.431  26.049  39.024  1.00  0.00    -0.206 F 
ATOM     86  C   UNL A   1      44.865  27.183  41.033  1.00  0.00     0.059 A 
ATOM     87  C   UNL A   1      46.347  29.105  41.033  1.00  0.00     0.059 A 
ATOM     88  F   UNL A   1      47.300  29.841  39.023  1.00  0.00    -0.206 F 
ATOM     89  C   UNL A   1      45.506  28.223  41.708  1.00  0.00     0.060 A 
BRANCH  89  90
ATOM     90  S   UNL A   1      45.238  28.401  43.486  1.00  0.00     0.124 S 
ATOM     91  O   UNL A   1      43.958  27.724  43.658  1.00  0.00    -0.237 OA
ATOM     92  O   UNL A   1      46.402  27.719  44.040  1.00  0.00    -0.237 OA
ATOM     93  O   UNL A   1      45.218  29.848  43.677  1.00  0.00    -0.744 OA
ENDBRANCH  89  90
ENDBRANCH  57  82
BRANCH  69  94
ATOM     94  C   UNL A   1      50.696  25.053  34.790  1.00  0.00     0.058 A 
ATOM     95  C   UNL A   1      51.898  25.753  34.974  1.00  0.00     0.135 A 
ATOM     96  C   UNL A   1      50.718  23.658  34.961  1.00  0.00     0.135 A 
ATOM     97  F   UNL A   1      51.935  27.086  34.814  1.00  0.00    -0.206 F 
ATOM     98  C   UNL A   1      53.077  25.096  35.310  1.00  0.00     0.059 A 
ATOM     99  C   UNL A   1      51.879  22.985  35.327  1.00  0.00     0.059 A 
ATOM    100  F   UNL A   1      49.594  22.941  34.806  1.00  0.00    -0.206 F 
ATOM    101  C   UNL A   1      53.056  23.712  35.495  1.00  0.00     0.060 A 
BRANCH 101 102
ATOM    102  S   UNL A   1      54.580  22.885  35.997  1.00  0.00     0.124 S 
ATOM    103  O   UNL A   1      55.590  23.684  35.311  1.00  0.00    -0.237 OA
ATOM    104  O   UNL A   1      54.543  23.020  37.450  1.00  0.00    -0.237 OA
ATOM    105  O   UNL A   1      54.411  21.524  35.495  1.00  0.00    -0.744 OA
ENDBRANCH 101 102
ENDBRANCH  69  94
ENDBRANCH  43  44
ENDBRANCH  36  38
ENDBRANCH  35  36
ENDBRANCH  34  35
ENDBRANCH  33  34
ENDBRANCH  32  33
ENDBRANCH  31  32
ENDBRANCH  30  31
ENDBRANCH   1  30
TORSDOF 28
ENDMDL
