MODEL 1
REMARK VINA RESULT:      -7.2      0.000      0.000
REMARK SMILES CC[C@@](C)(NC(=O)N(C)[C@@H](C)C(C)C)C(=O)OCCOCCOCCOCCOC(=O)c1ccc(-c2c3nc(c(-c4c(F)cc(S(=O)(=O)[O-])cc4F)c4ccc([nH]4)c(-c4c(F)cc(S(=O)(=O)[O-])cc4F)c4nc(c(-c5c(F)cc(S(=O)(=O)[O-])cc5F)c5ccc2[nH]5)C=C4)C=C3)cc1
REMARK SMILES IDX 22 1 21 2 20 3 19 4 18 5 17 6 15 7 16 8 3 9 4 10 2 11 1 12
REMARK SMILES IDX 5 13 6 14 7 16 8 17 9 18 10 19 11 20 12 21 13 22 14 23 23 24
REMARK SMILES IDX 24 25 25 26 26 27 27 28 28 29 29 30 30 31 31 32 32 33 33 34
REMARK SMILES IDX 97 35 34 36 96 37 35 38 36 39 37 40 90 41 38 42 95 43 89 44
REMARK SMILES IDX 91 45 39 46 94 47 88 48 87 49 40 51 74 52 53 53 73 54 54 55
REMARK SMILES IDX 57 56 72 57 92 58 55 59 56 60 71 62 93 63 58 64 41 65 42 66
REMARK SMILES IDX 51 67 43 68 44 69 50 70 52 71 45 72 46 73 47 74 48 75 49 76
REMARK SMILES IDX 75 77 76 78 85 79 77 80 78 81 84 82 86 83 79 84 80 85 81 86
REMARK SMILES IDX 82 87 83 88 59 89 60 90 69 91 61 92 62 93 68 94 70 95 63 96
REMARK SMILES IDX 64 97 65 98 66 99 67 100
REMARK H PARENT 5 15 91 50 57 61
REMARK Flexibility Score: inf
ROOT
ATOM      1  C   UNL A   1      40.301  26.505  28.916  1.00  0.00     0.188 C 
ENDROOT
BRANCH   1   2
ATOM      2  C   UNL A   1      39.647  26.414  27.534  1.00  0.00     0.188 C 
BRANCH   2   3
ATOM      3  O   UNL A   1      39.676  25.171  26.837  1.00  0.00    -0.376 OA
BRANCH   3   4
ATOM      4  C   UNL A   1      39.414  23.960  27.538  1.00  0.00     0.202 C 
BRANCH   4   5
ATOM      5  C   UNL A   1      39.439  22.825  26.513  1.00  0.00     0.261 C 
BRANCH   5   6
ATOM      6  O   UNL A   1      38.367  23.042  25.579  1.00  0.00    -0.462 OA
BRANCH   6   7
ATOM      7  C   UNL A   1      37.322  22.196  25.577  1.00  0.00     0.331 C 
ATOM      8  O   UNL A   1      37.439  20.976  25.612  1.00  0.00    -0.249 OA
BRANCH   7   9
ATOM      9  C   UNL A   1      35.958  22.953  25.450  1.00  0.00     0.136 C 
ATOM     10  C   UNL A   1      36.138  24.122  26.458  1.00  0.00     0.047 C 
BRANCH   9  11
ATOM     11  C   UNL A   1      35.770  23.590  24.027  1.00  0.00     0.037 C 
ATOM     12  C   UNL A   1      36.402  22.850  22.840  1.00  0.00     0.007 C 
ENDBRANCH   9  11
BRANCH   9  13
ATOM     13  N   UNL A   1      34.671  22.245  25.901  1.00  0.00    -0.322 N 
ATOM     14  C   UNL A   1      33.532  22.646  26.567  1.00  0.00     0.318 C 
ATOM     15  H   UNL A   1      34.656  21.291  25.660  1.00  0.00     0.166 HD
ATOM     16  O   UNL A   1      33.500  22.343  27.762  1.00  0.00    -0.249 OA
BRANCH  14  17
ATOM     17  N   UNL A   1      32.396  23.017  25.825  1.00  0.00    -0.325 N 
ATOM     18  C   UNL A   1      31.112  22.409  26.140  1.00  0.00     0.149 C 
BRANCH  17  19
ATOM     19  C   UNL A   1      32.206  24.422  25.197  1.00  0.00     0.086 C 
ATOM     20  C   UNL A   1      31.212  24.131  24.049  1.00  0.00     0.031 C 
BRANCH  19  21
ATOM     21  C   UNL A   1      32.503  25.809  26.126  1.00  0.00     0.005 C 
ATOM     22  C   UNL A   1      33.657  26.625  25.481  1.00  0.00     0.009 C 
ATOM     23  C   UNL A   1      31.671  27.034  26.766  1.00  0.00     0.009 C 
ENDBRANCH  19  21
ENDBRANCH  17  19
ENDBRANCH  14  17
ENDBRANCH   9  13
ENDBRANCH   7   9
ENDBRANCH   6   7
ENDBRANCH   5   6
ENDBRANCH   4   5
ENDBRANCH   3   4
ENDBRANCH   2   3
ENDBRANCH   1   2
BRANCH   1  24
ATOM     24  O   UNL A   1      41.710  26.632  28.885  1.00  0.00    -0.377 OA
BRANCH  24  25
ATOM     25  C   UNL A   1      42.308  26.720  27.600  1.00  0.00     0.188 C 
BRANCH  25  26
ATOM     26  C   UNL A   1      43.469  25.722  27.302  1.00  0.00     0.188 C 
BRANCH  26  27
ATOM     27  O   UNL A   1      43.178  24.326  27.039  1.00  0.00    -0.376 OA
BRANCH  27  28
ATOM     28  C   UNL A   1      44.125  23.588  26.232  1.00  0.00     0.202 C 
BRANCH  28  29
ATOM     29  C   UNL A   1      45.495  23.071  26.947  1.00  0.00     0.261 C 
BRANCH  29  30
ATOM     30  O   UNL A   1      46.801  23.677  26.526  1.00  0.00    -0.460 OA
BRANCH  30  31
ATOM     31  C   UNL A   1      46.916  24.646  25.542  1.00  0.00     0.338 C 
ATOM     32  O   UNL A   1      47.033  24.383  24.354  1.00  0.00    -0.246 OA
BRANCH  31  33
ATOM     33  C   UNL A   1      46.938  26.127  26.036  1.00  0.00     0.060 A 
ATOM     34  C   UNL A   1      47.415  26.549  27.291  1.00  0.00     0.016 A 
ATOM     35  C   UNL A   1      46.474  27.172  25.230  1.00  0.00     0.016 A 
ATOM     36  C   UNL A   1      47.496  27.877  27.743  1.00  0.00     0.010 A 
ATOM     37  C   UNL A   1      46.522  28.532  25.675  1.00  0.00     0.010 A 
ATOM     38  C   UNL A   1      47.029  28.895  26.941  1.00  0.00    -0.014 A 
BRANCH  38  39
ATOM     39  C   UNL A   1      46.799  30.238  27.551  1.00  0.00     0.031 A 
ATOM     40  C   UNL A   1      45.570  30.366  28.413  1.00  0.00     0.074 A 
ATOM     41  C   UNL A   1      47.648  31.281  27.444  1.00  0.00     0.049 A 
ATOM     42  N   UNL A   1      44.952  31.433  28.842  1.00  0.00    -0.248 NA
ATOM     43  C   UNL A   1      44.946  29.099  28.832  1.00  0.00     0.031 C 
ATOM     44  C   UNL A   1      48.968  31.252  26.813  1.00  0.00     0.029 A 
ATOM     45  N   UNL A   1      47.515  32.591  27.856  1.00  0.00    -0.354 N 
ATOM     46  C   UNL A   1      43.816  30.964  29.497  1.00  0.00     0.074 A 
ATOM     47  C   UNL A   1      43.850  29.522  29.438  1.00  0.00     0.031 C 
ATOM     48  C   UNL A   1      49.497  32.491  26.834  1.00  0.00     0.029 A 
ATOM     49  C   UNL A   1      48.534  33.416  27.429  1.00  0.00     0.049 A 
ATOM     50  H   UNL A   1      46.760  32.907  28.404  1.00  0.00     0.167 HD
ATOM     51  C   UNL A   1      42.820  31.683  30.067  1.00  0.00     0.037 A 
ATOM     52  C   UNL A   1      48.645  34.763  27.468  1.00  0.00     0.037 A 
ATOM     53  C   UNL A   1      42.836  33.119  30.139  1.00  0.00     0.049 A 
ATOM     54  C   UNL A   1      47.506  35.559  28.068  1.00  0.00     0.074 A 
ATOM     55  C   UNL A   1      41.879  33.971  30.658  1.00  0.00     0.029 A 
ATOM     56  N   UNL A   1      43.882  33.915  29.689  1.00  0.00    -0.354 N 
ATOM     57  N   UNL A   1      46.375  35.125  28.578  1.00  0.00    -0.248 NA
ATOM     58  C   UNL A   1      47.647  37.023  28.091  1.00  0.00     0.031 C 
ATOM     59  C   UNL A   1      42.332  35.285  30.488  1.00  0.00     0.029 A 
ATOM     60  C   UNL A   1      43.596  35.248  29.917  1.00  0.00     0.049 A 
ATOM     61  H   UNL A   1      44.706  33.578  29.267  1.00  0.00     0.167 HD
ATOM     62  C   UNL A   1      45.689  36.255  29.017  1.00  0.00     0.074 A 
ATOM     63  C   UNL A   1      46.536  37.392  28.713  1.00  0.00     0.031 C 
ATOM     64  C   UNL A   1      44.476  36.350  29.618  1.00  0.00     0.037 A 
BRANCH  51  65
ATOM     65  C   UNL A   1      41.616  30.927  30.564  1.00  0.00     0.058 A 
ATOM     66  C   UNL A   1      40.717  30.284  29.699  1.00  0.00     0.135 A 
ATOM     67  C   UNL A   1      41.342  30.875  31.942  1.00  0.00     0.135 A 
ATOM     68  F   UNL A   1      40.907  30.326  28.371  1.00  0.00    -0.206 F 
ATOM     69  C   UNL A   1      39.573  29.647  30.178  1.00  0.00     0.059 A 
ATOM     70  C   UNL A   1      40.224  30.216  32.445  1.00  0.00     0.059 A 
ATOM     71  F   UNL A   1      42.160  31.481  32.817  1.00  0.00    -0.206 F 
ATOM     72  C   UNL A   1      39.336  29.620  31.554  1.00  0.00     0.060 A 
BRANCH  72  73
ATOM     73  S   UNL A   1      37.850  28.791  32.160  1.00  0.00     0.124 S 
ATOM     74  O   UNL A   1      36.796  29.623  31.586  1.00  0.00    -0.237 OA
ATOM     75  O   UNL A   1      37.983  27.455  31.589  1.00  0.00    -0.237 OA
ATOM     76  O   UNL A   1      37.987  28.866  33.611  1.00  0.00    -0.744 OA
ENDBRANCH  72  73
ENDBRANCH  51  65
BRANCH  52  77
ATOM     77  C   UNL A   1      49.842  35.457  26.898  1.00  0.00     0.058 A 
ATOM     78  C   UNL A   1      49.863  35.906  25.568  1.00  0.00     0.135 A 
ATOM     79  C   UNL A   1      50.997  35.682  27.667  1.00  0.00     0.135 A 
ATOM     80  F   UNL A   1      48.803  35.695  24.774  1.00  0.00    -0.206 F 
ATOM     81  C   UNL A   1      50.973  36.553  25.023  1.00  0.00     0.059 A 
ATOM     82  C   UNL A   1      52.110  36.350  27.155  1.00  0.00     0.059 A 
ATOM     83  F   UNL A   1      51.047  35.268  28.943  1.00  0.00    -0.206 F 
ATOM     84  C   UNL A   1      52.089  36.781  25.829  1.00  0.00     0.060 A 
BRANCH  84  85
ATOM     85  S   UNL A   1      53.488  37.697  25.140  1.00  0.00     0.124 S 
ATOM     86  O   UNL A   1      53.276  37.530  23.707  1.00  0.00    -0.237 OA
ATOM     87  O   UNL A   1      53.262  39.040  25.667  1.00  0.00    -0.237 OA
ATOM     88  O   UNL A   1      54.649  37.005  25.692  1.00  0.00    -0.744 OA
ENDBRANCH  84  85
ENDBRANCH  52  77
BRANCH  64  89
ATOM     89  C   UNL A   1      44.033  37.718  30.055  1.00  0.00     0.058 A 
ATOM     90  C   UNL A   1      43.355  38.595  29.196  1.00  0.00     0.135 A 
ATOM     91  C   UNL A   1      44.261  38.137  31.377  1.00  0.00     0.135 A 
ATOM     92  F   UNL A   1      43.111  38.242  27.924  1.00  0.00    -0.206 F 
ATOM     93  C   UNL A   1      42.955  39.858  29.620  1.00  0.00     0.059 A 
ATOM     94  C   UNL A   1      43.844  39.382  31.830  1.00  0.00     0.059 A 
ATOM     95  F   UNL A   1      44.889  37.326  32.245  1.00  0.00    -0.206 F 
ATOM     96  C   UNL A   1      43.208  40.244  30.938  1.00  0.00     0.060 A 
BRANCH  96  97
ATOM     97  S   UNL A   1      42.687  41.886  31.475  1.00  0.00     0.124 S 
ATOM     98  O   UNL A   1      43.796  42.711  31.015  1.00  0.00    -0.237 OA
ATOM     99  O   UNL A   1      41.425  42.063  30.769  1.00  0.00    -0.237 OA
ATOM    100  O   UNL A   1      42.570  41.745  32.929  1.00  0.00    -0.744 OA
ENDBRANCH  96  97
ENDBRANCH  64  89
ENDBRANCH  38  39
ENDBRANCH  31  33
ENDBRANCH  30  31
ENDBRANCH  29  30
ENDBRANCH  28  29
ENDBRANCH  27  28
ENDBRANCH  26  27
ENDBRANCH  25  26
ENDBRANCH  24  25
ENDBRANCH   1  24
TORSDOF 28
ENDMDL
MODEL 2
REMARK VINA RESULT:      -7.2      5.332      8.119
REMARK SMILES CC[C@@](C)(NC(=O)N(C)[C@@H](C)C(C)C)C(=O)OCCOCCOCCOCCOC(=O)c1ccc(-c2c3nc(c(-c4c(F)cc(S(=O)(=O)[O-])cc4F)c4ccc([nH]4)c(-c4c(F)cc(S(=O)(=O)[O-])cc4F)c4nc(c(-c5c(F)cc(S(=O)(=O)[O-])cc5F)c5ccc2[nH]5)C=C4)C=C3)cc1
REMARK SMILES IDX 22 1 21 2 20 3 19 4 18 5 17 6 15 7 16 8 3 9 4 10 2 11 1 12
REMARK SMILES IDX 5 13 6 14 7 16 8 17 9 18 10 19 11 20 12 21 13 22 14 23 23 24
REMARK SMILES IDX 24 25 25 26 26 27 27 28 28 29 29 30 30 31 31 32 32 33 33 34
REMARK SMILES IDX 97 35 34 36 96 37 35 38 36 39 37 40 90 41 38 42 95 43 89 44
REMARK SMILES IDX 91 45 39 46 94 47 88 48 87 49 40 51 74 52 53 53 73 54 54 55
REMARK SMILES IDX 57 56 72 57 92 58 55 59 56 60 71 62 93 63 58 64 41 65 42 66
REMARK SMILES IDX 51 67 43 68 44 69 50 70 52 71 45 72 46 73 47 74 48 75 49 76
REMARK SMILES IDX 75 77 76 78 85 79 77 80 78 81 84 82 86 83 79 84 80 85 81 86
REMARK SMILES IDX 82 87 83 88 59 89 60 90 69 91 61 92 62 93 68 94 70 95 63 96
REMARK SMILES IDX 64 97 65 98 66 99 67 100
REMARK H PARENT 5 15 91 50 57 61
REMARK Flexibility Score: inf
ROOT
ATOM      1  C   UNL A   1      32.672  30.097  25.849  1.00  0.00     0.188 C 
ENDROOT
BRANCH   1   2
ATOM      2  C   UNL A   1      31.389  29.392  25.400  1.00  0.00     0.188 C 
BRANCH   2   3
ATOM      3  O   UNL A   1      30.718  29.859  24.232  1.00  0.00    -0.376 OA
BRANCH   3   4
ATOM      4  C   UNL A   1      30.275  28.928  23.250  1.00  0.00     0.202 C 
BRANCH   4   5
ATOM      5  C   UNL A   1      31.499  28.132  22.793  1.00  0.00     0.261 C 
BRANCH   5   6
ATOM      6  O   UNL A   1      31.273  26.746  23.103  1.00  0.00    -0.462 OA
BRANCH   6   7
ATOM      7  C   UNL A   1      31.966  26.181  24.108  1.00  0.00     0.331 C 
ATOM      8  O   UNL A   1      33.146  26.419  24.335  1.00  0.00    -0.249 OA
BRANCH   7   9
ATOM      9  C   UNL A   1      31.104  25.139  24.896  1.00  0.00     0.136 C 
ATOM     10  C   UNL A   1      29.847  25.971  25.273  1.00  0.00     0.047 C 
BRANCH   9  11
ATOM     11  C   UNL A   1      30.623  23.960  23.977  1.00  0.00     0.037 C 
ATOM     12  C   UNL A   1      31.656  23.356  23.015  1.00  0.00     0.007 C 
ENDBRANCH   9  11
BRANCH   9  13
ATOM     13  N   UNL A   1      31.631  24.601  26.236  1.00  0.00    -0.322 N 
ATOM     14  C   UNL A   1      31.978  23.351  26.704  1.00  0.00     0.318 C 
ATOM     15  H   UNL A   1      31.748  25.307  26.912  1.00  0.00     0.166 HD
ATOM     16  O   UNL A   1      31.127  22.813  27.415  1.00  0.00    -0.249 OA
BRANCH  14  17
ATOM     17  N   UNL A   1      33.325  22.948  26.657  1.00  0.00    -0.325 N 
ATOM     18  C   UNL A   1      33.963  22.459  27.870  1.00  0.00     0.149 C 
BRANCH  17  19
ATOM     19  C   UNL A   1      33.994  22.343  25.395  1.00  0.00     0.086 C 
ATOM     20  C   UNL A   1      34.946  23.480  24.958  1.00  0.00     0.031 C 
BRANCH  19  21
ATOM     21  C   UNL A   1      34.058  20.661  25.199  1.00  0.00     0.005 C 
ATOM     22  C   UNL A   1      32.943  20.212  24.216  1.00  0.00     0.009 C 
ATOM     23  C   UNL A   1      35.153  19.527  24.854  1.00  0.00     0.009 C 
ENDBRANCH  19  21
ENDBRANCH  17  19
ENDBRANCH  14  17
ENDBRANCH   9  13
ENDBRANCH   7   9
ENDBRANCH   6   7
ENDBRANCH   5   6
ENDBRANCH   4   5
ENDBRANCH   3   4
ENDBRANCH   2   3
ENDBRANCH   1   2
BRANCH   1  24
ATOM     24  O   UNL A   1      32.937  29.994  27.236  1.00  0.00    -0.377 OA
BRANCH  24  25
ATOM     25  C   UNL A   1      33.924  29.048  27.621  1.00  0.00     0.188 C 
BRANCH  25  26
ATOM     26  C   UNL A   1      35.409  29.450  27.370  1.00  0.00     0.188 C 
BRANCH  26  27
ATOM     27  O   UNL A   1      35.956  30.639  27.996  1.00  0.00    -0.376 OA
BRANCH  27  28
ATOM     28  C   UNL A   1      37.394  30.805  27.969  1.00  0.00     0.202 C 
BRANCH  28  29
ATOM     29  C   UNL A   1      38.314  29.555  28.467  1.00  0.00     0.261 C 
BRANCH  29  30
ATOM     30  O   UNL A   1      37.926  28.829  29.721  1.00  0.00    -0.460 OA
BRANCH  30  31
ATOM     31  C   UNL A   1      37.762  29.451  30.949  1.00  0.00     0.338 C 
ATOM     32  O   UNL A   1      36.881  29.146  31.741  1.00  0.00    -0.246 OA
BRANCH  31  33
ATOM     33  C   UNL A   1      38.747  30.620  31.264  1.00  0.00     0.060 A 
ATOM     34  C   UNL A   1      40.136  30.475  31.438  1.00  0.00     0.016 A 
ATOM     35  C   UNL A   1      38.299  31.938  31.392  1.00  0.00     0.016 A 
ATOM     36  C   UNL A   1      41.055  31.513  31.670  1.00  0.00     0.010 A 
ATOM     37  C   UNL A   1      39.209  33.012  31.652  1.00  0.00     0.010 A 
ATOM     38  C   UNL A   1      40.597  32.806  31.800  1.00  0.00    -0.014 A 
BRANCH  38  39
ATOM     39  C   UNL A   1      41.512  33.832  32.382  1.00  0.00     0.031 A 
ATOM     40  C   UNL A   1      41.594  33.864  33.886  1.00  0.00     0.074 A 
ATOM     41  C   UNL A   1      42.305  34.648  31.655  1.00  0.00     0.049 A 
ATOM     42  N   UNL A   1      42.059  34.786  34.682  1.00  0.00    -0.248 NA
ATOM     43  C   UNL A   1      41.054  32.683  34.581  1.00  0.00     0.031 C 
ATOM     44  C   UNL A   1      42.484  34.601  30.203  1.00  0.00     0.029 A 
ATOM     45  N   UNL A   1      43.105  35.701  32.046  1.00  0.00    -0.354 N 
ATOM     46  C   UNL A   1      41.778  34.339  35.971  1.00  0.00     0.074 A 
ATOM     47  C   UNL A   1      41.136  33.051  35.848  1.00  0.00     0.031 C 
ATOM     48  C   UNL A   1      43.295  35.607  29.824  1.00  0.00     0.029 A 
ATOM     49  C   UNL A   1      43.650  36.407  30.994  1.00  0.00     0.049 A 
ATOM     50  H   UNL A   1      43.270  35.928  32.990  1.00  0.00     0.167 HD
ATOM     51  C   UNL A   1      42.010  34.969  37.147  1.00  0.00     0.037 A 
ATOM     52  C   UNL A   1      44.310  37.588  30.981  1.00  0.00     0.037 A 
ATOM     53  C   UNL A   1      42.684  36.235  37.235  1.00  0.00     0.049 A 
ATOM     54  C   UNL A   1      44.525  38.304  32.297  1.00  0.00     0.074 A 
ATOM     55  C   UNL A   1      42.954  36.998  38.356  1.00  0.00     0.029 A 
ATOM     56  N   UNL A   1      43.213  36.919  36.147  1.00  0.00    -0.354 N 
ATOM     57  N   UNL A   1      44.152  37.942  33.504  1.00  0.00    -0.248 NA
ATOM     58  C   UNL A   1      45.237  39.590  32.254  1.00  0.00     0.031 C 
ATOM     59  C   UNL A   1      43.615  38.160  37.940  1.00  0.00     0.029 A 
ATOM     60  C   UNL A   1      43.808  38.093  36.568  1.00  0.00     0.049 A 
ATOM     61  H   UNL A   1      43.168  36.612  35.212  1.00  0.00     0.167 HD
ATOM     62  C   UNL A   1      44.617  38.932  34.366  1.00  0.00     0.074 A 
ATOM     63  C   UNL A   1      45.301  39.908  33.540  1.00  0.00     0.031 C 
ATOM     64  C   UNL A   1      44.498  39.029  35.715  1.00  0.00     0.037 A 
BRANCH  51  65
ATOM     65  C   UNL A   1      41.454  34.335  38.394  1.00  0.00     0.058 A 
ATOM     66  C   UNL A   1      40.140  34.559  38.836  1.00  0.00     0.135 A 
ATOM     67  C   UNL A   1      42.272  33.507  39.184  1.00  0.00     0.135 A 
ATOM     68  F   UNL A   1      39.322  35.366  38.142  1.00  0.00    -0.206 F 
ATOM     69  C   UNL A   1      39.668  34.015  40.029  1.00  0.00     0.059 A 
ATOM     70  C   UNL A   1      41.811  32.926  40.361  1.00  0.00     0.059 A 
ATOM     71  F   UNL A   1      43.540  33.265  38.819  1.00  0.00    -0.206 F 
ATOM     72  C   UNL A   1      40.513  33.200  40.785  1.00  0.00     0.060 A 
BRANCH  72  73
ATOM     73  S   UNL A   1      39.889  32.502  42.329  1.00  0.00     0.124 S 
ATOM     74  O   UNL A   1      40.915  32.923  43.278  1.00  0.00    -0.237 OA
ATOM     75  O   UNL A   1      38.592  33.158  42.467  1.00  0.00    -0.237 OA
ATOM     76  O   UNL A   1      39.836  31.069  42.058  1.00  0.00    -0.744 OA
ENDBRANCH  72  73
ENDBRANCH  51  65
BRANCH  52  77
ATOM     77  C   UNL A   1      44.782  38.194  29.697  1.00  0.00     0.058 A 
ATOM     78  C   UNL A   1      46.011  37.829  29.123  1.00  0.00     0.135 A 
ATOM     79  C   UNL A   1      44.020  39.158  29.014  1.00  0.00     0.135 A 
ATOM     80  F   UNL A   1      46.797  36.935  29.741  1.00  0.00    -0.206 F 
ATOM     81  C   UNL A   1      46.463  38.387  27.927  1.00  0.00     0.059 A 
ATOM     82  C   UNL A   1      44.437  39.712  27.804  1.00  0.00     0.059 A 
ATOM     83  F   UNL A   1      42.840  39.560  29.514  1.00  0.00    -0.206 F 
ATOM     84  C   UNL A   1      45.664  39.321  27.268  1.00  0.00     0.060 A 
BRANCH  84  85
ATOM     85  S   UNL A   1      46.219  39.973  25.675  1.00  0.00     0.124 S 
ATOM     86  O   UNL A   1      46.744  38.774  25.030  1.00  0.00    -0.237 OA
ATOM     87  O   UNL A   1      44.980  40.508  25.116  1.00  0.00    -0.237 OA
ATOM     88  O   UNL A   1      47.212  40.976  26.049  1.00  0.00    -0.744 OA
ENDBRANCH  84  85
ENDBRANCH  52  77
BRANCH  64  89
ATOM     89  C   UNL A   1      45.186  40.187  36.382  1.00  0.00     0.058 A 
ATOM     90  C   UNL A   1      44.618  41.468  36.429  1.00  0.00     0.135 A 
ATOM     91  C   UNL A   1      46.421  39.990  37.022  1.00  0.00     0.135 A 
ATOM     92  F   UNL A   1      43.438  41.707  35.834  1.00  0.00    -0.206 F 
ATOM     93  C   UNL A   1      45.272  42.527  37.051  1.00  0.00     0.059 A 
ATOM     94  C   UNL A   1      47.078  41.026  37.674  1.00  0.00     0.059 A 
ATOM     95  F   UNL A   1      46.997  38.777  37.023  1.00  0.00    -0.206 F 
ATOM     96  C   UNL A   1      46.504  42.296  37.666  1.00  0.00     0.060 A 
BRANCH  96  97
ATOM     97  S   UNL A   1      47.344  43.678  38.467  1.00  0.00     0.124 S 
ATOM     98  O   UNL A   1      47.415  43.217  39.848  1.00  0.00    -0.237 OA
ATOM     99  O   UNL A   1      48.611  43.737  37.749  1.00  0.00    -0.237 OA
ATOM    100  O   UNL A   1      46.442  44.807  38.227  1.00  0.00    -0.744 OA
ENDBRANCH  96  97
ENDBRANCH  64  89
ENDBRANCH  38  39
ENDBRANCH  31  33
ENDBRANCH  30  31
ENDBRANCH  29  30
ENDBRANCH  28  29
ENDBRANCH  27  28
ENDBRANCH  26  27
ENDBRANCH  25  26
ENDBRANCH  24  25
ENDBRANCH   1  24
TORSDOF 28
ENDMDL
MODEL 3
REMARK VINA RESULT:      -7.1      8.615     14.344
REMARK SMILES CC[C@@](C)(NC(=O)N(C)[C@@H](C)C(C)C)C(=O)OCCOCCOCCOCCOC(=O)c1ccc(-c2c3nc(c(-c4c(F)cc(S(=O)(=O)[O-])cc4F)c4ccc([nH]4)c(-c4c(F)cc(S(=O)(=O)[O-])cc4F)c4nc(c(-c5c(F)cc(S(=O)(=O)[O-])cc5F)c5ccc2[nH]5)C=C4)C=C3)cc1
REMARK SMILES IDX 22 1 21 2 20 3 19 4 18 5 17 6 15 7 16 8 3 9 4 10 2 11 1 12
REMARK SMILES IDX 5 13 6 14 7 16 8 17 9 18 10 19 11 20 12 21 13 22 14 23 23 24
REMARK SMILES IDX 24 25 25 26 26 27 27 28 28 29 29 30 30 31 31 32 32 33 33 34
REMARK SMILES IDX 97 35 34 36 96 37 35 38 36 39 37 40 90 41 38 42 95 43 89 44
REMARK SMILES IDX 91 45 39 46 94 47 88 48 87 49 40 51 74 52 53 53 73 54 54 55
REMARK SMILES IDX 57 56 72 57 92 58 55 59 56 60 71 62 93 63 58 64 41 65 42 66
REMARK SMILES IDX 51 67 43 68 44 69 50 70 52 71 45 72 46 73 47 74 48 75 49 76
REMARK SMILES IDX 75 77 76 78 85 79 77 80 78 81 84 82 86 83 79 84 80 85 81 86
REMARK SMILES IDX 82 87 83 88 59 89 60 90 69 91 61 92 62 93 68 94 70 95 63 96
REMARK SMILES IDX 64 97 65 98 66 99 67 100
REMARK H PARENT 5 15 91 50 57 61
REMARK Flexibility Score: inf
ROOT
ATOM      1  C   UNL A   1      34.334  30.550  27.491  1.00  0.00     0.188 C 
ENDROOT
BRANCH   1   2
ATOM      2  C   UNL A   1      33.404  29.625  26.700  1.00  0.00     0.188 C 
BRANCH   2   3
ATOM      3  O   UNL A   1      33.717  29.327  25.342  1.00  0.00    -0.376 OA
BRANCH   3   4
ATOM      4  C   UNL A   1      32.672  29.022  24.425  1.00  0.00     0.202 C 
BRANCH   4   5
ATOM      5  C   UNL A   1      31.443  28.632  25.248  1.00  0.00     0.261 C 
BRANCH   5   6
ATOM      6  O   UNL A   1      31.112  27.267  24.941  1.00  0.00    -0.462 OA
BRANCH   6   7
ATOM      7  C   UNL A   1      31.746  26.279  25.598  1.00  0.00     0.331 C 
ATOM      8  O   UNL A   1      32.378  26.451  26.633  1.00  0.00    -0.249 OA
BRANCH   7   9
ATOM      9  C   UNL A   1      31.638  24.913  24.841  1.00  0.00     0.136 C 
ATOM     10  C   UNL A   1      30.179  24.949  24.308  1.00  0.00     0.047 C 
BRANCH   9  11
ATOM     11  C   UNL A   1      32.589  24.856  23.593  1.00  0.00     0.037 C 
ATOM     12  C   UNL A   1      33.889  25.669  23.666  1.00  0.00     0.007 C 
ENDBRANCH   9  11
BRANCH   9  13
ATOM     13  N   UNL A   1      31.725  23.608  25.649  1.00  0.00    -0.322 N 
ATOM     14  C   UNL A   1      31.262  22.323  25.458  1.00  0.00     0.318 C 
ATOM     15  H   UNL A   1      32.224  23.713  26.491  1.00  0.00     0.166 HD
ATOM     16  O   UNL A   1      30.246  22.042  26.097  1.00  0.00    -0.249 OA
BRANCH  14  17
ATOM     17  N   UNL A   1      32.115  21.363  24.885  1.00  0.00    -0.325 N 
ATOM     18  C   UNL A   1      32.447  21.461  23.471  1.00  0.00     0.149 C 
BRANCH  17  19
ATOM     19  C   UNL A   1      33.240  20.640  25.671  1.00  0.00     0.086 C 
ATOM     20  C   UNL A   1      32.910  19.152  25.412  1.00  0.00     0.031 C 
BRANCH  19  21
ATOM     21  C   UNL A   1      34.695  21.448  25.996  1.00  0.00     0.005 C 
ATOM     22  C   UNL A   1      35.794  20.945  25.021  1.00  0.00     0.009 C 
ATOM     23  C   UNL A   1      35.218  22.962  26.187  1.00  0.00     0.009 C 
ENDBRANCH  19  21
ENDBRANCH  17  19
ENDBRANCH  14  17
ENDBRANCH   9  13
ENDBRANCH   7   9
ENDBRANCH   6   7
ENDBRANCH   5   6
ENDBRANCH   4   5
ENDBRANCH   3   4
ENDBRANCH   2   3
ENDBRANCH   1   2
BRANCH   1  24
ATOM     24  O   UNL A   1      34.151  31.927  27.221  1.00  0.00    -0.377 OA
BRANCH  24  25
ATOM     25  C   UNL A   1      33.596  32.707  28.270  1.00  0.00     0.188 C 
BRANCH  25  26
ATOM     26  C   UNL A   1      33.442  34.235  27.995  1.00  0.00     0.188 C 
BRANCH  26  27
ATOM     27  O   UNL A   1      32.728  35.075  28.937  1.00  0.00    -0.376 OA
BRANCH  27  28
ATOM     28  C   UNL A   1      33.282  35.205  30.267  1.00  0.00     0.202 C 
BRANCH  28  29
ATOM     29  C   UNL A   1      34.869  34.889  30.465  1.00  0.00     0.261 C 
BRANCH  29  30
ATOM     30  O   UNL A   1      35.365  34.517  31.831  1.00  0.00    -0.460 OA
BRANCH  30  31
ATOM     31  C   UNL A   1      35.535  33.209  32.256  1.00  0.00     0.338 C 
ATOM     32  O   UNL A   1      35.055  32.247  31.673  1.00  0.00    -0.246 OA
BRANCH  31  33
ATOM     33  C   UNL A   1      36.349  33.015  33.574  1.00  0.00     0.060 A 
ATOM     34  C   UNL A   1      36.449  33.968  34.605  1.00  0.00     0.016 A 
ATOM     35  C   UNL A   1      37.053  31.834  33.831  1.00  0.00     0.016 A 
ATOM     36  C   UNL A   1      37.129  33.803  35.824  1.00  0.00     0.010 A 
ATOM     37  C   UNL A   1      37.775  31.648  35.053  1.00  0.00     0.010 A 
ATOM     38  C   UNL A   1      37.824  32.637  36.059  1.00  0.00    -0.014 A 
BRANCH  38  39
ATOM     39  C   UNL A   1      38.811  32.607  37.178  1.00  0.00     0.031 A 
ATOM     40  C   UNL A   1      40.258  32.751  36.783  1.00  0.00     0.074 A 
ATOM     41  C   UNL A   1      38.481  32.544  38.485  1.00  0.00     0.049 A 
ATOM     42  N   UNL A   1      41.343  32.490  37.459  1.00  0.00    -0.248 NA
ATOM     43  C   UNL A   1      40.502  33.247  35.417  1.00  0.00     0.031 C 
ATOM     44  C   UNL A   1      37.125  32.600  39.032  1.00  0.00     0.029 A 
ATOM     45  N   UNL A   1      39.276  32.400  39.603  1.00  0.00    -0.354 N 
ATOM     46  C   UNL A   1      42.393  32.698  36.568  1.00  0.00     0.074 A 
ATOM     47  C   UNL A   1      41.816  33.137  35.319  1.00  0.00     0.031 C 
ATOM     48  C   UNL A   1      37.180  32.440  40.369  1.00  0.00     0.029 A 
ATOM     49  C   UNL A   1      38.566  32.215  40.771  1.00  0.00     0.049 A 
ATOM     50  H   UNL A   1      40.260  32.426  39.570  1.00  0.00     0.167 HD
ATOM     51  C   UNL A   1      43.717  32.505  36.772  1.00  0.00     0.037 A 
ATOM     52  C   UNL A   1      38.988  31.853  42.004  1.00  0.00     0.037 A 
ATOM     53  C   UNL A   1      44.261  32.100  38.040  1.00  0.00     0.049 A 
ATOM     54  C   UNL A   1      40.465  31.597  42.210  1.00  0.00     0.074 A 
ATOM     55  C   UNL A   1      45.577  31.837  38.375  1.00  0.00     0.029 A 
ATOM     56  N   UNL A   1      43.508  31.916  39.193  1.00  0.00    -0.354 N 
ATOM     57  N   UNL A   1      41.446  31.674  41.339  1.00  0.00    -0.248 NA
ATOM     58  C   UNL A   1      40.897  31.196  43.558  1.00  0.00     0.031 C 
ATOM     59  C   UNL A   1      45.612  31.460  39.722  1.00  0.00     0.029 A 
ATOM     60  C   UNL A   1      44.328  31.544  40.241  1.00  0.00     0.049 A 
ATOM     61  H   UNL A   1      42.532  32.034  39.254  1.00  0.00     0.167 HD
ATOM     62  C   UNL A   1      42.611  31.371  42.038  1.00  0.00     0.074 A 
ATOM     63  C   UNL A   1      42.212  31.111  43.407  1.00  0.00     0.031 C 
ATOM     64  C   UNL A   1      43.894  31.315  41.597  1.00  0.00     0.037 A 
BRANCH  51  65
ATOM     65  C   UNL A   1      44.631  32.645  35.583  1.00  0.00     0.058 A 
ATOM     66  C   UNL A   1      45.249  33.859  35.243  1.00  0.00     0.135 A 
ATOM     67  C   UNL A   1      44.865  31.540  34.746  1.00  0.00     0.135 A 
ATOM     68  F   UNL A   1      45.037  34.958  35.986  1.00  0.00    -0.206 F 
ATOM     69  C   UNL A   1      46.037  33.982  34.101  1.00  0.00     0.059 A 
ATOM     70  C   UNL A   1      45.676  31.632  33.618  1.00  0.00     0.059 A 
ATOM     71  F   UNL A   1      44.293  30.357  35.013  1.00  0.00    -0.206 F 
ATOM     72  C   UNL A   1      46.243  32.861  33.294  1.00  0.00     0.060 A 
BRANCH  72  73
ATOM     73  S   UNL A   1      47.267  33.035  31.816  1.00  0.00     0.124 S 
ATOM     74  O   UNL A   1      47.208  31.687  31.259  1.00  0.00    -0.237 OA
ATOM     75  O   UNL A   1      46.556  34.063  31.063  1.00  0.00    -0.237 OA
ATOM     76  O   UNL A   1      48.565  33.438  32.347  1.00  0.00    -0.744 OA
ENDBRANCH  72  73
ENDBRANCH  51  65
BRANCH  52  77
ATOM     77  C   UNL A   1      38.018  31.669  43.129  1.00  0.00     0.058 A 
ATOM     78  C   UNL A   1      37.518  32.766  43.850  1.00  0.00     0.135 A 
ATOM     79  C   UNL A   1      37.573  30.393  43.516  1.00  0.00     0.135 A 
ATOM     80  F   UNL A   1      37.926  34.007  43.548  1.00  0.00    -0.206 F 
ATOM     81  C   UNL A   1      36.614  32.609  44.902  1.00  0.00     0.059 A 
ATOM     82  C   UNL A   1      36.650  30.212  44.547  1.00  0.00     0.059 A 
ATOM     83  F   UNL A   1      38.021  29.302  42.875  1.00  0.00    -0.206 F 
ATOM     84  C   UNL A   1      36.177  31.327  45.236  1.00  0.00     0.060 A 
BRANCH  84  85
ATOM     85  S   UNL A   1      34.940  31.142  46.542  1.00  0.00     0.124 S 
ATOM     86  O   UNL A   1      33.960  32.156  46.169  1.00  0.00    -0.237 OA
ATOM     87  O   UNL A   1      34.519  29.754  46.370  1.00  0.00    -0.237 OA
ATOM     88  O   UNL A   1      35.695  31.411  47.762  1.00  0.00    -0.744 OA
ENDBRANCH  84  85
ENDBRANCH  52  77
BRANCH  64  89
ATOM     89  C   UNL A   1      44.959  31.038  42.621  1.00  0.00     0.058 A 
ATOM     90  C   UNL A   1      45.593  32.065  43.336  1.00  0.00     0.135 A 
ATOM     91  C   UNL A   1      45.317  29.712  42.915  1.00  0.00     0.135 A 
ATOM     92  F   UNL A   1      45.285  33.349  43.094  1.00  0.00    -0.206 F 
ATOM     93  C   UNL A   1      46.578  31.787  44.279  1.00  0.00     0.059 A 
ATOM     94  C   UNL A   1      46.277  29.411  43.873  1.00  0.00     0.059 A 
ATOM     95  F   UNL A   1      44.725  28.693  42.271  1.00  0.00    -0.206 F 
ATOM     96  C   UNL A   1      46.916  30.457  44.537  1.00  0.00     0.060 A 
BRANCH  96  97
ATOM     97  S   UNL A   1      48.196  30.110  45.760  1.00  0.00     0.124 S 
ATOM     98  O   UNL A   1      49.044  29.169  45.038  1.00  0.00    -0.237 OA
ATOM     99  O   UNL A   1      48.768  31.429  46.000  1.00  0.00    -0.237 OA
ATOM    100  O   UNL A   1      47.446  29.545  46.884  1.00  0.00    -0.744 OA
ENDBRANCH  96  97
ENDBRANCH  64  89
ENDBRANCH  38  39
ENDBRANCH  31  33
ENDBRANCH  30  31
ENDBRANCH  29  30
ENDBRANCH  28  29
ENDBRANCH  27  28
ENDBRANCH  26  27
ENDBRANCH  25  26
ENDBRANCH  24  25
ENDBRANCH   1  24
TORSDOF 28
ENDMDL
