MODEL 1
REMARK VINA RESULT:     -10.4      0.000      0.000
REMARK SMILES CCSc1ccc(-c2cc(Cl)cc3c2O[C@@H](C(F)(F)F)C(C(=O)OCCOCCOCCOCCOC(=O)c2ccc(-c4c5nc(c(-c6c(F)cc(S(=O)(=O)[O-])cc6F)c6ccc([nH]6)c(-c6c(F)cc(S(=O)(=O)[O-])cc6F)c6nc(c(-c7c(F)cc(S(=O)(=O)[O-])cc7F)c7ccc4[nH]7)C=C6)C=C5)cc2)=C3)cc1
REMARK SMILES IDX 30 1 29 2 28 3 27 4 26 5 25 6 24 7 22 8 23 9 21 10 8 11 9 12
REMARK SMILES IDX 14 13 10 14 13 15 15 16 11 17 12 18 105 19 16 20 7 21 4 22
REMARK SMILES IDX 5 23 107 24 6 25 106 26 3 27 2 28 1 29 17 30 18 31 19 32
REMARK SMILES IDX 20 33 31 34 32 35 33 36 34 37 35 38 36 39 37 40 38 41 39 42
REMARK SMILES IDX 40 43 104 44 41 45 103 46 42 47 43 48 44 49 97 50 45 51
REMARK SMILES IDX 102 52 96 53 98 54 46 55 101 56 95 57 94 58 47 60 81 61
REMARK SMILES IDX 60 62 80 63 61 64 64 65 79 66 99 67 62 68 63 69 78 71 100 72
REMARK SMILES IDX 65 73 48 74 49 75 58 76 50 77 51 78 57 79 59 80 52 81 53 82
REMARK SMILES IDX 54 83 55 84 56 85 82 86 83 87 92 88 84 89 85 90 91 91 93 92
REMARK SMILES IDX 86 93 87 94 88 95 89 96 90 97 66 98 67 99 76 100 68 101
REMARK SMILES IDX 69 102 75 103 77 104 70 105 71 106 72 107 73 108 74 109
REMARK H PARENT 98 59 64 70
REMARK Flexibility Score: inf
ROOT
ATOM      1  O   UNL A   1      32.991  35.104  31.595  1.00  0.00    -0.377 OA
ENDROOT
BRANCH   1   2
ATOM      2  C   UNL A   1      33.922  35.337  30.558  1.00  0.00     0.188 C 
BRANCH   2   3
ATOM      3  C   UNL A   1      33.304  36.073  29.362  1.00  0.00     0.188 C 
BRANCH   3   4
ATOM      4  O   UNL A   1      32.661  35.221  28.419  1.00  0.00    -0.376 OA
BRANCH   4   5
ATOM      5  C   UNL A   1      33.237  33.939  28.170  1.00  0.00     0.202 C 
BRANCH   5   6
ATOM      6  C   UNL A   1      32.458  32.949  27.292  1.00  0.00     0.261 C 
BRANCH   6   7
ATOM      7  O   UNL A   1      32.983  31.610  27.439  1.00  0.00    -0.460 OA
BRANCH   7   8
ATOM      8  C   UNL A   1      32.299  30.643  26.808  1.00  0.00     0.338 C 
ATOM      9  O   UNL A   1      31.559  30.822  25.849  1.00  0.00    -0.246 OA
BRANCH   8  10
ATOM     10  C   UNL A   1      32.676  29.283  27.268  1.00  0.00     0.087 C 
ATOM     11  C   UNL A   1      33.232  26.532  24.219  1.00  0.00     0.026 A 
ATOM     12  C   UNL A   1      32.429  26.959  23.134  1.00  0.00     0.033 A 
ATOM     13  C   UNL A   1      33.103  27.279  25.405  1.00  0.00     0.135 A 
ATOM     14  C   UNL A   1      31.343  27.809  23.336  1.00  0.00     0.042 A 
ATOM     15  C   UNL A   1      31.887  27.932  25.659  1.00  0.00     0.019 A 
ATOM     16  O   UNL A   1      34.220  27.598  26.173  1.00  0.00    -0.475 OA
ATOM     17  Cl  UNL A   1      30.363  28.271  22.003  1.00  0.00    -0.084 Cl
ATOM     18  C   UNL A   1      31.004  28.210  24.621  1.00  0.00     0.032 A 
ATOM     19  C   UNL A   1      31.651  28.445  27.025  1.00  0.00     0.027 C 
ATOM     20  C   UNL A   1      34.041  28.614  27.257  1.00  0.00     0.316 C 
BRANCH  11  21
ATOM     21  C   UNL A   1      33.543  25.060  24.193  1.00  0.00    -0.015 A 
ATOM     22  C   UNL A   1      33.606  22.358  25.127  1.00  0.00     0.007 A 
ATOM     23  C   UNL A   1      32.601  22.794  24.260  1.00  0.00     0.015 A 
ATOM     24  C   UNL A   1      34.637  23.241  25.444  1.00  0.00     0.015 A 
ATOM     25  C   UNL A   1      32.581  24.117  23.781  1.00  0.00     0.010 A 
ATOM     26  C   UNL A   1      34.612  24.567  24.972  1.00  0.00     0.010 A 
BRANCH  22  27
ATOM     27  S   UNL A   1      33.403  20.766  25.918  1.00  0.00    -0.126 SA
BRANCH  27  28
ATOM     28  C   UNL A   1      34.246  19.631  24.770  1.00  0.00     0.071 C 
ATOM     29  C   UNL A   1      33.645  18.239  24.823  1.00  0.00     0.016 C 
ENDBRANCH  27  28
ENDBRANCH  22  27
ENDBRANCH  11  21
BRANCH  20  30
ATOM     30  C   UNL A   1      35.289  29.477  27.576  1.00  0.00     0.430 C 
ATOM     31  F   UNL A   1      34.969  30.396  28.527  1.00  0.00    -0.167 F 
ATOM     32  F   UNL A   1      36.285  28.719  28.100  1.00  0.00    -0.167 F 
ATOM     33  F   UNL A   1      35.815  30.161  26.552  1.00  0.00    -0.167 F 
ENDBRANCH  20  30
ENDBRANCH   8  10
ENDBRANCH   7   8
ENDBRANCH   6   7
ENDBRANCH   5   6
ENDBRANCH   4   5
ENDBRANCH   3   4
ENDBRANCH   2   3
ENDBRANCH   1   2
BRANCH   1  34
ATOM     34  C   UNL A   1      33.226  35.745  32.844  1.00  0.00     0.188 C 
BRANCH  34  35
ATOM     35  C   UNL A   1      34.552  35.549  33.613  1.00  0.00     0.188 C 
BRANCH  35  36
ATOM     36  O   UNL A   1      34.774  34.221  34.087  1.00  0.00    -0.376 OA
BRANCH  36  37
ATOM     37  C   UNL A   1      35.932  33.550  33.612  1.00  0.00     0.202 C 
BRANCH  37  38
ATOM     38  C   UNL A   1      35.635  32.368  32.680  1.00  0.00     0.261 C 
BRANCH  38  39
ATOM     39  O   UNL A   1      36.790  31.767  32.077  1.00  0.00    -0.460 OA
BRANCH  39  40
ATOM     40  C   UNL A   1      36.992  32.007  30.763  1.00  0.00     0.338 C 
ATOM     41  O   UNL A   1      36.441  32.849  30.076  1.00  0.00    -0.246 OA
BRANCH  40  42
ATOM     42  C   UNL A   1      38.153  31.203  30.332  1.00  0.00     0.060 A 
ATOM     43  C   UNL A   1      38.987  30.646  31.309  1.00  0.00     0.016 A 
ATOM     44  C   UNL A   1      38.399  30.982  28.975  1.00  0.00     0.016 A 
ATOM     45  C   UNL A   1      40.099  29.897  30.927  1.00  0.00     0.010 A 
ATOM     46  C   UNL A   1      39.523  30.250  28.593  1.00  0.00     0.010 A 
ATOM     47  C   UNL A   1      40.397  29.736  29.566  1.00  0.00    -0.014 A 
BRANCH  47  48
ATOM     48  C   UNL A   1      41.728  29.233  29.158  1.00  0.00     0.031 A 
ATOM     49  C   UNL A   1      42.869  30.212  29.124  1.00  0.00     0.074 A 
ATOM     50  C   UNL A   1      41.924  27.945  28.827  1.00  0.00     0.049 A 
ATOM     51  N   UNL A   1      44.109  30.033  28.752  1.00  0.00    -0.248 NA
ATOM     52  C   UNL A   1      42.565  31.585  29.565  1.00  0.00     0.031 C 
ATOM     53  C   UNL A   1      40.902  26.899  28.849  1.00  0.00     0.029 A 
ATOM     54  N   UNL A   1      43.057  27.303  28.392  1.00  0.00    -0.354 N 
ATOM     55  C   UNL A   1      44.732  31.264  28.916  1.00  0.00     0.074 A 
ATOM     56  C   UNL A   1      43.727  32.192  29.386  1.00  0.00     0.031 C 
ATOM     57  C   UNL A   1      41.452  25.747  28.426  1.00  0.00     0.029 A 
ATOM     58  C   UNL A   1      42.854  25.980  28.078  1.00  0.00     0.049 A 
ATOM     59  H   UNL A   1      43.931  27.747  28.313  1.00  0.00     0.167 HD
ATOM     60  C   UNL A   1      46.028  31.591  28.703  1.00  0.00     0.037 A 
ATOM     61  C   UNL A   1      43.700  25.073  27.549  1.00  0.00     0.037 A 
ATOM     62  C   UNL A   1      47.019  30.668  28.219  1.00  0.00     0.049 A 
ATOM     63  C   UNL A   1      45.124  25.475  27.254  1.00  0.00     0.074 A 
ATOM     64  C   UNL A   1      48.361  30.897  27.971  1.00  0.00     0.029 A 
ATOM     65  N   UNL A   1      46.773  29.341  27.898  1.00  0.00    -0.354 N 
ATOM     66  N   UNL A   1      45.709  26.636  27.438  1.00  0.00    -0.248 NA
ATOM     67  C   UNL A   1      46.003  24.444  26.685  1.00  0.00     0.031 C 
ATOM     68  C   UNL A   1      48.916  29.720  27.457  1.00  0.00     0.029 A 
ATOM     69  C   UNL A   1      47.933  28.743  27.436  1.00  0.00     0.049 A 
ATOM     70  H   UNL A   1      45.902  28.890  27.987  1.00  0.00     0.167 HD
ATOM     71  C   UNL A   1      47.030  26.466  27.033  1.00  0.00     0.074 A 
ATOM     72  C   UNL A   1      47.159  25.089  26.603  1.00  0.00     0.031 C 
ATOM     73  C   UNL A   1      48.045  27.367  27.019  1.00  0.00     0.037 A 
BRANCH  60  74
ATOM     74  C   UNL A   1      46.433  33.012  28.971  1.00  0.00     0.058 A 
ATOM     75  C   UNL A   1      46.288  34.015  27.999  1.00  0.00     0.135 A 
ATOM     76  C   UNL A   1      46.967  33.378  30.216  1.00  0.00     0.135 A 
ATOM     77  F   UNL A   1      45.805  33.714  26.783  1.00  0.00    -0.206 F 
ATOM     78  C   UNL A   1      46.684  35.325  28.243  1.00  0.00     0.059 A 
ATOM     79  C   UNL A   1      47.344  34.688  30.492  1.00  0.00     0.059 A 
ATOM     80  F   UNL A   1      47.134  32.456  31.178  1.00  0.00    -0.206 F 
ATOM     81  C   UNL A   1      47.213  35.652  29.493  1.00  0.00     0.060 A 
BRANCH  81  82
ATOM     82  S   UNL A   1      47.725  37.357  29.794  1.00  0.00     0.124 S 
ATOM     83  O   UNL A   1      49.108  37.173  30.226  1.00  0.00    -0.237 OA
ATOM     84  O   UNL A   1      47.549  37.972  28.482  1.00  0.00    -0.237 OA
ATOM     85  O   UNL A   1      46.800  37.812  30.827  1.00  0.00    -0.744 OA
ENDBRANCH  81  82
ENDBRANCH  60  74
BRANCH  61  86
ATOM     86  C   UNL A   1      43.221  23.697  27.249  1.00  0.00     0.058 A 
ATOM     87  C   UNL A   1      42.831  23.329  25.952  1.00  0.00     0.135 A 
ATOM     88  C   UNL A   1      43.141  22.722  28.255  1.00  0.00     0.135 A 
ATOM     89  F   UNL A   1      42.876  24.229  24.958  1.00  0.00    -0.206 F 
ATOM     90  C   UNL A   1      42.368  22.049  25.666  1.00  0.00     0.059 A 
ATOM     91  C   UNL A   1      42.705  21.427  27.989  1.00  0.00     0.059 A 
ATOM     92  F   UNL A   1      43.508  23.020  29.511  1.00  0.00    -0.206 F 
ATOM     93  C   UNL A   1      42.312  21.103  26.690  1.00  0.00     0.060 A 
BRANCH  93  94
ATOM     94  S   UNL A   1      41.758  19.429  26.297  1.00  0.00     0.124 S 
ATOM     95  O   UNL A   1      42.138  18.703  27.504  1.00  0.00    -0.237 OA
ATOM     96  O   UNL A   1      40.326  19.620  26.092  1.00  0.00    -0.237 OA
ATOM     97  O   UNL A   1      42.518  19.097  25.096  1.00  0.00    -0.744 OA
ENDBRANCH  93  94
ENDBRANCH  61  86
BRANCH  73  98
ATOM     98  C   UNL A   1      49.396  26.889  26.560  1.00  0.00     0.058 A 
ATOM     99  C   UNL A   1      50.348  26.386  27.459  1.00  0.00     0.135 A 
ATOM    100  C   UNL A   1      49.714  26.874  25.191  1.00  0.00     0.135 A 
ATOM    101  F   UNL A   1      50.095  26.380  28.777  1.00  0.00    -0.206 F 
ATOM    102  C   UNL A   1      51.577  25.903  27.021  1.00  0.00     0.059 A 
ATOM    103  C   UNL A   1      50.927  26.372  24.728  1.00  0.00     0.059 A 
ATOM    104  F   UNL A   1      48.835  27.333  24.287  1.00  0.00    -0.206 F 
ATOM    105  C   UNL A   1      51.856  25.898  25.653  1.00  0.00     0.060 A 
BRANCH 105 106
ATOM    106  S   UNL A   1      53.440  25.235  25.093  1.00  0.00     0.124 S 
ATOM    107  O   UNL A   1      53.518  25.764  23.736  1.00  0.00    -0.237 OA
ATOM    108  O   UNL A   1      54.377  25.810  26.053  1.00  0.00    -0.237 OA
ATOM    109  O   UNL A   1      53.258  23.791  25.195  1.00  0.00    -0.744 OA
ENDBRANCH 105 106
ENDBRANCH  73  98
ENDBRANCH  47  48
ENDBRANCH  40  42
ENDBRANCH  39  40
ENDBRANCH  38  39
ENDBRANCH  37  38
ENDBRANCH  36  37
ENDBRANCH  35  36
ENDBRANCH  34  35
ENDBRANCH   1  34
TORSDOF 27
ENDMDL
MODEL 2
REMARK VINA RESULT:     -10.3      0.883      7.716
REMARK SMILES CCSc1ccc(-c2cc(Cl)cc3c2O[C@@H](C(F)(F)F)C(C(=O)OCCOCCOCCOCCOC(=O)c2ccc(-c4c5nc(c(-c6c(F)cc(S(=O)(=O)[O-])cc6F)c6ccc([nH]6)c(-c6c(F)cc(S(=O)(=O)[O-])cc6F)c6nc(c(-c7c(F)cc(S(=O)(=O)[O-])cc7F)c7ccc4[nH]7)C=C6)C=C5)cc2)=C3)cc1
REMARK SMILES IDX 30 1 29 2 28 3 27 4 26 5 25 6 24 7 22 8 23 9 21 10 8 11 9 12
REMARK SMILES IDX 14 13 10 14 13 15 15 16 11 17 12 18 105 19 16 20 7 21 4 22
REMARK SMILES IDX 5 23 107 24 6 25 106 26 3 27 2 28 1 29 17 30 18 31 19 32
REMARK SMILES IDX 20 33 31 34 32 35 33 36 34 37 35 38 36 39 37 40 38 41 39 42
REMARK SMILES IDX 40 43 104 44 41 45 103 46 42 47 43 48 44 49 97 50 45 51
REMARK SMILES IDX 102 52 96 53 98 54 46 55 101 56 95 57 94 58 47 60 81 61
REMARK SMILES IDX 60 62 80 63 61 64 64 65 79 66 99 67 62 68 63 69 78 71 100 72
REMARK SMILES IDX 65 73 48 74 49 75 58 76 50 77 51 78 57 79 59 80 52 81 53 82
REMARK SMILES IDX 54 83 55 84 56 85 82 86 83 87 92 88 84 89 85 90 91 91 93 92
REMARK SMILES IDX 86 93 87 94 88 95 89 96 90 97 66 98 67 99 76 100 68 101
REMARK SMILES IDX 69 102 75 103 77 104 70 105 71 106 72 107 73 108 74 109
REMARK H PARENT 98 59 64 70
REMARK Flexibility Score: inf
ROOT
ATOM      1  O   UNL A   1      33.112  35.045  31.610  1.00  0.00    -0.377 OA
ENDROOT
BRANCH   1   2
ATOM      2  C   UNL A   1      33.956  35.494  30.569  1.00  0.00     0.188 C 
BRANCH   2   3
ATOM      3  C   UNL A   1      33.183  36.166  29.427  1.00  0.00     0.188 C 
BRANCH   3   4
ATOM      4  O   UNL A   1      32.524  35.257  28.552  1.00  0.00    -0.376 OA
BRANCH   4   5
ATOM      5  C   UNL A   1      33.097  33.962  28.373  1.00  0.00     0.202 C 
BRANCH   5   6
ATOM      6  C   UNL A   1      32.391  32.978  27.431  1.00  0.00     0.261 C 
BRANCH   6   7
ATOM      7  O   UNL A   1      32.959  31.654  27.552  1.00  0.00    -0.460 OA
BRANCH   7   8
ATOM      8  C   UNL A   1      32.314  30.679  26.892  1.00  0.00     0.338 C 
ATOM      9  O   UNL A   1      31.619  30.849  25.898  1.00  0.00    -0.246 OA
BRANCH   8  10
ATOM     10  C   UNL A   1      32.678  29.324  27.376  1.00  0.00     0.087 C 
ATOM     11  C   UNL A   1      33.217  26.519  24.373  1.00  0.00     0.026 A 
ATOM     12  C   UNL A   1      32.420  26.935  23.280  1.00  0.00     0.033 A 
ATOM     13  C   UNL A   1      33.092  27.286  25.547  1.00  0.00     0.135 A 
ATOM     14  C   UNL A   1      31.341  27.796  23.466  1.00  0.00     0.042 A 
ATOM     15  C   UNL A   1      31.881  27.953  25.787  1.00  0.00     0.019 A 
ATOM     16  O   UNL A   1      34.210  27.608  26.312  1.00  0.00    -0.475 OA
ATOM     17  Cl  UNL A   1      30.368  28.245  22.123  1.00  0.00    -0.084 Cl
ATOM     18  C   UNL A   1      31.003  28.222  24.743  1.00  0.00     0.032 A 
ATOM     19  C   UNL A   1      31.646  28.491  27.144  1.00  0.00     0.027 C 
ATOM     20  C   UNL A   1      34.037  28.643  27.379  1.00  0.00     0.316 C 
BRANCH  11  21
ATOM     21  C   UNL A   1      33.516  25.043  24.372  1.00  0.00    -0.015 A 
ATOM     22  C   UNL A   1      35.034  22.657  24.792  1.00  0.00     0.007 A 
ATOM     23  C   UNL A   1      34.120  23.104  25.749  1.00  0.00     0.015 A 
ATOM     24  C   UNL A   1      35.114  23.343  23.581  1.00  0.00     0.015 A 
ATOM     25  C   UNL A   1      33.355  24.265  25.535  1.00  0.00     0.010 A 
ATOM     26  C   UNL A   1      34.356  24.510  23.371  1.00  0.00     0.010 A 
BRANCH  22  27
ATOM     27  S   UNL A   1      36.169  21.355  25.255  1.00  0.00    -0.126 SA
BRANCH  27  28
ATOM     28  C   UNL A   1      37.713  22.261  25.594  1.00  0.00     0.071 C 
ATOM     29  C   UNL A   1      37.445  23.724  25.891  1.00  0.00     0.016 C 
ENDBRANCH  27  28
ENDBRANCH  22  27
ENDBRANCH  11  21
BRANCH  20  30
ATOM     30  C   UNL A   1      35.292  29.501  27.686  1.00  0.00     0.430 C 
ATOM     31  F   UNL A   1      35.100  30.175  28.852  1.00  0.00    -0.167 F 
ATOM     32  F   UNL A   1      36.383  28.717  27.875  1.00  0.00    -0.167 F 
ATOM     33  F   UNL A   1      35.623  30.419  26.769  1.00  0.00    -0.167 F 
ENDBRANCH  20  30
ENDBRANCH   8  10
ENDBRANCH   7   8
ENDBRANCH   6   7
ENDBRANCH   5   6
ENDBRANCH   4   5
ENDBRANCH   3   4
ENDBRANCH   2   3
ENDBRANCH   1   2
BRANCH   1  34
ATOM     34  C   UNL A   1      33.364  35.543  32.919  1.00  0.00     0.188 C 
BRANCH  34  35
ATOM     35  C   UNL A   1      34.729  35.332  33.614  1.00  0.00     0.188 C 
BRANCH  35  36
ATOM     36  O   UNL A   1      34.968  33.997  34.060  1.00  0.00    -0.376 OA
BRANCH  36  37
ATOM     37  C   UNL A   1      36.207  33.407  33.697  1.00  0.00     0.202 C 
BRANCH  37  38
ATOM     38  C   UNL A   1      36.073  32.081  32.936  1.00  0.00     0.261 C 
BRANCH  38  39
ATOM     39  O   UNL A   1      37.262  31.649  32.259  1.00  0.00    -0.460 OA
BRANCH  39  40
ATOM     40  C   UNL A   1      37.284  31.776  30.914  1.00  0.00     0.338 C 
ATOM     41  O   UNL A   1      36.548  32.466  30.229  1.00  0.00    -0.246 OA
BRANCH  40  42
ATOM     42  C   UNL A   1      38.490  31.087  30.416  1.00  0.00     0.060 A 
ATOM     43  C   UNL A   1      39.530  30.815  31.313  1.00  0.00     0.016 A 
ATOM     44  C   UNL A   1      38.580  30.690  29.079  1.00  0.00     0.016 A 
ATOM     45  C   UNL A   1      40.687  30.180  30.863  1.00  0.00     0.010 A 
ATOM     46  C   UNL A   1      39.745  30.073  28.625  1.00  0.00     0.010 A 
ATOM     47  C   UNL A   1      40.817  29.849  29.507  1.00  0.00    -0.014 A 
BRANCH  47  48
ATOM     48  C   UNL A   1      42.144  29.481  28.962  1.00  0.00     0.031 A 
ATOM     49  C   UNL A   1      42.360  28.052  28.542  1.00  0.00     0.074 A 
ATOM     50  C   UNL A   1      43.132  30.384  28.842  1.00  0.00     0.049 A 
ATOM     51  N   UNL A   1      43.439  27.473  28.090  1.00  0.00    -0.248 NA
ATOM     52  C   UNL A   1      41.196  27.156  28.655  1.00  0.00     0.031 C 
ATOM     53  C   UNL A   1      43.031  31.801  29.189  1.00  0.00     0.029 A 
ATOM     54  N   UNL A   1      44.424  30.234  28.403  1.00  0.00    -0.354 N 
ATOM     55  C   UNL A   1      43.087  26.148  27.862  1.00  0.00     0.074 A 
ATOM     56  C   UNL A   1      41.704  26.000  28.260  1.00  0.00     0.031 C 
ATOM     57  C   UNL A   1      44.221  32.387  28.968  1.00  0.00     0.029 A 
ATOM     58  C   UNL A   1      45.172  31.383  28.490  1.00  0.00     0.049 A 
ATOM     59  H   UNL A   1      44.780  29.383  28.059  1.00  0.00     0.167 HD
ATOM     60  C   UNL A   1      43.844  25.146  27.358  1.00  0.00     0.037 A 
ATOM     61  C   UNL A   1      46.480  31.589  28.234  1.00  0.00     0.037 A 
ATOM     62  C   UNL A   1      45.224  25.295  26.981  1.00  0.00     0.049 A 
ATOM     63  C   UNL A   1      47.326  30.443  27.738  1.00  0.00     0.074 A 
ATOM     64  C   UNL A   1      46.081  24.343  26.457  1.00  0.00     0.029 A 
ATOM     65  N   UNL A   1      45.952  26.470  27.096  1.00  0.00    -0.354 N 
ATOM     66  N   UNL A   1      46.974  29.199  27.501  1.00  0.00    -0.248 NA
ATOM     67  C   UNL A   1      48.742  30.726  27.469  1.00  0.00     0.031 C 
ATOM     68  C   UNL A   1      47.341  24.931  26.300  1.00  0.00     0.029 A 
ATOM     69  C   UNL A   1      47.254  26.264  26.674  1.00  0.00     0.049 A 
ATOM     70  H   UNL A   1      45.595  27.325  27.429  1.00  0.00     0.167 HD
ATOM     71  C   UNL A   1      48.120  28.562  27.031  1.00  0.00     0.074 A 
ATOM     72  C   UNL A   1      49.171  29.559  27.008  1.00  0.00     0.031 C 
ATOM     73  C   UNL A   1      48.286  27.270  26.651  1.00  0.00     0.037 A 
BRANCH  60  74
ATOM     74  C   UNL A   1      43.196  23.799  27.213  1.00  0.00     0.058 A 
ATOM     75  C   UNL A   1      43.120  22.899  28.287  1.00  0.00     0.135 A 
ATOM     76  C   UNL A   1      42.638  23.405  25.987  1.00  0.00     0.135 A 
ATOM     77  F   UNL A   1      43.659  23.215  29.476  1.00  0.00    -0.206 F 
ATOM     78  C   UNL A   1      42.538  21.644  28.144  1.00  0.00     0.059 A 
ATOM     79  C   UNL A   1      42.028  22.165  25.827  1.00  0.00     0.059 A 
ATOM     80  F   UNL A   1      42.692  24.225  24.924  1.00  0.00    -0.206 F 
ATOM     81  C   UNL A   1      41.996  21.285  26.907  1.00  0.00     0.060 A 
BRANCH  81  82
ATOM     82  S   UNL A   1      41.247  19.652  26.735  1.00  0.00     0.124 S 
ATOM     83  O   UNL A   1      42.365  18.874  26.209  1.00  0.00    -0.237 OA
ATOM     84  O   UNL A   1      40.852  19.344  28.106  1.00  0.00    -0.237 OA
ATOM     85  O   UNL A   1      40.147  19.879  25.804  1.00  0.00    -0.744 OA
ENDBRANCH  81  82
ENDBRANCH  60  74
BRANCH  61  86
ATOM     86  C   UNL A   1      47.078  32.933  28.457  1.00  0.00     0.058 A 
ATOM     87  C   UNL A   1      47.135  33.884  27.427  1.00  0.00     0.135 A 
ATOM     88  C   UNL A   1      47.608  33.292  29.706  1.00  0.00     0.135 A 
ATOM     89  F   UNL A   1      46.656  33.584  26.211  1.00  0.00    -0.206 F 
ATOM     90  C   UNL A   1      47.706  35.138  27.623  1.00  0.00     0.059 A 
ATOM     91  C   UNL A   1      48.161  34.548  29.935  1.00  0.00     0.059 A 
ATOM     92  F   UNL A   1      47.572  32.422  30.727  1.00  0.00    -0.206 F 
ATOM     93  C   UNL A   1      48.214  35.462  28.882  1.00  0.00     0.060 A 
BRANCH  93  94
ATOM     94  S   UNL A   1      48.906  37.111  29.141  1.00  0.00     0.124 S 
ATOM     95  O   UNL A   1      49.893  37.186  28.070  1.00  0.00    -0.237 OA
ATOM     96  O   UNL A   1      47.732  37.964  28.988  1.00  0.00    -0.237 OA
ATOM     97  O   UNL A   1      49.448  37.039  30.495  1.00  0.00    -0.744 OA
ENDBRANCH  93  94
ENDBRANCH  61  86
BRANCH  73  98
ATOM     98  C   UNL A   1      49.641  26.862  26.141  1.00  0.00     0.058 A 
ATOM     99  C   UNL A   1      50.021  27.061  24.805  1.00  0.00     0.135 A 
ATOM    100  C   UNL A   1      50.597  26.325  27.021  1.00  0.00     0.135 A 
ATOM    101  F   UNL A   1      49.146  27.569  23.923  1.00  0.00    -0.206 F 
ATOM    102  C   UNL A   1      51.293  26.724  24.353  1.00  0.00     0.059 A 
ATOM    103  C   UNL A   1      51.883  26.005  26.596  1.00  0.00     0.059 A 
ATOM    104  F   UNL A   1      50.291  26.126  28.313  1.00  0.00    -0.206 F 
ATOM    105  C   UNL A   1      52.218  26.198  25.257  1.00  0.00     0.060 A 
BRANCH 105 106
ATOM    106  S   UNL A   1      53.877  25.799  24.667  1.00  0.00     0.124 S 
ATOM    107  O   UNL A   1      53.769  26.117  23.247  1.00  0.00    -0.237 OA
ATOM    108  O   UNL A   1      54.715  26.695  25.457  1.00  0.00    -0.237 OA
ATOM    109  O   UNL A   1      54.018  24.381  24.983  1.00  0.00    -0.744 OA
ENDBRANCH 105 106
ENDBRANCH  73  98
ENDBRANCH  47  48
ENDBRANCH  40  42
ENDBRANCH  39  40
ENDBRANCH  38  39
ENDBRANCH  37  38
ENDBRANCH  36  37
ENDBRANCH  35  36
ENDBRANCH  34  35
ENDBRANCH   1  34
TORSDOF 27
ENDMDL
MODEL 3
REMARK VINA RESULT:      -9.6      2.477      3.782
REMARK SMILES CCSc1ccc(-c2cc(Cl)cc3c2O[C@@H](C(F)(F)F)C(C(=O)OCCOCCOCCOCCOC(=O)c2ccc(-c4c5nc(c(-c6c(F)cc(S(=O)(=O)[O-])cc6F)c6ccc([nH]6)c(-c6c(F)cc(S(=O)(=O)[O-])cc6F)c6nc(c(-c7c(F)cc(S(=O)(=O)[O-])cc7F)c7ccc4[nH]7)C=C6)C=C5)cc2)=C3)cc1
REMARK SMILES IDX 30 1 29 2 28 3 27 4 26 5 25 6 24 7 22 8 23 9 21 10 8 11 9 12
REMARK SMILES IDX 14 13 10 14 13 15 15 16 11 17 12 18 105 19 16 20 7 21 4 22
REMARK SMILES IDX 5 23 107 24 6 25 106 26 3 27 2 28 1 29 17 30 18 31 19 32
REMARK SMILES IDX 20 33 31 34 32 35 33 36 34 37 35 38 36 39 37 40 38 41 39 42
REMARK SMILES IDX 40 43 104 44 41 45 103 46 42 47 43 48 44 49 97 50 45 51
REMARK SMILES IDX 102 52 96 53 98 54 46 55 101 56 95 57 94 58 47 60 81 61
REMARK SMILES IDX 60 62 80 63 61 64 64 65 79 66 99 67 62 68 63 69 78 71 100 72
REMARK SMILES IDX 65 73 48 74 49 75 58 76 50 77 51 78 57 79 59 80 52 81 53 82
REMARK SMILES IDX 54 83 55 84 56 85 82 86 83 87 92 88 84 89 85 90 91 91 93 92
REMARK SMILES IDX 86 93 87 94 88 95 89 96 90 97 66 98 67 99 76 100 68 101
REMARK SMILES IDX 69 102 75 103 77 104 70 105 71 106 72 107 73 108 74 109
REMARK H PARENT 98 59 64 70
REMARK Flexibility Score: inf
ROOT
ATOM      1  O   UNL A   1      35.775  31.937  28.209  1.00  0.00    -0.377 OA
ENDROOT
BRANCH   1   2
ATOM      2  C   UNL A   1      34.425  32.006  28.622  1.00  0.00     0.188 C 
BRANCH   2   3
ATOM      3  C   UNL A   1      33.441  31.893  27.451  1.00  0.00     0.188 C 
BRANCH   3   4
ATOM      4  O   UNL A   1      32.571  30.769  27.524  1.00  0.00    -0.376 OA
BRANCH   4   5
ATOM      5  C   UNL A   1      32.060  30.235  26.303  1.00  0.00     0.202 C 
BRANCH   5   6
ATOM      6  C   UNL A   1      33.014  29.440  25.401  1.00  0.00     0.261 C 
BRANCH   6   7
ATOM      7  O   UNL A   1      32.275  28.582  24.502  1.00  0.00    -0.460 OA
BRANCH   7   8
ATOM      8  C   UNL A   1      32.102  27.316  24.915  1.00  0.00     0.338 C 
ATOM      9  O   UNL A   1      31.111  26.902  25.503  1.00  0.00    -0.246 OA
BRANCH   8  10
ATOM     10  C   UNL A   1      33.160  26.403  24.417  1.00  0.00     0.087 C 
ATOM     11  C   UNL A   1      32.023  22.425  24.177  1.00  0.00     0.026 A 
ATOM     12  C   UNL A   1      31.007  22.234  25.143  1.00  0.00     0.033 A 
ATOM     13  C   UNL A   1      32.626  23.697  24.169  1.00  0.00     0.135 A 
ATOM     14  C   UNL A   1      30.874  23.101  26.227  1.00  0.00     0.042 A 
ATOM     15  C   UNL A   1      32.661  24.431  25.365  1.00  0.00     0.019 A 
ATOM     16  O   UNL A   1      32.934  24.334  22.970  1.00  0.00    -0.475 OA
ATOM     17  Cl  UNL A   1      29.658  22.812  27.405  1.00  0.00    -0.084 Cl
ATOM     18  C   UNL A   1      31.775  24.143  26.397  1.00  0.00     0.032 A 
ATOM     19  C   UNL A   1      33.555  25.607  25.428  1.00  0.00     0.027 C 
ATOM     20  C   UNL A   1      33.315  25.780  23.039  1.00  0.00     0.316 C 
BRANCH  11  21
ATOM     21  C   UNL A   1      32.747  21.158  23.808  1.00  0.00    -0.015 A 
ATOM     22  C   UNL A   1      33.463  18.393  23.936  1.00  0.00     0.007 A 
ATOM     23  C   UNL A   1      32.502  18.845  23.028  1.00  0.00     0.015 A 
ATOM     24  C   UNL A   1      34.141  19.336  24.707  1.00  0.00     0.015 A 
ATOM     25  C   UNL A   1      32.165  20.208  22.947  1.00  0.00     0.010 A 
ATOM     26  C   UNL A   1      33.797  20.699  24.632  1.00  0.00     0.010 A 
BRANCH  22  27
ATOM     27  S   UNL A   1      33.624  16.629  24.183  1.00  0.00    -0.126 SA
BRANCH  27  28
ATOM     28  C   UNL A   1      32.598  16.328  25.658  1.00  0.00     0.071 C 
ATOM     29  C   UNL A   1      32.305  14.851  25.840  1.00  0.00     0.016 C 
ENDBRANCH  27  28
ENDBRANCH  22  27
ENDBRANCH  11  21
BRANCH  20  30
ATOM     30  C   UNL A   1      32.939  26.630  21.797  1.00  0.00     0.430 C 
ATOM     31  F   UNL A   1      33.739  27.729  21.745  1.00  0.00    -0.167 F 
ATOM     32  F   UNL A   1      33.163  25.941  20.650  1.00  0.00    -0.167 F 
ATOM     33  F   UNL A   1      31.678  27.077  21.746  1.00  0.00    -0.167 F 
ENDBRANCH  20  30
ENDBRANCH   8  10
ENDBRANCH   7   8
ENDBRANCH   6   7
ENDBRANCH   5   6
ENDBRANCH   4   5
ENDBRANCH   3   4
ENDBRANCH   2   3
ENDBRANCH   1   2
BRANCH   1  34
ATOM     34  C   UNL A   1      36.213  30.728  27.598  1.00  0.00     0.188 C 
BRANCH  34  35
ATOM     35  C   UNL A   1      36.903  29.615  28.419  1.00  0.00     0.188 C 
BRANCH  35  36
ATOM     36  O   UNL A   1      37.371  30.026  29.704  1.00  0.00    -0.376 OA
BRANCH  36  37
ATOM     37  C   UNL A   1      36.675  29.526  30.836  1.00  0.00     0.202 C 
BRANCH  37  38
ATOM     38  C   UNL A   1      37.013  30.243  32.149  1.00  0.00     0.261 C 
BRANCH  38  39
ATOM     39  O   UNL A   1      37.370  31.625  32.010  1.00  0.00    -0.460 OA
BRANCH  39  40
ATOM     40  C   UNL A   1      38.311  32.105  32.852  1.00  0.00     0.338 C 
ATOM     41  O   UNL A   1      38.127  32.626  33.939  1.00  0.00    -0.246 OA
BRANCH  40  42
ATOM     42  C   UNL A   1      39.632  31.710  32.326  1.00  0.00     0.060 A 
ATOM     43  C   UNL A   1      39.923  31.960  30.979  1.00  0.00     0.016 A 
ATOM     44  C   UNL A   1      40.583  31.121  33.163  1.00  0.00     0.016 A 
ATOM     45  C   UNL A   1      41.158  31.581  30.454  1.00  0.00     0.010 A 
ATOM     46  C   UNL A   1      41.810  30.723  32.632  1.00  0.00     0.010 A 
ATOM     47  C   UNL A   1      42.087  30.919  31.269  1.00  0.00    -0.014 A 
BRANCH  47  48
ATOM     48  C   UNL A   1      43.246  30.231  30.654  1.00  0.00     0.031 A 
ATOM     49  C   UNL A   1      44.561  30.961  30.622  1.00  0.00     0.074 A 
ATOM     50  C   UNL A   1      43.140  28.994  30.140  1.00  0.00     0.049 A 
ATOM     51  N   UNL A   1      45.700  30.599  30.096  1.00  0.00    -0.248 NA
ATOM     52  C   UNL A   1      44.589  32.285  31.269  1.00  0.00     0.031 C 
ATOM     53  C   UNL A   1      41.926  28.178  30.138  1.00  0.00     0.029 A 
ATOM     54  N   UNL A   1      44.073  28.214  29.503  1.00  0.00    -0.354 N 
ATOM     55  C   UNL A   1      46.580  31.645  30.349  1.00  0.00     0.074 A 
ATOM     56  C   UNL A   1      45.834  32.672  31.043  1.00  0.00     0.031 C 
ATOM     57  C   UNL A   1      42.185  27.017  29.511  1.00  0.00     0.029 A 
ATOM     58  C   UNL A   1      43.572  27.019  29.044  1.00  0.00     0.049 A 
ATOM     59  H   UNL A   1      45.011  28.485  29.386  1.00  0.00     0.167 HD
ATOM     60  C   UNL A   1      47.894  31.739  30.038  1.00  0.00     0.037 A 
ATOM     61  C   UNL A   1      44.163  26.053  28.312  1.00  0.00     0.037 A 
ATOM     62  C   UNL A   1      48.626  30.723  29.333  1.00  0.00     0.049 A 
ATOM     63  C   UNL A   1      45.611  26.207  27.917  1.00  0.00     0.074 A 
ATOM     64  C   UNL A   1      49.962  30.718  28.970  1.00  0.00     0.029 A 
ATOM     65  N   UNL A   1      48.082  29.533  28.872  1.00  0.00    -0.354 N 
ATOM     66  N   UNL A   1      46.440  27.190  28.184  1.00  0.00    -0.248 NA
ATOM     67  C   UNL A   1      46.205  25.121  27.126  1.00  0.00     0.031 C 
ATOM     68  C   UNL A   1      50.213  29.546  28.250  1.00  0.00     0.029 A 
ATOM     69  C   UNL A   1      49.049  28.795  28.210  1.00  0.00     0.049 A 
ATOM     70  H   UNL A   1      47.146  29.254  28.997  1.00  0.00     0.167 HD
ATOM     71  C   UNL A   1      47.659  26.826  27.617  1.00  0.00     0.074 A 
ATOM     72  C   UNL A   1      47.460  25.530  27.001  1.00  0.00     0.031 C 
ATOM     73  C   UNL A   1      48.835  27.503  27.609  1.00  0.00     0.037 A 
BRANCH  60  74
ATOM     74  C   UNL A   1      48.609  32.997  30.442  1.00  0.00     0.058 A 
ATOM     75  C   UNL A   1      48.678  34.110  29.591  1.00  0.00     0.135 A 
ATOM     76  C   UNL A   1      49.226  33.094  31.699  1.00  0.00     0.135 A 
ATOM     77  F   UNL A   1      48.125  34.063  28.368  1.00  0.00    -0.206 F 
ATOM     78  C   UNL A   1      49.359  35.266  29.959  1.00  0.00     0.059 A 
ATOM     79  C   UNL A   1      49.890  34.248  32.100  1.00  0.00     0.059 A 
ATOM     80  F   UNL A   1      49.197  32.054  32.549  1.00  0.00    -0.206 F 
ATOM     81  C   UNL A   1      49.964  35.324  31.216  1.00  0.00     0.060 A 
BRANCH  81  82
ATOM     82  S   UNL A   1      50.847  36.830  31.679  1.00  0.00     0.124 S 
ATOM     83  O   UNL A   1      50.004  37.340  32.757  1.00  0.00    -0.237 OA
ATOM     84  O   UNL A   1      52.151  36.314  32.086  1.00  0.00    -0.237 OA
ATOM     85  O   UNL A   1      50.842  37.618  30.451  1.00  0.00    -0.744 OA
ENDBRANCH  81  82
ENDBRANCH  60  74
BRANCH  61  86
ATOM     86  C   UNL A   1      43.383  24.859  27.890  1.00  0.00     0.058 A 
ATOM     87  C   UNL A   1      43.425  23.665  28.626  1.00  0.00     0.135 A 
ATOM     88  C   UNL A   1      42.582  24.887  26.738  1.00  0.00     0.135 A 
ATOM     89  F   UNL A   1      44.188  23.583  29.726  1.00  0.00    -0.206 F 
ATOM     90  C   UNL A   1      42.710  22.539  28.230  1.00  0.00     0.059 A 
ATOM     91  C   UNL A   1      41.838  23.782  26.335  1.00  0.00     0.059 A 
ATOM     92  F   UNL A   1      42.501  26.006  26.002  1.00  0.00    -0.206 F 
ATOM     93  C   UNL A   1      41.916  22.608  27.084  1.00  0.00     0.060 A 
BRANCH  93  94
ATOM     94  S   UNL A   1      40.952  21.156  26.607  1.00  0.00     0.124 S 
ATOM     95  O   UNL A   1      39.826  21.768  25.910  1.00  0.00    -0.237 OA
ATOM     96  O   UNL A   1      41.897  20.422  25.772  1.00  0.00    -0.237 OA
ATOM     97  O   UNL A   1      40.636  20.528  27.887  1.00  0.00    -0.744 OA
ENDBRANCH  93  94
ENDBRANCH  61  86
BRANCH  73  98
ATOM     98  C   UNL A   1      50.013  26.843  26.946  1.00  0.00     0.058 A 
ATOM     99  C   UNL A   1      50.248  26.957  25.568  1.00  0.00     0.135 A 
ATOM    100  C   UNL A   1      50.958  26.141  27.715  1.00  0.00     0.135 A 
ATOM    101  F   UNL A   1      49.376  27.615  24.787  1.00  0.00    -0.206 F 
ATOM    102  C   UNL A   1      51.365  26.383  24.970  1.00  0.00     0.059 A 
ATOM    103  C   UNL A   1      52.096  25.581  27.142  1.00  0.00     0.059 A 
ATOM    104  F   UNL A   1      50.789  26.012  29.040  1.00  0.00    -0.206 F 
ATOM    105  C   UNL A   1      52.285  25.698  25.766  1.00  0.00     0.060 A 
BRANCH 105 106
ATOM    106  S   UNL A   1      53.750  24.988  24.985  1.00  0.00     0.124 S 
ATOM    107  O   UNL A   1      54.818  25.517  25.826  1.00  0.00    -0.237 OA
ATOM    108  O   UNL A   1      53.503  23.554  25.099  1.00  0.00    -0.237 OA
ATOM    109  O   UNL A   1      53.701  25.518  23.626  1.00  0.00    -0.744 OA
ENDBRANCH 105 106
ENDBRANCH  73  98
ENDBRANCH  47  48
ENDBRANCH  40  42
ENDBRANCH  39  40
ENDBRANCH  38  39
ENDBRANCH  37  38
ENDBRANCH  36  37
ENDBRANCH  35  36
ENDBRANCH  34  35
ENDBRANCH   1  34
TORSDOF 27
ENDMDL
