MODEL 1
REMARK VINA RESULT:      -6.5      0.000      0.000
REMARK SMILES CCC[NH2+][C@]1(C(=O)OCCOCCOCCOCCOC(=O)c2ccc(-c3c4nc(c(-c5c(F)cc(S(=O)(=O)[O-])cc5F)c5ccc([nH]5)c(-c5c(F)cc(S(=O)(=O)[O-])cc5F)c5nc(c(-c6c(F)cc(S(=O)(=O)[O-])cc6F)c6ccc3[nH]6)C=C5)C=C4)cc2)CCC[C@H](OC(C)(C)C)C1
REMARK SMILES IDX 14 1 13 2 12 3 11 4 10 5 9 6 8 7 6 8 7 9 5 10 89 11 98 12
REMARK SMILES IDX 90 13 92 14 91 15 4 16 3 19 2 20 1 21 93 22 94 23 95 24
REMARK SMILES IDX 96 25 97 26 15 27 16 28 17 29 18 30 19 31 20 32 21 33 22 34
REMARK SMILES IDX 23 35 24 36 88 37 25 38 87 39 26 40 27 41 28 42 81 43 29 44
REMARK SMILES IDX 86 45 80 46 82 47 30 48 85 49 79 50 78 51 31 53 65 54 44 55
REMARK SMILES IDX 64 56 45 57 48 58 63 59 83 60 46 61 47 62 62 64 84 65 49 66
REMARK SMILES IDX 32 67 33 68 42 69 34 70 35 71 41 72 43 73 36 74 37 75 38 76
REMARK SMILES IDX 39 77 40 78 66 79 67 80 76 81 68 82 69 83 75 84 77 85 70 86
REMARK SMILES IDX 71 87 72 88 73 89 74 90 50 91 51 92 60 93 52 94 53 95 59 96
REMARK SMILES IDX 61 97 54 98 55 99 56 100 57 101 58 102
REMARK H PARENT 4 17 4 18 82 52 48 63
REMARK Flexibility Score: inf
ROOT
ATOM      1  O   UNL A   1      46.035  25.862  27.135  1.00  0.00    -0.377 OA
ENDROOT
BRANCH   1   2
ATOM      2  C   UNL A   1      46.795  25.312  28.188  1.00  0.00     0.188 C 
BRANCH   2   3
ATOM      3  C   UNL A   1      48.136  26.008  28.486  1.00  0.00     0.188 C 
BRANCH   3   4
ATOM      4  O   UNL A   1      48.254  27.423  28.415  1.00  0.00    -0.376 OA
BRANCH   4   5
ATOM      5  C   UNL A   1      47.466  28.232  29.275  1.00  0.00     0.202 C 
BRANCH   5   6
ATOM      6  C   UNL A   1      46.625  29.383  28.698  1.00  0.00     0.261 C 
BRANCH   6   7
ATOM      7  O   UNL A   1      46.606  30.614  29.439  1.00  0.00    -0.459 OA
BRANCH   7   8
ATOM      8  C   UNL A   1      45.421  30.954  30.033  1.00  0.00     0.368 C 
ATOM      9  O   UNL A   1      44.712  30.170  30.651  1.00  0.00    -0.245 OA
BRANCH   8  10
ATOM     10  C   UNL A   1      45.106  32.477  29.841  1.00  0.00     0.196 C 
ATOM     11  C   UNL A   1      46.209  33.309  30.533  1.00  0.00     0.081 C 
ATOM     12  C   UNL A   1      45.199  32.836  28.331  1.00  0.00     0.113 C 
ATOM     13  C   UNL A   1      46.119  34.804  30.221  1.00  0.00     0.010 C 
ATOM     14  C   UNL A   1      45.037  34.310  27.958  1.00  0.00     0.125 C 
ATOM     15  C   UNL A   1      46.112  35.097  28.718  1.00  0.00     0.032 C 
BRANCH  10  16
ATOM     16  N   UNL A   1      43.731  32.774  30.321  1.00  0.00    -0.332 N 
ATOM     17  H   UNL A   1      43.390  33.582  29.800  1.00  0.00     0.347 HD
ATOM     18  H   UNL A   1      43.205  31.913  30.168  1.00  0.00     0.347 HD
BRANCH  16  19
ATOM     19  C   UNL A   1      43.574  33.067  31.741  1.00  0.00     0.261 C 
BRANCH  19  20
ATOM     20  C   UNL A   1      42.683  34.301  31.955  1.00  0.00     0.058 C 
ATOM     21  C   UNL A   1      41.269  34.184  31.399  1.00  0.00     0.010 C 
ENDBRANCH  19  20
ENDBRANCH  16  19
ENDBRANCH  10  16
BRANCH  14  22
ATOM     22  O   UNL A   1      43.760  34.885  28.239  1.00  0.00    -0.372 OA
BRANCH  22  23
ATOM     23  C   UNL A   1      42.975  35.571  27.246  1.00  0.00     0.060 C 
ATOM     24  C   UNL A   1      43.061  34.973  25.840  1.00  0.00     0.042 C 
ATOM     25  C   UNL A   1      41.504  35.745  27.627  1.00  0.00     0.042 C 
ATOM     26  C   UNL A   1      43.557  36.997  27.221  1.00  0.00     0.042 C 
ENDBRANCH  22  23
ENDBRANCH  14  22
ENDBRANCH   8  10
ENDBRANCH   7   8
ENDBRANCH   6   7
ENDBRANCH   5   6
ENDBRANCH   4   5
ENDBRANCH   3   4
ENDBRANCH   2   3
ENDBRANCH   1   2
BRANCH   1  27
ATOM     27  C   UNL A   1      46.394  25.387  25.851  1.00  0.00     0.188 C 
BRANCH  27  28
ATOM     28  C   UNL A   1      46.466  23.853  25.728  1.00  0.00     0.188 C 
BRANCH  28  29
ATOM     29  O   UNL A   1      45.196  23.219  25.604  1.00  0.00    -0.376 OA
BRANCH  29  30
ATOM     30  C   UNL A   1      44.196  23.783  24.769  1.00  0.00     0.202 C 
BRANCH  30  31
ATOM     31  C   UNL A   1      42.838  24.180  25.381  1.00  0.00     0.261 C 
BRANCH  31  32
ATOM     32  O   UNL A   1      42.683  25.548  25.773  1.00  0.00    -0.460 OA
BRANCH  32  33
ATOM     33  C   UNL A   1      41.427  25.961  26.066  1.00  0.00     0.338 C 
ATOM     34  O   UNL A   1      40.416  25.701  25.457  1.00  0.00    -0.246 OA
BRANCH  33  35
ATOM     35  C   UNL A   1      41.476  26.602  27.402  1.00  0.00     0.060 A 
ATOM     36  C   UNL A   1      40.461  26.302  28.322  1.00  0.00     0.016 A 
ATOM     37  C   UNL A   1      42.521  27.458  27.755  1.00  0.00     0.016 A 
ATOM     38  C   UNL A   1      40.475  26.876  29.590  1.00  0.00     0.010 A 
ATOM     39  C   UNL A   1      42.511  28.067  29.012  1.00  0.00     0.010 A 
ATOM     40  C   UNL A   1      41.469  27.805  29.919  1.00  0.00    -0.014 A 
BRANCH  40  41
ATOM     41  C   UNL A   1      41.270  28.672  31.102  1.00  0.00     0.031 A 
ATOM     42  C   UNL A   1      40.163  29.691  31.044  1.00  0.00     0.074 A 
ATOM     43  C   UNL A   1      42.014  28.532  32.213  1.00  0.00     0.049 A 
ATOM     44  N   UNL A   1      39.811  30.587  31.925  1.00  0.00    -0.248 NA
ATOM     45  C   UNL A   1      39.343  29.692  29.819  1.00  0.00     0.031 C 
ATOM     46  C   UNL A   1      43.071  27.541  32.406  1.00  0.00     0.029 A 
ATOM     47  N   UNL A   1      41.991  29.236  33.391  1.00  0.00    -0.354 N 
ATOM     48  C   UNL A   1      38.735  31.264  31.363  1.00  0.00     0.074 A 
ATOM     49  C   UNL A   1      38.512  30.696  30.051  1.00  0.00     0.031 C 
ATOM     50  C   UNL A   1      43.608  27.710  33.627  1.00  0.00     0.029 A 
ATOM     51  C   UNL A   1      42.957  28.843  34.286  1.00  0.00     0.049 A 
ATOM     52  H   UNL A   1      41.344  29.953  33.577  1.00  0.00     0.167 HD
ATOM     53  C   UNL A   1      37.996  32.264  31.895  1.00  0.00     0.037 A 
ATOM     54  C   UNL A   1      43.290  29.359  35.486  1.00  0.00     0.037 A 
ATOM     55  C   UNL A   1      38.233  32.825  33.198  1.00  0.00     0.049 A 
ATOM     56  C   UNL A   1      42.509  30.532  36.023  1.00  0.00     0.074 A 
ATOM     57  C   UNL A   1      37.540  33.840  33.835  1.00  0.00     0.029 A 
ATOM     58  N   UNL A   1      39.246  32.429  34.058  1.00  0.00    -0.354 N 
ATOM     59  N   UNL A   1      41.486  31.159  35.489  1.00  0.00    -0.248 NA
ATOM     60  C   UNL A   1      42.924  31.068  37.327  1.00  0.00     0.031 C 
ATOM     61  C   UNL A   1      38.172  34.098  35.055  1.00  0.00     0.029 A 
ATOM     62  C   UNL A   1      39.215  33.198  35.210  1.00  0.00     0.049 A 
ATOM     63  H   UNL A   1      39.891  31.708  33.878  1.00  0.00     0.167 HD
ATOM     64  C   UNL A   1      41.115  32.138  36.406  1.00  0.00     0.074 A 
ATOM     65  C   UNL A   1      42.017  32.014  37.533  1.00  0.00     0.031 C 
ATOM     66  C   UNL A   1      40.117  33.054  36.327  1.00  0.00     0.037 A 
BRANCH  53  67
ATOM     67  C   UNL A   1      36.890  32.837  31.052  1.00  0.00     0.058 A 
ATOM     68  C   UNL A   1      37.142  33.758  30.021  1.00  0.00     0.135 A 
ATOM     69  C   UNL A   1      35.560  32.440  31.262  1.00  0.00     0.135 A 
ATOM     70  F   UNL A   1      38.391  34.192  29.792  1.00  0.00    -0.206 F 
ATOM     71  C   UNL A   1      36.112  34.283  29.247  1.00  0.00     0.059 A 
ATOM     72  C   UNL A   1      34.519  32.926  30.480  1.00  0.00     0.059 A 
ATOM     73  F   UNL A   1      35.262  31.569  32.239  1.00  0.00    -0.206 F 
ATOM     74  C   UNL A   1      34.803  33.857  29.483  1.00  0.00     0.060 A 
BRANCH  74  75
ATOM     75  S   UNL A   1      33.479  34.540  28.463  1.00  0.00     0.124 S 
ATOM     76  O   UNL A   1      33.040  33.359  27.726  1.00  0.00    -0.237 OA
ATOM     77  O   UNL A   1      32.545  35.045  29.464  1.00  0.00    -0.237 OA
ATOM     78  O   UNL A   1      34.153  35.561  27.667  1.00  0.00    -0.744 OA
ENDBRANCH  74  75
ENDBRANCH  53  67
BRANCH  54  79
ATOM     79  C   UNL A   1      44.428  28.784  36.256  1.00  0.00     0.058 A 
ATOM     80  C   UNL A   1      44.263  27.641  37.051  1.00  0.00     0.135 A 
ATOM     81  C   UNL A   1      45.702  29.373  36.216  1.00  0.00     0.135 A 
ATOM     82  F   UNL A   1      43.062  27.049  37.134  1.00  0.00    -0.206 F 
ATOM     83  C   UNL A   1      45.315  27.109  37.790  1.00  0.00     0.059 A 
ATOM     84  C   UNL A   1      46.777  28.842  36.922  1.00  0.00     0.059 A 
ATOM     85  F   UNL A   1      45.916  30.465  35.466  1.00  0.00    -0.206 F 
ATOM     86  C   UNL A   1      46.571  27.714  37.714  1.00  0.00     0.060 A 
BRANCH  86  87
ATOM     87  S   UNL A   1      47.941  26.983  38.637  1.00  0.00     0.124 S 
ATOM     88  O   UNL A   1      48.754  28.154  38.937  1.00  0.00    -0.237 OA
ATOM     89  O   UNL A   1      47.252  26.374  39.771  1.00  0.00    -0.237 OA
ATOM     90  O   UNL A   1      48.520  26.038  37.685  1.00  0.00    -0.744 OA
ENDBRANCH  86  87
ENDBRANCH  54  79
BRANCH  66  91
ATOM     91  C   UNL A   1      39.912  33.969  37.506  1.00  0.00     0.058 A 
ATOM     92  C   UNL A   1      39.101  33.612  38.593  1.00  0.00     0.135 A 
ATOM     93  C   UNL A   1      40.592  35.198  37.573  1.00  0.00     0.135 A 
ATOM     94  F   UNL A   1      38.425  32.452  38.579  1.00  0.00    -0.206 F 
ATOM     95  C   UNL A   1      38.949  34.449  39.693  1.00  0.00     0.059 A 
ATOM     96  C   UNL A   1      40.481  36.036  38.677  1.00  0.00     0.059 A 
ATOM     97  F   UNL A   1      41.393  35.584  36.567  1.00  0.00    -0.206 F 
ATOM     98  C   UNL A   1      39.647  35.659  39.728  1.00  0.00     0.060 A 
BRANCH  98  99
ATOM     99  S   UNL A   1      39.468  36.719  41.178  1.00  0.00     0.124 S 
ATOM    100  O   UNL A   1      40.849  36.830  41.634  1.00  0.00    -0.237 OA
ATOM    101  O   UNL A   1      38.888  37.931  40.608  1.00  0.00    -0.237 OA
ATOM    102  O   UNL A   1      38.579  35.956  42.050  1.00  0.00    -0.744 OA
ENDBRANCH  98  99
ENDBRANCH  66  91
ENDBRANCH  40  41
ENDBRANCH  33  35
ENDBRANCH  32  33
ENDBRANCH  31  32
ENDBRANCH  30  31
ENDBRANCH  29  30
ENDBRANCH  28  29
ENDBRANCH  27  28
ENDBRANCH   1  27
TORSDOF 28
ENDMDL
MODEL 2
REMARK VINA RESULT:      -6.2      7.697     13.828
REMARK SMILES CCC[NH2+][C@]1(C(=O)OCCOCCOCCOCCOC(=O)c2ccc(-c3c4nc(c(-c5c(F)cc(S(=O)(=O)[O-])cc5F)c5ccc([nH]5)c(-c5c(F)cc(S(=O)(=O)[O-])cc5F)c5nc(c(-c6c(F)cc(S(=O)(=O)[O-])cc6F)c6ccc3[nH]6)C=C5)C=C4)cc2)CCC[C@H](OC(C)(C)C)C1
REMARK SMILES IDX 14 1 13 2 12 3 11 4 10 5 9 6 8 7 6 8 7 9 5 10 89 11 98 12
REMARK SMILES IDX 90 13 92 14 91 15 4 16 3 19 2 20 1 21 93 22 94 23 95 24
REMARK SMILES IDX 96 25 97 26 15 27 16 28 17 29 18 30 19 31 20 32 21 33 22 34
REMARK SMILES IDX 23 35 24 36 88 37 25 38 87 39 26 40 27 41 28 42 81 43 29 44
REMARK SMILES IDX 86 45 80 46 82 47 30 48 85 49 79 50 78 51 31 53 65 54 44 55
REMARK SMILES IDX 64 56 45 57 48 58 63 59 83 60 46 61 47 62 62 64 84 65 49 66
REMARK SMILES IDX 32 67 33 68 42 69 34 70 35 71 41 72 43 73 36 74 37 75 38 76
REMARK SMILES IDX 39 77 40 78 66 79 67 80 76 81 68 82 69 83 75 84 77 85 70 86
REMARK SMILES IDX 71 87 72 88 73 89 74 90 50 91 51 92 60 93 52 94 53 95 59 96
REMARK SMILES IDX 61 97 54 98 55 99 56 100 57 101 58 102
REMARK H PARENT 4 17 4 18 82 52 48 63
REMARK Flexibility Score: inf
ROOT
ATOM      1  O   UNL A   1      39.837  23.091  26.495  1.00  0.00    -0.377 OA
ENDROOT
BRANCH   1   2
ATOM      2  C   UNL A   1      39.184  21.857  26.296  1.00  0.00     0.188 C 
BRANCH   2   3
ATOM      3  C   UNL A   1      38.045  21.857  25.259  1.00  0.00     0.188 C 
BRANCH   3   4
ATOM      4  O   UNL A   1      37.344  20.660  24.948  1.00  0.00    -0.376 OA
BRANCH   4   5
ATOM      5  C   UNL A   1      35.942  20.598  25.160  1.00  0.00     0.202 C 
BRANCH   5   6
ATOM      6  C   UNL A   1      35.015  21.643  24.515  1.00  0.00     0.261 C 
BRANCH   6   7
ATOM      7  O   UNL A   1      34.515  22.687  25.365  1.00  0.00    -0.459 OA
BRANCH   7   8
ATOM      8  C   UNL A   1      34.557  23.959  24.862  1.00  0.00     0.368 C 
ATOM      9  O   UNL A   1      35.567  24.488  24.413  1.00  0.00    -0.245 OA
BRANCH   8  10
ATOM     10  C   UNL A   1      33.145  24.637  24.912  1.00  0.00     0.196 C 
ATOM     11  C   UNL A   1      32.238  23.837  25.874  1.00  0.00     0.081 C 
ATOM     12  C   UNL A   1      33.275  26.052  25.541  1.00  0.00     0.113 C 
ATOM     13  C   UNL A   1      30.908  24.536  26.165  1.00  0.00     0.010 C 
ATOM     14  C   UNL A   1      31.978  26.826  25.781  1.00  0.00     0.125 C 
ATOM     15  C   UNL A   1      31.089  25.964  26.687  1.00  0.00     0.032 C 
BRANCH  10  16
ATOM     16  N   UNL A   1      32.600  24.771  23.535  1.00  0.00    -0.332 N 
ATOM     17  H   UNL A   1      31.656  25.149  23.613  1.00  0.00     0.347 HD
ATOM     18  H   UNL A   1      33.263  25.373  23.046  1.00  0.00     0.347 HD
BRANCH  16  19
ATOM     19  C   UNL A   1      32.525  23.557  22.731  1.00  0.00     0.261 C 
BRANCH  19  20
ATOM     20  C   UNL A   1      33.207  23.754  21.368  1.00  0.00     0.058 C 
ATOM     21  C   UNL A   1      32.849  25.046  20.644  1.00  0.00     0.010 C 
ENDBRANCH  19  20
ENDBRANCH  16  19
ENDBRANCH  10  16
BRANCH  14  22
ATOM     22  O   UNL A   1      31.238  27.176  24.610  1.00  0.00    -0.372 OA
BRANCH  22  23
ATOM     23  C   UNL A   1      31.173  28.521  24.098  1.00  0.00     0.060 C 
ATOM     24  C   UNL A   1      31.339  29.614  25.157  1.00  0.00     0.042 C 
ATOM     25  C   UNL A   1      32.134  28.793  22.941  1.00  0.00     0.042 C 
ATOM     26  C   UNL A   1      29.764  28.625  23.486  1.00  0.00     0.042 C 
ENDBRANCH  22  23
ENDBRANCH  14  22
ENDBRANCH   8  10
ENDBRANCH   7   8
ENDBRANCH   6   7
ENDBRANCH   5   6
ENDBRANCH   4   5
ENDBRANCH   3   4
ENDBRANCH   2   3
ENDBRANCH   1   2
BRANCH   1  27
ATOM     27  C   UNL A   1      39.113  24.007  27.294  1.00  0.00     0.188 C 
BRANCH  27  28
ATOM     28  C   UNL A   1      39.577  25.473  27.177  1.00  0.00     0.188 C 
BRANCH  28  29
ATOM     29  O   UNL A   1      40.303  25.759  25.985  1.00  0.00    -0.376 OA
BRANCH  29  30
ATOM     30  C   UNL A   1      41.622  26.277  26.061  1.00  0.00     0.202 C 
BRANCH  30  31
ATOM     31  C   UNL A   1      42.200  26.668  27.436  1.00  0.00     0.261 C 
BRANCH  31  32
ATOM     32  O   UNL A   1      42.900  25.648  28.155  1.00  0.00    -0.460 OA
BRANCH  32  33
ATOM     33  C   UNL A   1      43.796  24.911  27.456  1.00  0.00     0.338 C 
ATOM     34  O   UNL A   1      43.616  23.820  26.969  1.00  0.00    -0.246 OA
BRANCH  33  35
ATOM     35  C   UNL A   1      44.967  25.781  27.191  1.00  0.00     0.060 A 
ATOM     36  C   UNL A   1      45.664  26.311  28.285  1.00  0.00     0.016 A 
ATOM     37  C   UNL A   1      45.392  26.043  25.886  1.00  0.00     0.016 A 
ATOM     38  C   UNL A   1      46.774  27.125  28.080  1.00  0.00     0.010 A 
ATOM     39  C   UNL A   1      46.480  26.895  25.680  1.00  0.00     0.010 A 
ATOM     40  C   UNL A   1      47.151  27.466  26.776  1.00  0.00    -0.014 A 
BRANCH  40  41
ATOM     41  C   UNL A   1      48.077  28.604  26.576  1.00  0.00     0.031 A 
ATOM     42  C   UNL A   1      47.507  29.993  26.673  1.00  0.00     0.074 A 
ATOM     43  C   UNL A   1      49.391  28.415  26.362  1.00  0.00     0.049 A 
ATOM     44  N   UNL A   1      48.095  31.147  26.503  1.00  0.00    -0.248 NA
ATOM     45  C   UNL A   1      46.076  30.089  27.012  1.00  0.00     0.031 C 
ATOM     46  C   UNL A   1      50.063  27.119  26.309  1.00  0.00     0.029 A 
ATOM     47  N   UNL A   1      50.395  29.326  26.145  1.00  0.00    -0.354 N 
ATOM     48  C   UNL A   1      47.109  32.104  26.705  1.00  0.00     0.074 A 
ATOM     49  C   UNL A   1      45.878  31.398  26.980  1.00  0.00     0.031 C 
ATOM     50  C   UNL A   1      51.369  27.316  26.058  1.00  0.00     0.029 A 
ATOM     51  C   UNL A   1      51.617  28.750  25.898  1.00  0.00     0.049 A 
ATOM     52  H   UNL A   1      50.251  30.299  26.165  1.00  0.00     0.167 HD
ATOM     53  C   UNL A   1      47.221  33.452  26.671  1.00  0.00     0.037 A 
ATOM     54  C   UNL A   1      52.791  29.317  25.557  1.00  0.00     0.037 A 
ATOM     55  C   UNL A   1      48.451  34.144  26.389  1.00  0.00     0.049 A 
ATOM     56  C   UNL A   1      52.874  30.819  25.438  1.00  0.00     0.074 A 
ATOM     57  C   UNL A   1      48.675  35.508  26.334  1.00  0.00     0.029 A 
ATOM     58  N   UNL A   1      49.659  33.526  26.104  1.00  0.00    -0.354 N 
ATOM     59  N   UNL A   1      51.938  31.717  25.642  1.00  0.00    -0.248 NA
ATOM     60  C   UNL A   1      54.172  31.386  25.046  1.00  0.00     0.031 C 
ATOM     61  C   UNL A   1      50.006  35.714  25.956  1.00  0.00     0.029 A 
ATOM     62  C   UNL A   1      50.628  34.480  25.844  1.00  0.00     0.049 A 
ATOM     63  H   UNL A   1      49.807  32.553  26.089  1.00  0.00     0.167 HD
ATOM     64  C   UNL A   1      52.544  32.953  25.437  1.00  0.00     0.074 A 
ATOM     65  C   UNL A   1      53.927  32.688  25.102  1.00  0.00     0.031 C 
ATOM     66  C   UNL A   1      52.006  34.197  25.520  1.00  0.00     0.037 A 
BRANCH  53  67
ATOM     67  C   UNL A   1      45.976  34.261  26.908  1.00  0.00     0.058 A 
ATOM     68  C   UNL A   1      45.090  34.584  25.866  1.00  0.00     0.135 A 
ATOM     69  C   UNL A   1      45.650  34.699  28.202  1.00  0.00     0.135 A 
ATOM     70  F   UNL A   1      45.363  34.213  24.606  1.00  0.00    -0.206 F 
ATOM     71  C   UNL A   1      43.941  35.333  26.096  1.00  0.00     0.059 A 
ATOM     72  C   UNL A   1      44.491  35.421  28.460  1.00  0.00     0.059 A 
ATOM     73  F   UNL A   1      46.466  34.426  29.232  1.00  0.00    -0.206 F 
ATOM     74  C   UNL A   1      43.648  35.745  27.398  1.00  0.00     0.060 A 
BRANCH  74  75
ATOM     75  S   UNL A   1      42.147  36.708  27.680  1.00  0.00     0.124 S 
ATOM     76  O   UNL A   1      41.113  35.689  27.521  1.00  0.00    -0.237 OA
ATOM     77  O   UNL A   1      42.346  37.200  29.039  1.00  0.00    -0.237 OA
ATOM     78  O   UNL A   1      42.192  37.724  26.634  1.00  0.00    -0.744 OA
ENDBRANCH  74  75
ENDBRANCH  53  67
BRANCH  54  79
ATOM     79  C   UNL A   1      53.981  28.464  25.284  1.00  0.00     0.058 A 
ATOM     80  C   UNL A   1      54.223  27.940  24.006  1.00  0.00     0.135 A 
ATOM     81  C   UNL A   1      54.896  28.149  26.302  1.00  0.00     0.135 A 
ATOM     82  F   UNL A   1      53.370  28.199  23.003  1.00  0.00    -0.206 F 
ATOM     83  C   UNL A   1      55.320  27.124  23.748  1.00  0.00     0.059 A 
ATOM     84  C   UNL A   1      56.016  27.361  26.062  1.00  0.00     0.059 A 
ATOM     85  F   UNL A   1      54.715  28.629  27.543  1.00  0.00    -0.206 F 
ATOM     86  C   UNL A   1      56.215  26.845  24.782  1.00  0.00     0.060 A 
BRANCH  86  87
ATOM     87  S   UNL A   1      57.664  25.828  24.421  1.00  0.00     0.124 S 
ATOM     88  O   UNL A   1      57.205  24.506  24.829  1.00  0.00    -0.237 OA
ATOM     89  O   UNL A   1      57.829  26.034  22.986  1.00  0.00    -0.237 OA
ATOM     90  O   UNL A   1      58.706  26.420  25.256  1.00  0.00    -0.744 OA
ENDBRANCH  86  87
ENDBRANCH  54  79
BRANCH  66  91
ATOM     91  C   UNL A   1      52.920  35.372  25.292  1.00  0.00     0.058 A 
ATOM     92  C   UNL A   1      53.097  35.941  24.023  1.00  0.00     0.135 A 
ATOM     93  C   UNL A   1      53.580  35.974  26.377  1.00  0.00     0.135 A 
ATOM     94  F   UNL A   1      52.494  35.404  22.951  1.00  0.00    -0.206 F 
ATOM     95  C   UNL A   1      53.915  37.050  23.831  1.00  0.00     0.059 A 
ATOM     96  C   UNL A   1      54.377  37.102  26.214  1.00  0.00     0.059 A 
ATOM     97  F   UNL A   1      53.436  35.479  27.617  1.00  0.00    -0.206 F 
ATOM     98  C   UNL A   1      54.548  37.626  24.935  1.00  0.00     0.060 A 
BRANCH  98  99
ATOM     99  S   UNL A   1      55.579  39.086  24.675  1.00  0.00     0.124 S 
ATOM    100  O   UNL A   1      56.531  38.973  25.775  1.00  0.00    -0.237 OA
ATOM    101  O   UNL A   1      56.121  38.851  23.341  1.00  0.00    -0.237 OA
ATOM    102  O   UNL A   1      54.633  40.193  24.776  1.00  0.00    -0.744 OA
ENDBRANCH  98  99
ENDBRANCH  66  91
ENDBRANCH  40  41
ENDBRANCH  33  35
ENDBRANCH  32  33
ENDBRANCH  31  32
ENDBRANCH  30  31
ENDBRANCH  29  30
ENDBRANCH  28  29
ENDBRANCH  27  28
ENDBRANCH   1  27
TORSDOF 28
ENDMDL
MODEL 3
REMARK VINA RESULT:      -6.1      6.635     12.992
REMARK SMILES CCC[NH2+][C@]1(C(=O)OCCOCCOCCOCCOC(=O)c2ccc(-c3c4nc(c(-c5c(F)cc(S(=O)(=O)[O-])cc5F)c5ccc([nH]5)c(-c5c(F)cc(S(=O)(=O)[O-])cc5F)c5nc(c(-c6c(F)cc(S(=O)(=O)[O-])cc6F)c6ccc3[nH]6)C=C5)C=C4)cc2)CCC[C@H](OC(C)(C)C)C1
REMARK SMILES IDX 14 1 13 2 12 3 11 4 10 5 9 6 8 7 6 8 7 9 5 10 89 11 98 12
REMARK SMILES IDX 90 13 92 14 91 15 4 16 3 19 2 20 1 21 93 22 94 23 95 24
REMARK SMILES IDX 96 25 97 26 15 27 16 28 17 29 18 30 19 31 20 32 21 33 22 34
REMARK SMILES IDX 23 35 24 36 88 37 25 38 87 39 26 40 27 41 28 42 81 43 29 44
REMARK SMILES IDX 86 45 80 46 82 47 30 48 85 49 79 50 78 51 31 53 65 54 44 55
REMARK SMILES IDX 64 56 45 57 48 58 63 59 83 60 46 61 47 62 62 64 84 65 49 66
REMARK SMILES IDX 32 67 33 68 42 69 34 70 35 71 41 72 43 73 36 74 37 75 38 76
REMARK SMILES IDX 39 77 40 78 66 79 67 80 76 81 68 82 69 83 75 84 77 85 70 86
REMARK SMILES IDX 71 87 72 88 73 89 74 90 50 91 51 92 60 93 52 94 53 95 59 96
REMARK SMILES IDX 61 97 54 98 55 99 56 100 57 101 58 102
REMARK H PARENT 4 17 4 18 82 52 48 63
REMARK Flexibility Score: inf
ROOT
ATOM      1  O   UNL A   1      49.856  41.979  29.458  1.00  0.00    -0.377 OA
ENDROOT
BRANCH   1   2
ATOM      2  C   UNL A   1      51.062  42.709  29.425  1.00  0.00     0.188 C 
BRANCH   2   3
ATOM      3  C   UNL A   1      51.076  43.946  28.507  1.00  0.00     0.188 C 
BRANCH   3   4
ATOM      4  O   UNL A   1      50.105  44.102  27.482  1.00  0.00    -0.376 OA
BRANCH   4   5
ATOM      5  C   UNL A   1      49.611  45.398  27.181  1.00  0.00     0.202 C 
BRANCH   5   6
ATOM      6  C   UNL A   1      48.347  45.565  26.321  1.00  0.00     0.261 C 
BRANCH   6   7
ATOM      7  O   UNL A   1      47.625  44.370  25.980  1.00  0.00    -0.459 OA
BRANCH   7   8
ATOM      8  C   UNL A   1      46.267  44.486  25.864  1.00  0.00     0.368 C 
ATOM      9  O   UNL A   1      45.534  44.905  26.752  1.00  0.00    -0.245 OA
BRANCH   8  10
ATOM     10  C   UNL A   1      45.779  44.040  24.444  1.00  0.00     0.196 C 
ATOM     11  C   UNL A   1      44.503  43.183  24.598  1.00  0.00     0.081 C 
ATOM     12  C   UNL A   1      45.345  45.292  23.631  1.00  0.00     0.113 C 
ATOM     13  C   UNL A   1      43.818  42.879  23.263  1.00  0.00     0.010 C 
ATOM     14  C   UNL A   1      44.728  45.046  22.255  1.00  0.00     0.125 C 
ATOM     15  C   UNL A   1      43.505  44.142  22.455  1.00  0.00     0.032 C 
BRANCH  10  16
ATOM     16  N   UNL A   1      46.884  43.357  23.720  1.00  0.00    -0.332 N 
ATOM     17  H   UNL A   1      46.926  43.750  22.780  1.00  0.00     0.347 HD
ATOM     18  H   UNL A   1      47.714  43.520  24.290  1.00  0.00     0.347 HD
BRANCH  16  19
ATOM     19  C   UNL A   1      46.794  41.907  23.589  1.00  0.00     0.261 C 
BRANCH  19  20
ATOM     20  C   UNL A   1      46.910  41.478  22.118  1.00  0.00     0.058 C 
ATOM     21  C   UNL A   1      48.029  42.150  21.333  1.00  0.00     0.010 C 
ENDBRANCH  19  20
ENDBRANCH  16  19
ENDBRANCH  10  16
BRANCH  14  22
ATOM     22  O   UNL A   1      45.589  44.446  21.286  1.00  0.00    -0.372 OA
BRANCH  22  23
ATOM     23  C   UNL A   1      45.964  45.102  20.059  1.00  0.00     0.060 C 
ATOM     24  C   UNL A   1      47.450  45.453  19.954  1.00  0.00     0.042 C 
ATOM     25  C   UNL A   1      45.535  44.352  18.797  1.00  0.00     0.042 C 
ATOM     26  C   UNL A   1      45.139  46.402  20.057  1.00  0.00     0.042 C 
ENDBRANCH  22  23
ENDBRANCH  14  22
ENDBRANCH   8  10
ENDBRANCH   7   8
ENDBRANCH   6   7
ENDBRANCH   5   6
ENDBRANCH   4   5
ENDBRANCH   3   4
ENDBRANCH   2   3
ENDBRANCH   1   2
BRANCH   1  27
ATOM     27  C   UNL A   1      49.202  41.997  30.713  1.00  0.00     0.188 C 
BRANCH  27  28
ATOM     28  C   UNL A   1      47.893  41.184  30.771  1.00  0.00     0.188 C 
BRANCH  28  29
ATOM     29  O   UNL A   1      47.669  40.532  32.017  1.00  0.00    -0.376 OA
BRANCH  29  30
ATOM     30  C   UNL A   1      48.294  39.287  32.293  1.00  0.00     0.202 C 
BRANCH  30  31
ATOM     31  C   UNL A   1      47.453  37.996  32.250  1.00  0.00     0.261 C 
BRANCH  31  32
ATOM     32  O   UNL A   1      47.812  37.026  31.261  1.00  0.00    -0.460 OA
BRANCH  32  33
ATOM     33  C   UNL A   1      47.059  36.992  30.136  1.00  0.00     0.338 C 
ATOM     34  O   UNL A   1      46.690  37.938  29.480  1.00  0.00    -0.246 OA
BRANCH  33  35
ATOM     35  C   UNL A   1      46.958  35.573  29.718  1.00  0.00     0.060 A 
ATOM     36  C   UNL A   1      46.453  35.290  28.441  1.00  0.00     0.016 A 
ATOM     37  C   UNL A   1      47.384  34.540  30.556  1.00  0.00     0.016 A 
ATOM     38  C   UNL A   1      46.350  33.971  28.007  1.00  0.00     0.010 A 
ATOM     39  C   UNL A   1      47.240  33.216  30.137  1.00  0.00     0.010 A 
ATOM     40  C   UNL A   1      46.690  32.927  28.875  1.00  0.00    -0.014 A 
BRANCH  40  41
ATOM     41  C   UNL A   1      46.236  31.556  28.553  1.00  0.00     0.031 A 
ATOM     42  C   UNL A   1      44.824  31.184  28.916  1.00  0.00     0.074 A 
ATOM     43  C   UNL A   1      47.033  30.680  27.915  1.00  0.00     0.049 A 
ATOM     44  N   UNL A   1      44.201  30.045  28.775  1.00  0.00    -0.248 NA
ATOM     45  C   UNL A   1      44.003  32.250  29.519  1.00  0.00     0.031 C 
ATOM     46  C   UNL A   1      48.396  30.950  27.461  1.00  0.00     0.029 A 
ATOM     47  N   UNL A   1      46.804  29.379  27.544  1.00  0.00    -0.354 N 
ATOM     48  C   UNL A   1      42.923  30.251  29.277  1.00  0.00     0.074 A 
ATOM     49  C   UNL A   1      42.866  31.615  29.754  1.00  0.00     0.031 C 
ATOM     50  C   UNL A   1      48.889  29.840  26.884  1.00  0.00     0.029 A 
ATOM     51  C   UNL A   1      47.890  28.773  26.961  1.00  0.00     0.049 A 
ATOM     52  H   UNL A   1      45.942  28.924  27.682  1.00  0.00     0.167 HD
ATOM     53  C   UNL A   1      41.886  29.383  29.329  1.00  0.00     0.037 A 
ATOM     54  C   UNL A   1      48.062  27.497  26.561  1.00  0.00     0.037 A 
ATOM     55  C   UNL A   1      41.957  28.026  28.858  1.00  0.00     0.049 A 
ATOM     56  C   UNL A   1      46.921  26.521  26.709  1.00  0.00     0.074 A 
ATOM     57  C   UNL A   1      40.963  27.063  28.860  1.00  0.00     0.029 A 
ATOM     58  N   UNL A   1      43.086  27.436  28.311  1.00  0.00    -0.354 N 
ATOM     59  N   UNL A   1      45.711  26.729  27.175  1.00  0.00    -0.248 NA
ATOM     60  C   UNL A   1      47.166  25.139  26.275  1.00  0.00     0.031 C 
ATOM     61  C   UNL A   1      41.510  25.873  28.370  1.00  0.00     0.029 A 
ATOM     62  C   UNL A   1      42.824  26.113  27.998  1.00  0.00     0.049 A 
ATOM     63  H   UNL A   1      43.948  27.890  28.166  1.00  0.00     0.167 HD
ATOM     64  C   UNL A   1      45.042  25.514  27.057  1.00  0.00     0.074 A 
ATOM     65  C   UNL A   1      45.979  24.579  26.468  1.00  0.00     0.031 C 
ATOM     66  C   UNL A   1      43.768  25.199  27.402  1.00  0.00     0.037 A 
BRANCH  53  67
ATOM     67  C   UNL A   1      40.604  29.866  29.950  1.00  0.00     0.058 A 
ATOM     68  C   UNL A   1      39.463  30.145  29.180  1.00  0.00     0.135 A 
ATOM     69  C   UNL A   1      40.509  30.028  31.342  1.00  0.00     0.135 A 
ATOM     70  F   UNL A   1      39.504  30.031  27.844  1.00  0.00    -0.206 F 
ATOM     71  C   UNL A   1      38.282  30.591  29.765  1.00  0.00     0.059 A 
ATOM     72  C   UNL A   1      39.330  30.443  31.951  1.00  0.00     0.059 A 
ATOM     73  F   UNL A   1      41.571  29.785  32.125  1.00  0.00    -0.206 F 
ATOM     74  C   UNL A   1      38.225  30.734  31.153  1.00  0.00     0.060 A 
BRANCH  74  75
ATOM     75  S   UNL A   1      36.682  31.305  31.897  1.00  0.00     0.124 S 
ATOM     76  O   UNL A   1      36.269  32.340  30.954  1.00  0.00    -0.237 OA
ATOM     77  O   UNL A   1      35.872  30.091  31.900  1.00  0.00    -0.237 OA
ATOM     78  O   UNL A   1      37.095  31.784  33.212  1.00  0.00    -0.744 OA
ENDBRANCH  74  75
ENDBRANCH  53  67
BRANCH  54  79
ATOM     79  C   UNL A   1      49.370  27.061  26.000  1.00  0.00     0.058 A 
ATOM     80  C   UNL A   1      49.639  27.152  24.626  1.00  0.00     0.135 A 
ATOM     81  C   UNL A   1      50.376  26.536  26.827  1.00  0.00     0.135 A 
ATOM     82  F   UNL A   1      48.706  27.634  23.791  1.00  0.00    -0.206 F 
ATOM     83  C   UNL A   1      50.851  26.728  24.090  1.00  0.00     0.059 A 
ATOM     84  C   UNL A   1      51.607  26.133  26.319  1.00  0.00     0.059 A 
ATOM     85  F   UNL A   1      50.174  26.431  28.150  1.00  0.00    -0.206 F 
ATOM     86  C   UNL A   1      51.831  26.225  24.947  1.00  0.00     0.060 A 
BRANCH  86  87
ATOM     87  S   UNL A   1      53.419  25.725  24.245  1.00  0.00     0.124 S 
ATOM     88  O   UNL A   1      53.168  25.867  22.816  1.00  0.00    -0.237 OA
ATOM     89  O   UNL A   1      54.332  26.700  24.835  1.00  0.00    -0.237 OA
ATOM     90  O   UNL A   1      53.582  24.355  24.724  1.00  0.00    -0.744 OA
ENDBRANCH  86  87
ENDBRANCH  54  79
BRANCH  66  91
ATOM     91  C   UNL A   1      43.290  23.800  27.111  1.00  0.00     0.058 A 
ATOM     92  C   UNL A   1      43.044  23.355  25.804  1.00  0.00     0.135 A 
ATOM     93  C   UNL A   1      43.138  22.874  28.158  1.00  0.00     0.135 A 
ATOM     94  F   UNL A   1      43.170  24.198  24.767  1.00  0.00    -0.206 F 
ATOM     95  C   UNL A   1      42.638  22.049  25.545  1.00  0.00     0.059 A 
ATOM     96  C   UNL A   1      42.765  21.555  27.919  1.00  0.00     0.059 A 
ATOM     97  F   UNL A   1      43.373  23.242  29.427  1.00  0.00    -0.206 F 
ATOM     98  C   UNL A   1      42.506  21.155  26.610  1.00  0.00     0.060 A 
BRANCH  98  99
ATOM     99  S   UNL A   1      42.013  19.455  26.255  1.00  0.00     0.124 S 
ATOM    100  O   UNL A   1      42.743  19.189  25.020  1.00  0.00    -0.237 OA
ATOM    101  O   UNL A   1      42.485  18.741  27.437  1.00  0.00    -0.237 OA
ATOM    102  O   UNL A   1      40.563  19.542  26.120  1.00  0.00    -0.744 OA
ENDBRANCH  98  99
ENDBRANCH  66  91
ENDBRANCH  40  41
ENDBRANCH  33  35
ENDBRANCH  32  33
ENDBRANCH  31  32
ENDBRANCH  30  31
ENDBRANCH  29  30
ENDBRANCH  28  29
ENDBRANCH  27  28
ENDBRANCH   1  27
TORSDOF 28
ENDMDL
