MODEL 1
REMARK VINA RESULT:     -10.2      0.000      0.000
REMARK SMILES CCn1c(C(=O)OCCOCCOCCOCCOC(=O)c2ccc(-c3c4nc(c(-c5c(F)cc(S(=O)(=O)[O-])cc5F)c5ccc([nH]5)c(-c5c(F)cc(S(=O)(=O)[O-])cc5F)c5nc(c(-c6c(F)cc(S(=O)(=O)[O-])cc6F)c6ccc3[nH]6)C=C5)C=C4)cc2)c(C[NH2+]Cc2ccccc2Cl)c2ccc(C)cc21
REMARK SMILES IDX 12 1 11 2 10 3 9 4 8 5 7 6 5 7 6 8 4 9 3 10 105 11 88 12
REMARK SMILES IDX 99 13 104 14 100 15 102 16 101 17 103 18 2 19 1 20 89 21
REMARK SMILES IDX 90 22 91 25 92 26 93 27 97 28 94 29 96 30 98 31 95 32 13 33
REMARK SMILES IDX 14 34 15 35 16 36 17 37 18 38 19 39 20 40 21 41 22 42 23 43
REMARK SMILES IDX 87 44 24 45 86 46 25 47 26 48 27 49 80 50 28 51 85 52 79 53
REMARK SMILES IDX 81 54 29 55 84 56 78 57 77 58 30 60 64 61 43 62 63 63 44 64
REMARK SMILES IDX 47 65 62 66 82 67 45 68 46 69 61 71 83 72 48 73 31 74 32 75
REMARK SMILES IDX 41 76 33 77 34 78 40 79 42 80 35 81 36 82 37 83 38 84 39 85
REMARK SMILES IDX 65 86 66 87 75 88 67 89 68 90 74 91 76 92 69 93 70 94 71 95
REMARK SMILES IDX 72 96 73 97 49 98 50 99 59 100 51 101 52 102 58 103 60 104
REMARK SMILES IDX 53 105 54 106 55 107 56 108 57 109
REMARK H PARENT 90 23 90 24 81 59 47 70
REMARK Flexibility Score: inf
ROOT
ATOM      1  C   UNL A   1      35.044  23.024  23.931  1.00  0.00     0.188 C 
ENDROOT
BRANCH   1   2
ATOM      2  C   UNL A   1      34.242  21.733  24.164  1.00  0.00     0.188 C 
BRANCH   2   3
ATOM      3  O   UNL A   1      32.955  21.704  23.575  1.00  0.00    -0.376 OA
BRANCH   3   4
ATOM      4  C   UNL A   1      32.640  22.373  22.368  1.00  0.00     0.202 C 
BRANCH   4   5
ATOM      5  C   UNL A   1      32.453  23.895  22.301  1.00  0.00     0.261 C 
BRANCH   5   6
ATOM      6  O   UNL A   1      31.134  24.375  22.525  1.00  0.00    -0.459 OA
BRANCH   6   7
ATOM      7  C   UNL A   1      30.751  24.665  23.802  1.00  0.00     0.355 C 
ATOM      8  O   UNL A   1      30.124  23.938  24.520  1.00  0.00    -0.244 OA
BRANCH   7   9
ATOM      9  C   UNL A   1      31.449  25.891  24.201  1.00  0.00     0.137 A 
ATOM     10  N   UNL A   1      32.475  25.954  25.137  1.00  0.00    -0.335 N 
ATOM     11  C   UNL A   1      32.765  27.290  25.408  1.00  0.00     0.049 A 
ATOM     12  C   UNL A   1      31.246  27.195  23.712  1.00  0.00     0.047 A 
ATOM     13  C   UNL A   1      32.030  28.074  24.524  1.00  0.00     0.009 A 
ATOM     14  C   UNL A   1      33.572  27.872  26.404  1.00  0.00     0.030 A 
ATOM     15  C   UNL A   1      32.113  29.480  24.631  1.00  0.00     0.011 A 
ATOM     16  C   UNL A   1      33.587  29.266  26.547  1.00  0.00    -0.049 A 
ATOM     17  C   UNL A   1      32.873  30.061  25.653  1.00  0.00     0.004 A 
ATOM     18  C   UNL A   1      34.361  29.868  27.681  1.00  0.00     0.044 C 
BRANCH  10  19
ATOM     19  C   UNL A   1      33.055  24.882  25.944  1.00  0.00     0.119 C 
ATOM     20  C   UNL A   1      32.224  24.065  26.923  1.00  0.00     0.027 C 
ENDBRANCH  10  19
BRANCH  12  21
ATOM     21  C   UNL A   1      30.230  27.666  22.692  1.00  0.00     0.300 C 
BRANCH  21  22
ATOM     22  N   UNL A   1      29.005  28.170  23.322  1.00  0.00    -0.339 N 
ATOM     23  H   UNL A   1      29.260  28.705  24.151  1.00  0.00     0.346 HD
ATOM     24  H   UNL A   1      28.425  27.365  23.559  1.00  0.00     0.346 HD
BRANCH  22  25
ATOM     25  C   UNL A   1      28.224  29.035  22.422  1.00  0.00     0.299 C 
BRANCH  25  26
ATOM     26  C   UNL A   1      28.534  30.513  22.573  1.00  0.00     0.025 A 
ATOM     27  C   UNL A   1      29.103  30.973  23.778  1.00  0.00     0.011 A 
ATOM     28  C   UNL A   1      28.237  31.468  21.584  1.00  0.00     0.049 A 
ATOM     29  C   UNL A   1      29.286  32.339  24.016  1.00  0.00     0.001 A 
ATOM     30  C   UNL A   1      28.353  32.835  21.856  1.00  0.00     0.021 A 
ATOM     31  Cl  UNL A   1      27.778  31.038  19.975  1.00  0.00    -0.084 Cl
ATOM     32  C   UNL A   1      28.868  33.272  23.073  1.00  0.00     0.002 A 
ENDBRANCH  25  26
ENDBRANCH  22  25
ENDBRANCH  21  22
ENDBRANCH  12  21
ENDBRANCH   7   9
ENDBRANCH   6   7
ENDBRANCH   5   6
ENDBRANCH   4   5
ENDBRANCH   3   4
ENDBRANCH   2   3
ENDBRANCH   1   2
BRANCH   1  33
ATOM     33  O   UNL A   1      36.338  22.874  23.388  1.00  0.00    -0.377 OA
BRANCH  33  34
ATOM     34  C   UNL A   1      37.083  21.856  24.029  1.00  0.00     0.188 C 
BRANCH  34  35
ATOM     35  C   UNL A   1      37.690  22.361  25.360  1.00  0.00     0.188 C 
BRANCH  35  36
ATOM     36  O   UNL A   1      38.378  21.453  26.216  1.00  0.00    -0.376 OA
BRANCH  36  37
ATOM     37  C   UNL A   1      39.794  21.508  26.258  1.00  0.00     0.202 C 
BRANCH  37  38
ATOM     38  C   UNL A   1      40.634  20.205  26.227  1.00  0.00     0.261 C 
BRANCH  38  39
ATOM     39  O   UNL A   1      41.957  20.278  26.794  1.00  0.00    -0.460 OA
BRANCH  39  40
ATOM     40  C   UNL A   1      42.920  20.992  26.153  1.00  0.00     0.338 C 
ATOM     41  O   UNL A   1      43.450  20.696  25.096  1.00  0.00    -0.246 OA
BRANCH  40  42
ATOM     42  C   UNL A   1      42.988  22.355  26.780  1.00  0.00     0.060 A 
ATOM     43  C   UNL A   1      42.895  22.550  28.160  1.00  0.00     0.016 A 
ATOM     44  C   UNL A   1      42.817  23.454  25.916  1.00  0.00     0.016 A 
ATOM     45  C   UNL A   1      42.506  23.805  28.650  1.00  0.00     0.010 A 
ATOM     46  C   UNL A   1      42.423  24.708  26.413  1.00  0.00     0.010 A 
ATOM     47  C   UNL A   1      42.236  24.890  27.782  1.00  0.00    -0.014 A 
BRANCH  47  48
ATOM     48  C   UNL A   1      42.082  26.236  28.388  1.00  0.00     0.031 A 
ATOM     49  C   UNL A   1      43.184  27.139  27.946  1.00  0.00     0.074 A 
ATOM     50  C   UNL A   1      41.068  26.791  29.097  1.00  0.00     0.049 A 
ATOM     51  N   UNL A   1      44.148  27.627  28.655  1.00  0.00    -0.248 NA
ATOM     52  C   UNL A   1      43.322  27.366  26.499  1.00  0.00     0.031 C 
ATOM     53  C   UNL A   1      39.746  26.239  29.399  1.00  0.00     0.029 A 
ATOM     54  N   UNL A   1      40.994  28.053  29.648  1.00  0.00    -0.354 N 
ATOM     55  C   UNL A   1      44.912  28.389  27.774  1.00  0.00     0.074 A 
ATOM     56  C   UNL A   1      44.465  28.048  26.450  1.00  0.00     0.031 C 
ATOM     57  C   UNL A   1      38.942  27.222  29.881  1.00  0.00     0.029 A 
ATOM     58  C   UNL A   1      39.718  28.441  30.060  1.00  0.00     0.049 A 
ATOM     59  H   UNL A   1      41.782  28.635  29.745  1.00  0.00     0.167 HD
ATOM     60  C   UNL A   1      45.702  29.406  28.210  1.00  0.00     0.037 A 
ATOM     61  C   UNL A   1      39.326  29.674  30.490  1.00  0.00     0.037 A 
ATOM     62  C   UNL A   1      45.935  29.317  29.628  1.00  0.00     0.049 A 
ATOM     63  C   UNL A   1      40.535  30.377  30.978  1.00  0.00     0.074 A 
ATOM     64  C   UNL A   1      46.559  28.428  30.480  1.00  0.00     0.029 A 
ATOM     65  N   UNL A   1      45.172  30.137  30.418  1.00  0.00    -0.354 N 
ATOM     66  N   UNL A   1      41.215  30.028  32.033  1.00  0.00    -0.248 NA
ATOM     67  C   UNL A   1      41.189  31.332  30.097  1.00  0.00     0.031 C 
ATOM     68  C   UNL A   1      45.829  28.499  31.703  1.00  0.00     0.029 A 
ATOM     69  C   UNL A   1      44.820  29.452  31.549  1.00  0.00     0.049 A 
ATOM     70  H   UNL A   1      44.919  31.065  30.206  1.00  0.00     0.167 HD
ATOM     71  C   UNL A   1      42.521  30.368  31.730  1.00  0.00     0.074 A 
ATOM     72  C   UNL A   1      42.422  31.290  30.605  1.00  0.00     0.031 C 
ATOM     73  C   UNL A   1      43.562  29.649  32.236  1.00  0.00     0.037 A 
BRANCH  60  74
ATOM     74  C   UNL A   1      45.911  30.701  27.449  1.00  0.00     0.058 A 
ATOM     75  C   UNL A   1      47.227  31.104  27.131  1.00  0.00     0.135 A 
ATOM     76  C   UNL A   1      44.921  31.698  27.297  1.00  0.00     0.135 A 
ATOM     77  F   UNL A   1      48.251  30.241  27.238  1.00  0.00    -0.206 F 
ATOM     78  C   UNL A   1      47.545  32.416  26.781  1.00  0.00     0.059 A 
ATOM     79  C   UNL A   1      45.209  32.998  26.897  1.00  0.00     0.059 A 
ATOM     80  F   UNL A   1      43.641  31.498  27.624  1.00  0.00    -0.206 F 
ATOM     81  C   UNL A   1      46.529  33.361  26.686  1.00  0.00     0.060 A 
BRANCH  81  82
ATOM     82  S   UNL A   1      46.947  35.080  26.355  1.00  0.00     0.124 S 
ATOM     83  O   UNL A   1      45.849  35.483  25.484  1.00  0.00    -0.237 OA
ATOM     84  O   UNL A   1      46.946  35.653  27.697  1.00  0.00    -0.237 OA
ATOM     85  O   UNL A   1      48.259  34.989  25.720  1.00  0.00    -0.744 OA
ENDBRANCH  81  82
ENDBRANCH  60  74
BRANCH  61  86
ATOM     86  C   UNL A   1      38.051  30.429  30.277  1.00  0.00     0.058 A 
ATOM     87  C   UNL A   1      37.296  30.926  31.364  1.00  0.00     0.135 A 
ATOM     88  C   UNL A   1      37.731  30.966  29.017  1.00  0.00     0.135 A 
ATOM     89  F   UNL A   1      37.531  30.484  32.609  1.00  0.00    -0.206 F 
ATOM     90  C   UNL A   1      36.344  31.946  31.220  1.00  0.00     0.059 A 
ATOM     91  C   UNL A   1      36.781  31.979  28.848  1.00  0.00     0.059 A 
ATOM     92  F   UNL A   1      38.407  30.590  27.922  1.00  0.00    -0.206 F 
ATOM     93  C   UNL A   1      36.113  32.487  29.958  1.00  0.00     0.060 A 
BRANCH  93  94
ATOM     94  S   UNL A   1      35.031  33.932  29.790  1.00  0.00     0.124 S 
ATOM     95  O   UNL A   1      35.138  34.547  31.109  1.00  0.00    -0.237 OA
ATOM     96  O   UNL A   1      35.659  34.663  28.695  1.00  0.00    -0.237 OA
ATOM     97  O   UNL A   1      33.730  33.346  29.480  1.00  0.00    -0.744 OA
ENDBRANCH  93  94
ENDBRANCH  61  86
BRANCH  73  98
ATOM     98  C   UNL A   1      43.326  28.838  33.480  1.00  0.00     0.058 A 
ATOM     99  C   UNL A   1      43.361  29.334  34.794  1.00  0.00     0.135 A 
ATOM    100  C   UNL A   1      42.921  27.504  33.305  1.00  0.00     0.135 A 
ATOM    101  F   UNL A   1      43.648  30.619  35.047  1.00  0.00    -0.206 F 
ATOM    102  C   UNL A   1      43.031  28.526  35.884  1.00  0.00     0.059 A 
ATOM    103  C   UNL A   1      42.548  26.697  34.372  1.00  0.00     0.059 A 
ATOM    104  F   UNL A   1      42.831  26.986  32.068  1.00  0.00    -0.206 F 
ATOM    105  C   UNL A   1      42.609  27.215  35.662  1.00  0.00     0.060 A 
BRANCH 105 106
ATOM    106  S   UNL A   1      42.058  26.223  37.066  1.00  0.00     0.124 S 
ATOM    107  O   UNL A   1      42.013  24.881  36.494  1.00  0.00    -0.237 OA
ATOM    108  O   UNL A   1      43.113  26.467  38.044  1.00  0.00    -0.237 OA
ATOM    109  O   UNL A   1      40.759  26.799  37.404  1.00  0.00    -0.744 OA
ENDBRANCH 105 106
ENDBRANCH  73  98
ENDBRANCH  47  48
ENDBRANCH  40  42
ENDBRANCH  39  40
ENDBRANCH  38  39
ENDBRANCH  37  38
ENDBRANCH  36  37
ENDBRANCH  35  36
ENDBRANCH  34  35
ENDBRANCH  33  34
ENDBRANCH   1  33
TORSDOF 28
ENDMDL
MODEL 2
REMARK VINA RESULT:      -9.4      6.148     11.782
REMARK SMILES CCn1c(C(=O)OCCOCCOCCOCCOC(=O)c2ccc(-c3c4nc(c(-c5c(F)cc(S(=O)(=O)[O-])cc5F)c5ccc([nH]5)c(-c5c(F)cc(S(=O)(=O)[O-])cc5F)c5nc(c(-c6c(F)cc(S(=O)(=O)[O-])cc6F)c6ccc3[nH]6)C=C5)C=C4)cc2)c(C[NH2+]Cc2ccccc2Cl)c2ccc(C)cc21
REMARK SMILES IDX 12 1 11 2 10 3 9 4 8 5 7 6 5 7 6 8 4 9 3 10 105 11 88 12
REMARK SMILES IDX 99 13 104 14 100 15 102 16 101 17 103 18 2 19 1 20 89 21
REMARK SMILES IDX 90 22 91 25 92 26 93 27 97 28 94 29 96 30 98 31 95 32 13 33
REMARK SMILES IDX 14 34 15 35 16 36 17 37 18 38 19 39 20 40 21 41 22 42 23 43
REMARK SMILES IDX 87 44 24 45 86 46 25 47 26 48 27 49 80 50 28 51 85 52 79 53
REMARK SMILES IDX 81 54 29 55 84 56 78 57 77 58 30 60 64 61 43 62 63 63 44 64
REMARK SMILES IDX 47 65 62 66 82 67 45 68 46 69 61 71 83 72 48 73 31 74 32 75
REMARK SMILES IDX 41 76 33 77 34 78 40 79 42 80 35 81 36 82 37 83 38 84 39 85
REMARK SMILES IDX 65 86 66 87 75 88 67 89 68 90 74 91 76 92 69 93 70 94 71 95
REMARK SMILES IDX 72 96 73 97 49 98 50 99 59 100 51 101 52 102 58 103 60 104
REMARK SMILES IDX 53 105 54 106 55 107 56 108 57 109
REMARK H PARENT 90 23 90 24 81 59 47 70
REMARK Flexibility Score: inf
ROOT
ATOM      1  C   UNL A   1      34.866  31.717  28.151  1.00  0.00     0.188 C 
ENDROOT
BRANCH   1   2
ATOM      2  C   UNL A   1      34.093  30.583  27.458  1.00  0.00     0.188 C 
BRANCH   2   3
ATOM      3  O   UNL A   1      32.711  30.820  27.266  1.00  0.00    -0.376 OA
BRANCH   3   4
ATOM      4  C   UNL A   1      31.807  29.823  26.828  1.00  0.00     0.202 C 
BRANCH   4   5
ATOM      5  C   UNL A   1      31.717  28.447  27.502  1.00  0.00     0.261 C 
BRANCH   5   6
ATOM      6  O   UNL A   1      32.282  27.359  26.783  1.00  0.00    -0.459 OA
BRANCH   6   7
ATOM      7  C   UNL A   1      31.480  26.305  26.455  1.00  0.00     0.355 C 
ATOM      8  O   UNL A   1      30.285  26.289  26.545  1.00  0.00    -0.244 OA
BRANCH   7   9
ATOM      9  C   UNL A   1      32.313  25.321  25.758  1.00  0.00     0.137 A 
ATOM     10  N   UNL A   1      32.424  23.980  26.110  1.00  0.00    -0.335 N 
ATOM     11  C   UNL A   1      33.441  23.393  25.360  1.00  0.00     0.049 A 
ATOM     12  C   UNL A   1      33.113  25.522  24.618  1.00  0.00     0.047 A 
ATOM     13  C   UNL A   1      33.867  24.324  24.417  1.00  0.00     0.009 A 
ATOM     14  C   UNL A   1      34.060  22.134  25.477  1.00  0.00     0.030 A 
ATOM     15  C   UNL A   1      34.936  23.981  23.560  1.00  0.00     0.011 A 
ATOM     16  C   UNL A   1      35.166  21.837  24.670  1.00  0.00    -0.049 A 
ATOM     17  C   UNL A   1      35.588  22.751  23.708  1.00  0.00     0.004 A 
ATOM     18  C   UNL A   1      35.887  20.539  24.881  1.00  0.00     0.044 C 
BRANCH  10  19
ATOM     19  C   UNL A   1      31.806  23.266  27.226  1.00  0.00     0.119 C 
ATOM     20  C   UNL A   1      30.392  22.709  27.149  1.00  0.00     0.027 C 
ENDBRANCH  10  19
BRANCH  12  21
ATOM     21  C   UNL A   1      33.352  26.810  23.857  1.00  0.00     0.300 C 
BRANCH  21  22
ATOM     22  N   UNL A   1      32.192  27.705  23.904  1.00  0.00    -0.339 N 
ATOM     23  H   UNL A   1      32.427  28.515  24.477  1.00  0.00     0.346 HD
ATOM     24  H   UNL A   1      31.411  27.181  24.299  1.00  0.00     0.346 HD
BRANCH  22  25
ATOM     25  C   UNL A   1      31.787  28.174  22.568  1.00  0.00     0.299 C 
BRANCH  25  26
ATOM     26  C   UNL A   1      30.346  28.642  22.494  1.00  0.00     0.025 A 
ATOM     27  C   UNL A   1      30.059  29.877  21.878  1.00  0.00     0.011 A 
ATOM     28  C   UNL A   1      29.272  27.926  23.053  1.00  0.00     0.049 A 
ATOM     29  C   UNL A   1      28.767  30.413  21.899  1.00  0.00     0.001 A 
ATOM     30  C   UNL A   1      28.000  28.499  23.137  1.00  0.00     0.021 A 
ATOM     31  Cl  UNL A   1      29.422  26.298  23.610  1.00  0.00    -0.084 Cl
ATOM     32  C   UNL A   1      27.747  29.746  22.569  1.00  0.00     0.002 A 
ENDBRANCH  25  26
ENDBRANCH  22  25
ENDBRANCH  21  22
ENDBRANCH  12  21
ENDBRANCH   7   9
ENDBRANCH   6   7
ENDBRANCH   5   6
ENDBRANCH   4   5
ENDBRANCH   3   4
ENDBRANCH   2   3
ENDBRANCH   1   2
BRANCH   1  33
ATOM     33  O   UNL A   1      34.867  32.970  27.501  1.00  0.00    -0.377 OA
BRANCH  33  34
ATOM     34  C   UNL A   1      34.970  34.053  28.407  1.00  0.00     0.188 C 
BRANCH  34  35
ATOM     35  C   UNL A   1      34.745  33.586  29.864  1.00  0.00     0.188 C 
BRANCH  35  36
ATOM     36  O   UNL A   1      35.685  33.936  30.876  1.00  0.00    -0.376 OA
BRANCH  36  37
ATOM     37  C   UNL A   1      36.281  32.896  31.632  1.00  0.00     0.202 C 
BRANCH  37  38
ATOM     38  C   UNL A   1      37.794  32.931  31.968  1.00  0.00     0.261 C 
BRANCH  38  39
ATOM     39  O   UNL A   1      38.671  32.229  31.064  1.00  0.00    -0.460 OA
BRANCH  39  40
ATOM     40  C   UNL A   1      38.917  32.752  29.833  1.00  0.00     0.338 C 
ATOM     41  O   UNL A   1      38.178  32.691  28.866  1.00  0.00    -0.246 OA
BRANCH  40  42
ATOM     42  C   UNL A   1      40.083  33.690  29.948  1.00  0.00     0.060 A 
ATOM     43  C   UNL A   1      39.957  35.069  29.757  1.00  0.00     0.016 A 
ATOM     44  C   UNL A   1      41.365  33.108  29.927  1.00  0.00     0.016 A 
ATOM     45  C   UNL A   1      41.091  35.821  29.420  1.00  0.00     0.010 A 
ATOM     46  C   UNL A   1      42.497  33.865  29.584  1.00  0.00     0.010 A 
ATOM     47  C   UNL A   1      42.369  35.224  29.300  1.00  0.00    -0.014 A 
BRANCH  47  48
ATOM     48  C   UNL A   1      43.544  36.124  29.193  1.00  0.00     0.031 A 
ATOM     49  C   UNL A   1      43.823  36.778  30.505  1.00  0.00     0.074 A 
ATOM     50  C   UNL A   1      44.451  36.305  28.201  1.00  0.00     0.049 A 
ATOM     51  N   UNL A   1      43.693  38.025  30.819  1.00  0.00    -0.248 NA
ATOM     52  C   UNL A   1      44.101  35.893  31.647  1.00  0.00     0.031 C 
ATOM     53  C   UNL A   1      44.598  35.570  26.944  1.00  0.00     0.029 A 
ATOM     54  N   UNL A   1      45.518  37.176  28.161  1.00  0.00    -0.354 N 
ATOM     55  C   UNL A   1      44.065  38.115  32.158  1.00  0.00     0.074 A 
ATOM     56  C   UNL A   1      44.129  36.765  32.653  1.00  0.00     0.031 C 
ATOM     57  C   UNL A   1      45.793  35.875  26.376  1.00  0.00     0.029 A 
ATOM     58  C   UNL A   1      46.442  36.928  27.144  1.00  0.00     0.049 A 
ATOM     59  H   UNL A   1      45.620  37.918  28.799  1.00  0.00     0.167 HD
ATOM     60  C   UNL A   1      44.506  39.281  32.700  1.00  0.00     0.037 A 
ATOM     61  C   UNL A   1      47.656  37.523  26.963  1.00  0.00     0.037 A 
ATOM     62  C   UNL A   1      44.166  40.407  31.869  1.00  0.00     0.049 A 
ATOM     63  C   UNL A   1      47.613  38.832  27.656  1.00  0.00     0.074 A 
ATOM     64  C   UNL A   1      43.002  41.011  31.441  1.00  0.00     0.029 A 
ATOM     65  N   UNL A   1      45.169  40.892  31.071  1.00  0.00    -0.354 N 
ATOM     66  N   UNL A   1      46.865  39.835  27.291  1.00  0.00    -0.248 NA
ATOM     67  C   UNL A   1      48.204  38.939  28.980  1.00  0.00     0.031 C 
ATOM     68  C   UNL A   1      43.297  41.527  30.144  1.00  0.00     0.029 A 
ATOM     69  C   UNL A   1      44.634  41.243  29.861  1.00  0.00     0.049 A 
ATOM     70  H   UNL A   1      46.117  40.973  31.325  1.00  0.00     0.167 HD
ATOM     71  C   UNL A   1      46.544  40.474  28.475  1.00  0.00     0.074 A 
ATOM     72  C   UNL A   1      47.505  39.974  29.450  1.00  0.00     0.031 C 
ATOM     73  C   UNL A   1      45.356  41.127  28.612  1.00  0.00     0.037 A 
BRANCH  60  74
ATOM     74  C   UNL A   1      45.598  39.367  33.748  1.00  0.00     0.058 A 
ATOM     75  C   UNL A   1      46.877  38.846  33.449  1.00  0.00     0.135 A 
ATOM     76  C   UNL A   1      45.365  39.648  35.114  1.00  0.00     0.135 A 
ATOM     77  F   UNL A   1      47.212  38.541  32.185  1.00  0.00    -0.206 F 
ATOM     78  C   UNL A   1      47.812  38.542  34.439  1.00  0.00     0.059 A 
ATOM     79  C   UNL A   1      46.303  39.403  36.109  1.00  0.00     0.059 A 
ATOM     80  F   UNL A   1      44.184  40.078  35.569  1.00  0.00    -0.206 F 
ATOM     81  C   UNL A   1      47.506  38.807  35.770  1.00  0.00     0.060 A 
BRANCH  81  82
ATOM     82  S   UNL A   1      48.657  38.305  37.059  1.00  0.00     0.124 S 
ATOM     83  O   UNL A   1      47.837  38.459  38.255  1.00  0.00    -0.237 OA
ATOM     84  O   UNL A   1      48.968  36.935  36.666  1.00  0.00    -0.237 OA
ATOM     85  O   UNL A   1      49.756  39.256  36.917  1.00  0.00    -0.744 OA
ENDBRANCH  81  82
ENDBRANCH  60  74
BRANCH  61  86
ATOM     86  C   UNL A   1      48.960  36.968  26.481  1.00  0.00     0.058 A 
ATOM     87  C   UNL A   1      49.690  36.028  27.245  1.00  0.00     0.135 A 
ATOM     88  C   UNL A   1      49.340  37.085  25.132  1.00  0.00     0.135 A 
ATOM     89  F   UNL A   1      49.398  35.835  28.540  1.00  0.00    -0.206 F 
ATOM     90  C   UNL A   1      50.677  35.203  26.685  1.00  0.00     0.059 A 
ATOM     91  C   UNL A   1      50.326  36.278  24.554  1.00  0.00     0.059 A 
ATOM     92  F   UNL A   1      48.692  37.921  24.309  1.00  0.00    -0.206 F 
ATOM     93  C   UNL A   1      50.969  35.317  25.329  1.00  0.00     0.060 A 
BRANCH  93  94
ATOM     94  S   UNL A   1      52.099  34.129  24.556  1.00  0.00     0.124 S 
ATOM     95  O   UNL A   1      51.273  32.929  24.477  1.00  0.00    -0.237 OA
ATOM     96  O   UNL A   1      52.405  34.775  23.285  1.00  0.00    -0.237 OA
ATOM     97  O   UNL A   1      53.212  34.058  25.499  1.00  0.00    -0.744 OA
ENDBRANCH  93  94
ENDBRANCH  61  86
BRANCH  73  98
ATOM     98  C   UNL A   1      44.643  41.574  27.365  1.00  0.00     0.058 A 
ATOM     99  C   UNL A   1      44.901  42.763  26.662  1.00  0.00     0.135 A 
ATOM    100  C   UNL A   1      43.732  40.672  26.793  1.00  0.00     0.135 A 
ATOM    101  F   UNL A   1      45.823  43.639  27.088  1.00  0.00    -0.206 F 
ATOM    102  C   UNL A   1      44.257  43.048  25.456  1.00  0.00     0.059 A 
ATOM    103  C   UNL A   1      43.112  40.917  25.574  1.00  0.00     0.059 A 
ATOM    104  F   UNL A   1      43.474  39.500  27.400  1.00  0.00    -0.206 F 
ATOM    105  C   UNL A   1      43.378  42.111  24.912  1.00  0.00     0.060 A 
BRANCH 105 106
ATOM    106  S   UNL A   1      42.653  42.430  23.290  1.00  0.00     0.124 S 
ATOM    107  O   UNL A   1      43.825  42.409  22.420  1.00  0.00    -0.237 OA
ATOM    108  O   UNL A   1      41.727  41.312  23.144  1.00  0.00    -0.237 OA
ATOM    109  O   UNL A   1      42.020  43.738  23.449  1.00  0.00    -0.744 OA
ENDBRANCH 105 106
ENDBRANCH  73  98
ENDBRANCH  47  48
ENDBRANCH  40  42
ENDBRANCH  39  40
ENDBRANCH  38  39
ENDBRANCH  37  38
ENDBRANCH  36  37
ENDBRANCH  35  36
ENDBRANCH  34  35
ENDBRANCH  33  34
ENDBRANCH   1  33
TORSDOF 28
ENDMDL
MODEL 3
REMARK VINA RESULT:      -8.8      3.973     10.255
REMARK SMILES CCn1c(C(=O)OCCOCCOCCOCCOC(=O)c2ccc(-c3c4nc(c(-c5c(F)cc(S(=O)(=O)[O-])cc5F)c5ccc([nH]5)c(-c5c(F)cc(S(=O)(=O)[O-])cc5F)c5nc(c(-c6c(F)cc(S(=O)(=O)[O-])cc6F)c6ccc3[nH]6)C=C5)C=C4)cc2)c(C[NH2+]Cc2ccccc2Cl)c2ccc(C)cc21
REMARK SMILES IDX 12 1 11 2 10 3 9 4 8 5 7 6 5 7 6 8 4 9 3 10 105 11 88 12
REMARK SMILES IDX 99 13 104 14 100 15 102 16 101 17 103 18 2 19 1 20 89 21
REMARK SMILES IDX 90 22 91 25 92 26 93 27 97 28 94 29 96 30 98 31 95 32 13 33
REMARK SMILES IDX 14 34 15 35 16 36 17 37 18 38 19 39 20 40 21 41 22 42 23 43
REMARK SMILES IDX 87 44 24 45 86 46 25 47 26 48 27 49 80 50 28 51 85 52 79 53
REMARK SMILES IDX 81 54 29 55 84 56 78 57 77 58 30 60 64 61 43 62 63 63 44 64
REMARK SMILES IDX 47 65 62 66 82 67 45 68 46 69 61 71 83 72 48 73 31 74 32 75
REMARK SMILES IDX 41 76 33 77 34 78 40 79 42 80 35 81 36 82 37 83 38 84 39 85
REMARK SMILES IDX 65 86 66 87 75 88 67 89 68 90 74 91 76 92 69 93 70 94 71 95
REMARK SMILES IDX 72 96 73 97 49 98 50 99 59 100 51 101 52 102 58 103 60 104
REMARK SMILES IDX 53 105 54 106 55 107 56 108 57 109
REMARK H PARENT 90 23 90 24 81 59 47 70
REMARK Flexibility Score: inf
ROOT
ATOM      1  C   UNL A   1      34.177  33.157  27.834  1.00  0.00     0.188 C 
ENDROOT
BRANCH   1   2
ATOM      2  C   UNL A   1      33.004  32.189  27.613  1.00  0.00     0.188 C 
BRANCH   2   3
ATOM      3  O   UNL A   1      33.307  31.033  26.853  1.00  0.00    -0.376 OA
BRANCH   3   4
ATOM      4  C   UNL A   1      33.595  29.776  27.436  1.00  0.00     0.202 C 
BRANCH   4   5
ATOM      5  C   UNL A   1      33.289  28.453  26.721  1.00  0.00     0.261 C 
BRANCH   5   6
ATOM      6  O   UNL A   1      34.056  28.178  25.556  1.00  0.00    -0.459 OA
BRANCH   6   7
ATOM      7  C   UNL A   1      33.431  27.624  24.477  1.00  0.00     0.355 C 
ATOM      8  O   UNL A   1      33.545  27.994  23.343  1.00  0.00    -0.244 OA
BRANCH   7   9
ATOM      9  C   UNL A   1      32.812  26.373  24.925  1.00  0.00     0.137 A 
ATOM     10  N   UNL A   1      31.443  26.167  25.061  1.00  0.00    -0.335 N 
ATOM     11  C   UNL A   1      31.225  24.942  25.688  1.00  0.00     0.049 A 
ATOM     12  C   UNL A   1      33.453  25.168  25.264  1.00  0.00     0.047 A 
ATOM     13  C   UNL A   1      32.454  24.298  25.806  1.00  0.00     0.009 A 
ATOM     14  C   UNL A   1      30.050  24.375  26.216  1.00  0.00     0.030 A 
ATOM     15  C   UNL A   1      32.506  23.047  26.460  1.00  0.00     0.011 A 
ATOM     16  C   UNL A   1      30.129  23.170  26.926  1.00  0.00    -0.049 A 
ATOM     17  C   UNL A   1      31.349  22.506  27.031  1.00  0.00     0.004 A 
ATOM     18  C   UNL A   1      28.890  22.633  27.579  1.00  0.00     0.044 C 
BRANCH  10  19
ATOM     19  C   UNL A   1      30.343  27.105  24.845  1.00  0.00     0.119 C 
ATOM     20  C   UNL A   1      29.911  27.541  23.453  1.00  0.00     0.027 C 
ENDBRANCH  10  19
BRANCH  12  21
ATOM     21  C   UNL A   1      34.939  24.874  25.300  1.00  0.00     0.300 C 
BRANCH  21  22
ATOM     22  N   UNL A   1      35.461  24.501  23.982  1.00  0.00    -0.339 N 
ATOM     23  H   UNL A   1      36.259  25.097  23.765  1.00  0.00     0.346 HD
ATOM     24  H   UNL A   1      34.709  24.622  23.304  1.00  0.00     0.346 HD
BRANCH  22  25
ATOM     25  C   UNL A   1      35.893  23.095  23.924  1.00  0.00     0.299 C 
BRANCH  25  26
ATOM     26  C   UNL A   1      34.747  22.106  23.814  1.00  0.00     0.025 A 
ATOM     27  C   UNL A   1      33.612  22.457  23.057  1.00  0.00     0.011 A 
ATOM     28  C   UNL A   1      34.736  20.862  24.471  1.00  0.00     0.049 A 
ATOM     29  C   UNL A   1      32.479  21.637  23.031  1.00  0.00     0.001 A 
ATOM     30  C   UNL A   1      33.575  20.083  24.503  1.00  0.00     0.021 A 
ATOM     31  Cl  UNL A   1      36.138  20.186  25.220  1.00  0.00    -0.084 Cl
ATOM     32  C   UNL A   1      32.443  20.473  23.792  1.00  0.00     0.002 A 
ENDBRANCH  25  26
ENDBRANCH  22  25
ENDBRANCH  21  22
ENDBRANCH  12  21
ENDBRANCH   7   9
ENDBRANCH   6   7
ENDBRANCH   5   6
ENDBRANCH   4   5
ENDBRANCH   3   4
ENDBRANCH   2   3
ENDBRANCH   1   2
BRANCH   1  33
ATOM     33  O   UNL A   1      35.425  32.578  28.146  1.00  0.00    -0.377 OA
BRANCH  33  34
ATOM     34  C   UNL A   1      35.731  32.652  29.526  1.00  0.00     0.188 C 
BRANCH  34  35
ATOM     35  C   UNL A   1      35.208  33.971  30.144  1.00  0.00     0.188 C 
BRANCH  35  36
ATOM     36  O   UNL A   1      34.158  33.937  31.106  1.00  0.00    -0.376 OA
BRANCH  36  37
ATOM     37  C   UNL A   1      34.503  33.872  32.479  1.00  0.00     0.202 C 
BRANCH  37  38
ATOM     38  C   UNL A   1      35.305  32.667  33.034  1.00  0.00     0.261 C 
BRANCH  38  39
ATOM     39  O   UNL A   1      36.735  32.829  33.119  1.00  0.00    -0.460 OA
BRANCH  39  40
ATOM     40  C   UNL A   1      37.420  32.201  34.111  1.00  0.00     0.338 C 
ATOM     41  O   UNL A   1      37.057  32.077  35.268  1.00  0.00    -0.246 OA
BRANCH  40  42
ATOM     42  C   UNL A   1      38.529  31.406  33.485  1.00  0.00     0.060 A 
ATOM     43  C   UNL A   1      38.358  30.086  33.060  1.00  0.00     0.016 A 
ATOM     44  C   UNL A   1      39.833  31.916  33.637  1.00  0.00     0.016 A 
ATOM     45  C   UNL A   1      39.482  29.259  32.922  1.00  0.00     0.010 A 
ATOM     46  C   UNL A   1      40.955  31.082  33.502  1.00  0.00     0.010 A 
ATOM     47  C   UNL A   1      40.791  29.738  33.170  1.00  0.00    -0.014 A 
BRANCH  47  48
ATOM     48  C   UNL A   1      41.928  28.880  32.756  1.00  0.00     0.031 A 
ATOM     49  C   UNL A   1      42.398  28.045  33.900  1.00  0.00     0.074 A 
ATOM     50  C   UNL A   1      42.465  28.623  31.537  1.00  0.00     0.049 A 
ATOM     51  N   UNL A   1      43.517  28.128  34.542  1.00  0.00    -0.248 NA
ATOM     52  C   UNL A   1      41.415  27.138  34.513  1.00  0.00     0.031 C 
ATOM     53  C   UNL A   1      42.000  29.056  30.218  1.00  0.00     0.029 A 
ATOM     54  N   UNL A   1      43.540  27.820  31.222  1.00  0.00    -0.354 N 
ATOM     55  C   UNL A   1      43.459  27.142  35.524  1.00  0.00     0.074 A 
ATOM     56  C   UNL A   1      42.092  26.696  35.572  1.00  0.00     0.031 C 
ATOM     57  C   UNL A   1      42.646  28.351  29.254  1.00  0.00     0.029 A 
ATOM     58  C   UNL A   1      43.670  27.516  29.866  1.00  0.00     0.049 A 
ATOM     59  H   UNL A   1      44.169  27.487  31.902  1.00  0.00     0.167 HD
ATOM     60  C   UNL A   1      44.585  26.611  36.071  1.00  0.00     0.037 A 
ATOM     61  C   UNL A   1      44.535  26.630  29.294  1.00  0.00     0.037 A 
ATOM     62  C   UNL A   1      45.734  27.440  35.811  1.00  0.00     0.049 A 
ATOM     63  C   UNL A   1      45.669  26.453  30.231  1.00  0.00     0.074 A 
ATOM     64  C   UNL A   1      46.136  28.716  36.147  1.00  0.00     0.029 A 
ATOM     65  N   UNL A   1      46.551  27.034  34.787  1.00  0.00    -0.354 N 
ATOM     66  N   UNL A   1      46.533  27.382  30.527  1.00  0.00    -0.248 NA
ATOM     67  C   UNL A   1      45.678  25.288  31.102  1.00  0.00     0.031 C 
ATOM     68  C   UNL A   1      46.914  29.172  35.041  1.00  0.00     0.029 A 
ATOM     69  C   UNL A   1      46.976  28.141  34.103  1.00  0.00     0.049 A 
ATOM     70  H   UNL A   1      46.791  26.103  34.579  1.00  0.00     0.167 HD
ATOM     71  C   UNL A   1      46.881  27.125  31.840  1.00  0.00     0.074 A 
ATOM     72  C   UNL A   1      46.443  25.757  32.089  1.00  0.00     0.031 C 
ATOM     73  C   UNL A   1      47.230  28.142  32.678  1.00  0.00     0.037 A 
BRANCH  60  74
ATOM     74  C   UNL A   1      44.728  25.155  36.467  1.00  0.00     0.058 A 
ATOM     75  C   UNL A   1      45.132  24.840  37.784  1.00  0.00     0.135 A 
ATOM     76  C   UNL A   1      44.790  24.086  35.545  1.00  0.00     0.135 A 
ATOM     77  F   UNL A   1      45.116  25.776  38.747  1.00  0.00    -0.206 F 
ATOM     78  C   UNL A   1      45.644  23.589  38.131  1.00  0.00     0.059 A 
ATOM     79  C   UNL A   1      45.245  22.817  35.883  1.00  0.00     0.059 A 
ATOM     80  F   UNL A   1      44.510  24.238  34.246  1.00  0.00    -0.206 F 
ATOM     81  C   UNL A   1      45.714  22.590  37.166  1.00  0.00     0.060 A 
BRANCH  81  82
ATOM     82  S   UNL A   1      46.485  21.016  37.577  1.00  0.00     0.124 S 
ATOM     83  O   UNL A   1      46.498  21.071  39.033  1.00  0.00    -0.237 OA
ATOM     84  O   UNL A   1      45.558  20.062  36.978  1.00  0.00    -0.237 OA
ATOM     85  O   UNL A   1      47.790  21.104  36.928  1.00  0.00    -0.744 OA
ENDBRANCH  81  82
ENDBRANCH  60  74
BRANCH  61  86
ATOM     86  C   UNL A   1      44.363  25.699  28.135  1.00  0.00     0.058 A 
ATOM     87  C   UNL A   1      44.726  26.079  26.822  1.00  0.00     0.135 A 
ATOM     88  C   UNL A   1      44.166  24.322  28.338  1.00  0.00     0.135 A 
ATOM     89  F   UNL A   1      44.946  27.370  26.528  1.00  0.00    -0.206 F 
ATOM     90  C   UNL A   1      44.955  25.146  25.801  1.00  0.00     0.059 A 
ATOM     91  C   UNL A   1      44.382  23.373  27.333  1.00  0.00     0.059 A 
ATOM     92  F   UNL A   1      43.853  23.847  29.552  1.00  0.00    -0.206 F 
ATOM     93  C   UNL A   1      44.807  23.789  26.075  1.00  0.00     0.060 A 
BRANCH  93  94
ATOM     94  S   UNL A   1      45.286  22.568  24.823  1.00  0.00     0.124 S 
ATOM     95  O   UNL A   1      46.114  23.364  23.923  1.00  0.00    -0.237 OA
ATOM     96  O   UNL A   1      45.991  21.569  25.619  1.00  0.00    -0.237 OA
ATOM     97  O   UNL A   1      44.007  22.130  24.270  1.00  0.00    -0.744 OA
ENDBRANCH  93  94
ENDBRANCH  61  86
BRANCH  73  98
ATOM     98  C   UNL A   1      47.715  29.429  32.070  1.00  0.00     0.058 A 
ATOM     99  C   UNL A   1      46.897  30.499  31.668  1.00  0.00     0.135 A 
ATOM    100  C   UNL A   1      49.105  29.622  32.011  1.00  0.00     0.135 A 
ATOM    101  F   UNL A   1      45.563  30.434  31.776  1.00  0.00    -0.206 F 
ATOM    102  C   UNL A   1      47.445  31.696  31.204  1.00  0.00     0.059 A 
ATOM    103  C   UNL A   1      49.670  30.821  31.592  1.00  0.00     0.059 A 
ATOM    104  F   UNL A   1      49.938  28.649  32.419  1.00  0.00    -0.206 F 
ATOM    105  C   UNL A   1      48.832  31.854  31.186  1.00  0.00     0.060 A 
BRANCH 105 106
ATOM    106  S   UNL A   1      49.524  33.451  30.711  1.00  0.00     0.124 S 
ATOM    107  O   UNL A   1      50.251  33.120  29.489  1.00  0.00    -0.237 OA
ATOM    108  O   UNL A   1      48.326  34.266  30.541  1.00  0.00    -0.237 OA
ATOM    109  O   UNL A   1      50.360  33.816  31.853  1.00  0.00    -0.744 OA
ENDBRANCH 105 106
ENDBRANCH  73  98
ENDBRANCH  47  48
ENDBRANCH  40  42
ENDBRANCH  39  40
ENDBRANCH  38  39
ENDBRANCH  37  38
ENDBRANCH  36  37
ENDBRANCH  35  36
ENDBRANCH  34  35
ENDBRANCH  33  34
ENDBRANCH   1  33
TORSDOF 28
ENDMDL
