MODEL 1
REMARK VINA RESULT:      -9.8      0.000      0.000
REMARK SMILES Cc1ccc2c(c1)C=C(C(=O)OCCOCCOCCOCCOC(=O)c1ccc(-c3c4nc(c(-c5c(F)cc(S(=O)(=O)[O-])cc5F)c5ccc([nH]5)c(-c5c(F)cc(S(=O)(=O)[O-])cc5F)c5nc(c(-c6c(F)cc(S(=O)(=O)[O-])cc6F)c6ccc3[nH]6)C=C5)C=C4)cc1)[C@@H](C(F)(F)F)O2
REMARK SMILES IDX 19 1 18 2 17 3 16 4 15 5 14 6 13 7 12 8 10 9 11 10 9 11 1 12
REMARK SMILES IDX 2 13 3 14 7 15 4 16 6 17 5 18 8 19 98 20 93 21 94 22 95 23
REMARK SMILES IDX 96 24 97 25 20 26 21 27 22 28 23 29 24 30 25 31 26 32 27 33
REMARK SMILES IDX 28 34 92 35 29 36 91 37 30 38 31 39 32 40 85 41 33 42 90 43
REMARK SMILES IDX 84 44 86 45 34 46 89 47 83 48 82 49 35 51 69 52 48 53 68 54
REMARK SMILES IDX 49 55 52 56 67 57 87 58 50 59 51 60 66 62 88 63 53 64 36 65
REMARK SMILES IDX 37 66 46 67 38 68 39 69 45 70 47 71 40 72 41 73 42 74 43 75
REMARK SMILES IDX 44 76 70 77 71 78 80 79 72 80 73 81 79 82 81 83 74 84 75 85
REMARK SMILES IDX 76 86 77 87 78 88 54 89 55 90 64 91 56 92 57 93 63 94 65 95
REMARK SMILES IDX 58 96 59 97 60 98 61 99 62 100
REMARK H PARENT 86 50 52 61
REMARK Flexibility Score: inf
ROOT
ATOM      1  C   UNL A   1      33.693  22.492  27.820  1.00  0.00     0.188 C 
ENDROOT
BRANCH   1   2
ATOM      2  O   UNL A   1      32.312  22.832  27.694  1.00  0.00    -0.377 OA
BRANCH   2   3
ATOM      3  C   UNL A   1      32.016  24.062  27.049  1.00  0.00     0.188 C 
BRANCH   3   4
ATOM      4  C   UNL A   1      31.045  23.877  25.869  1.00  0.00     0.188 C 
BRANCH   4   5
ATOM      5  O   UNL A   1      31.550  23.031  24.849  1.00  0.00    -0.376 OA
BRANCH   5   6
ATOM      6  C   UNL A   1      31.324  23.326  23.477  1.00  0.00     0.202 C 
BRANCH   6   7
ATOM      7  C   UNL A   1      32.312  24.083  22.566  1.00  0.00     0.261 C 
BRANCH   7   8
ATOM      8  O   UNL A   1      33.139  25.081  23.170  1.00  0.00    -0.460 OA
BRANCH   8   9
ATOM      9  C   UNL A   1      33.336  26.233  22.508  1.00  0.00     0.338 C 
ATOM     10  O   UNL A   1      33.538  26.369  21.314  1.00  0.00    -0.246 OA
BRANCH   9  11
ATOM     11  C   UNL A   1      33.071  27.336  23.461  1.00  0.00     0.087 C 
ATOM     12  C   UNL A   1      35.268  29.954  28.594  1.00  0.00     0.044 C 
ATOM     13  C   UNL A   1      34.357  29.771  27.418  1.00  0.00    -0.050 A 
ATOM     14  C   UNL A   1      33.216  30.570  27.281  1.00  0.00     0.007 A 
ATOM     15  C   UNL A   1      34.619  28.788  26.454  1.00  0.00     0.015 A 
ATOM     16  C   UNL A   1      32.361  30.398  26.191  1.00  0.00     0.047 A 
ATOM     17  C   UNL A   1      33.739  28.588  25.384  1.00  0.00     0.017 A 
ATOM     18  C   UNL A   1      32.623  29.409  25.242  1.00  0.00     0.128 A 
ATOM     19  C   UNL A   1      33.959  27.498  24.450  1.00  0.00     0.027 C 
ATOM     20  O   UNL A   1      31.729  29.310  24.217  1.00  0.00    -0.475 OA
ATOM     21  C   UNL A   1      31.896  28.256  23.226  1.00  0.00     0.316 C 
BRANCH  21  22
ATOM     22  C   UNL A   1      30.573  27.485  23.121  1.00  0.00     0.430 C 
ATOM     23  F   UNL A   1      29.510  28.319  23.204  1.00  0.00    -0.167 F 
ATOM     24  F   UNL A   1      30.465  26.823  21.947  1.00  0.00    -0.167 F 
ATOM     25  F   UNL A   1      30.450  26.572  24.113  1.00  0.00    -0.167 F 
ENDBRANCH  21  22
ENDBRANCH   9  11
ENDBRANCH   8   9
ENDBRANCH   7   8
ENDBRANCH   6   7
ENDBRANCH   5   6
ENDBRANCH   4   5
ENDBRANCH   3   4
ENDBRANCH   2   3
ENDBRANCH   1   2
BRANCH   1  26
ATOM     26  C   UNL A   1      34.298  21.381  26.932  1.00  0.00     0.188 C 
BRANCH  26  27
ATOM     27  O   UNL A   1      35.079  21.879  25.846  1.00  0.00    -0.376 OA
BRANCH  27  28
ATOM     28  C   UNL A   1      36.027  20.997  25.263  1.00  0.00     0.202 C 
BRANCH  28  29
ATOM     29  C   UNL A   1      37.441  21.575  25.130  1.00  0.00     0.261 C 
BRANCH  29  30
ATOM     30  O   UNL A   1      38.034  22.032  26.354  1.00  0.00    -0.460 OA
BRANCH  30  31
ATOM     31  C   UNL A   1      39.382  22.039  26.438  1.00  0.00     0.338 C 
ATOM     32  O   UNL A   1      40.146  21.165  26.067  1.00  0.00    -0.246 OA
BRANCH  31  33
ATOM     33  C   UNL A   1      39.790  23.387  26.889  1.00  0.00     0.060 A 
ATOM     34  C   UNL A   1      40.551  23.537  28.050  1.00  0.00     0.016 A 
ATOM     35  C   UNL A   1      39.383  24.509  26.157  1.00  0.00     0.016 A 
ATOM     36  C   UNL A   1      40.937  24.812  28.459  1.00  0.00     0.010 A 
ATOM     37  C   UNL A   1      39.774  25.787  26.565  1.00  0.00     0.010 A 
ATOM     38  C   UNL A   1      40.578  25.943  27.704  1.00  0.00    -0.014 A 
BRANCH  38  39
ATOM     39  C   UNL A   1      41.217  27.243  28.022  1.00  0.00     0.031 A 
ATOM     40  C   UNL A   1      40.446  28.400  28.579  1.00  0.00     0.074 A 
ATOM     41  C   UNL A   1      42.548  27.341  27.831  1.00  0.00     0.049 A 
ATOM     42  N   UNL A   1      40.904  29.524  29.066  1.00  0.00    -0.248 NA
ATOM     43  C   UNL A   1      38.982  28.291  28.582  1.00  0.00     0.031 C 
ATOM     44  C   UNL A   1      43.386  26.289  27.250  1.00  0.00     0.029 A 
ATOM     45  N   UNL A   1      43.431  28.347  28.125  1.00  0.00    -0.354 N 
ATOM     46  C   UNL A   1      39.789  30.248  29.466  1.00  0.00     0.074 A 
ATOM     47  C   UNL A   1      38.629  29.458  29.108  1.00  0.00     0.031 C 
ATOM     48  C   UNL A   1      44.668  26.685  27.277  1.00  0.00     0.029 A 
ATOM     49  C   UNL A   1      44.740  28.023  27.855  1.00  0.00     0.049 A 
ATOM     50  H   UNL A   1      43.155  29.217  28.494  1.00  0.00     0.167 HD
ATOM     51  C   UNL A   1      39.749  31.449  30.094  1.00  0.00     0.037 A 
ATOM     52  C   UNL A   1      45.875  28.714  28.069  1.00  0.00     0.037 A 
ATOM     53  C   UNL A   1      40.915  32.229  30.427  1.00  0.00     0.049 A 
ATOM     54  C   UNL A   1      45.798  30.058  28.734  1.00  0.00     0.074 A 
ATOM     55  C   UNL A   1      40.978  33.431  31.109  1.00  0.00     0.029 A 
ATOM     56  N   UNL A   1      42.219  31.895  30.089  1.00  0.00    -0.354 N 
ATOM     57  N   UNL A   1      44.745  30.683  29.203  1.00  0.00    -0.248 NA
ATOM     58  C   UNL A   1      47.059  30.793  28.901  1.00  0.00     0.031 C 
ATOM     59  C   UNL A   1      42.312  33.852  31.136  1.00  0.00     0.029 A 
ATOM     60  C   UNL A   1      43.089  32.888  30.514  1.00  0.00     0.049 A 
ATOM     61  H   UNL A   1      42.488  31.075  29.616  1.00  0.00     0.167 HD
ATOM     62  C   UNL A   1      45.216  31.880  29.730  1.00  0.00     0.074 A 
ATOM     63  C   UNL A   1      46.652  31.883  29.540  1.00  0.00     0.031 C 
ATOM     64  C   UNL A   1      44.518  32.884  30.313  1.00  0.00     0.037 A 
BRANCH  51  65
ATOM     65  C   UNL A   1      38.403  31.996  30.485  1.00  0.00     0.058 A 
ATOM     66  C   UNL A   1      37.825  31.687  31.727  1.00  0.00     0.135 A 
ATOM     67  C   UNL A   1      37.722  32.902  29.656  1.00  0.00     0.135 A 
ATOM     68  F   UNL A   1      38.432  30.823  32.558  1.00  0.00    -0.206 F 
ATOM     69  C   UNL A   1      36.613  32.241  32.126  1.00  0.00     0.059 A 
ATOM     70  C   UNL A   1      36.519  33.489  30.044  1.00  0.00     0.059 A 
ATOM     71  F   UNL A   1      38.230  33.238  28.460  1.00  0.00    -0.206 F 
ATOM     72  C   UNL A   1      35.969  33.143  31.277  1.00  0.00     0.060 A 
BRANCH  72  73
ATOM     73  S   UNL A   1      34.401  33.860  31.818  1.00  0.00     0.124 S 
ATOM     74  O   UNL A   1      34.859  35.035  32.554  1.00  0.00    -0.237 OA
ATOM     75  O   UNL A   1      33.729  34.128  30.551  1.00  0.00    -0.237 OA
ATOM     76  O   UNL A   1      33.806  32.805  32.632  1.00  0.00    -0.744 OA
ENDBRANCH  72  73
ENDBRANCH  51  65
BRANCH  52  77
ATOM     77  C   UNL A   1      47.179  28.115  27.686  1.00  0.00     0.058 A 
ATOM     78  C   UNL A   1      47.918  27.350  28.601  1.00  0.00     0.135 A 
ATOM     79  C   UNL A   1      47.689  28.254  26.386  1.00  0.00     0.135 A 
ATOM     80  F   UNL A   1      47.471  27.191  29.856  1.00  0.00    -0.206 F 
ATOM     81  C   UNL A   1      49.118  26.748  28.243  1.00  0.00     0.059 A 
ATOM     82  C   UNL A   1      48.875  27.640  25.996  1.00  0.00     0.059 A 
ATOM     83  F   UNL A   1      47.009  28.959  25.468  1.00  0.00    -0.206 F 
ATOM     84  C   UNL A   1      49.586  26.895  26.935  1.00  0.00     0.060 A 
BRANCH  84  85
ATOM     85  S   UNL A   1      51.118  26.060  26.470  1.00  0.00     0.124 S 
ATOM     86  O   UNL A   1      50.937  24.749  27.082  1.00  0.00    -0.237 OA
ATOM     87  O   UNL A   1      51.056  26.100  25.013  1.00  0.00    -0.237 OA
ATOM     88  O   UNL A   1      52.153  26.898  27.068  1.00  0.00    -0.744 OA
ENDBRANCH  84  85
ENDBRANCH  52  77
BRANCH  64  89
ATOM     89  C   UNL A   1      45.285  34.091  30.779  1.00  0.00     0.058 A 
ATOM     90  C   UNL A   1      45.433  35.219  29.958  1.00  0.00     0.135 A 
ATOM     91  C   UNL A   1      45.779  34.165  32.092  1.00  0.00     0.135 A 
ATOM     92  F   UNL A   1      44.991  35.195  28.690  1.00  0.00    -0.206 F 
ATOM     93  C   UNL A   1      46.038  36.381  30.424  1.00  0.00     0.059 A 
ATOM     94  C   UNL A   1      46.365  35.326  32.587  1.00  0.00     0.059 A 
ATOM     95  F   UNL A   1      45.659  33.113  32.919  1.00  0.00    -0.206 F 
ATOM     96  C   UNL A   1      46.487  36.431  31.745  1.00  0.00     0.060 A 
BRANCH  96  97
ATOM     97  S   UNL A   1      47.185  37.979  32.357  1.00  0.00     0.124 S 
ATOM     98  O   UNL A   1      48.386  37.512  33.041  1.00  0.00    -0.237 OA
ATOM     99  O   UNL A   1      47.408  38.727  31.124  1.00  0.00    -0.237 OA
ATOM    100  O   UNL A   1      46.136  38.508  33.224  1.00  0.00    -0.744 OA
ENDBRANCH  96  97
ENDBRANCH  64  89
ENDBRANCH  38  39
ENDBRANCH  31  33
ENDBRANCH  30  31
ENDBRANCH  29  30
ENDBRANCH  28  29
ENDBRANCH  27  28
ENDBRANCH  26  27
ENDBRANCH   1  26
TORSDOF 24
ENDMDL
MODEL 2
REMARK VINA RESULT:      -9.7      3.353      9.026
REMARK SMILES Cc1ccc2c(c1)C=C(C(=O)OCCOCCOCCOCCOC(=O)c1ccc(-c3c4nc(c(-c5c(F)cc(S(=O)(=O)[O-])cc5F)c5ccc([nH]5)c(-c5c(F)cc(S(=O)(=O)[O-])cc5F)c5nc(c(-c6c(F)cc(S(=O)(=O)[O-])cc6F)c6ccc3[nH]6)C=C5)C=C4)cc1)[C@@H](C(F)(F)F)O2
REMARK SMILES IDX 19 1 18 2 17 3 16 4 15 5 14 6 13 7 12 8 10 9 11 10 9 11 1 12
REMARK SMILES IDX 2 13 3 14 7 15 4 16 6 17 5 18 8 19 98 20 93 21 94 22 95 23
REMARK SMILES IDX 96 24 97 25 20 26 21 27 22 28 23 29 24 30 25 31 26 32 27 33
REMARK SMILES IDX 28 34 92 35 29 36 91 37 30 38 31 39 32 40 85 41 33 42 90 43
REMARK SMILES IDX 84 44 86 45 34 46 89 47 83 48 82 49 35 51 69 52 48 53 68 54
REMARK SMILES IDX 49 55 52 56 67 57 87 58 50 59 51 60 66 62 88 63 53 64 36 65
REMARK SMILES IDX 37 66 46 67 38 68 39 69 45 70 47 71 40 72 41 73 42 74 43 75
REMARK SMILES IDX 44 76 70 77 71 78 80 79 72 80 73 81 79 82 81 83 74 84 75 85
REMARK SMILES IDX 76 86 77 87 78 88 54 89 55 90 64 91 56 92 57 93 63 94 65 95
REMARK SMILES IDX 58 96 59 97 60 98 61 99 62 100
REMARK H PARENT 86 50 52 61
REMARK Flexibility Score: inf
ROOT
ATOM      1  C   UNL A   1      35.428  34.195  29.021  1.00  0.00     0.188 C 
ENDROOT
BRANCH   1   2
ATOM      2  O   UNL A   1      35.103  33.485  27.826  1.00  0.00    -0.377 OA
BRANCH   2   3
ATOM      3  C   UNL A   1      34.399  32.261  27.985  1.00  0.00     0.188 C 
BRANCH   3   4
ATOM      4  C   UNL A   1      35.130  31.083  27.318  1.00  0.00     0.188 C 
BRANCH   4   5
ATOM      5  O   UNL A   1      35.060  29.879  28.064  1.00  0.00    -0.376 OA
BRANCH   5   6
ATOM      6  C   UNL A   1      34.734  28.647  27.434  1.00  0.00     0.202 C 
BRANCH   6   7
ATOM      7  C   UNL A   1      33.448  28.387  26.624  1.00  0.00     0.261 C 
BRANCH   7   8
ATOM      8  O   UNL A   1      33.551  28.390  25.198  1.00  0.00    -0.460 OA
BRANCH   8   9
ATOM      9  C   UNL A   1      33.127  27.307  24.525  1.00  0.00     0.338 C 
ATOM     10  O   UNL A   1      33.711  26.246  24.400  1.00  0.00    -0.246 OA
BRANCH   9  11
ATOM     11  C   UNL A   1      31.725  27.566  24.119  1.00  0.00     0.087 C 
ATOM     12  C   UNL A   1      28.179  31.744  21.292  1.00  0.00     0.044 C 
ATOM     13  C   UNL A   1      28.512  30.457  21.984  1.00  0.00    -0.050 A 
ATOM     14  C   UNL A   1      27.495  29.559  22.330  1.00  0.00     0.007 A 
ATOM     15  C   UNL A   1      29.838  30.143  22.315  1.00  0.00     0.015 A 
ATOM     16  C   UNL A   1      27.801  28.363  22.980  1.00  0.00     0.047 A 
ATOM     17  C   UNL A   1      30.139  28.963  23.005  1.00  0.00     0.017 A 
ATOM     18  C   UNL A   1      29.122  28.064  23.316  1.00  0.00     0.128 A 
ATOM     19  C   UNL A   1      31.499  28.696  23.439  1.00  0.00     0.027 C 
ATOM     20  O   UNL A   1      29.324  26.877  23.958  1.00  0.00    -0.475 OA
ATOM     21  C   UNL A   1      30.666  26.528  24.403  1.00  0.00     0.316 C 
BRANCH  21  22
ATOM     22  C   UNL A   1      30.596  26.169  25.894  1.00  0.00     0.430 C 
ATOM     23  F   UNL A   1      30.709  27.272  26.671  1.00  0.00    -0.167 F 
ATOM     24  F   UNL A   1      29.425  25.577  26.217  1.00  0.00    -0.167 F 
ATOM     25  F   UNL A   1      31.589  25.321  26.247  1.00  0.00    -0.167 F 
ENDBRANCH  21  22
ENDBRANCH   9  11
ENDBRANCH   8   9
ENDBRANCH   7   8
ENDBRANCH   6   7
ENDBRANCH   5   6
ENDBRANCH   4   5
ENDBRANCH   3   4
ENDBRANCH   2   3
ENDBRANCH   1   2
BRANCH   1  26
ATOM     26  C   UNL A   1      34.340  34.448  30.089  1.00  0.00     0.188 C 
BRANCH  26  27
ATOM     27  O   UNL A   1      34.731  34.064  31.406  1.00  0.00    -0.376 OA
BRANCH  27  28
ATOM     28  C   UNL A   1      34.634  32.688  31.743  1.00  0.00     0.202 C 
BRANCH  28  29
ATOM     29  C   UNL A   1      35.967  32.026  32.116  1.00  0.00     0.261 C 
BRANCH  29  30
ATOM     30  O   UNL A   1      36.726  31.511  31.014  1.00  0.00    -0.460 OA
BRANCH  30  31
ATOM     31  C   UNL A   1      37.072  30.206  31.041  1.00  0.00     0.338 C 
ATOM     32  O   UNL A   1      36.363  29.264  31.349  1.00  0.00    -0.246 OA
BRANCH  31  33
ATOM     33  C   UNL A   1      38.419  30.094  30.441  1.00  0.00     0.060 A 
ATOM     34  C   UNL A   1      39.532  29.868  31.253  1.00  0.00     0.016 A 
ATOM     35  C   UNL A   1      38.569  30.244  29.056  1.00  0.00     0.016 A 
ATOM     36  C   UNL A   1      40.794  29.754  30.674  1.00  0.00     0.010 A 
ATOM     37  C   UNL A   1      39.835  30.126  28.476  1.00  0.00     0.010 A 
ATOM     38  C   UNL A   1      40.952  29.852  29.279  1.00  0.00    -0.014 A 
BRANCH  38  39
ATOM     39  C   UNL A   1      42.255  29.473  28.682  1.00  0.00     0.031 A 
ATOM     40  C   UNL A   1      43.403  30.430  28.590  1.00  0.00     0.074 A 
ATOM     41  C   UNL A   1      42.393  28.202  28.254  1.00  0.00     0.049 A 
ATOM     42  N   UNL A   1      44.644  30.183  28.259  1.00  0.00    -0.248 NA
ATOM     43  C   UNL A   1      43.128  31.839  28.896  1.00  0.00     0.031 C 
ATOM     44  C   UNL A   1      41.321  27.202  28.255  1.00  0.00     0.029 A 
ATOM     45  N   UNL A   1      43.480  27.526  27.766  1.00  0.00    -0.354 N 
ATOM     46  C   UNL A   1      45.311  31.397  28.346  1.00  0.00     0.074 A 
ATOM     47  C   UNL A   1      44.320  32.392  28.704  1.00  0.00     0.031 C 
ATOM     48  C   UNL A   1      41.819  26.027  27.839  1.00  0.00     0.029 A 
ATOM     49  C   UNL A   1      43.233  26.195  27.522  1.00  0.00     0.049 A 
ATOM     50  H   UNL A   1      44.354  27.952  27.607  1.00  0.00     0.167 HD
ATOM     51  C   UNL A   1      46.631  31.645  28.166  1.00  0.00     0.037 A 
ATOM     52  C   UNL A   1      44.056  25.213  27.110  1.00  0.00     0.037 A 
ATOM     53  C   UNL A   1      47.600  30.643  27.794  1.00  0.00     0.049 A 
ATOM     54  C   UNL A   1      45.508  25.523  26.883  1.00  0.00     0.074 A 
ATOM     55  C   UNL A   1      48.968  30.787  27.639  1.00  0.00     0.029 A 
ATOM     56  N   UNL A   1      47.304  29.319  27.500  1.00  0.00    -0.354 N 
ATOM     57  N   UNL A   1      46.146  26.654  27.073  1.00  0.00    -0.248 NA
ATOM     58  C   UNL A   1      46.355  24.430  26.387  1.00  0.00     0.031 C 
ATOM     59  C   UNL A   1      49.491  29.567  27.200  1.00  0.00     0.029 A 
ATOM     60  C   UNL A   1      48.458  28.647  27.128  1.00  0.00     0.049 A 
ATOM     61  H   UNL A   1      46.408  28.917  27.549  1.00  0.00     0.167 HD
ATOM     62  C   UNL A   1      47.469  26.407  26.730  1.00  0.00     0.074 A 
ATOM     63  C   UNL A   1      47.546  25.013  26.339  1.00  0.00     0.031 C 
ATOM     64  C   UNL A   1      48.521  27.260  26.734  1.00  0.00     0.037 A 
BRANCH  51  65
ATOM     65  C   UNL A   1      47.123  33.050  28.387  1.00  0.00     0.058 A 
ATOM     66  C   UNL A   1      47.589  33.469  29.643  1.00  0.00     0.135 A 
ATOM     67  C   UNL A   1      47.211  33.960  27.321  1.00  0.00     0.135 A 
ATOM     68  F   UNL A   1      47.525  32.640  30.698  1.00  0.00    -0.206 F 
ATOM     69  C   UNL A   1      48.108  34.744  29.840  1.00  0.00     0.059 A 
ATOM     70  C   UNL A   1      47.749  35.234  27.489  1.00  0.00     0.059 A 
ATOM     71  F   UNL A   1      46.785  33.612  26.096  1.00  0.00    -0.206 F 
ATOM     72  C   UNL A   1      48.185  35.620  28.755  1.00  0.00     0.060 A 
BRANCH  72  73
ATOM     73  S   UNL A   1      48.872  37.267  29.030  1.00  0.00     0.124 S 
ATOM     74  O   UNL A   1      50.085  36.955  29.779  1.00  0.00    -0.237 OA
ATOM     75  O   UNL A   1      49.076  37.750  27.667  1.00  0.00    -0.237 OA
ATOM     76  O   UNL A   1      47.828  37.952  29.786  1.00  0.00    -0.744 OA
ENDBRANCH  72  73
ENDBRANCH  51  65
BRANCH  52  77
ATOM     77  C   UNL A   1      43.523  23.838  26.933  1.00  0.00     0.058 A 
ATOM     78  C   UNL A   1      43.317  22.998  28.037  1.00  0.00     0.135 A 
ATOM     79  C   UNL A   1      43.165  23.355  25.665  1.00  0.00     0.135 A 
ATOM     80  F   UNL A   1      43.645  23.416  29.268  1.00  0.00    -0.206 F 
ATOM     81  C   UNL A   1      42.778  21.724  27.889  1.00  0.00     0.059 A 
ATOM     82  C   UNL A   1      42.602  22.095  25.495  1.00  0.00     0.059 A 
ATOM     83  F   UNL A   1      43.325  24.129  24.580  1.00  0.00    -0.206 F 
ATOM     84  C   UNL A   1      42.418  21.284  26.614  1.00  0.00     0.060 A 
BRANCH  84  85
ATOM     85  S   UNL A   1      41.668  19.650  26.447  1.00  0.00     0.124 S 
ATOM     86  O   UNL A   1      42.032  19.028  27.715  1.00  0.00    -0.237 OA
ATOM     87  O   UNL A   1      40.257  19.979  26.278  1.00  0.00    -0.237 OA
ATOM     88  O   UNL A   1      42.323  19.099  25.264  1.00  0.00    -0.744 OA
ENDBRANCH  84  85
ENDBRANCH  52  77
BRANCH  64  89
ATOM     89  C   UNL A   1      49.856  26.728  26.288  1.00  0.00     0.058 A 
ATOM     90  C   UNL A   1      50.298  26.893  24.967  1.00  0.00     0.135 A 
ATOM     91  C   UNL A   1      50.743  26.150  27.211  1.00  0.00     0.135 A 
ATOM     92  F   UNL A   1      49.484  27.427  24.043  1.00  0.00    -0.206 F 
ATOM     93  C   UNL A   1      51.577  26.510  24.577  1.00  0.00     0.059 A 
ATOM     94  C   UNL A   1      52.035  25.783  26.849  1.00  0.00     0.059 A 
ATOM     95  F   UNL A   1      50.369  25.973  28.488  1.00  0.00    -0.206 F 
ATOM     96  C   UNL A   1      52.444  25.970  25.528  1.00  0.00     0.060 A 
BRANCH  96  97
ATOM     97  S   UNL A   1      54.129  25.565  25.023  1.00  0.00     0.124 S 
ATOM     98  O   UNL A   1      54.207  26.200  23.712  1.00  0.00    -0.237 OA
ATOM     99  O   UNL A   1      54.926  26.186  26.077  1.00  0.00    -0.237 OA
ATOM    100  O   UNL A   1      54.142  24.104  25.013  1.00  0.00    -0.744 OA
ENDBRANCH  96  97
ENDBRANCH  64  89
ENDBRANCH  38  39
ENDBRANCH  31  33
ENDBRANCH  30  31
ENDBRANCH  29  30
ENDBRANCH  28  29
ENDBRANCH  27  28
ENDBRANCH  26  27
ENDBRANCH   1  26
TORSDOF 24
ENDMDL
MODEL 3
REMARK VINA RESULT:      -9.5      3.019      9.177
REMARK SMILES Cc1ccc2c(c1)C=C(C(=O)OCCOCCOCCOCCOC(=O)c1ccc(-c3c4nc(c(-c5c(F)cc(S(=O)(=O)[O-])cc5F)c5ccc([nH]5)c(-c5c(F)cc(S(=O)(=O)[O-])cc5F)c5nc(c(-c6c(F)cc(S(=O)(=O)[O-])cc6F)c6ccc3[nH]6)C=C5)C=C4)cc1)[C@@H](C(F)(F)F)O2
REMARK SMILES IDX 19 1 18 2 17 3 16 4 15 5 14 6 13 7 12 8 10 9 11 10 9 11 1 12
REMARK SMILES IDX 2 13 3 14 7 15 4 16 6 17 5 18 8 19 98 20 93 21 94 22 95 23
REMARK SMILES IDX 96 24 97 25 20 26 21 27 22 28 23 29 24 30 25 31 26 32 27 33
REMARK SMILES IDX 28 34 92 35 29 36 91 37 30 38 31 39 32 40 85 41 33 42 90 43
REMARK SMILES IDX 84 44 86 45 34 46 89 47 83 48 82 49 35 51 69 52 48 53 68 54
REMARK SMILES IDX 49 55 52 56 67 57 87 58 50 59 51 60 66 62 88 63 53 64 36 65
REMARK SMILES IDX 37 66 46 67 38 68 39 69 45 70 47 71 40 72 41 73 42 74 43 75
REMARK SMILES IDX 44 76 70 77 71 78 80 79 72 80 73 81 79 82 81 83 74 84 75 85
REMARK SMILES IDX 76 86 77 87 78 88 54 89 55 90 64 91 56 92 57 93 63 94 65 95
REMARK SMILES IDX 58 96 59 97 60 98 61 99 62 100
REMARK H PARENT 86 50 52 61
REMARK Flexibility Score: inf
ROOT
ATOM      1  C   UNL A   1      35.631  34.009  29.128  1.00  0.00     0.188 C 
ENDROOT
BRANCH   1   2
ATOM      2  O   UNL A   1      35.209  33.389  27.914  1.00  0.00    -0.377 OA
BRANCH   2   3
ATOM      3  C   UNL A   1      34.015  32.622  27.972  1.00  0.00     0.188 C 
BRANCH   3   4
ATOM      4  C   UNL A   1      34.283  31.119  27.769  1.00  0.00     0.188 C 
BRANCH   4   5
ATOM      5  O   UNL A   1      33.262  30.457  27.042  1.00  0.00    -0.376 OA
BRANCH   5   6
ATOM      6  C   UNL A   1      33.577  29.430  26.110  1.00  0.00     0.202 C 
BRANCH   6   7
ATOM      7  C   UNL A   1      33.067  27.978  26.197  1.00  0.00     0.261 C 
BRANCH   7   8
ATOM      8  O   UNL A   1      32.005  27.594  25.319  1.00  0.00    -0.460 OA
BRANCH   8   9
ATOM      9  C   UNL A   1      32.277  26.727  24.330  1.00  0.00     0.338 C 
ATOM     10  O   UNL A   1      32.247  26.946  23.133  1.00  0.00    -0.246 OA
BRANCH   9  11
ATOM     11  C   UNL A   1      32.813  25.497  24.962  1.00  0.00     0.087 C 
ATOM     12  C   UNL A   1      37.682  21.716  24.870  1.00  0.00     0.044 C 
ATOM     13  C   UNL A   1      36.357  22.251  25.323  1.00  0.00    -0.050 A 
ATOM     14  C   UNL A   1      35.594  21.541  26.258  1.00  0.00     0.007 A 
ATOM     15  C   UNL A   1      35.854  23.451  24.804  1.00  0.00     0.015 A 
ATOM     16  C   UNL A   1      34.357  22.033  26.677  1.00  0.00     0.047 A 
ATOM     17  C   UNL A   1      34.594  23.922  25.193  1.00  0.00     0.017 A 
ATOM     18  C   UNL A   1      33.857  23.223  26.146  1.00  0.00     0.128 A 
ATOM     19  C   UNL A   1      34.032  25.108  24.571  1.00  0.00     0.027 C 
ATOM     20  O   UNL A   1      32.637  23.620  26.609  1.00  0.00    -0.475 OA
ATOM     21  C   UNL A   1      32.019  24.814  26.050  1.00  0.00     0.316 C 
BRANCH  21  22
ATOM     22  C   UNL A   1      30.602  24.447  25.586  1.00  0.00     0.430 C 
ATOM     23  F   UNL A   1      29.849  25.553  25.385  1.00  0.00    -0.167 F 
ATOM     24  F   UNL A   1      30.614  23.759  24.423  1.00  0.00    -0.167 F 
ATOM     25  F   UNL A   1      29.963  23.683  26.502  1.00  0.00    -0.167 F 
ENDBRANCH  21  22
ENDBRANCH   9  11
ENDBRANCH   8   9
ENDBRANCH   7   8
ENDBRANCH   6   7
ENDBRANCH   5   6
ENDBRANCH   4   5
ENDBRANCH   3   4
ENDBRANCH   2   3
ENDBRANCH   1   2
BRANCH   1  26
ATOM     26  C   UNL A   1      34.579  34.534  30.132  1.00  0.00     0.188 C 
BRANCH  26  27
ATOM     27  O   UNL A   1      34.789  34.081  31.469  1.00  0.00    -0.376 OA
BRANCH  27  28
ATOM     28  C   UNL A   1      34.669  32.687  31.714  1.00  0.00     0.202 C 
BRANCH  28  29
ATOM     29  C   UNL A   1      35.897  32.047  32.374  1.00  0.00     0.261 C 
BRANCH  29  30
ATOM     30  O   UNL A   1      36.958  31.689  31.479  1.00  0.00    -0.460 OA
BRANCH  30  31
ATOM     31  C   UNL A   1      37.116  30.382  31.177  1.00  0.00     0.338 C 
ATOM     32  O   UNL A   1      36.278  29.502  31.260  1.00  0.00    -0.246 OA
BRANCH  31  33
ATOM     33  C   UNL A   1      38.441  30.234  30.537  1.00  0.00     0.060 A 
ATOM     34  C   UNL A   1      39.593  30.145  31.322  1.00  0.00     0.016 A 
ATOM     35  C   UNL A   1      38.531  30.211  29.139  1.00  0.00     0.016 A 
ATOM     36  C   UNL A   1      40.834  29.996  30.707  1.00  0.00     0.010 A 
ATOM     37  C   UNL A   1      39.777  30.058  28.524  1.00  0.00     0.010 A 
ATOM     38  C   UNL A   1      40.933  29.921  29.306  1.00  0.00    -0.014 A 
BRANCH  38  39
ATOM     39  C   UNL A   1      42.224  29.506  28.705  1.00  0.00     0.031 A 
ATOM     40  C   UNL A   1      43.396  30.433  28.608  1.00  0.00     0.074 A 
ATOM     41  C   UNL A   1      42.327  28.232  28.279  1.00  0.00     0.049 A 
ATOM     42  N   UNL A   1      44.629  30.153  28.273  1.00  0.00    -0.248 NA
ATOM     43  C   UNL A   1      43.159  31.850  28.912  1.00  0.00     0.031 C 
ATOM     44  C   UNL A   1      41.230  27.260  28.286  1.00  0.00     0.029 A 
ATOM     45  N   UNL A   1      43.395  27.526  27.789  1.00  0.00    -0.354 N 
ATOM     46  C   UNL A   1      45.328  31.349  28.356  1.00  0.00     0.074 A 
ATOM     47  C   UNL A   1      44.365  32.370  28.715  1.00  0.00     0.031 C 
ATOM     48  C   UNL A   1      41.695  26.071  27.870  1.00  0.00     0.029 A 
ATOM     49  C   UNL A   1      43.112  26.203  27.548  1.00  0.00     0.049 A 
ATOM     50  H   UNL A   1      44.279  27.929  27.626  1.00  0.00     0.167 HD
ATOM     51  C   UNL A   1      46.654  31.563  28.171  1.00  0.00     0.037 A 
ATOM     52  C   UNL A   1      43.908  25.199  27.135  1.00  0.00     0.037 A 
ATOM     53  C   UNL A   1      47.595  30.536  27.797  1.00  0.00     0.049 A 
ATOM     54  C   UNL A   1      45.367  25.470  26.902  1.00  0.00     0.074 A 
ATOM     55  C   UNL A   1      48.965  30.643  27.637  1.00  0.00     0.029 A 
ATOM     56  N   UNL A   1      47.264  29.219  27.507  1.00  0.00    -0.354 N 
ATOM     57  N   UNL A   1      46.034  26.584  27.088  1.00  0.00    -0.248 NA
ATOM     58  C   UNL A   1      46.183  24.355  26.405  1.00  0.00     0.031 C 
ATOM     59  C   UNL A   1      49.455  29.409  27.199  1.00  0.00     0.029 A 
ATOM     60  C   UNL A   1      48.398  28.516  27.132  1.00  0.00     0.049 A 
ATOM     61  H   UNL A   1      46.357  28.841  27.559  1.00  0.00     0.167 HD
ATOM     62  C   UNL A   1      47.350  26.302  26.741  1.00  0.00     0.074 A 
ATOM     63  C   UNL A   1      47.389  24.906  26.353  1.00  0.00     0.031 C 
ATOM     64  C   UNL A   1      48.424  27.128  26.740  1.00  0.00     0.037 A 
BRANCH  51  65
ATOM     65  C   UNL A   1      47.182  32.955  28.387  1.00  0.00     0.058 A 
ATOM     66  C   UNL A   1      47.656  33.366  29.643  1.00  0.00     0.135 A 
ATOM     67  C   UNL A   1      47.298  33.858  27.318  1.00  0.00     0.135 A 
ATOM     68  F   UNL A   1      47.567  32.543  30.701  1.00  0.00    -0.206 F 
ATOM     69  C   UNL A   1      48.209  34.628  29.837  1.00  0.00     0.059 A 
ATOM     70  C   UNL A   1      47.869  35.118  27.482  1.00  0.00     0.059 A 
ATOM     71  F   UNL A   1      46.866  33.516  26.094  1.00  0.00    -0.206 F 
ATOM     72  C   UNL A   1      48.313  35.496  28.749  1.00  0.00     0.060 A 
BRANCH  72  73
ATOM     73  S   UNL A   1      49.043  37.126  29.019  1.00  0.00     0.124 S 
ATOM     74  O   UNL A   1      49.731  37.350  27.751  1.00  0.00    -0.237 OA
ATOM     75  O   UNL A   1      47.867  37.958  29.256  1.00  0.00    -0.237 OA
ATOM     76  O   UNL A   1      49.911  36.925  30.174  1.00  0.00    -0.744 OA
ENDBRANCH  72  73
ENDBRANCH  51  65
BRANCH  52  77
ATOM     77  C   UNL A   1      43.339  23.838  26.962  1.00  0.00     0.058 A 
ATOM     78  C   UNL A   1      43.040  23.338  25.686  1.00  0.00     0.135 A 
ATOM     79  C   UNL A   1      43.128  22.993  28.063  1.00  0.00     0.135 A 
ATOM     80  F   UNL A   1      43.223  24.109  24.605  1.00  0.00    -0.206 F 
ATOM     81  C   UNL A   1      42.547  22.050  25.508  1.00  0.00     0.059 A 
ATOM     82  C   UNL A   1      42.660  21.692  27.908  1.00  0.00     0.059 A 
ATOM     83  F   UNL A   1      43.417  23.418  29.303  1.00  0.00    -0.206 F 
ATOM     84  C   UNL A   1      42.366  21.232  26.625  1.00  0.00     0.060 A 
BRANCH  84  85
ATOM     85  S   UNL A   1      41.779  19.544  26.371  1.00  0.00     0.124 S 
ATOM     86  O   UNL A   1      42.479  19.170  25.147  1.00  0.00    -0.237 OA
ATOM     87  O   UNL A   1      42.226  18.880  27.591  1.00  0.00    -0.237 OA
ATOM     88  O   UNL A   1      40.334  19.705  26.247  1.00  0.00    -0.744 OA
ENDBRANCH  84  85
ENDBRANCH  52  77
BRANCH  64  89
ATOM     89  C   UNL A   1      49.743  26.560  26.291  1.00  0.00     0.058 A 
ATOM     90  C   UNL A   1      50.187  26.717  24.969  1.00  0.00     0.135 A 
ATOM     91  C   UNL A   1      50.615  25.955  27.210  1.00  0.00     0.135 A 
ATOM     92  F   UNL A   1      49.387  27.276  24.048  1.00  0.00    -0.206 F 
ATOM     93  C   UNL A   1      51.455  26.300  24.576  1.00  0.00     0.059 A 
ATOM     94  C   UNL A   1      51.896  25.553  26.845  1.00  0.00     0.059 A 
ATOM     95  F   UNL A   1      50.238  25.785  28.488  1.00  0.00    -0.206 F 
ATOM     96  C   UNL A   1      52.308  25.733  25.525  1.00  0.00     0.060 A 
BRANCH  96  97
ATOM     97  S   UNL A   1      53.980  25.283  25.016  1.00  0.00     0.124 S 
ATOM     98  O   UNL A   1      53.895  23.827  24.970  1.00  0.00    -0.237 OA
ATOM     99  O   UNL A   1      54.101  25.952  23.724  1.00  0.00    -0.237 OA
ATOM    100  O   UNL A   1      54.820  25.828  26.080  1.00  0.00    -0.744 OA
ENDBRANCH  96  97
ENDBRANCH  64  89
ENDBRANCH  38  39
ENDBRANCH  31  33
ENDBRANCH  30  31
ENDBRANCH  29  30
ENDBRANCH  28  29
ENDBRANCH  27  28
ENDBRANCH  26  27
ENDBRANCH   1  26
TORSDOF 24
ENDMDL
