MODEL 1
REMARK VINA RESULT:      -9.8      0.000      0.000
REMARK SMILES O=C(OCCOCCOCCOCCOC(=O)[C@@H]1C[NH2+]C[C@H](c2ccc(F)cc2)C1)c1ccc(-c2c3nc(c(-c4c(F)cc(S(=O)(=O)[O-])cc4F)c4ccc([nH]4)c(-c4c(F)cc(S(=O)(=O)[O-])cc4F)c4nc(c(-c5c(F)cc(S(=O)(=O)[O-])cc5F)c5ccc2[nH]5)C=C4)C=C3)cc1
REMARK SMILES IDX 8 1 7 2 6 3 5 4 4 5 3 6 2 7 1 8 31 9 32 10 96 11 33 12 95 13
REMARK SMILES IDX 34 14 35 15 36 16 89 17 37 18 94 19 88 20 90 21 38 22 93 23
REMARK SMILES IDX 87 24 86 25 39 27 73 28 52 29 72 30 53 31 56 32 71 33 91 34
REMARK SMILES IDX 54 35 55 36 70 38 92 39 57 40 40 41 41 42 50 43 42 44 43 45
REMARK SMILES IDX 49 46 51 47 44 48 45 49 46 50 47 51 48 52 74 53 75 54 84 55
REMARK SMILES IDX 76 56 77 57 83 58 85 59 78 60 79 61 80 62 81 63 82 64 58 65
REMARK SMILES IDX 59 66 68 67 60 68 61 69 67 70 69 71 62 72 63 73 64 74 65 75
REMARK SMILES IDX 66 76 9 77 10 78 11 79 12 80 13 81 14 82 15 83 16 84 17 85
REMARK SMILES IDX 18 86 19 87 30 88 20 89 22 90 21 91 23 94 24 95 29 96 25 97
REMARK SMILES IDX 28 98 26 99 27 100
REMARK H PARENT 90 26 56 37 20 92 20 93
REMARK Flexibility Score: inf
ROOT
ATOM      1  C   UNL A   1      37.601  20.850  25.014  1.00  0.00     0.188 C 
ENDROOT
BRANCH   1   2
ATOM      2  C   UNL A   1      38.560  21.453  26.035  1.00  0.00     0.188 C 
BRANCH   2   3
ATOM      3  O   UNL A   1      39.914  21.128  25.722  1.00  0.00    -0.376 OA
BRANCH   3   4
ATOM      4  C   UNL A   1      40.818  21.074  26.827  1.00  0.00     0.202 C 
BRANCH   4   5
ATOM      5  C   UNL A   1      40.760  22.291  27.748  1.00  0.00     0.261 C 
BRANCH   5   6
ATOM      6  O   UNL A   1      41.058  23.521  27.075  1.00  0.00    -0.460 OA
BRANCH   6   7
ATOM      7  C   UNL A   1      40.306  24.647  27.009  1.00  0.00     0.338 C 
ATOM      8  O   UNL A   1      39.637  24.827  25.990  1.00  0.00    -0.246 OA
BRANCH   7   9
ATOM      9  C   UNL A   1      40.247  25.704  28.071  1.00  0.00     0.060 A 
ATOM     10  C   UNL A   1      39.222  25.871  29.003  1.00  0.00     0.016 A 
ATOM     11  C   UNL A   1      41.373  26.536  28.195  1.00  0.00     0.016 A 
ATOM     12  C   UNL A   1      39.299  26.793  30.031  1.00  0.00     0.010 A 
ATOM     13  C   UNL A   1      41.459  27.488  29.216  1.00  0.00     0.010 A 
ATOM     14  C   UNL A   1      40.414  27.610  30.134  1.00  0.00    -0.014 A 
BRANCH  14  15
ATOM     15  C   UNL A   1      40.346  28.697  31.117  1.00  0.00     0.031 A 
ATOM     16  C   UNL A   1      41.331  28.664  32.239  1.00  0.00     0.074 A 
ATOM     17  C   UNL A   1      39.543  29.752  30.889  1.00  0.00     0.049 A 
ATOM     18  N   UNL A   1      41.419  29.441  33.278  1.00  0.00    -0.248 NA
ATOM     19  C   UNL A   1      42.379  27.625  32.172  1.00  0.00     0.031 C 
ATOM     20  C   UNL A   1      38.698  29.929  29.703  1.00  0.00     0.029 A 
ATOM     21  N   UNL A   1      39.321  30.884  31.626  1.00  0.00    -0.354 N 
ATOM     22  C   UNL A   1      42.499  28.962  34.008  1.00  0.00     0.074 A 
ATOM     23  C   UNL A   1      43.055  27.842  33.289  1.00  0.00     0.031 C 
ATOM     24  C   UNL A   1      38.042  31.097  29.802  1.00  0.00     0.029 A 
ATOM     25  C   UNL A   1      38.356  31.703  31.090  1.00  0.00     0.049 A 
ATOM     26  H   UNL A   1      39.805  31.090  32.458  1.00  0.00     0.167 HD
ATOM     27  C   UNL A   1      42.957  29.425  35.188  1.00  0.00     0.037 A 
ATOM     28  C   UNL A   1      37.753  32.782  31.627  1.00  0.00     0.037 A 
ATOM     29  C   UNL A   1      42.371  30.555  35.852  1.00  0.00     0.049 A 
ATOM     30  C   UNL A   1      38.193  33.196  33.009  1.00  0.00     0.074 A 
ATOM     31  C   UNL A   1      42.695  31.096  37.080  1.00  0.00     0.029 A 
ATOM     32  N   UNL A   1      41.331  31.314  35.331  1.00  0.00    -0.354 N 
ATOM     33  N   UNL A   1      39.163  32.699  33.743  1.00  0.00    -0.248 NA
ATOM     34  C   UNL A   1      37.448  34.284  33.651  1.00  0.00     0.031 C 
ATOM     35  C   UNL A   1      41.812  32.150  37.325  1.00  0.00     0.029 A 
ATOM     36  C   UNL A   1      40.974  32.301  36.227  1.00  0.00     0.049 A 
ATOM     37  H   UNL A   1      40.911  31.170  34.452  1.00  0.00     0.167 HD
ATOM     38  C   UNL A   1      39.145  33.411  34.933  1.00  0.00     0.074 A 
ATOM     39  C   UNL A   1      38.087  34.395  34.809  1.00  0.00     0.031 C 
ATOM     40  C   UNL A   1      39.917  33.264  36.038  1.00  0.00     0.037 A 
BRANCH  27  41
ATOM     41  C   UNL A   1      44.071  28.682  35.858  1.00  0.00     0.058 A 
ATOM     42  C   UNL A   1      43.774  27.631  36.741  1.00  0.00     0.135 A 
ATOM     43  C   UNL A   1      45.417  29.031  35.680  1.00  0.00     0.135 A 
ATOM     44  F   UNL A   1      42.504  27.235  36.916  1.00  0.00    -0.206 F 
ATOM     45  C   UNL A   1      44.770  26.984  37.461  1.00  0.00     0.059 A 
ATOM     46  C   UNL A   1      46.434  28.383  36.378  1.00  0.00     0.059 A 
ATOM     47  F   UNL A   1      45.756  29.996  34.810  1.00  0.00    -0.206 F 
ATOM     48  C   UNL A   1      46.097  27.378  37.284  1.00  0.00     0.060 A 
BRANCH  48  49
ATOM     49  S   UNL A   1      47.370  26.555  38.263  1.00  0.00     0.124 S 
ATOM     50  O   UNL A   1      46.573  25.852  39.262  1.00  0.00    -0.237 OA
ATOM     51  O   UNL A   1      48.026  25.715  37.265  1.00  0.00    -0.237 OA
ATOM     52  O   UNL A   1      48.178  27.662  38.768  1.00  0.00    -0.744 OA
ENDBRANCH  48  49
ENDBRANCH  27  41
BRANCH  28  53
ATOM     53  C   UNL A   1      36.623  33.453  30.925  1.00  0.00     0.058 A 
ATOM     54  C   UNL A   1      35.296  33.263  31.346  1.00  0.00     0.135 A 
ATOM     55  C   UNL A   1      36.837  34.308  29.833  1.00  0.00     0.135 A 
ATOM     56  F   UNL A   1      35.024  32.458  32.385  1.00  0.00    -0.206 F 
ATOM     57  C   UNL A   1      34.225  33.879  30.707  1.00  0.00     0.059 A 
ATOM     58  C   UNL A   1      35.782  34.963  29.196  1.00  0.00     0.059 A 
ATOM     59  F   UNL A   1      38.084  34.536  29.396  1.00  0.00    -0.206 F 
ATOM     60  C   UNL A   1      34.479  34.734  29.635  1.00  0.00     0.060 A 
BRANCH  60  61
ATOM     61  S   UNL A   1      33.075  35.561  28.857  1.00  0.00     0.124 S 
ATOM     62  O   UNL A   1      33.739  36.606  28.087  1.00  0.00    -0.237 OA
ATOM     63  O   UNL A   1      32.475  34.483  28.081  1.00  0.00    -0.237 OA
ATOM     64  O   UNL A   1      32.285  36.026  29.997  1.00  0.00    -0.744 OA
ENDBRANCH  60  61
ENDBRANCH  28  53
BRANCH  40  65
ATOM     65  C   UNL A   1      39.650  34.181  37.192  1.00  0.00     0.058 A 
ATOM     66  C   UNL A   1      40.248  35.450  37.238  1.00  0.00     0.135 A 
ATOM     67  C   UNL A   1      38.929  33.741  38.311  1.00  0.00     0.135 A 
ATOM     68  F   UNL A   1      40.956  35.904  36.191  1.00  0.00    -0.206 F 
ATOM     69  C   UNL A   1      40.176  36.236  38.378  1.00  0.00     0.059 A 
ATOM     70  C   UNL A   1      38.819  34.526  39.452  1.00  0.00     0.059 A 
ATOM     71  F   UNL A   1      38.333  32.538  38.301  1.00  0.00    -0.206 F 
ATOM     72  C   UNL A   1      39.469  35.760  39.484  1.00  0.00     0.060 A 
BRANCH  72  73
ATOM     73  S   UNL A   1      39.424  36.778  40.971  1.00  0.00     0.124 S 
ATOM     74  O   UNL A   1      38.607  37.905  40.535  1.00  0.00    -0.237 OA
ATOM     75  O   UNL A   1      38.805  35.879  41.939  1.00  0.00    -0.237 OA
ATOM     76  O   UNL A   1      40.832  37.080  41.217  1.00  0.00    -0.744 OA
ENDBRANCH  72  73
ENDBRANCH  40  65
ENDBRANCH  14  15
ENDBRANCH   7   9
ENDBRANCH   6   7
ENDBRANCH   5   6
ENDBRANCH   4   5
ENDBRANCH   3   4
ENDBRANCH   2   3
ENDBRANCH   1   2
BRANCH   1  77
ATOM     77  O   UNL A   1      37.112  21.782  24.056  1.00  0.00    -0.377 OA
BRANCH  77  78
ATOM     78  C   UNL A   1      36.612  23.006  24.579  1.00  0.00     0.188 C 
BRANCH  78  79
ATOM     79  C   UNL A   1      35.619  23.851  23.760  1.00  0.00     0.188 C 
BRANCH  79  80
ATOM     80  O   UNL A   1      34.480  23.140  23.314  1.00  0.00    -0.376 OA
BRANCH  80  81
ATOM     81  C   UNL A   1      33.240  23.780  23.603  1.00  0.00     0.202 C 
BRANCH  81  82
ATOM     82  C   UNL A   1      32.570  23.356  24.922  1.00  0.00     0.261 C 
BRANCH  82  83
ATOM     83  O   UNL A   1      31.160  23.673  25.050  1.00  0.00    -0.463 OA
BRANCH  83  84
ATOM     84  C   UNL A   1      30.715  24.375  26.119  1.00  0.00     0.314 C 
ATOM     85  O   UNL A   1      30.720  23.941  27.265  1.00  0.00    -0.252 OA
BRANCH  84  86
ATOM     86  C   UNL A   1      30.327  25.830  25.775  1.00  0.00     0.155 C 
ATOM     87  C   UNL A   1      30.224  26.119  24.264  1.00  0.00     0.275 C 
ATOM     88  C   UNL A   1      31.276  26.785  26.536  1.00  0.00     0.035 C 
ATOM     89  N   UNL A   1      30.146  27.553  23.946  1.00  0.00    -0.345 N 
ATOM     90  C   UNL A   1      31.310  28.242  26.035  1.00  0.00     0.075 C 
ATOM     91  C   UNL A   1      31.286  28.296  24.495  1.00  0.00     0.268 C 
ATOM     92  H   UNL A   1      29.284  27.931  24.339  1.00  0.00     0.346 HD
ATOM     93  H   UNL A   1      30.161  27.653  22.931  1.00  0.00     0.346 HD
BRANCH  90  94
ATOM     94  C   UNL A   1      32.455  29.102  26.596  1.00  0.00    -0.039 A 
ATOM     95  C   UNL A   1      33.720  28.505  26.777  1.00  0.00     0.007 A 
ATOM     96  C   UNL A   1      32.324  30.462  26.939  1.00  0.00     0.007 A 
ATOM     97  C   UNL A   1      34.806  29.238  27.268  1.00  0.00     0.039 A 
ATOM     98  C   UNL A   1      33.413  31.196  27.427  1.00  0.00     0.039 A 
ATOM     99  C   UNL A   1      34.644  30.578  27.584  1.00  0.00     0.123 A 
ATOM    100  F   UNL A   1      35.687  31.281  28.043  1.00  0.00    -0.207 F 
ENDBRANCH  90  94
ENDBRANCH  84  86
ENDBRANCH  83  84
ENDBRANCH  82  83
ENDBRANCH  81  82
ENDBRANCH  80  81
ENDBRANCH  79  80
ENDBRANCH  78  79
ENDBRANCH  77  78
ENDBRANCH   1  77
TORSDOF 24
ENDMDL
MODEL 2
REMARK VINA RESULT:      -9.6      6.750     12.045
REMARK SMILES O=C(OCCOCCOCCOCCOC(=O)[C@@H]1C[NH2+]C[C@H](c2ccc(F)cc2)C1)c1ccc(-c2c3nc(c(-c4c(F)cc(S(=O)(=O)[O-])cc4F)c4ccc([nH]4)c(-c4c(F)cc(S(=O)(=O)[O-])cc4F)c4nc(c(-c5c(F)cc(S(=O)(=O)[O-])cc5F)c5ccc2[nH]5)C=C4)C=C3)cc1
REMARK SMILES IDX 8 1 7 2 6 3 5 4 4 5 3 6 2 7 1 8 31 9 32 10 96 11 33 12 95 13
REMARK SMILES IDX 34 14 35 15 36 16 89 17 37 18 94 19 88 20 90 21 38 22 93 23
REMARK SMILES IDX 87 24 86 25 39 27 73 28 52 29 72 30 53 31 56 32 71 33 91 34
REMARK SMILES IDX 54 35 55 36 70 38 92 39 57 40 40 41 41 42 50 43 42 44 43 45
REMARK SMILES IDX 49 46 51 47 44 48 45 49 46 50 47 51 48 52 74 53 75 54 84 55
REMARK SMILES IDX 76 56 77 57 83 58 85 59 78 60 79 61 80 62 81 63 82 64 58 65
REMARK SMILES IDX 59 66 68 67 60 68 61 69 67 70 69 71 62 72 63 73 64 74 65 75
REMARK SMILES IDX 66 76 9 77 10 78 11 79 12 80 13 81 14 82 15 83 16 84 17 85
REMARK SMILES IDX 18 86 19 87 30 88 20 89 22 90 21 91 23 94 24 95 29 96 25 97
REMARK SMILES IDX 28 98 26 99 27 100
REMARK H PARENT 90 26 56 37 20 92 20 93
REMARK Flexibility Score: inf
ROOT
ATOM      1  C   UNL A   1      33.917  34.973  28.398  1.00  0.00     0.188 C 
ENDROOT
BRANCH   1   2
ATOM      2  C   UNL A   1      33.670  34.504  29.829  1.00  0.00     0.188 C 
BRANCH   2   3
ATOM      3  O   UNL A   1      34.830  34.695  30.639  1.00  0.00    -0.376 OA
BRANCH   3   4
ATOM      4  C   UNL A   1      35.281  33.552  31.366  1.00  0.00     0.202 C 
BRANCH   4   5
ATOM      5  C   UNL A   1      36.425  32.791  30.699  1.00  0.00     0.261 C 
BRANCH   5   6
ATOM      6  O   UNL A   1      36.140  31.398  30.511  1.00  0.00    -0.460 OA
BRANCH   6   7
ATOM      7  C   UNL A   1      36.871  30.330  30.911  1.00  0.00     0.338 C 
ATOM      8  O   UNL A   1      36.392  29.607  31.787  1.00  0.00    -0.246 OA
BRANCH   7   9
ATOM      9  C   UNL A   1      38.231  29.974  30.389  1.00  0.00     0.060 A 
ATOM     10  C   UNL A   1      39.318  29.554  31.156  1.00  0.00     0.016 A 
ATOM     11  C   UNL A   1      38.388  29.972  28.992  1.00  0.00     0.016 A 
ATOM     12  C   UNL A   1      40.504  29.126  30.587  1.00  0.00     0.010 A 
ATOM     13  C   UNL A   1      39.587  29.561  28.400  1.00  0.00     0.010 A 
ATOM     14  C   UNL A   1      40.644  29.137  29.208  1.00  0.00    -0.014 A 
BRANCH  14  15
ATOM     15  C   UNL A   1      41.985  28.864  28.680  1.00  0.00     0.031 A 
ATOM     16  C   UNL A   1      42.252  27.483  28.177  1.00  0.00     0.074 A 
ATOM     17  C   UNL A   1      42.851  29.879  28.504  1.00  0.00     0.049 A 
ATOM     18  N   UNL A   1      43.367  26.964  27.756  1.00  0.00    -0.248 NA
ATOM     19  C   UNL A   1      41.097  26.564  28.118  1.00  0.00     0.031 C 
ATOM     20  C   UNL A   1      42.570  31.288  28.799  1.00  0.00     0.029 A 
ATOM     21  N   UNL A   1      44.129  29.890  28.016  1.00  0.00    -0.354 N 
ATOM     22  C   UNL A   1      43.062  25.651  27.423  1.00  0.00     0.074 A 
ATOM     23  C   UNL A   1      41.654  25.451  27.666  1.00  0.00     0.031 C 
ATOM     24  C   UNL A   1      43.652  32.024  28.494  1.00  0.00     0.029 A 
ATOM     25  C   UNL A   1      44.721  31.130  28.067  1.00  0.00     0.049 A 
ATOM     26  H   UNL A   1      44.580  29.089  27.664  1.00  0.00     0.167 HD
ATOM     27  C   UNL A   1      43.908  24.705  26.972  1.00  0.00     0.037 A 
ATOM     28  C   UNL A   1      46.007  31.475  27.855  1.00  0.00     0.037 A 
ATOM     29  C   UNL A   1      45.299  24.965  26.734  1.00  0.00     0.049 A 
ATOM     30  C   UNL A   1      46.961  30.369  27.483  1.00  0.00     0.074 A 
ATOM     31  C   UNL A   1      46.285  24.086  26.334  1.00  0.00     0.029 A 
ATOM     32  N   UNL A   1      45.897  26.211  26.882  1.00  0.00    -0.354 N 
ATOM     33  N   UNL A   1      46.696  29.104  27.243  1.00  0.00    -0.248 NA
ATOM     34  C   UNL A   1      48.383  30.715  27.385  1.00  0.00     0.031 C 
ATOM     35  C   UNL A   1      47.490  24.789  26.293  1.00  0.00     0.029 A 
ATOM     36  C   UNL A   1      47.248  26.119  26.615  1.00  0.00     0.049 A 
ATOM     37  H   UNL A   1      45.426  27.036  27.138  1.00  0.00     0.167 HD
ATOM     38  C   UNL A   1      47.915  28.503  26.966  1.00  0.00     0.074 A 
ATOM     39  C   UNL A   1      48.917  29.550  27.038  1.00  0.00     0.031 C 
ATOM     40  C   UNL A   1      48.194  27.205  26.690  1.00  0.00     0.037 A 
BRANCH  27  41
ATOM     41  C   UNL A   1      43.384  23.314  26.785  1.00  0.00     0.058 A 
ATOM     42  C   UNL A   1      43.200  22.483  27.901  1.00  0.00     0.135 A 
ATOM     43  C   UNL A   1      43.116  22.780  25.516  1.00  0.00     0.135 A 
ATOM     44  F   UNL A   1      43.407  22.960  29.139  1.00  0.00    -0.206 F 
ATOM     45  C   UNL A   1      42.815  21.156  27.764  1.00  0.00     0.059 A 
ATOM     46  C   UNL A   1      42.710  21.457  25.356  1.00  0.00     0.059 A 
ATOM     47  F   UNL A   1      43.229  23.549  24.421  1.00  0.00    -0.206 F 
ATOM     48  C   UNL A   1      42.587  20.647  26.485  1.00  0.00     0.060 A 
BRANCH  48  49
ATOM     49  S   UNL A   1      42.131  18.909  26.326  1.00  0.00     0.124 S 
ATOM     50  O   UNL A   1      43.124  18.424  25.373  1.00  0.00    -0.237 OA
ATOM     51  O   UNL A   1      42.276  18.428  27.697  1.00  0.00    -0.237 OA
ATOM     52  O   UNL A   1      40.758  18.962  25.831  1.00  0.00    -0.744 OA
ENDBRANCH  48  49
ENDBRANCH  27  41
BRANCH  28  53
ATOM     53  C   UNL A   1      46.472  32.870  28.098  1.00  0.00     0.058 A 
ATOM     54  C   UNL A   1      46.459  33.826  27.068  1.00  0.00     0.135 A 
ATOM     55  C   UNL A   1      46.923  33.288  29.359  1.00  0.00     0.135 A 
ATOM     56  F   UNL A   1      46.038  33.489  25.838  1.00  0.00    -0.206 F 
ATOM     57  C   UNL A   1      46.888  35.133  27.270  1.00  0.00     0.059 A 
ATOM     58  C   UNL A   1      47.327  34.602  29.596  1.00  0.00     0.059 A 
ATOM     59  F   UNL A   1      46.946  32.422  30.383  1.00  0.00    -0.206 F 
ATOM     60  C   UNL A   1      47.315  35.514  28.541  1.00  0.00     0.060 A 
BRANCH  60  61
ATOM     61  S   UNL A   1      47.817  37.231  28.789  1.00  0.00     0.124 S 
ATOM     62  O   UNL A   1      46.785  37.711  29.700  1.00  0.00    -0.237 OA
ATOM     63  O   UNL A   1      49.150  37.082  29.359  1.00  0.00    -0.237 OA
ATOM     64  O   UNL A   1      47.774  37.792  27.438  1.00  0.00    -0.744 OA
ENDBRANCH  60  61
ENDBRANCH  28  53
BRANCH  40  65
ATOM     65  C   UNL A   1      49.627  26.845  26.447  1.00  0.00     0.058 A 
ATOM     66  C   UNL A   1      50.134  26.810  25.139  1.00  0.00     0.135 A 
ATOM     67  C   UNL A   1      50.445  26.395  27.493  1.00  0.00     0.135 A 
ATOM     68  F   UNL A   1      49.379  27.223  24.108  1.00  0.00    -0.206 F 
ATOM     69  C   UNL A   1      51.393  26.294  24.870  1.00  0.00     0.059 A 
ATOM     70  C   UNL A   1      51.721  25.903  27.249  1.00  0.00     0.059 A 
ATOM     71  F   UNL A   1      50.000  26.424  28.760  1.00  0.00    -0.206 F 
ATOM     72  C   UNL A   1      52.174  25.832  25.932  1.00  0.00     0.060 A 
BRANCH  72  73
ATOM     73  S   UNL A   1      53.790  25.126  25.557  1.00  0.00     0.124 S 
ATOM     74  O   UNL A   1      53.466  23.714  25.389  1.00  0.00    -0.237 OA
ATOM     75  O   UNL A   1      54.162  25.843  24.341  1.00  0.00    -0.237 OA
ATOM     76  O   UNL A   1      54.585  25.454  26.737  1.00  0.00    -0.744 OA
ENDBRANCH  72  73
ENDBRANCH  40  65
ENDBRANCH  14  15
ENDBRANCH   7   9
ENDBRANCH   6   7
ENDBRANCH   5   6
ENDBRANCH   4   5
ENDBRANCH   3   4
ENDBRANCH   2   3
ENDBRANCH   1   2
BRANCH   1  77
ATOM     77  O   UNL A   1      34.053  33.914  27.456  1.00  0.00    -0.377 OA
BRANCH  77  78
ATOM     78  C   UNL A   1      33.375  32.706  27.777  1.00  0.00     0.188 C 
BRANCH  78  79
ATOM     79  C   UNL A   1      34.131  31.366  27.761  1.00  0.00     0.188 C 
BRANCH  79  80
ATOM     80  O   UNL A   1      33.679  30.454  26.779  1.00  0.00    -0.376 OA
BRANCH  80  81
ATOM     81  C   UNL A   1      34.259  29.155  26.873  1.00  0.00     0.202 C 
BRANCH  81  82
ATOM     82  C   UNL A   1      33.326  27.987  26.505  1.00  0.00     0.261 C 
BRANCH  82  83
ATOM     83  O   UNL A   1      32.664  28.084  25.218  1.00  0.00    -0.463 OA
BRANCH  83  84
ATOM     84  C   UNL A   1      31.867  27.078  24.787  1.00  0.00     0.314 C 
ATOM     85  O   UNL A   1      30.721  26.902  25.184  1.00  0.00    -0.252 OA
BRANCH  84  86
ATOM     86  C   UNL A   1      32.492  26.253  23.640  1.00  0.00     0.155 C 
ATOM     87  C   UNL A   1      31.478  25.421  22.830  1.00  0.00     0.275 C 
ATOM     88  C   UNL A   1      33.668  25.427  24.214  1.00  0.00     0.035 C 
ATOM     89  N   UNL A   1      32.107  24.428  21.946  1.00  0.00    -0.345 N 
ATOM     90  C   UNL A   1      34.166  24.263  23.335  1.00  0.00     0.075 C 
ATOM     91  C   UNL A   1      32.983  23.515  22.689  1.00  0.00     0.268 C 
ATOM     92  H   UNL A   1      32.659  24.917  21.242  1.00  0.00     0.346 HD
ATOM     93  H   UNL A   1      31.366  23.876  21.513  1.00  0.00     0.346 HD
BRANCH  90  94
ATOM     94  C   UNL A   1      35.122  23.280  24.029  1.00  0.00    -0.039 A 
ATOM     95  C   UNL A   1      36.416  23.725  24.369  1.00  0.00     0.007 A 
ATOM     96  C   UNL A   1      34.785  21.952  24.357  1.00  0.00     0.007 A 
ATOM     97  C   UNL A   1      37.328  22.884  25.018  1.00  0.00     0.039 A 
ATOM     98  C   UNL A   1      35.697  21.112  25.010  1.00  0.00     0.039 A 
ATOM     99  C   UNL A   1      36.958  21.586  25.336  1.00  0.00     0.123 A 
ATOM    100  F   UNL A   1      37.827  20.785  25.967  1.00  0.00    -0.207 F 
ENDBRANCH  90  94
ENDBRANCH  84  86
ENDBRANCH  83  84
ENDBRANCH  82  83
ENDBRANCH  81  82
ENDBRANCH  80  81
ENDBRANCH  79  80
ENDBRANCH  78  79
ENDBRANCH  77  78
ENDBRANCH   1  77
TORSDOF 24
ENDMDL
MODEL 3
REMARK VINA RESULT:      -9.6      6.787     11.943
REMARK SMILES O=C(OCCOCCOCCOCCOC(=O)[C@@H]1C[NH2+]C[C@H](c2ccc(F)cc2)C1)c1ccc(-c2c3nc(c(-c4c(F)cc(S(=O)(=O)[O-])cc4F)c4ccc([nH]4)c(-c4c(F)cc(S(=O)(=O)[O-])cc4F)c4nc(c(-c5c(F)cc(S(=O)(=O)[O-])cc5F)c5ccc2[nH]5)C=C4)C=C3)cc1
REMARK SMILES IDX 8 1 7 2 6 3 5 4 4 5 3 6 2 7 1 8 31 9 32 10 96 11 33 12 95 13
REMARK SMILES IDX 34 14 35 15 36 16 89 17 37 18 94 19 88 20 90 21 38 22 93 23
REMARK SMILES IDX 87 24 86 25 39 27 73 28 52 29 72 30 53 31 56 32 71 33 91 34
REMARK SMILES IDX 54 35 55 36 70 38 92 39 57 40 40 41 41 42 50 43 42 44 43 45
REMARK SMILES IDX 49 46 51 47 44 48 45 49 46 50 47 51 48 52 74 53 75 54 84 55
REMARK SMILES IDX 76 56 77 57 83 58 85 59 78 60 79 61 80 62 81 63 82 64 58 65
REMARK SMILES IDX 59 66 68 67 60 68 61 69 67 70 69 71 62 72 63 73 64 74 65 75
REMARK SMILES IDX 66 76 9 77 10 78 11 79 12 80 13 81 14 82 15 83 16 84 17 85
REMARK SMILES IDX 18 86 19 87 30 88 20 89 22 90 21 91 23 94 24 95 29 96 25 97
REMARK SMILES IDX 28 98 26 99 27 100
REMARK H PARENT 90 26 56 37 20 92 20 93
REMARK Flexibility Score: inf
ROOT
ATOM      1  C   UNL A   1      33.720  34.596  28.430  1.00  0.00     0.188 C 
ENDROOT
BRANCH   1   2
ATOM      2  C   UNL A   1      33.679  34.399  29.942  1.00  0.00     0.188 C 
BRANCH   2   3
ATOM      3  O   UNL A   1      34.959  34.640  30.526  1.00  0.00    -0.376 OA
BRANCH   3   4
ATOM      4  C   UNL A   1      35.477  33.597  31.353  1.00  0.00     0.202 C 
BRANCH   4   5
ATOM      5  C   UNL A   1      36.533  32.724  30.679  1.00  0.00     0.261 C 
BRANCH   5   6
ATOM      6  O   UNL A   1      36.213  31.327  30.712  1.00  0.00    -0.460 OA
BRANCH   6   7
ATOM      7  C   UNL A   1      36.979  30.299  31.153  1.00  0.00     0.338 C 
ATOM      8  O   UNL A   1      36.544  29.623  32.086  1.00  0.00    -0.246 OA
BRANCH   7   9
ATOM      9  C   UNL A   1      38.330  29.940  30.610  1.00  0.00     0.060 A 
ATOM     10  C   UNL A   1      39.430  29.524  31.361  1.00  0.00     0.016 A 
ATOM     11  C   UNL A   1      38.464  29.931  29.211  1.00  0.00     0.016 A 
ATOM     12  C   UNL A   1      40.606  29.092  30.775  1.00  0.00     0.010 A 
ATOM     13  C   UNL A   1      39.653  29.517  28.601  1.00  0.00     0.010 A 
ATOM     14  C   UNL A   1      40.723  29.096  29.394  1.00  0.00    -0.014 A 
BRANCH  14  15
ATOM     15  C   UNL A   1      42.054  28.820  28.844  1.00  0.00     0.031 A 
ATOM     16  C   UNL A   1      42.301  27.445  28.313  1.00  0.00     0.074 A 
ATOM     17  C   UNL A   1      42.928  29.828  28.677  1.00  0.00     0.049 A 
ATOM     18  N   UNL A   1      43.406  26.923  27.869  1.00  0.00    -0.248 NA
ATOM     19  C   UNL A   1      41.137  26.539  28.252  1.00  0.00     0.031 C 
ATOM     20  C   UNL A   1      42.665  31.235  29.000  1.00  0.00     0.029 A 
ATOM     21  N   UNL A   1      44.201  29.836  28.173  1.00  0.00    -0.354 N 
ATOM     22  C   UNL A   1      43.083  25.619  27.516  1.00  0.00     0.074 A 
ATOM     23  C   UNL A   1      41.677  25.429  27.773  1.00  0.00     0.031 C 
ATOM     24  C   UNL A   1      43.751  31.966  28.696  1.00  0.00     0.029 A 
ATOM     25  C   UNL A   1      44.806  31.069  28.239  1.00  0.00     0.049 A 
ATOM     26  H   UNL A   1      44.640  29.038  27.801  1.00  0.00     0.167 HD
ATOM     27  C   UNL A   1      43.915  24.673  27.038  1.00  0.00     0.037 A 
ATOM     28  C   UNL A   1      46.092  31.405  28.019  1.00  0.00     0.037 A 
ATOM     29  C   UNL A   1      45.306  24.924  26.789  1.00  0.00     0.049 A 
ATOM     30  C   UNL A   1      47.031  30.296  27.615  1.00  0.00     0.074 A 
ATOM     31  C   UNL A   1      46.278  24.043  26.360  1.00  0.00     0.029 A 
ATOM     32  N   UNL A   1      45.918  26.161  26.952  1.00  0.00    -0.354 N 
ATOM     33  N   UNL A   1      46.750  29.039  27.355  1.00  0.00    -0.248 NA
ATOM     34  C   UNL A   1      48.455  30.630  27.506  1.00  0.00     0.031 C 
ATOM     35  C   UNL A   1      47.490  24.735  26.318  1.00  0.00     0.029 A 
ATOM     36  C   UNL A   1      47.264  26.061  26.666  1.00  0.00     0.049 A 
ATOM     37  H   UNL A   1      45.458  26.986  27.228  1.00  0.00     0.167 HD
ATOM     38  C   UNL A   1      47.960  28.431  27.052  1.00  0.00     0.074 A 
ATOM     39  C   UNL A   1      48.973  29.467  27.132  1.00  0.00     0.031 C 
ATOM     40  C   UNL A   1      48.222  27.136  26.750  1.00  0.00     0.037 A 
BRANCH  27  41
ATOM     41  C   UNL A   1      43.374  23.292  26.832  1.00  0.00     0.058 A 
ATOM     42  C   UNL A   1      43.132  22.467  27.941  1.00  0.00     0.135 A 
ATOM     43  C   UNL A   1      43.149  22.759  25.554  1.00  0.00     0.135 A 
ATOM     44  F   UNL A   1      43.297  22.942  29.186  1.00  0.00    -0.206 F 
ATOM     45  C   UNL A   1      42.729  21.146  27.791  1.00  0.00     0.059 A 
ATOM     46  C   UNL A   1      42.727  21.443  25.380  1.00  0.00     0.059 A 
ATOM     47  F   UNL A   1      43.319  23.523  24.463  1.00  0.00    -0.206 F 
ATOM     48  C   UNL A   1      42.544  20.638  26.505  1.00  0.00     0.060 A 
BRANCH  48  49
ATOM     49  S   UNL A   1      42.064  18.908  26.330  1.00  0.00     0.124 S 
ATOM     50  O   UNL A   1      40.707  19.024  25.806  1.00  0.00    -0.237 OA
ATOM     51  O   UNL A   1      43.067  18.406  25.395  1.00  0.00    -0.237 OA
ATOM     52  O   UNL A   1      42.170  18.387  27.690  1.00  0.00    -0.744 OA
ENDBRANCH  48  49
ENDBRANCH  27  41
BRANCH  28  53
ATOM     53  C   UNL A   1      46.574  32.790  28.281  1.00  0.00     0.058 A 
ATOM     54  C   UNL A   1      46.534  33.772  27.276  1.00  0.00     0.135 A 
ATOM     55  C   UNL A   1      47.069  33.174  29.537  1.00  0.00     0.135 A 
ATOM     56  F   UNL A   1      46.071  33.469  26.053  1.00  0.00    -0.206 F 
ATOM     57  C   UNL A   1      46.978  35.072  27.498  1.00  0.00     0.059 A 
ATOM     58  C   UNL A   1      47.489  34.480  29.793  1.00  0.00     0.059 A 
ATOM     59  F   UNL A   1      47.119  32.283  30.538  1.00  0.00    -0.206 F 
ATOM     60  C   UNL A   1      47.449  35.418  28.763  1.00  0.00     0.060 A 
BRANCH  60  61
ATOM     61  S   UNL A   1      47.970  37.125  29.037  1.00  0.00     0.124 S 
ATOM     62  O   UNL A   1      47.127  37.513  30.162  1.00  0.00    -0.237 OA
ATOM     63  O   UNL A   1      49.390  36.969  29.330  1.00  0.00    -0.237 OA
ATOM     64  O   UNL A   1      47.662  37.779  27.765  1.00  0.00    -0.744 OA
ENDBRANCH  60  61
ENDBRANCH  28  53
BRANCH  40  65
ATOM     65  C   UNL A   1      49.649  26.766  26.483  1.00  0.00     0.058 A 
ATOM     66  C   UNL A   1      50.129  26.712  25.166  1.00  0.00     0.135 A 
ATOM     67  C   UNL A   1      50.485  26.325  27.519  1.00  0.00     0.135 A 
ATOM     68  F   UNL A   1      49.356  27.115  24.145  1.00  0.00    -0.206 F 
ATOM     69  C   UNL A   1      51.381  26.187  24.879  1.00  0.00     0.059 A 
ATOM     70  C   UNL A   1      51.754  25.825  27.256  1.00  0.00     0.059 A 
ATOM     71  F   UNL A   1      50.066  26.373  28.793  1.00  0.00    -0.206 F 
ATOM     72  C   UNL A   1      52.181  25.735  25.931  1.00  0.00     0.060 A 
BRANCH  72  73
ATOM     73  S   UNL A   1      53.786  25.017  25.533  1.00  0.00     0.124 S 
ATOM     74  O   UNL A   1      54.459  25.057  26.826  1.00  0.00    -0.237 OA
ATOM     75  O   UNL A   1      53.415  23.691  25.049  1.00  0.00    -0.237 OA
ATOM     76  O   UNL A   1      54.319  25.922  24.518  1.00  0.00    -0.744 OA
ENDBRANCH  72  73
ENDBRANCH  40  65
ENDBRANCH  14  15
ENDBRANCH   7   9
ENDBRANCH   6   7
ENDBRANCH   5   6
ENDBRANCH   4   5
ENDBRANCH   3   4
ENDBRANCH   2   3
ENDBRANCH   1   2
BRANCH   1  77
ATOM     77  O   UNL A   1      33.372  33.436  27.683  1.00  0.00    -0.377 OA
BRANCH  77  78
ATOM     78  C   UNL A   1      33.719  32.189  28.273  1.00  0.00     0.188 C 
BRANCH  78  79
ATOM     79  C   UNL A   1      34.366  31.082  27.423  1.00  0.00     0.188 C 
BRANCH  79  80
ATOM     80  O   UNL A   1      33.614  29.886  27.356  1.00  0.00    -0.376 OA
BRANCH  80  81
ATOM     81  C   UNL A   1      34.223  28.852  26.586  1.00  0.00     0.202 C 
BRANCH  81  82
ATOM     82  C   UNL A   1      33.465  27.513  26.561  1.00  0.00     0.261 C 
BRANCH  82  83
ATOM     83  O   UNL A   1      32.031  27.597  26.360  1.00  0.00    -0.463 OA
BRANCH  83  84
ATOM     84  C   UNL A   1      31.314  26.480  26.094  1.00  0.00     0.314 C 
ATOM     85  O   UNL A   1      31.031  25.638  26.939  1.00  0.00    -0.252 OA
BRANCH  84  86
ATOM     86  C   UNL A   1      30.770  26.434  24.650  1.00  0.00     0.155 C 
ATOM     87  C   UNL A   1      31.840  26.148  23.577  1.00  0.00     0.275 C 
ATOM     88  C   UNL A   1      29.948  27.719  24.393  1.00  0.00     0.035 C 
ATOM     89  N   UNL A   1      31.373  26.394  22.204  1.00  0.00    -0.345 N 
ATOM     90  C   UNL A   1      29.653  28.046  22.916  1.00  0.00     0.075 C 
ATOM     91  C   UNL A   1      30.885  27.768  22.033  1.00  0.00     0.268 C 
ATOM     92  H   UNL A   1      30.616  25.745  21.991  1.00  0.00     0.346 HD
ATOM     93  H   UNL A   1      32.163  26.257  21.572  1.00  0.00     0.346 HD
BRANCH  90  94
ATOM     94  C   UNL A   1      29.099  29.456  22.655  1.00  0.00    -0.039 A 
ATOM     95  C   UNL A   1      29.475  30.120  21.470  1.00  0.00     0.007 A 
ATOM     96  C   UNL A   1      28.226  30.133  23.530  1.00  0.00     0.007 A 
ATOM     97  C   UNL A   1      28.992  31.398  21.167  1.00  0.00     0.039 A 
ATOM     98  C   UNL A   1      27.740  31.411  23.224  1.00  0.00     0.039 A 
ATOM     99  C   UNL A   1      28.125  32.030  22.045  1.00  0.00     0.123 A 
ATOM    100  F   UNL A   1      27.654  33.249  21.750  1.00  0.00    -0.207 F 
ENDBRANCH  90  94
ENDBRANCH  84  86
ENDBRANCH  83  84
ENDBRANCH  82  83
ENDBRANCH  81  82
ENDBRANCH  80  81
ENDBRANCH  79  80
ENDBRANCH  78  79
ENDBRANCH  77  78
ENDBRANCH   1  77
TORSDOF 24
ENDMDL
