MODEL 1
REMARK VINA RESULT:      -8.8      0.000      0.000
REMARK SMILES CC1=C(C)C[C@@H](C(=O)OCCOCCOCCOCCOC(=O)c2ccc(-c3c4nc(c(-c5c(F)cc(S(=O)(=O)[O-])cc5F)c5ccc([nH]5)c(-c5c(F)cc(S(=O)(=O)[O-])cc5F)c5nc(c(-c6c(F)cc(S(=O)(=O)[O-])cc6F)c6ccc3[nH]6)C=C5)C=C4)cc2)[C@@H](C(=O)N2CCN(c3cccc(C(F)(F)F)c3)CC2)C1
REMARK SMILES IDX 15 1 14 2 13 3 12 4 11 5 10 6 9 7 7 8 8 9 6 10 1 11 2 12
REMARK SMILES IDX 3 13 109 14 4 15 5 16 90 17 91 18 92 19 93 20 94 21 108 22
REMARK SMILES IDX 95 23 107 24 96 25 97 26 98 27 106 28 99 29 101 30 100 31
REMARK SMILES IDX 102 32 103 33 104 34 105 35 16 36 17 37 18 38 19 39 20 40
REMARK SMILES IDX 21 41 22 42 23 43 24 44 25 45 89 46 26 47 88 48 27 49 28 50
REMARK SMILES IDX 29 51 82 52 30 53 87 54 81 55 83 56 31 57 86 58 80 59 79 60
REMARK SMILES IDX 32 62 66 63 45 64 65 65 46 66 49 67 64 68 84 69 47 70 48 71
REMARK SMILES IDX 63 73 85 74 50 75 33 76 34 77 43 78 35 79 36 80 42 81 44 82
REMARK SMILES IDX 37 83 38 84 39 85 40 86 41 87 67 88 68 89 77 90 69 91 70 92
REMARK SMILES IDX 76 93 78 94 71 95 72 96 73 97 74 98 75 99 51 100 52 101
REMARK SMILES IDX 61 102 53 103 54 104 60 105 62 106 55 107 56 108 57 109
REMARK SMILES IDX 58 110 59 111
REMARK H PARENT 83 61 49 72
REMARK Flexibility Score: inf
ROOT
ATOM      1  O   UNL A   1      32.880  29.317  25.969  1.00  0.00    -0.377 OA
ENDROOT
BRANCH   1   2
ATOM      2  C   UNL A   1      33.879  28.539  25.321  1.00  0.00     0.188 C 
BRANCH   2   3
ATOM      3  C   UNL A   1      33.730  28.328  23.814  1.00  0.00     0.188 C 
BRANCH   3   4
ATOM      4  O   UNL A   1      32.703  29.057  23.157  1.00  0.00    -0.376 OA
BRANCH   4   5
ATOM      5  C   UNL A   1      31.836  28.275  22.340  1.00  0.00     0.202 C 
BRANCH   5   6
ATOM      6  C   UNL A   1      30.732  27.544  23.123  1.00  0.00     0.261 C 
BRANCH   6   7
ATOM      7  O   UNL A   1      30.757  26.099  22.982  1.00  0.00    -0.463 OA
BRANCH   7   8
ATOM      8  C   UNL A   1      31.190  25.381  24.045  1.00  0.00     0.310 C 
ATOM      9  O   UNL A   1      31.733  25.869  25.032  1.00  0.00    -0.252 OA
BRANCH   8  10
ATOM     10  C   UNL A   1      31.081  23.874  23.859  1.00  0.00     0.116 C 
ATOM     11  C   UNL A   1      33.255  20.644  25.999  1.00  0.00     0.039 C 
ATOM     12  C   UNL A   1      32.361  21.629  25.295  1.00  0.00    -0.074 C 
ATOM     13  C   UNL A   1      31.409  22.348  25.920  1.00  0.00    -0.073 C 
ATOM     14  C   UNL A   1      32.485  21.688  23.799  1.00  0.00     0.045 C 
ATOM     15  C   UNL A   1      31.078  22.226  27.384  1.00  0.00     0.039 C 
ATOM     16  C   UNL A   1      30.502  23.270  25.149  1.00  0.00     0.046 C 
ATOM     17  C   UNL A   1      32.194  23.057  23.167  1.00  0.00     0.097 C 
BRANCH  17  18
ATOM     18  C   UNL A   1      33.463  23.758  22.672  1.00  0.00     0.227 C 
ATOM     19  O   UNL A   1      33.484  24.253  21.544  1.00  0.00    -0.275 OA
ATOM     20  N   UNL A   1      34.597  23.644  23.450  1.00  0.00    -0.339 N 
ATOM     21  C   UNL A   1      35.114  24.796  24.184  1.00  0.00     0.141 C 
ATOM     22  C   UNL A   1      35.697  22.812  22.953  1.00  0.00     0.141 C 
ATOM     23  C   UNL A   1      35.949  24.374  25.395  1.00  0.00     0.138 C 
ATOM     24  C   UNL A   1      36.579  22.324  24.117  1.00  0.00     0.138 C 
ATOM     25  N   UNL A   1      37.009  23.454  24.961  1.00  0.00    -0.368 N 
BRANCH  25  26
ATOM     26  C   UNL A   1      38.094  23.230  25.796  1.00  0.00     0.037 A 
ATOM     27  C   UNL A   1      38.596  24.202  26.663  1.00  0.00     0.026 A 
ATOM     28  C   UNL A   1      38.734  21.985  25.775  1.00  0.00     0.039 A 
ATOM     29  C   UNL A   1      39.682  23.930  27.492  1.00  0.00     0.003 A 
ATOM     30  C   UNL A   1      39.851  21.702  26.577  1.00  0.00     0.058 A 
ATOM     31  C   UNL A   1      40.320  22.692  27.441  1.00  0.00     0.013 A 
BRANCH  30  32
ATOM     32  C   UNL A   1      40.542  20.367  26.489  1.00  0.00     0.416 C 
ATOM     33  F   UNL A   1      41.770  20.437  25.918  1.00  0.00    -0.166 F 
ATOM     34  F   UNL A   1      40.707  19.777  27.703  1.00  0.00    -0.166 F 
ATOM     35  F   UNL A   1      39.842  19.462  25.738  1.00  0.00    -0.166 F 
ENDBRANCH  30  32
ENDBRANCH  25  26
ENDBRANCH  17  18
ENDBRANCH   8  10
ENDBRANCH   7   8
ENDBRANCH   6   7
ENDBRANCH   5   6
ENDBRANCH   4   5
ENDBRANCH   3   4
ENDBRANCH   2   3
ENDBRANCH   1   2
BRANCH   1  36
ATOM     36  C   UNL A   1      33.389  30.389  26.760  1.00  0.00     0.188 C 
BRANCH  36  37
ATOM     37  C   UNL A   1      34.619  30.000  27.595  1.00  0.00     0.188 C 
BRANCH  37  38
ATOM     38  O   UNL A   1      35.299  31.167  28.051  1.00  0.00    -0.376 OA
BRANCH  38  39
ATOM     39  C   UNL A   1      34.665  32.406  27.738  1.00  0.00     0.202 C 
BRANCH  39  40
ATOM     40  C   UNL A   1      34.122  33.256  28.909  1.00  0.00     0.261 C 
BRANCH  40  41
ATOM     41  O   UNL A   1      34.977  33.394  30.059  1.00  0.00    -0.460 OA
BRANCH  41  42
ATOM     42  C   UNL A   1      34.462  34.074  31.104  1.00  0.00     0.338 C 
ATOM     43  O   UNL A   1      33.519  34.843  31.075  1.00  0.00    -0.246 OA
BRANCH  42  44
ATOM     44  C   UNL A   1      35.258  33.813  32.324  1.00  0.00     0.060 A 
ATOM     45  C   UNL A   1      35.878  34.854  33.026  1.00  0.00     0.016 A 
ATOM     46  C   UNL A   1      35.534  32.487  32.651  1.00  0.00     0.016 A 
ATOM     47  C   UNL A   1      36.837  34.563  34.013  1.00  0.00     0.010 A 
ATOM     48  C   UNL A   1      36.477  32.205  33.644  1.00  0.00     0.010 A 
ATOM     49  C   UNL A   1      37.175  33.234  34.304  1.00  0.00    -0.014 A 
BRANCH  49  50
ATOM     50  C   UNL A   1      38.367  32.866  35.129  1.00  0.00     0.031 A 
ATOM     51  C   UNL A   1      38.218  32.849  36.634  1.00  0.00     0.074 A 
ATOM     52  C   UNL A   1      39.579  32.626  34.591  1.00  0.00     0.049 A 
ATOM     53  N   UNL A   1      39.132  32.754  37.567  1.00  0.00    -0.248 NA
ATOM     54  C   UNL A   1      36.845  32.968  37.153  1.00  0.00     0.031 C 
ATOM     55  C   UNL A   1      39.886  32.567  33.165  1.00  0.00     0.029 A 
ATOM     56  N   UNL A   1      40.800  32.440  35.202  1.00  0.00    -0.354 N 
ATOM     57  C   UNL A   1      38.449  32.821  38.777  1.00  0.00     0.074 A 
ATOM     58  C   UNL A   1      37.050  33.013  38.460  1.00  0.00     0.031 C 
ATOM     59  C   UNL A   1      41.215  32.415  33.009  1.00  0.00     0.029 A 
ATOM     60  C   UNL A   1      41.857  32.406  34.323  1.00  0.00     0.049 A 
ATOM     61  H   UNL A   1      40.906  32.340  36.177  1.00  0.00     0.167 HD
ATOM     62  C   UNL A   1      38.932  32.707  40.039  1.00  0.00     0.037 A 
ATOM     63  C   UNL A   1      43.187  32.434  34.545  1.00  0.00     0.037 A 
ATOM     64  C   UNL A   1      40.320  32.513  40.359  1.00  0.00     0.049 A 
ATOM     65  C   UNL A   1      43.719  32.466  35.949  1.00  0.00     0.074 A 
ATOM     66  C   UNL A   1      40.898  32.278  41.595  1.00  0.00     0.029 A 
ATOM     67  N   UNL A   1      41.355  32.554  39.436  1.00  0.00    -0.354 N 
ATOM     68  N   UNL A   1      43.061  32.502  37.081  1.00  0.00    -0.248 NA
ATOM     69  C   UNL A   1      45.182  32.445  36.101  1.00  0.00     0.031 C 
ATOM     70  C   UNL A   1      42.286  32.221  41.426  1.00  0.00     0.029 A 
ATOM     71  C   UNL A   1      42.569  32.373  40.078  1.00  0.00     0.049 A 
ATOM     72  H   UNL A   1      41.242  32.691  38.468  1.00  0.00     0.167 HD
ATOM     73  C   UNL A   1      44.026  32.444  38.080  1.00  0.00     0.074 A 
ATOM     74  C   UNL A   1      45.315  32.425  37.420  1.00  0.00     0.031 C 
ATOM     75  C   UNL A   1      43.850  32.362  39.421  1.00  0.00     0.037 A 
BRANCH  62  76
ATOM     76  C   UNL A   1      37.939  32.790  41.165  1.00  0.00     0.058 A 
ATOM     77  C   UNL A   1      37.655  34.007  41.807  1.00  0.00     0.135 A 
ATOM     78  C   UNL A   1      37.265  31.643  41.614  1.00  0.00     0.135 A 
ATOM     79  F   UNL A   1      38.275  35.134  41.423  1.00  0.00    -0.206 F 
ATOM     80  C   UNL A   1      36.783  34.075  42.889  1.00  0.00     0.059 A 
ATOM     81  C   UNL A   1      36.365  31.693  42.675  1.00  0.00     0.059 A 
ATOM     82  F   UNL A   1      37.488  30.454  41.031  1.00  0.00    -0.206 F 
ATOM     83  C   UNL A   1      36.152  32.909  43.323  1.00  0.00     0.060 A 
BRANCH  83  84
ATOM     84  S   UNL A   1      35.049  33.002  44.749  1.00  0.00     0.124 S 
ATOM     85  O   UNL A   1      35.328  34.347  45.243  1.00  0.00    -0.237 OA
ATOM     86  O   UNL A   1      33.734  32.812  44.145  1.00  0.00    -0.237 OA
ATOM     87  O   UNL A   1      35.506  31.911  45.603  1.00  0.00    -0.744 OA
ENDBRANCH  83  84
ENDBRANCH  62  76
BRANCH  63  88
ATOM     88  C   UNL A   1      44.135  32.496  33.404  1.00  0.00     0.058 A 
ATOM     89  C   UNL A   1      44.655  31.337  32.816  1.00  0.00     0.135 A 
ATOM     90  C   UNL A   1      44.543  33.734  32.887  1.00  0.00     0.135 A 
ATOM     91  F   UNL A   1      44.334  30.132  33.312  1.00  0.00    -0.206 F 
ATOM     92  C   UNL A   1      45.509  31.401  31.720  1.00  0.00     0.059 A 
ATOM     93  C   UNL A   1      45.375  33.825  31.778  1.00  0.00     0.059 A 
ATOM     94  F   UNL A   1      44.128  34.871  33.466  1.00  0.00    -0.206 F 
ATOM     95  C   UNL A   1      45.850  32.650  31.196  1.00  0.00     0.060 A 
BRANCH  95  96
ATOM     96  S   UNL A   1      46.846  32.745  29.691  1.00  0.00     0.124 S 
ATOM     97  O   UNL A   1      47.331  31.376  29.575  1.00  0.00    -0.237 OA
ATOM     98  O   UNL A   1      45.871  33.166  28.689  1.00  0.00    -0.237 OA
ATOM     99  O   UNL A   1      47.848  33.750  30.034  1.00  0.00    -0.744 OA
ENDBRANCH  95  96
ENDBRANCH  63  88
BRANCH  75 100
ATOM    100  C   UNL A   1      45.075  32.151  40.266  1.00  0.00     0.058 A 
ATOM    101  C   UNL A   1      45.621  30.881  40.493  1.00  0.00     0.135 A 
ATOM    102  C   UNL A   1      45.728  33.261  40.828  1.00  0.00     0.135 A 
ATOM    103  F   UNL A   1      45.024  29.787  39.994  1.00  0.00    -0.206 F 
ATOM    104  C   UNL A   1      46.771  30.716  41.261  1.00  0.00     0.059 A 
ATOM    105  C   UNL A   1      46.890  33.120  41.579  1.00  0.00     0.059 A 
ATOM    106  F   UNL A   1      45.244  34.498  40.640  1.00  0.00    -0.206 F 
ATOM    107  C   UNL A   1      47.399  31.842  41.798  1.00  0.00     0.060 A 
BRANCH 107 108
ATOM    108  S   UNL A   1      48.911  31.623  42.760  1.00  0.00     0.124 S 
ATOM    109  O   UNL A   1      48.499  32.112  44.072  1.00  0.00    -0.237 OA
ATOM    110  O   UNL A   1      49.140  30.185  42.663  1.00  0.00    -0.237 OA
ATOM    111  O   UNL A   1      49.883  32.454  42.057  1.00  0.00    -0.744 OA
ENDBRANCH 107 108
ENDBRANCH  75 100
ENDBRANCH  49  50
ENDBRANCH  42  44
ENDBRANCH  41  42
ENDBRANCH  40  41
ENDBRANCH  39  40
ENDBRANCH  38  39
ENDBRANCH  37  38
ENDBRANCH  36  37
ENDBRANCH   1  36
TORSDOF 26
ENDMDL
MODEL 2
REMARK VINA RESULT:      -8.8      5.143     12.246
REMARK SMILES CC1=C(C)C[C@@H](C(=O)OCCOCCOCCOCCOC(=O)c2ccc(-c3c4nc(c(-c5c(F)cc(S(=O)(=O)[O-])cc5F)c5ccc([nH]5)c(-c5c(F)cc(S(=O)(=O)[O-])cc5F)c5nc(c(-c6c(F)cc(S(=O)(=O)[O-])cc6F)c6ccc3[nH]6)C=C5)C=C4)cc2)[C@@H](C(=O)N2CCN(c3cccc(C(F)(F)F)c3)CC2)C1
REMARK SMILES IDX 15 1 14 2 13 3 12 4 11 5 10 6 9 7 7 8 8 9 6 10 1 11 2 12
REMARK SMILES IDX 3 13 109 14 4 15 5 16 90 17 91 18 92 19 93 20 94 21 108 22
REMARK SMILES IDX 95 23 107 24 96 25 97 26 98 27 106 28 99 29 101 30 100 31
REMARK SMILES IDX 102 32 103 33 104 34 105 35 16 36 17 37 18 38 19 39 20 40
REMARK SMILES IDX 21 41 22 42 23 43 24 44 25 45 89 46 26 47 88 48 27 49 28 50
REMARK SMILES IDX 29 51 82 52 30 53 87 54 81 55 83 56 31 57 86 58 80 59 79 60
REMARK SMILES IDX 32 62 66 63 45 64 65 65 46 66 49 67 64 68 84 69 47 70 48 71
REMARK SMILES IDX 63 73 85 74 50 75 33 76 34 77 43 78 35 79 36 80 42 81 44 82
REMARK SMILES IDX 37 83 38 84 39 85 40 86 41 87 67 88 68 89 77 90 69 91 70 92
REMARK SMILES IDX 76 93 78 94 71 95 72 96 73 97 74 98 75 99 51 100 52 101
REMARK SMILES IDX 61 102 53 103 54 104 60 105 62 106 55 107 56 108 57 109
REMARK SMILES IDX 58 110 59 111
REMARK H PARENT 83 61 49 72
REMARK Flexibility Score: inf
ROOT
ATOM      1  O   UNL A   1      35.037  24.374  25.047  1.00  0.00    -0.377 OA
ENDROOT
BRANCH   1   2
ATOM      2  C   UNL A   1      33.831  24.839  25.641  1.00  0.00     0.188 C 
BRANCH   2   3
ATOM      3  C   UNL A   1      32.989  25.824  24.830  1.00  0.00     0.188 C 
BRANCH   3   4
ATOM      4  O   UNL A   1      32.807  27.123  25.376  1.00  0.00    -0.376 OA
BRANCH   4   5
ATOM      5  C   UNL A   1      33.877  27.588  26.193  1.00  0.00     0.202 C 
BRANCH   5   6
ATOM      6  C   UNL A   1      33.436  28.551  27.310  1.00  0.00     0.261 C 
BRANCH   6   7
ATOM      7  O   UNL A   1      34.523  29.301  27.912  1.00  0.00    -0.463 OA
BRANCH   7   8
ATOM      8  C   UNL A   1      34.445  30.652  27.862  1.00  0.00     0.310 C 
ATOM      9  O   UNL A   1      33.396  31.277  27.742  1.00  0.00    -0.252 OA
BRANCH   8  10
ATOM     10  C   UNL A   1      35.797  31.349  27.824  1.00  0.00     0.116 C 
ATOM     11  C   UNL A   1      39.314  30.747  30.471  1.00  0.00     0.039 C 
ATOM     12  C   UNL A   1      38.249  30.953  29.429  1.00  0.00    -0.074 C 
ATOM     13  C   UNL A   1      37.896  30.016  28.529  1.00  0.00    -0.073 C 
ATOM     14  C   UNL A   1      37.664  32.334  29.341  1.00  0.00     0.045 C 
ATOM     15  C   UNL A   1      38.552  28.665  28.410  1.00  0.00     0.039 C 
ATOM     16  C   UNL A   1      36.868  30.306  27.467  1.00  0.00     0.046 C 
ATOM     17  C   UNL A   1      36.200  32.401  28.880  1.00  0.00     0.097 C 
BRANCH  17  18
ATOM     18  C   UNL A   1      35.239  32.747  30.022  1.00  0.00     0.227 C 
ATOM     19  O   UNL A   1      34.054  32.974  29.773  1.00  0.00    -0.275 OA
ATOM     20  N   UNL A   1      35.787  32.969  31.269  1.00  0.00    -0.339 N 
ATOM     21  C   UNL A   1      35.584  32.009  32.352  1.00  0.00     0.141 C 
ATOM     22  C   UNL A   1      35.795  34.339  31.788  1.00  0.00     0.141 C 
ATOM     23  C   UNL A   1      36.692  32.092  33.403  1.00  0.00     0.138 C 
ATOM     24  C   UNL A   1      36.903  34.516  32.843  1.00  0.00     0.138 C 
ATOM     25  N   UNL A   1      36.808  33.475  33.884  1.00  0.00    -0.368 N 
BRANCH  25  26
ATOM     26  C   UNL A   1      37.474  33.724  35.075  1.00  0.00     0.037 A 
ATOM     27  C   UNL A   1      38.638  34.491  35.146  1.00  0.00     0.026 A 
ATOM     28  C   UNL A   1      36.980  33.180  36.268  1.00  0.00     0.039 A 
ATOM     29  C   UNL A   1      39.269  34.723  36.368  1.00  0.00     0.003 A 
ATOM     30  C   UNL A   1      37.619  33.374  37.501  1.00  0.00     0.058 A 
ATOM     31  C   UNL A   1      38.774  34.156  37.540  1.00  0.00     0.013 A 
BRANCH  30  32
ATOM     32  C   UNL A   1      37.083  32.731  38.753  1.00  0.00     0.416 C 
ATOM     33  F   UNL A   1      35.752  32.927  38.928  1.00  0.00    -0.166 F 
ATOM     34  F   UNL A   1      37.288  31.387  38.786  1.00  0.00    -0.166 F 
ATOM     35  F   UNL A   1      37.674  33.216  39.888  1.00  0.00    -0.166 F 
ENDBRANCH  30  32
ENDBRANCH  25  26
ENDBRANCH  17  18
ENDBRANCH   8  10
ENDBRANCH   7   8
ENDBRANCH   6   7
ENDBRANCH   5   6
ENDBRANCH   4   5
ENDBRANCH   3   4
ENDBRANCH   2   3
ENDBRANCH   1   2
BRANCH   1  36
ATOM     36  C   UNL A   1      35.243  22.967  25.155  1.00  0.00     0.188 C 
BRANCH  36  37
ATOM     37  C   UNL A   1      36.284  22.425  24.164  1.00  0.00     0.188 C 
BRANCH  37  38
ATOM     38  O   UNL A   1      37.603  22.641  24.660  1.00  0.00    -0.376 OA
BRANCH  38  39
ATOM     39  C   UNL A   1      37.948  21.894  25.825  1.00  0.00     0.202 C 
BRANCH  39  40
ATOM     40  C   UNL A   1      39.282  21.113  25.815  1.00  0.00     0.261 C 
BRANCH  40  41
ATOM     41  O   UNL A   1      40.120  21.251  26.977  1.00  0.00    -0.460 OA
BRANCH  41  42
ATOM     42  C   UNL A   1      41.449  21.153  26.766  1.00  0.00     0.338 C 
ATOM     43  O   UNL A   1      42.035  20.216  26.253  1.00  0.00    -0.246 OA
BRANCH  42  44
ATOM     44  C   UNL A   1      42.142  22.337  27.319  1.00  0.00     0.060 A 
ATOM     45  C   UNL A   1      43.538  22.390  27.405  1.00  0.00     0.016 A 
ATOM     46  C   UNL A   1      41.366  23.322  27.927  1.00  0.00     0.016 A 
ATOM     47  C   UNL A   1      44.159  23.396  28.168  1.00  0.00     0.010 A 
ATOM     48  C   UNL A   1      41.989  24.328  28.670  1.00  0.00     0.010 A 
ATOM     49  C   UNL A   1      43.387  24.353  28.842  1.00  0.00    -0.014 A 
BRANCH  49  50
ATOM     50  C   UNL A   1      43.958  25.266  29.880  1.00  0.00     0.031 A 
ATOM     51  C   UNL A   1      44.256  26.696  29.489  1.00  0.00     0.074 A 
ATOM     52  C   UNL A   1      44.286  24.847  31.117  1.00  0.00     0.049 A 
ATOM     53  N   UNL A   1      44.921  27.621  30.134  1.00  0.00    -0.248 NA
ATOM     54  C   UNL A   1      43.739  27.134  28.181  1.00  0.00     0.031 C 
ATOM     55  C   UNL A   1      44.034  23.517  31.666  1.00  0.00     0.029 A 
ATOM     56  N   UNL A   1      44.962  25.499  32.125  1.00  0.00    -0.354 N 
ATOM     57  C   UNL A   1      44.919  28.739  29.306  1.00  0.00     0.074 A 
ATOM     58  C   UNL A   1      44.227  28.361  28.092  1.00  0.00     0.031 C 
ATOM     59  C   UNL A   1      44.595  23.433  32.887  1.00  0.00     0.029 A 
ATOM     60  C   UNL A   1      45.281  24.688  33.190  1.00  0.00     0.049 A 
ATOM     61  H   UNL A   1      45.194  26.456  32.088  1.00  0.00     0.167 HD
ATOM     62  C   UNL A   1      45.420  29.977  29.538  1.00  0.00     0.037 A 
ATOM     63  C   UNL A   1      46.086  24.906  34.250  1.00  0.00     0.037 A 
ATOM     64  C   UNL A   1      46.105  30.358  30.744  1.00  0.00     0.049 A 
ATOM     65  C   UNL A   1      46.767  26.232  34.424  1.00  0.00     0.074 A 
ATOM     66  C   UNL A   1      46.554  31.612  31.123  1.00  0.00     0.029 A 
ATOM     67  N   UNL A   1      46.459  29.483  31.759  1.00  0.00    -0.354 N 
ATOM     68  N   UNL A   1      46.733  27.286  33.647  1.00  0.00    -0.248 NA
ATOM     69  C   UNL A   1      47.587  26.400  35.634  1.00  0.00     0.031 C 
ATOM     70  C   UNL A   1      47.220  31.486  32.347  1.00  0.00     0.029 A 
ATOM     71  C   UNL A   1      47.144  30.163  32.753  1.00  0.00     0.049 A 
ATOM     72  H   UNL A   1      46.255  28.520  31.772  1.00  0.00     0.167 HD
ATOM     73  C   UNL A   1      47.472  28.263  34.303  1.00  0.00     0.074 A 
ATOM     74  C   UNL A   1      47.988  27.659  35.515  1.00  0.00     0.031 C 
ATOM     75  C   UNL A   1      47.662  29.559  33.953  1.00  0.00     0.037 A 
BRANCH  62  76
ATOM     76  C   UNL A   1      45.239  31.006  28.458  1.00  0.00     0.058 A 
ATOM     77  C   UNL A   1      44.234  31.986  28.537  1.00  0.00     0.135 A 
ATOM     78  C   UNL A   1      46.071  31.016  27.327  1.00  0.00     0.135 A 
ATOM     79  F   UNL A   1      43.405  32.021  29.592  1.00  0.00    -0.206 F 
ATOM     80  C   UNL A   1      44.025  32.900  27.510  1.00  0.00     0.059 A 
ATOM     81  C   UNL A   1      45.899  31.940  26.301  1.00  0.00     0.059 A 
ATOM     82  F   UNL A   1      47.054  30.109  27.203  1.00  0.00    -0.206 F 
ATOM     83  C   UNL A   1      44.857  32.862  26.390  1.00  0.00     0.060 A 
BRANCH  83  84
ATOM     84  S   UNL A   1      44.555  34.031  25.048  1.00  0.00     0.124 S 
ATOM     85  O   UNL A   1      43.395  34.759  25.553  1.00  0.00    -0.237 OA
ATOM     86  O   UNL A   1      45.803  34.787  25.000  1.00  0.00    -0.237 OA
ATOM     87  O   UNL A   1      44.304  33.169  23.897  1.00  0.00    -0.744 OA
ENDBRANCH  83  84
ENDBRANCH  62  76
BRANCH  63  88
ATOM     88  C   UNL A   1      46.353  23.816  35.222  1.00  0.00     0.058 A 
ATOM     89  C   UNL A   1      45.447  23.499  36.241  1.00  0.00     0.135 A 
ATOM     90  C   UNL A   1      47.540  23.073  35.146  1.00  0.00     0.135 A 
ATOM     91  F   UNL A   1      44.323  24.217  36.384  1.00  0.00    -0.206 F 
ATOM     92  C   UNL A   1      45.684  22.448  37.121  1.00  0.00     0.059 A 
ATOM     93  C   UNL A   1      47.790  22.004  35.997  1.00  0.00     0.059 A 
ATOM     94  F   UNL A   1      48.471  23.390  34.233  1.00  0.00    -0.206 F 
ATOM     95  C   UNL A   1      46.851  21.694  36.980  1.00  0.00     0.060 A 
BRANCH  95  96
ATOM     96  S   UNL A   1      47.107  20.244  38.027  1.00  0.00     0.124 S 
ATOM     97  O   UNL A   1      47.361  20.859  39.324  1.00  0.00    -0.237 OA
ATOM     98  O   UNL A   1      45.842  19.528  37.895  1.00  0.00    -0.237 OA
ATOM     99  O   UNL A   1      48.251  19.592  37.395  1.00  0.00    -0.744 OA
ENDBRANCH  95  96
ENDBRANCH  63  88
BRANCH  75 100
ATOM    100  C   UNL A   1      48.381  30.441  34.934  1.00  0.00     0.058 A 
ATOM    101  C   UNL A   1      49.762  30.670  34.867  1.00  0.00     0.135 A 
ATOM    102  C   UNL A   1      47.652  31.097  35.941  1.00  0.00     0.135 A 
ATOM    103  F   UNL A   1      50.506  30.053  33.935  1.00  0.00    -0.206 F 
ATOM    104  C   UNL A   1      50.400  31.511  35.774  1.00  0.00     0.059 A 
ATOM    105  C   UNL A   1      48.266  31.958  36.843  1.00  0.00     0.059 A 
ATOM    106  F   UNL A   1      46.327  30.909  36.048  1.00  0.00    -0.206 F 
ATOM    107  C   UNL A   1      49.642  32.153  36.758  1.00  0.00     0.060 A 
BRANCH 107 108
ATOM    108  S   UNL A   1      50.471  33.272  37.906  1.00  0.00     0.124 S 
ATOM    109  O   UNL A   1      49.529  33.303  39.020  1.00  0.00    -0.237 OA
ATOM    110  O   UNL A   1      51.733  32.584  38.162  1.00  0.00    -0.237 OA
ATOM    111  O   UNL A   1      50.586  34.513  37.146  1.00  0.00    -0.744 OA
ENDBRANCH 107 108
ENDBRANCH  75 100
ENDBRANCH  49  50
ENDBRANCH  42  44
ENDBRANCH  41  42
ENDBRANCH  40  41
ENDBRANCH  39  40
ENDBRANCH  38  39
ENDBRANCH  37  38
ENDBRANCH  36  37
ENDBRANCH   1  36
TORSDOF 26
ENDMDL
MODEL 3
REMARK VINA RESULT:      -8.7      7.184     14.638
REMARK SMILES CC1=C(C)C[C@@H](C(=O)OCCOCCOCCOCCOC(=O)c2ccc(-c3c4nc(c(-c5c(F)cc(S(=O)(=O)[O-])cc5F)c5ccc([nH]5)c(-c5c(F)cc(S(=O)(=O)[O-])cc5F)c5nc(c(-c6c(F)cc(S(=O)(=O)[O-])cc6F)c6ccc3[nH]6)C=C5)C=C4)cc2)[C@@H](C(=O)N2CCN(c3cccc(C(F)(F)F)c3)CC2)C1
REMARK SMILES IDX 15 1 14 2 13 3 12 4 11 5 10 6 9 7 7 8 8 9 6 10 1 11 2 12
REMARK SMILES IDX 3 13 109 14 4 15 5 16 90 17 91 18 92 19 93 20 94 21 108 22
REMARK SMILES IDX 95 23 107 24 96 25 97 26 98 27 106 28 99 29 101 30 100 31
REMARK SMILES IDX 102 32 103 33 104 34 105 35 16 36 17 37 18 38 19 39 20 40
REMARK SMILES IDX 21 41 22 42 23 43 24 44 25 45 89 46 26 47 88 48 27 49 28 50
REMARK SMILES IDX 29 51 82 52 30 53 87 54 81 55 83 56 31 57 86 58 80 59 79 60
REMARK SMILES IDX 32 62 66 63 45 64 65 65 46 66 49 67 64 68 84 69 47 70 48 71
REMARK SMILES IDX 63 73 85 74 50 75 33 76 34 77 43 78 35 79 36 80 42 81 44 82
REMARK SMILES IDX 37 83 38 84 39 85 40 86 41 87 67 88 68 89 77 90 69 91 70 92
REMARK SMILES IDX 76 93 78 94 71 95 72 96 73 97 74 98 75 99 51 100 52 101
REMARK SMILES IDX 61 102 53 103 54 104 60 105 62 106 55 107 56 108 57 109
REMARK SMILES IDX 58 110 59 111
REMARK H PARENT 83 61 49 72
REMARK Flexibility Score: inf
ROOT
ATOM      1  O   UNL A   1      49.003  30.041  31.612  1.00  0.00    -0.377 OA
ENDROOT
BRANCH   1   2
ATOM      2  C   UNL A   1      47.792  29.455  31.149  1.00  0.00     0.188 C 
BRANCH   2   3
ATOM      3  C   UNL A   1      47.779  27.937  30.962  1.00  0.00     0.188 C 
BRANCH   3   4
ATOM      4  O   UNL A   1      47.562  27.145  32.121  1.00  0.00    -0.376 OA
BRANCH   4   5
ATOM      5  C   UNL A   1      46.420  26.295  32.065  1.00  0.00     0.202 C 
BRANCH   5   6
ATOM      6  C   UNL A   1      46.435  25.159  33.103  1.00  0.00     0.261 C 
BRANCH   6   7
ATOM      7  O   UNL A   1      45.210  24.382  33.153  1.00  0.00    -0.463 OA
BRANCH   7   8
ATOM      8  C   UNL A   1      44.978  23.664  34.276  1.00  0.00     0.310 C 
ATOM      9  O   UNL A   1      44.099  22.814  34.383  1.00  0.00    -0.252 OA
BRANCH   8  10
ATOM     10  C   UNL A   1      45.815  24.097  35.472  1.00  0.00     0.116 C 
ATOM     11  C   UNL A   1      45.409  22.903  39.732  1.00  0.00     0.039 C 
ATOM     12  C   UNL A   1      45.737  23.284  38.313  1.00  0.00    -0.074 C 
ATOM     13  C   UNL A   1      46.192  22.412  37.395  1.00  0.00    -0.073 C 
ATOM     14  C   UNL A   1      45.658  24.748  37.983  1.00  0.00     0.045 C 
ATOM     15  C   UNL A   1      46.483  20.960  37.674  1.00  0.00     0.039 C 
ATOM     16  C   UNL A   1      46.564  22.867  36.008  1.00  0.00     0.046 C 
ATOM     17  C   UNL A   1      45.270  25.077  36.534  1.00  0.00     0.097 C 
BRANCH  17  18
ATOM     18  C   UNL A   1      43.840  25.616  36.417  1.00  0.00     0.227 C 
ATOM     19  O   UNL A   1      42.891  24.896  36.728  1.00  0.00    -0.275 OA
ATOM     20  N   UNL A   1      43.670  26.833  35.789  1.00  0.00    -0.339 N 
ATOM     21  C   UNL A   1      43.284  28.017  36.554  1.00  0.00     0.141 C 
ATOM     22  C   UNL A   1      43.043  26.848  34.464  1.00  0.00     0.141 C 
ATOM     23  C   UNL A   1      43.714  29.310  35.861  1.00  0.00     0.138 C 
ATOM     24  C   UNL A   1      43.445  28.114  33.686  1.00  0.00     0.138 C 
ATOM     25  N   UNL A   1      43.192  29.326  34.487  1.00  0.00    -0.368 N 
BRANCH  25  26
ATOM     26  C   UNL A   1      43.139  30.528  33.798  1.00  0.00     0.037 A 
ATOM     27  C   UNL A   1      44.248  31.086  33.160  1.00  0.00     0.026 A 
ATOM     28  C   UNL A   1      41.931  31.235  33.737  1.00  0.00     0.039 A 
ATOM     29  C   UNL A   1      44.145  32.293  32.470  1.00  0.00     0.003 A 
ATOM     30  C   UNL A   1      41.816  32.468  33.077  1.00  0.00     0.058 A 
ATOM     31  C   UNL A   1      42.941  32.992  32.439  1.00  0.00     0.013 A 
BRANCH  30  32
ATOM     32  C   UNL A   1      40.512  33.220  33.077  1.00  0.00     0.416 C 
ATOM     33  F   UNL A   1      39.614  32.736  33.971  1.00  0.00    -0.166 F 
ATOM     34  F   UNL A   1      40.665  34.543  33.355  1.00  0.00    -0.166 F 
ATOM     35  F   UNL A   1      39.878  33.175  31.865  1.00  0.00    -0.166 F 
ENDBRANCH  30  32
ENDBRANCH  25  26
ENDBRANCH  17  18
ENDBRANCH   8  10
ENDBRANCH   7   8
ENDBRANCH   6   7
ENDBRANCH   5   6
ENDBRANCH   4   5
ENDBRANCH   3   4
ENDBRANCH   2   3
ENDBRANCH   1   2
BRANCH   1  36
ATOM     36  C   UNL A   1      49.801  30.632  30.589  1.00  0.00     0.188 C 
BRANCH  36  37
ATOM     37  C   UNL A   1      50.454  31.956  31.014  1.00  0.00     0.188 C 
BRANCH  37  38
ATOM     38  O   UNL A   1      50.701  32.777  29.874  1.00  0.00    -0.376 OA
BRANCH  38  39
ATOM     39  C   UNL A   1      51.390  33.998  30.138  1.00  0.00     0.202 C 
BRANCH  39  40
ATOM     40  C   UNL A   1      50.767  35.309  29.607  1.00  0.00     0.261 C 
BRANCH  40  41
ATOM     41  O   UNL A   1      49.714  35.891  30.396  1.00  0.00    -0.460 OA
BRANCH  41  42
ATOM     42  C   UNL A   1      48.610  36.277  29.723  1.00  0.00     0.338 C 
ATOM     43  O   UNL A   1      48.328  37.412  29.383  1.00  0.00    -0.246 OA
BRANCH  42  44
ATOM     44  C   UNL A   1      47.717  35.119  29.501  1.00  0.00     0.060 A 
ATOM     45  C   UNL A   1      47.526  34.146  30.490  1.00  0.00     0.016 A 
ATOM     46  C   UNL A   1      47.218  34.917  28.216  1.00  0.00     0.016 A 
ATOM     47  C   UNL A   1      46.894  32.931  30.169  1.00  0.00     0.010 A 
ATOM     48  C   UNL A   1      46.578  33.714  27.907  1.00  0.00     0.010 A 
ATOM     49  C   UNL A   1      46.449  32.687  28.862  1.00  0.00    -0.014 A 
BRANCH  49  50
ATOM     50  C   UNL A   1      46.028  31.331  28.393  1.00  0.00     0.031 A 
ATOM     51  C   UNL A   1      44.594  30.907  28.620  1.00  0.00     0.074 A 
ATOM     52  C   UNL A   1      46.890  30.449  27.849  1.00  0.00     0.049 A 
ATOM     53  N   UNL A   1      44.035  29.731  28.483  1.00  0.00    -0.248 NA
ATOM     54  C   UNL A   1      43.670  31.960  29.074  1.00  0.00     0.031 C 
ATOM     55  C   UNL A   1      48.292  30.707  27.529  1.00  0.00     0.029 A 
ATOM     56  N   UNL A   1      46.713  29.123  27.520  1.00  0.00    -0.354 N 
ATOM     57  C   UNL A   1      42.704  29.898  28.853  1.00  0.00     0.074 A 
ATOM     58  C   UNL A   1      42.552  31.277  29.264  1.00  0.00     0.031 C 
ATOM     59  C   UNL A   1      48.861  29.563  27.103  1.00  0.00     0.029 A 
ATOM     60  C   UNL A   1      47.876  28.484  27.158  1.00  0.00     0.049 A 
ATOM     61  H   UNL A   1      45.836  28.674  27.541  1.00  0.00     0.167 HD
ATOM     62  C   UNL A   1      41.691  28.998  28.829  1.00  0.00     0.037 A 
ATOM     63  C   UNL A   1      48.136  27.175  26.961  1.00  0.00     0.037 A 
ATOM     64  C   UNL A   1      41.836  27.628  28.418  1.00  0.00     0.049 A 
ATOM     65  C   UNL A   1      47.039  26.158  27.089  1.00  0.00     0.074 A 
ATOM     66  C   UNL A   1      40.854  26.665  28.255  1.00  0.00     0.029 A 
ATOM     67  N   UNL A   1      43.046  27.016  28.127  1.00  0.00    -0.354 N 
ATOM     68  N   UNL A   1      45.782  26.336  27.412  1.00  0.00    -0.248 NA
ATOM     69  C   UNL A   1      47.400  24.760  26.807  1.00  0.00     0.031 C 
ATOM     70  C   UNL A   1      41.475  25.460  27.907  1.00  0.00     0.029 A 
ATOM     71  C   UNL A   1      42.839  25.684  27.809  1.00  0.00     0.049 A 
ATOM     72  H   UNL A   1      43.923  27.464  28.143  1.00  0.00     0.167 HD
ATOM     73  C   UNL A   1      45.187  25.083  27.311  1.00  0.00     0.074 A 
ATOM     74  C   UNL A   1      46.232  24.147  26.951  1.00  0.00     0.031 C 
ATOM     75  C   UNL A   1      43.881  24.754  27.457  1.00  0.00     0.037 A 
BRANCH  62  76
ATOM     76  C   UNL A   1      40.333  29.479  29.261  1.00  0.00     0.058 A 
ATOM     77  C   UNL A   1      39.355  29.855  28.325  1.00  0.00     0.135 A 
ATOM     78  C   UNL A   1      40.003  29.573  30.623  1.00  0.00     0.135 A 
ATOM     79  F   UNL A   1      39.617  29.792  27.010  1.00  0.00    -0.206 F 
ATOM     80  C   UNL A   1      38.120  30.359  28.724  1.00  0.00     0.059 A 
ATOM     81  C   UNL A   1      38.764  30.045  31.043  1.00  0.00     0.059 A 
ATOM     82  F   UNL A   1      40.896  29.218  31.561  1.00  0.00    -0.206 F 
ATOM     83  C   UNL A   1      37.839  30.460  30.086  1.00  0.00     0.060 A 
BRANCH  83  84
ATOM     84  S   UNL A   1      36.248  31.147  30.592  1.00  0.00     0.124 S 
ATOM     85  O   UNL A   1      35.924  30.310  31.743  1.00  0.00    -0.237 OA
ATOM     86  O   UNL A   1      36.585  32.535  30.897  1.00  0.00    -0.237 OA
ATOM     87  O   UNL A   1      35.405  30.954  29.417  1.00  0.00    -0.744 OA
ENDBRANCH  83  84
ENDBRANCH  62  76
BRANCH  63  88
ATOM     88  C   UNL A   1      49.521  26.723  26.674  1.00  0.00     0.058 A 
ATOM     89  C   UNL A   1      50.454  26.515  27.697  1.00  0.00     0.135 A 
ATOM     90  C   UNL A   1      49.935  26.499  25.353  1.00  0.00     0.135 A 
ATOM     91  F   UNL A   1      50.118  26.767  28.971  1.00  0.00    -0.206 F 
ATOM     92  C   UNL A   1      51.736  26.049  27.425  1.00  0.00     0.059 A 
ATOM     93  C   UNL A   1      51.202  26.011  25.056  1.00  0.00     0.059 A 
ATOM     94  F   UNL A   1      49.099  26.757  24.337  1.00  0.00    -0.206 F 
ATOM     95  C   UNL A   1      52.096  25.784  26.101  1.00  0.00     0.060 A 
BRANCH  95  96
ATOM     96  S   UNL A   1      53.709  25.051  25.746  1.00  0.00     0.124 S 
ATOM     97  O   UNL A   1      54.304  24.992  27.075  1.00  0.00    -0.237 OA
ATOM     98  O   UNL A   1      53.352  23.768  25.148  1.00  0.00    -0.237 OA
ATOM     99  O   UNL A   1      54.302  26.015  24.824  1.00  0.00    -0.744 OA
ENDBRANCH  95  96
ENDBRANCH  63  88
BRANCH  75 100
ATOM    100  C   UNL A   1      43.485  23.340  27.136  1.00  0.00     0.058 A 
ATOM    101  C   UNL A   1      43.154  22.409  28.130  1.00  0.00     0.135 A 
ATOM    102  C   UNL A   1      43.405  22.930  25.795  1.00  0.00     0.135 A 
ATOM    103  F   UNL A   1      43.232  22.746  29.427  1.00  0.00    -0.206 F 
ATOM    104  C   UNL A   1      42.767  21.111  27.804  1.00  0.00     0.059 A 
ATOM    105  C   UNL A   1      43.000  21.646  25.447  1.00  0.00     0.059 A 
ATOM    106  F   UNL A   1      43.713  23.784  24.807  1.00  0.00    -0.206 F 
ATOM    107  C   UNL A   1      42.692  20.740  26.459  1.00  0.00     0.060 A 
BRANCH 107 108
ATOM    108  S   UNL A   1      42.153  19.068  26.044  1.00  0.00     0.124 S 
ATOM    109  O   UNL A   1      42.937  18.794  24.845  1.00  0.00    -0.237 OA
ATOM    110  O   UNL A   1      42.529  18.312  27.235  1.00  0.00    -0.237 OA
ATOM    111  O   UNL A   1      40.716  19.218  25.834  1.00  0.00    -0.744 OA
ENDBRANCH 107 108
ENDBRANCH  75 100
ENDBRANCH  49  50
ENDBRANCH  42  44
ENDBRANCH  41  42
ENDBRANCH  40  41
ENDBRANCH  39  40
ENDBRANCH  38  39
ENDBRANCH  37  38
ENDBRANCH  36  37
ENDBRANCH   1  36
TORSDOF 26
ENDMDL
