MODEL 1
REMARK VINA RESULT:      -8.7      0.000      0.000
REMARK SMILES O=C(OCCOCCOCCOCCOC(=O)c1sccc1S(=O)(=O)Nc1ccc(Cn2cncn2)cc1)c1ccc(-c2c3nc(c(-c4c(F)cc(S(=O)(=O)[O-])cc4F)c4ccc([nH]4)c(-c4c(F)cc(S(=O)(=O)[O-])cc4F)c4nc(c(-c5c(F)cc(S(=O)(=O)[O-])cc5F)c5ccc2[nH]5)C=C4)C=C3)cc1
REMARK SMILES IDX 10 1 9 2 8 3 7 4 6 5 5 6 4 7 3 8 2 9 1 10 39 11 40 12 104 13
REMARK SMILES IDX 41 14 103 15 42 16 43 17 44 18 97 19 45 20 102 21 96 22
REMARK SMILES IDX 98 23 46 24 101 25 95 26 94 27 47 29 81 30 60 31 80 32 61 33
REMARK SMILES IDX 64 34 79 35 99 36 62 37 63 38 78 40 100 41 65 42 48 43 49 44
REMARK SMILES IDX 58 45 50 46 51 47 57 48 59 49 52 50 53 51 54 52 55 53 56 54
REMARK SMILES IDX 82 55 83 56 92 57 84 58 85 59 91 60 93 61 86 62 87 63 88 64
REMARK SMILES IDX 89 65 90 66 66 67 67 68 76 69 68 70 69 71 75 72 77 73 70 74
REMARK SMILES IDX 71 75 72 76 73 77 74 78 11 79 12 80 13 81 14 82 15 83 16 84
REMARK SMILES IDX 17 85 18 86 19 87 22 88 20 89 21 90 23 91 24 92 25 93 26 94
REMARK SMILES IDX 27 96 28 97 38 98 29 99 37 100 30 101 31 102 32 103 33 104
REMARK SMILES IDX 36 105 34 106 35 107
REMARK H PARENT 98 28 64 39 26 95
REMARK Flexibility Score: inf
ROOT
ATOM      1  C   UNL A   1      35.257  30.874  28.420  1.00  0.00     0.188 C 
ENDROOT
BRANCH   1   2
ATOM      2  O   UNL A   1      35.051  32.145  27.851  1.00  0.00    -0.377 OA
BRANCH   2   3
ATOM      3  C   UNL A   1      34.107  33.059  28.397  1.00  0.00     0.188 C 
BRANCH   3   4
ATOM      4  C   UNL A   1      34.303  33.811  29.727  1.00  0.00     0.188 C 
BRANCH   4   5
ATOM      5  O   UNL A   1      34.291  33.052  30.927  1.00  0.00    -0.376 OA
BRANCH   5   6
ATOM      6  C   UNL A   1      35.149  33.393  31.989  1.00  0.00     0.202 C 
BRANCH   6   7
ATOM      7  C   UNL A   1      36.176  32.312  32.354  1.00  0.00     0.261 C 
BRANCH   7   8
ATOM      8  O   UNL A   1      36.943  31.729  31.281  1.00  0.00    -0.460 OA
BRANCH   8   9
ATOM      9  C   UNL A   1      37.924  32.319  30.546  1.00  0.00     0.338 C 
ATOM     10  O   UNL A   1      37.645  33.136  29.673  1.00  0.00    -0.246 OA
BRANCH   9  11
ATOM     11  C   UNL A   1      39.312  31.819  30.625  1.00  0.00     0.060 A 
ATOM     12  C   UNL A   1      39.755  30.738  29.865  1.00  0.00     0.016 A 
ATOM     13  C   UNL A   1      40.200  32.501  31.482  1.00  0.00     0.016 A 
ATOM     14  C   UNL A   1      41.086  30.362  29.926  1.00  0.00     0.010 A 
ATOM     15  C   UNL A   1      41.531  32.111  31.564  1.00  0.00     0.010 A 
ATOM     16  C   UNL A   1      41.952  31.008  30.817  1.00  0.00    -0.014 A 
BRANCH  16  17
ATOM     17  C   UNL A   1      43.148  30.250  31.164  1.00  0.00     0.031 A 
ATOM     18  C   UNL A   1      44.433  30.516  30.474  1.00  0.00     0.074 A 
ATOM     19  C   UNL A   1      42.992  29.178  31.967  1.00  0.00     0.049 A 
ATOM     20  N   UNL A   1      45.029  29.773  29.594  1.00  0.00    -0.248 NA
ATOM     21  C   UNL A   1      45.143  31.761  30.787  1.00  0.00     0.031 C 
ATOM     22  C   UNL A   1      41.859  28.889  32.857  1.00  0.00     0.029 A 
ATOM     23  N   UNL A   1      43.845  28.140  32.189  1.00  0.00    -0.354 N 
ATOM     24  C   UNL A   1      46.288  30.340  29.399  1.00  0.00     0.074 A 
ATOM     25  C   UNL A   1      46.260  31.617  30.069  1.00  0.00     0.031 C 
ATOM     26  C   UNL A   1      42.179  27.858  33.661  1.00  0.00     0.029 A 
ATOM     27  C   UNL A   1      43.472  27.341  33.256  1.00  0.00     0.049 A 
ATOM     28  H   UNL A   1      44.648  27.975  31.646  1.00  0.00     0.167 HD
ATOM     29  C   UNL A   1      47.327  29.631  28.873  1.00  0.00     0.037 A 
ATOM     30  C   UNL A   1      44.201  26.361  33.831  1.00  0.00     0.037 A 
ATOM     31  C   UNL A   1      46.881  28.467  28.152  1.00  0.00     0.049 A 
ATOM     32  C   UNL A   1      45.160  25.853  32.821  1.00  0.00     0.074 A 
ATOM     33  C   UNL A   1      46.065  28.245  27.060  1.00  0.00     0.029 A 
ATOM     34  N   UNL A   1      47.091  27.232  28.713  1.00  0.00    -0.354 N 
ATOM     35  N   UNL A   1      44.816  25.182  31.755  1.00  0.00    -0.248 NA
ATOM     36  C   UNL A   1      46.507  26.404  32.798  1.00  0.00     0.031 C 
ATOM     37  C   UNL A   1      45.472  26.968  27.280  1.00  0.00     0.029 A 
ATOM     38  C   UNL A   1      45.963  26.484  28.493  1.00  0.00     0.049 A 
ATOM     39  H   UNL A   1      47.902  26.937  29.187  1.00  0.00     0.167 HD
ATOM     40  C   UNL A   1      45.730  25.559  30.783  1.00  0.00     0.074 A 
ATOM     41  C   UNL A   1      46.814  26.202  31.515  1.00  0.00     0.031 C 
ATOM     42  C   UNL A   1      45.400  25.564  29.458  1.00  0.00     0.037 A 
BRANCH  29  43
ATOM     43  C   UNL A   1      48.773  29.805  29.287  1.00  0.00     0.058 A 
ATOM     44  C   UNL A   1      49.764  30.017  28.304  1.00  0.00     0.135 A 
ATOM     45  C   UNL A   1      49.254  29.466  30.571  1.00  0.00     0.135 A 
ATOM     46  F   UNL A   1      49.422  30.343  27.047  1.00  0.00    -0.206 F 
ATOM     47  C   UNL A   1      51.124  29.811  28.553  1.00  0.00     0.059 A 
ATOM     48  C   UNL A   1      50.608  29.308  30.855  1.00  0.00     0.059 A 
ATOM     49  F   UNL A   1      48.429  29.170  31.583  1.00  0.00    -0.206 F 
ATOM     50  C   UNL A   1      51.530  29.426  29.827  1.00  0.00     0.060 A 
BRANCH  50  51
ATOM     51  S   UNL A   1      53.254  28.987  30.117  1.00  0.00     0.124 S 
ATOM     52  O   UNL A   1      53.414  27.852  29.215  1.00  0.00    -0.237 OA
ATOM     53  O   UNL A   1      53.953  30.210  29.737  1.00  0.00    -0.237 OA
ATOM     54  O   UNL A   1      53.283  28.673  31.543  1.00  0.00    -0.744 OA
ENDBRANCH  50  51
ENDBRANCH  29  43
BRANCH  30  55
ATOM     55  C   UNL A   1      44.308  26.126  35.290  1.00  0.00     0.058 A 
ATOM     56  C   UNL A   1      43.848  24.939  35.876  1.00  0.00     0.135 A 
ATOM     57  C   UNL A   1      45.084  26.973  36.115  1.00  0.00     0.135 A 
ATOM     58  F   UNL A   1      43.135  24.063  35.154  1.00  0.00    -0.206 F 
ATOM     59  C   UNL A   1      44.160  24.597  37.196  1.00  0.00     0.059 A 
ATOM     60  C   UNL A   1      45.388  26.665  37.435  1.00  0.00     0.059 A 
ATOM     61  F   UNL A   1      45.651  28.090  35.636  1.00  0.00    -0.206 F 
ATOM     62  C   UNL A   1      44.942  25.463  37.963  1.00  0.00     0.060 A 
BRANCH  62  63
ATOM     63  S   UNL A   1      45.479  24.959  39.611  1.00  0.00     0.124 S 
ATOM     64  O   UNL A   1      45.153  23.537  39.611  1.00  0.00    -0.237 OA
ATOM     65  O   UNL A   1      46.899  25.290  39.586  1.00  0.00    -0.237 OA
ATOM     66  O   UNL A   1      44.666  25.785  40.501  1.00  0.00    -0.744 OA
ENDBRANCH  62  63
ENDBRANCH  30  55
BRANCH  42  67
ATOM     67  C   UNL A   1      44.179  24.795  29.028  1.00  0.00     0.058 A 
ATOM     68  C   UNL A   1      42.887  25.345  28.986  1.00  0.00     0.135 A 
ATOM     69  C   UNL A   1      44.349  23.511  28.487  1.00  0.00     0.135 A 
ATOM     70  F   UNL A   1      42.664  26.607  29.385  1.00  0.00    -0.206 F 
ATOM     71  C   UNL A   1      41.804  24.635  28.465  1.00  0.00     0.059 A 
ATOM     72  C   UNL A   1      43.287  22.795  27.936  1.00  0.00     0.059 A 
ATOM     73  F   UNL A   1      45.572  22.958  28.435  1.00  0.00    -0.206 F 
ATOM     74  C   UNL A   1      42.014  23.360  27.938  1.00  0.00     0.060 A 
BRANCH  74  75
ATOM     75  S   UNL A   1      40.632  22.492  27.162  1.00  0.00     0.124 S 
ATOM     76  O   UNL A   1      39.556  23.470  27.266  1.00  0.00    -0.237 OA
ATOM     77  O   UNL A   1      41.131  22.237  25.812  1.00  0.00    -0.237 OA
ATOM     78  O   UNL A   1      40.474  21.297  27.989  1.00  0.00    -0.744 OA
ENDBRANCH  74  75
ENDBRANCH  42  67
ENDBRANCH  16  17
ENDBRANCH   9  11
ENDBRANCH   8   9
ENDBRANCH   7   8
ENDBRANCH   6   7
ENDBRANCH   5   6
ENDBRANCH   4   5
ENDBRANCH   3   4
ENDBRANCH   2   3
ENDBRANCH   1   2
BRANCH   1  79
ATOM     79  C   UNL A   1      35.444  29.738  27.413  1.00  0.00     0.188 C 
BRANCH  79  80
ATOM     80  O   UNL A   1      34.276  29.468  26.641  1.00  0.00    -0.376 OA
BRANCH  80  81
ATOM     81  C   UNL A   1      33.397  28.436  27.051  1.00  0.00     0.202 C 
BRANCH  81  82
ATOM     82  C   UNL A   1      31.876  28.640  26.992  1.00  0.00     0.261 C 
BRANCH  82  83
ATOM     83  O   UNL A   1      31.085  28.107  25.900  1.00  0.00    -0.459 OA
BRANCH  83  84
ATOM     84  C   UNL A   1      31.116  28.599  24.652  1.00  0.00     0.349 C 
ATOM     85  O   UNL A   1      30.636  29.661  24.263  1.00  0.00    -0.245 OA
BRANCH  84  86
ATOM     86  C   UNL A   1      31.817  27.727  23.776  1.00  0.00     0.133 A 
ATOM     87  S   UNL A   1      33.223  28.324  23.001  1.00  0.00    -0.136 S 
ATOM     88  C   UNL A   1      31.455  26.481  23.322  1.00  0.00     0.113 A 
ATOM     89  C   UNL A   1      33.390  26.900  22.076  1.00  0.00     0.067 A 
ATOM     90  C   UNL A   1      32.391  25.990  22.351  1.00  0.00     0.035 A 
BRANCH  88  91
ATOM     91  S   UNL A   1      30.074  25.564  23.840  1.00  0.00     0.263 S 
ATOM     92  O   UNL A   1      28.957  26.449  23.602  1.00  0.00    -0.201 OA
ATOM     93  O   UNL A   1      30.233  24.339  23.085  1.00  0.00    -0.201 OA
BRANCH  91  94
ATOM     94  N   UNL A   1      30.114  25.095  25.445  1.00  0.00    -0.280 N 
ATOM     95  H   UNL A   1      29.372  25.404  26.012  1.00  0.00     0.180 HD
BRANCH  94  96
ATOM     96  C   UNL A   1      31.116  24.292  26.082  1.00  0.00     0.049 A 
ATOM     97  C   UNL A   1      30.923  22.902  26.033  1.00  0.00     0.027 A 
ATOM     98  C   UNL A   1      32.366  24.768  26.462  1.00  0.00     0.027 A 
ATOM     99  C   UNL A   1      32.001  22.009  26.176  1.00  0.00     0.008 A 
ATOM    100  C   UNL A   1      33.448  23.882  26.579  1.00  0.00     0.008 A 
ATOM    101  C   UNL A   1      33.301  22.504  26.336  1.00  0.00    -0.026 A 
BRANCH 101 102
ATOM    102  C   UNL A   1      34.561  21.738  25.971  1.00  0.00     0.181 C 
BRANCH 102 103
ATOM    103  N   UNL A   1      35.308  22.186  24.807  1.00  0.00    -0.249 N 
ATOM    104  C   UNL A   1      34.810  22.495  23.575  1.00  0.00     0.220 A 
ATOM    105  N   UNL A   1      36.560  22.672  24.948  1.00  0.00    -0.160 NA
ATOM    106  N   UNL A   1      35.721  23.133  22.878  1.00  0.00    -0.224 NA
ATOM    107  C   UNL A   1      36.756  23.249  23.759  1.00  0.00     0.246 A 
ENDBRANCH 102 103
ENDBRANCH 101 102
ENDBRANCH  94  96
ENDBRANCH  91  94
ENDBRANCH  88  91
ENDBRANCH  84  86
ENDBRANCH  83  84
ENDBRANCH  82  83
ENDBRANCH  81  82
ENDBRANCH  80  81
ENDBRANCH  79  80
ENDBRANCH   1  79
TORSDOF 28
ENDMDL
MODEL 2
REMARK VINA RESULT:      -8.6      3.841      8.047
REMARK SMILES O=C(OCCOCCOCCOCCOC(=O)c1sccc1S(=O)(=O)Nc1ccc(Cn2cncn2)cc1)c1ccc(-c2c3nc(c(-c4c(F)cc(S(=O)(=O)[O-])cc4F)c4ccc([nH]4)c(-c4c(F)cc(S(=O)(=O)[O-])cc4F)c4nc(c(-c5c(F)cc(S(=O)(=O)[O-])cc5F)c5ccc2[nH]5)C=C4)C=C3)cc1
REMARK SMILES IDX 10 1 9 2 8 3 7 4 6 5 5 6 4 7 3 8 2 9 1 10 39 11 40 12 104 13
REMARK SMILES IDX 41 14 103 15 42 16 43 17 44 18 97 19 45 20 102 21 96 22
REMARK SMILES IDX 98 23 46 24 101 25 95 26 94 27 47 29 81 30 60 31 80 32 61 33
REMARK SMILES IDX 64 34 79 35 99 36 62 37 63 38 78 40 100 41 65 42 48 43 49 44
REMARK SMILES IDX 58 45 50 46 51 47 57 48 59 49 52 50 53 51 54 52 55 53 56 54
REMARK SMILES IDX 82 55 83 56 92 57 84 58 85 59 91 60 93 61 86 62 87 63 88 64
REMARK SMILES IDX 89 65 90 66 66 67 67 68 76 69 68 70 69 71 75 72 77 73 70 74
REMARK SMILES IDX 71 75 72 76 73 77 74 78 11 79 12 80 13 81 14 82 15 83 16 84
REMARK SMILES IDX 17 85 18 86 19 87 22 88 20 89 21 90 23 91 24 92 25 93 26 94
REMARK SMILES IDX 27 96 28 97 38 98 29 99 37 100 30 101 31 102 32 103 33 104
REMARK SMILES IDX 36 105 34 106 35 107
REMARK H PARENT 98 28 64 39 26 95
REMARK Flexibility Score: inf
ROOT
ATOM      1  C   UNL A   1      35.682  31.237  29.134  1.00  0.00     0.188 C 
ENDROOT
BRANCH   1   2
ATOM      2  O   UNL A   1      35.368  32.560  28.767  1.00  0.00    -0.377 OA
BRANCH   2   3
ATOM      3  C   UNL A   1      34.079  33.112  29.011  1.00  0.00     0.188 C 
BRANCH   3   4
ATOM      4  C   UNL A   1      33.780  34.623  29.050  1.00  0.00     0.188 C 
BRANCH   4   5
ATOM      5  O   UNL A   1      32.674  35.061  29.826  1.00  0.00    -0.376 OA
BRANCH   5   6
ATOM      6  C   UNL A   1      32.827  36.116  30.744  1.00  0.00     0.202 C 
BRANCH   6   7
ATOM      7  C   UNL A   1      32.609  35.724  32.212  1.00  0.00     0.261 C 
BRANCH   7   8
ATOM      8  O   UNL A   1      33.734  35.184  32.935  1.00  0.00    -0.460 OA
BRANCH   8   9
ATOM      9  C   UNL A   1      34.246  33.926  32.855  1.00  0.00     0.338 C 
ATOM     10  O   UNL A   1      33.548  32.950  33.112  1.00  0.00    -0.246 OA
BRANCH   9  11
ATOM     11  C   UNL A   1      35.700  33.728  32.684  1.00  0.00     0.060 A 
ATOM     12  C   UNL A   1      36.431  34.403  31.708  1.00  0.00     0.016 A 
ATOM     13  C   UNL A   1      36.344  32.847  33.577  1.00  0.00     0.016 A 
ATOM     14  C   UNL A   1      37.803  34.233  31.646  1.00  0.00     0.010 A 
ATOM     15  C   UNL A   1      37.719  32.656  33.501  1.00  0.00     0.010 A 
ATOM     16  C   UNL A   1      38.432  33.317  32.499  1.00  0.00    -0.014 A 
BRANCH  16  17
ATOM     17  C   UNL A   1      39.736  32.854  32.043  1.00  0.00     0.031 A 
ATOM     18  C   UNL A   1      39.877  31.535  31.380  1.00  0.00     0.074 A 
ATOM     19  C   UNL A   1      40.816  33.564  32.429  1.00  0.00     0.049 A 
ATOM     20  N   UNL A   1      40.409  30.457  31.867  1.00  0.00    -0.248 NA
ATOM     21  C   UNL A   1      39.358  31.385  30.017  1.00  0.00     0.031 C 
ATOM     22  C   UNL A   1      40.843  34.950  32.915  1.00  0.00     0.029 A 
ATOM     23  N   UNL A   1      42.129  33.203  32.421  1.00  0.00    -0.354 N 
ATOM     24  C   UNL A   1      40.492  29.555  30.807  1.00  0.00     0.074 A 
ATOM     25  C   UNL A   1      39.730  30.135  29.728  1.00  0.00     0.031 C 
ATOM     26  C   UNL A   1      42.119  35.375  32.972  1.00  0.00     0.029 A 
ATOM     27  C   UNL A   1      42.991  34.260  32.655  1.00  0.00     0.049 A 
ATOM     28  H   UNL A   1      42.435  32.282  32.264  1.00  0.00     0.167 HD
ATOM     29  C   UNL A   1      41.346  28.493  30.825  1.00  0.00     0.037 A 
ATOM     30  C   UNL A   1      44.335  34.256  32.527  1.00  0.00     0.037 A 
ATOM     31  C   UNL A   1      41.770  28.160  32.161  1.00  0.00     0.049 A 
ATOM     32  C   UNL A   1      44.806  32.861  32.697  1.00  0.00     0.074 A 
ATOM     33  C   UNL A   1      41.133  27.777  33.324  1.00  0.00     0.029 A 
ATOM     34  N   UNL A   1      43.061  28.453  32.527  1.00  0.00    -0.354 N 
ATOM     35  N   UNL A   1      44.758  32.203  33.824  1.00  0.00    -0.248 NA
ATOM     36  C   UNL A   1      45.009  32.043  31.511  1.00  0.00     0.031 C 
ATOM     37  C   UNL A   1      41.939  28.281  34.386  1.00  0.00     0.029 A 
ATOM     38  C   UNL A   1      43.024  28.940  33.808  1.00  0.00     0.049 A 
ATOM     39  H   UNL A   1      43.865  28.335  31.971  1.00  0.00     0.167 HD
ATOM     40  C   UNL A   1      44.524  30.886  33.461  1.00  0.00     0.074 A 
ATOM     41  C   UNL A   1      44.820  30.830  32.035  1.00  0.00     0.031 C 
ATOM     42  C   UNL A   1      43.851  30.029  34.284  1.00  0.00     0.037 A 
BRANCH  29  43
ATOM     43  C   UNL A   1      42.063  27.955  29.605  1.00  0.00     0.058 A 
ATOM     44  C   UNL A   1      43.082  28.719  28.995  1.00  0.00     0.135 A 
ATOM     45  C   UNL A   1      41.579  26.870  28.842  1.00  0.00     0.135 A 
ATOM     46  F   UNL A   1      43.616  29.775  29.629  1.00  0.00    -0.206 F 
ATOM     47  C   UNL A   1      43.516  28.483  27.689  1.00  0.00     0.059 A 
ATOM     48  C   UNL A   1      42.035  26.584  27.558  1.00  0.00     0.059 A 
ATOM     49  F   UNL A   1      40.568  26.101  29.263  1.00  0.00    -0.206 F 
ATOM     50  C   UNL A   1      42.962  27.429  26.969  1.00  0.00     0.060 A 
BRANCH  50  51
ATOM     51  S   UNL A   1      43.383  27.221  25.229  1.00  0.00     0.124 S 
ATOM     52  O   UNL A   1      43.217  25.782  25.065  1.00  0.00    -0.237 OA
ATOM     53  O   UNL A   1      42.390  28.060  24.567  1.00  0.00    -0.237 OA
ATOM     54  O   UNL A   1      44.757  27.713  25.158  1.00  0.00    -0.744 OA
ENDBRANCH  50  51
ENDBRANCH  29  43
BRANCH  30  55
ATOM     55  C   UNL A   1      45.134  35.350  31.926  1.00  0.00     0.058 A 
ATOM     56  C   UNL A   1      46.186  35.957  32.625  1.00  0.00     0.135 A 
ATOM     57  C   UNL A   1      45.031  35.664  30.551  1.00  0.00     0.135 A 
ATOM     58  F   UNL A   1      46.377  35.686  33.924  1.00  0.00    -0.206 F 
ATOM     59  C   UNL A   1      47.099  36.807  31.993  1.00  0.00     0.059 A 
ATOM     60  C   UNL A   1      45.912  36.523  29.907  1.00  0.00     0.059 A 
ATOM     61  F   UNL A   1      44.119  35.074  29.764  1.00  0.00    -0.206 F 
ATOM     62  C   UNL A   1      46.960  37.074  30.630  1.00  0.00     0.060 A 
BRANCH  62  63
ATOM     63  S   UNL A   1      48.220  38.043  29.775  1.00  0.00     0.124 S 
ATOM     64  O   UNL A   1      47.464  38.599  28.658  1.00  0.00    -0.237 OA
ATOM     65  O   UNL A   1      48.630  38.991  30.805  1.00  0.00    -0.237 OA
ATOM     66  O   UNL A   1      49.227  37.049  29.412  1.00  0.00    -0.744 OA
ENDBRANCH  62  63
ENDBRANCH  30  55
BRANCH  42  67
ATOM     67  C   UNL A   1      43.705  30.404  35.734  1.00  0.00     0.058 A 
ATOM     68  C   UNL A   1      44.667  30.112  36.716  1.00  0.00     0.135 A 
ATOM     69  C   UNL A   1      42.631  31.227  36.111  1.00  0.00     0.135 A 
ATOM     70  F   UNL A   1      45.776  29.423  36.407  1.00  0.00    -0.206 F 
ATOM     71  C   UNL A   1      44.548  30.585  38.024  1.00  0.00     0.059 A 
ATOM     72  C   UNL A   1      42.507  31.733  37.405  1.00  0.00     0.059 A 
ATOM     73  F   UNL A   1      41.715  31.598  35.202  1.00  0.00    -0.206 F 
ATOM     74  C   UNL A   1      43.465  31.399  38.359  1.00  0.00     0.060 A 
BRANCH  74  75
ATOM     75  S   UNL A   1      43.375  32.101  40.022  1.00  0.00     0.124 S 
ATOM     76  O   UNL A   1      42.080  32.771  40.004  1.00  0.00    -0.237 OA
ATOM     77  O   UNL A   1      43.466  30.918  40.875  1.00  0.00    -0.237 OA
ATOM     78  O   UNL A   1      44.537  32.986  40.080  1.00  0.00    -0.744 OA
ENDBRANCH  74  75
ENDBRANCH  42  67
ENDBRANCH  16  17
ENDBRANCH   9  11
ENDBRANCH   8   9
ENDBRANCH   7   8
ENDBRANCH   6   7
ENDBRANCH   5   6
ENDBRANCH   4   5
ENDBRANCH   3   4
ENDBRANCH   2   3
ENDBRANCH   1   2
BRANCH   1  79
ATOM     79  C   UNL A   1      36.300  30.388  28.022  1.00  0.00     0.188 C 
BRANCH  79  80
ATOM     80  O   UNL A   1      35.348  29.930  27.064  1.00  0.00    -0.376 OA
BRANCH  80  81
ATOM     81  C   UNL A   1      34.102  29.429  27.509  1.00  0.00     0.202 C 
BRANCH  81  82
ATOM     82  C   UNL A   1      32.791  29.939  26.891  1.00  0.00     0.261 C 
BRANCH  82  83
ATOM     83  O   UNL A   1      31.884  29.043  26.200  1.00  0.00    -0.459 OA
BRANCH  83  84
ATOM     84  C   UNL A   1      31.479  29.227  24.934  1.00  0.00     0.349 C 
ATOM     85  O   UNL A   1      30.677  30.064  24.528  1.00  0.00    -0.245 OA
BRANCH  84  86
ATOM     86  C   UNL A   1      32.123  28.316  24.054  1.00  0.00     0.133 A 
ATOM     87  S   UNL A   1      33.447  28.888  23.130  1.00  0.00    -0.136 S 
ATOM     88  C   UNL A   1      31.751  27.039  23.706  1.00  0.00     0.113 A 
ATOM     89  C   UNL A   1      33.565  27.415  22.278  1.00  0.00     0.067 A 
ATOM     90  C   UNL A   1      32.612  26.507  22.689  1.00  0.00     0.035 A 
BRANCH  88  91
ATOM     91  S   UNL A   1      30.437  26.132  24.391  1.00  0.00     0.263 S 
ATOM     92  O   UNL A   1      30.770  26.040  25.794  1.00  0.00    -0.201 OA
ATOM     93  O   UNL A   1      29.289  26.893  23.943  1.00  0.00    -0.201 OA
BRANCH  91  94
ATOM     94  N   UNL A   1      30.231  24.607  23.737  1.00  0.00    -0.280 N 
ATOM     95  H   UNL A   1      29.603  24.534  22.983  1.00  0.00     0.180 HD
BRANCH  94  96
ATOM     96  C   UNL A   1      30.872  23.397  24.159  1.00  0.00     0.049 A 
ATOM     97  C   UNL A   1      31.776  22.822  23.251  1.00  0.00     0.027 A 
ATOM     98  C   UNL A   1      30.883  22.942  25.473  1.00  0.00     0.027 A 
ATOM     99  C   UNL A   1      32.793  21.952  23.685  1.00  0.00     0.008 A 
ATOM    100  C   UNL A   1      31.912  22.095  25.913  1.00  0.00     0.008 A 
ATOM    101  C   UNL A   1      32.939  21.673  25.049  1.00  0.00    -0.026 A 
BRANCH 101 102
ATOM    102  C   UNL A   1      34.238  21.228  25.700  1.00  0.00     0.181 C 
BRANCH 102 103
ATOM    103  N   UNL A   1      35.419  22.044  25.472  1.00  0.00    -0.249 N 
ATOM    104  C   UNL A   1      36.466  21.768  24.642  1.00  0.00     0.220 A 
ATOM    105  N   UNL A   1      35.423  23.348  25.823  1.00  0.00    -0.160 NA
ATOM    106  N   UNL A   1      37.192  22.849  24.472  1.00  0.00    -0.224 NA
ATOM    107  C   UNL A   1      36.506  23.792  25.180  1.00  0.00     0.246 A 
ENDBRANCH 102 103
ENDBRANCH 101 102
ENDBRANCH  94  96
ENDBRANCH  91  94
ENDBRANCH  88  91
ENDBRANCH  84  86
ENDBRANCH  83  84
ENDBRANCH  82  83
ENDBRANCH  81  82
ENDBRANCH  80  81
ENDBRANCH  79  80
ENDBRANCH   1  79
TORSDOF 28
ENDMDL
MODEL 3
REMARK VINA RESULT:      -8.1      5.024      9.196
REMARK SMILES O=C(OCCOCCOCCOCCOC(=O)c1sccc1S(=O)(=O)Nc1ccc(Cn2cncn2)cc1)c1ccc(-c2c3nc(c(-c4c(F)cc(S(=O)(=O)[O-])cc4F)c4ccc([nH]4)c(-c4c(F)cc(S(=O)(=O)[O-])cc4F)c4nc(c(-c5c(F)cc(S(=O)(=O)[O-])cc5F)c5ccc2[nH]5)C=C4)C=C3)cc1
REMARK SMILES IDX 10 1 9 2 8 3 7 4 6 5 5 6 4 7 3 8 2 9 1 10 39 11 40 12 104 13
REMARK SMILES IDX 41 14 103 15 42 16 43 17 44 18 97 19 45 20 102 21 96 22
REMARK SMILES IDX 98 23 46 24 101 25 95 26 94 27 47 29 81 30 60 31 80 32 61 33
REMARK SMILES IDX 64 34 79 35 99 36 62 37 63 38 78 40 100 41 65 42 48 43 49 44
REMARK SMILES IDX 58 45 50 46 51 47 57 48 59 49 52 50 53 51 54 52 55 53 56 54
REMARK SMILES IDX 82 55 83 56 92 57 84 58 85 59 91 60 93 61 86 62 87 63 88 64
REMARK SMILES IDX 89 65 90 66 66 67 67 68 76 69 68 70 69 71 75 72 77 73 70 74
REMARK SMILES IDX 71 75 72 76 73 77 74 78 11 79 12 80 13 81 14 82 15 83 16 84
REMARK SMILES IDX 17 85 18 86 19 87 22 88 20 89 21 90 23 91 24 92 25 93 26 94
REMARK SMILES IDX 27 96 28 97 38 98 29 99 37 100 30 101 31 102 32 103 33 104
REMARK SMILES IDX 36 105 34 106 35 107
REMARK H PARENT 98 28 64 39 26 95
REMARK Flexibility Score: inf
ROOT
ATOM      1  C   UNL A   1      39.019  28.291  28.241  1.00  0.00     0.188 C 
ENDROOT
BRANCH   1   2
ATOM      2  O   UNL A   1      38.161  29.316  27.798  1.00  0.00    -0.377 OA
BRANCH   2   3
ATOM      3  C   UNL A   1      36.960  29.632  28.494  1.00  0.00     0.188 C 
BRANCH   3   4
ATOM      4  C   UNL A   1      35.552  29.520  27.879  1.00  0.00     0.188 C 
BRANCH   4   5
ATOM      5  O   UNL A   1      34.807  30.717  27.703  1.00  0.00    -0.376 OA
BRANCH   5   6
ATOM      6  C   UNL A   1      35.400  31.964  27.973  1.00  0.00     0.202 C 
BRANCH   6   7
ATOM      7  C   UNL A   1      34.416  33.142  28.022  1.00  0.00     0.261 C 
BRANCH   7   8
ATOM      8  O   UNL A   1      34.568  34.097  29.091  1.00  0.00    -0.460 OA
BRANCH   8   9
ATOM      9  C   UNL A   1      34.390  33.887  30.424  1.00  0.00     0.338 C 
ATOM     10  O   UNL A   1      33.370  34.274  30.986  1.00  0.00    -0.246 OA
BRANCH   9  11
ATOM     11  C   UNL A   1      35.513  33.401  31.253  1.00  0.00     0.060 A 
ATOM     12  C   UNL A   1      35.328  32.479  32.282  1.00  0.00     0.016 A 
ATOM     13  C   UNL A   1      36.802  33.879  30.944  1.00  0.00     0.016 A 
ATOM     14  C   UNL A   1      36.428  32.004  32.975  1.00  0.00     0.010 A 
ATOM     15  C   UNL A   1      37.906  33.422  31.654  1.00  0.00     0.010 A 
ATOM     16  C   UNL A   1      37.701  32.521  32.702  1.00  0.00    -0.014 A 
BRANCH  16  17
ATOM     17  C   UNL A   1      38.675  32.343  33.771  1.00  0.00     0.031 A 
ATOM     18  C   UNL A   1      38.640  33.210  34.973  1.00  0.00     0.074 A 
ATOM     19  C   UNL A   1      39.714  31.517  33.531  1.00  0.00     0.049 A 
ATOM     20  N   UNL A   1      39.465  34.160  35.288  1.00  0.00    -0.248 NA
ATOM     21  C   UNL A   1      37.556  33.011  35.940  1.00  0.00     0.031 C 
ATOM     22  C   UNL A   1      39.803  30.472  32.502  1.00  0.00     0.029 A 
ATOM     23  N   UNL A   1      40.897  31.409  34.198  1.00  0.00    -0.354 N 
ATOM     24  C   UNL A   1      39.140  34.537  36.591  1.00  0.00     0.074 A 
ATOM     25  C   UNL A   1      37.892  33.880  36.897  1.00  0.00     0.031 C 
ATOM     26  C   UNL A   1      40.891  29.713  32.734  1.00  0.00     0.029 A 
ATOM     27  C   UNL A   1      41.632  30.294  33.836  1.00  0.00     0.049 A 
ATOM     28  H   UNL A   1      41.199  32.060  34.871  1.00  0.00     0.167 HD
ATOM     29  C   UNL A   1      40.020  35.199  37.393  1.00  0.00     0.037 A 
ATOM     30  C   UNL A   1      42.742  29.821  34.443  1.00  0.00     0.037 A 
ATOM     31  C   UNL A   1      41.066  35.841  36.640  1.00  0.00     0.049 A 
ATOM     32  C   UNL A   1      43.401  30.953  35.137  1.00  0.00     0.074 A 
ATOM     33  C   UNL A   1      41.112  36.803  35.651  1.00  0.00     0.029 A 
ATOM     34  N   UNL A   1      42.329  35.305  36.691  1.00  0.00    -0.354 N 
ATOM     35  N   UNL A   1      43.976  31.954  34.526  1.00  0.00    -0.248 NA
ATOM     36  C   UNL A   1      43.110  31.172  36.546  1.00  0.00     0.031 C 
ATOM     37  C   UNL A   1      42.260  36.491  34.866  1.00  0.00     0.029 A 
ATOM     38  C   UNL A   1      42.850  35.357  35.424  1.00  0.00     0.049 A 
ATOM     39  H   UNL A   1      42.779  34.949  37.492  1.00  0.00     0.167 HD
ATOM     40  C   UNL A   1      43.757  33.049  35.348  1.00  0.00     0.074 A 
ATOM     41  C   UNL A   1      43.342  32.484  36.626  1.00  0.00     0.031 C 
ATOM     42  C   UNL A   1      43.666  34.313  34.840  1.00  0.00     0.037 A 
BRANCH  29  43
ATOM     43  C   UNL A   1      40.127  34.997  38.890  1.00  0.00     0.058 A 
ATOM     44  C   UNL A   1      40.034  36.107  39.757  1.00  0.00     0.135 A 
ATOM     45  C   UNL A   1      40.620  33.810  39.475  1.00  0.00     0.135 A 
ATOM     46  F   UNL A   1      39.578  37.288  39.309  1.00  0.00    -0.206 F 
ATOM     47  C   UNL A   1      40.489  36.068  41.078  1.00  0.00     0.059 A 
ATOM     48  C   UNL A   1      41.030  33.734  40.803  1.00  0.00     0.059 A 
ATOM     49  F   UNL A   1      40.827  32.698  38.758  1.00  0.00    -0.206 F 
ATOM     50  C   UNL A   1      41.014  34.881  41.580  1.00  0.00     0.060 A 
BRANCH  50  51
ATOM     51  S   UNL A   1      41.764  34.863  43.218  1.00  0.00     0.124 S 
ATOM     52  O   UNL A   1      42.625  33.690  43.125  1.00  0.00    -0.237 OA
ATOM     53  O   UNL A   1      42.443  36.153  43.263  1.00  0.00    -0.237 OA
ATOM     54  O   UNL A   1      40.614  34.737  44.110  1.00  0.00    -0.744 OA
ENDBRANCH  50  51
ENDBRANCH  29  43
BRANCH  30  55
ATOM     55  C   UNL A   1      43.020  28.390  34.709  1.00  0.00     0.058 A 
ATOM     56  C   UNL A   1      42.276  27.662  35.648  1.00  0.00     0.135 A 
ATOM     57  C   UNL A   1      43.875  27.640  33.869  1.00  0.00     0.135 A 
ATOM     58  F   UNL A   1      41.414  28.292  36.460  1.00  0.00    -0.206 F 
ATOM     59  C   UNL A   1      42.356  26.269  35.733  1.00  0.00     0.059 A 
ATOM     60  C   UNL A   1      43.988  26.258  33.950  1.00  0.00     0.059 A 
ATOM     61  F   UNL A   1      44.566  28.219  32.876  1.00  0.00    -0.206 F 
ATOM     62  C   UNL A   1      43.206  25.574  34.870  1.00  0.00     0.060 A 
BRANCH  62  63
ATOM     63  S   UNL A   1      43.199  23.770  34.868  1.00  0.00     0.124 S 
ATOM     64  O   UNL A   1      44.182  23.464  35.902  1.00  0.00    -0.237 OA
ATOM     65  O   UNL A   1      41.810  23.468  35.197  1.00  0.00    -0.237 OA
ATOM     66  O   UNL A   1      43.601  23.429  33.506  1.00  0.00    -0.744 OA
ENDBRANCH  62  63
ENDBRANCH  30  55
BRANCH  42  67
ATOM     67  C   UNL A   1      44.185  34.559  33.449  1.00  0.00     0.058 A 
ATOM     68  C   UNL A   1      45.521  34.888  33.163  1.00  0.00     0.135 A 
ATOM     69  C   UNL A   1      43.340  34.297  32.360  1.00  0.00     0.135 A 
ATOM     70  F   UNL A   1      46.416  35.048  34.150  1.00  0.00    -0.206 F 
ATOM     71  C   UNL A   1      45.987  34.988  31.851  1.00  0.00     0.059 A 
ATOM     72  C   UNL A   1      43.791  34.364  31.042  1.00  0.00     0.059 A 
ATOM     73  F   UNL A   1      42.070  33.911  32.569  1.00  0.00    -0.206 F 
ATOM     74  C   UNL A   1      45.114  34.720  30.795  1.00  0.00     0.060 A 
BRANCH  74  75
ATOM     75  S   UNL A   1      45.750  34.740  29.103  1.00  0.00     0.124 S 
ATOM     76  O   UNL A   1      44.528  34.648  28.314  1.00  0.00    -0.237 OA
ATOM     77  O   UNL A   1      46.453  36.020  29.040  1.00  0.00    -0.237 OA
ATOM     78  O   UNL A   1      46.618  33.565  29.053  1.00  0.00    -0.744 OA
ENDBRANCH  74  75
ENDBRANCH  42  67
ENDBRANCH  16  17
ENDBRANCH   9  11
ENDBRANCH   8   9
ENDBRANCH   7   8
ENDBRANCH   6   7
ENDBRANCH   5   6
ENDBRANCH   4   5
ENDBRANCH   3   4
ENDBRANCH   2   3
ENDBRANCH   1   2
BRANCH   1  79
ATOM     79  C   UNL A   1      40.180  27.969  27.299  1.00  0.00     0.188 C 
BRANCH  79  80
ATOM     80  O   UNL A   1      40.412  26.570  27.146  1.00  0.00    -0.376 OA
BRANCH  80  81
ATOM     81  C   UNL A   1      39.411  25.652  27.544  1.00  0.00     0.202 C 
BRANCH  81  82
ATOM     82  C   UNL A   1      39.071  24.440  26.664  1.00  0.00     0.261 C 
BRANCH  82  83
ATOM     83  O   UNL A   1      37.806  23.744  26.795  1.00  0.00    -0.459 OA
BRANCH  83  84
ATOM     84  C   UNL A   1      36.984  23.497  25.764  1.00  0.00     0.349 C 
ATOM     85  O   UNL A   1      36.394  24.325  25.074  1.00  0.00    -0.245 OA
BRANCH  84  86
ATOM     86  C   UNL A   1      36.870  22.102  25.522  1.00  0.00     0.133 A 
ATOM     87  S   UNL A   1      38.307  21.214  25.240  1.00  0.00    -0.136 S 
ATOM     88  C   UNL A   1      35.738  21.345  25.331  1.00  0.00     0.113 A 
ATOM     89  C   UNL A   1      37.431  19.791  24.897  1.00  0.00     0.067 A 
ATOM     90  C   UNL A   1      36.070  19.990  24.994  1.00  0.00     0.035 A 
BRANCH  88  91
ATOM     91  S   UNL A   1      34.098  21.898  25.489  1.00  0.00     0.263 S 
ATOM     92  O   UNL A   1      33.671  22.120  24.127  1.00  0.00    -0.201 OA
ATOM     93  O   UNL A   1      33.511  20.850  26.296  1.00  0.00    -0.201 OA
BRANCH  91  94
ATOM     94  N   UNL A   1      33.921  23.294  26.392  1.00  0.00    -0.280 N 
ATOM     95  H   UNL A   1      34.645  23.502  27.026  1.00  0.00     0.180 HD
BRANCH  94  96
ATOM     96  C   UNL A   1      32.827  24.218  26.342  1.00  0.00     0.049 A 
ATOM     97  C   UNL A   1      33.082  25.451  25.717  1.00  0.00     0.027 A 
ATOM     98  C   UNL A   1      31.504  23.869  26.589  1.00  0.00     0.027 A 
ATOM     99  C   UNL A   1      32.038  26.228  25.183  1.00  0.00     0.008 A 
ATOM    100  C   UNL A   1      30.463  24.629  26.036  1.00  0.00     0.008 A 
ATOM    101  C   UNL A   1      30.720  25.760  25.238  1.00  0.00    -0.026 A 
BRANCH 101 102
ATOM    102  C   UNL A   1      29.618  26.184  24.282  1.00  0.00     0.181 C 
BRANCH 102 103
ATOM    103  N   UNL A   1      29.818  27.410  23.526  1.00  0.00    -0.249 N 
ATOM    104  C   UNL A   1      30.647  27.596  22.459  1.00  0.00     0.220 A 
ATOM    105  N   UNL A   1      28.920  28.415  23.610  1.00  0.00    -0.160 NA
ATOM    106  N   UNL A   1      30.350  28.727  21.861  1.00  0.00    -0.224 NA
ATOM    107  C   UNL A   1      29.276  29.176  22.571  1.00  0.00     0.246 A 
ENDBRANCH 102 103
ENDBRANCH 101 102
ENDBRANCH  94  96
ENDBRANCH  91  94
ENDBRANCH  88  91
ENDBRANCH  84  86
ENDBRANCH  83  84
ENDBRANCH  82  83
ENDBRANCH  81  82
ENDBRANCH  80  81
ENDBRANCH  79  80
ENDBRANCH   1  79
TORSDOF 28
ENDMDL
