MODEL 1
REMARK VINA RESULT:      -6.0      0.000      0.000
REMARK SMILES CC(C)[C@H](NC(=O)[C@H](C)NC(=O)CNC(=O)OCc1ccccc1)C(=O)OCCOCCOCCOCCOC(=O)c1ccc(-c2c3nc(c(-c4c(F)cc(S(=O)(=O)[O-])cc4F)c4ccc([nH]4)c(-c4c(F)cc(S(=O)(=O)[O-])cc4F)c4nc(c(-c5c(F)cc(S(=O)(=O)[O-])cc5F)c5ccc2[nH]5)C=C4)C=C3)cc1
REMARK SMILES IDX 31 1 30 2 29 3 28 4 27 5 25 6 26 7 4 8 2 9 1 10 3 11 5 12
REMARK SMILES IDX 6 13 7 15 8 16 9 17 10 18 11 19 12 21 13 22 14 23 15 24
REMARK SMILES IDX 16 26 17 27 18 28 19 29 20 30 24 31 21 32 23 33 22 34 32 35
REMARK SMILES IDX 33 36 34 37 35 38 36 39 37 40 38 41 39 42 40 43 41 44 42 45
REMARK SMILES IDX 43 46 107 47 44 48 106 49 45 50 46 51 47 52 100 53 48 54
REMARK SMILES IDX 105 55 99 56 101 57 49 58 104 59 98 60 97 61 50 63 84 64
REMARK SMILES IDX 63 65 83 66 64 67 67 68 82 69 102 70 65 71 66 72 81 74
REMARK SMILES IDX 103 75 68 76 51 77 52 78 61 79 53 80 54 81 60 82 62 83 55 84
REMARK SMILES IDX 56 85 57 86 58 87 59 88 85 89 86 90 95 91 87 92 88 93 94 94
REMARK SMILES IDX 96 95 89 96 90 97 91 98 92 99 93 100 69 101 70 102 79 103
REMARK SMILES IDX 71 104 72 105 78 106 80 107 73 108 74 109 75 110 76 111
REMARK SMILES IDX 77 112
REMARK H PARENT 5 14 10 20 14 25 101 62 67 73
REMARK Flexibility Score: inf
ROOT
ATOM      1  C   UNL A   1      52.293  27.775  25.084  1.00  0.00     0.188 C 
ENDROOT
BRANCH   1   2
ATOM      2  O   UNL A   1      51.547  27.558  26.276  1.00  0.00    -0.376 OA
BRANCH   2   3
ATOM      3  C   UNL A   1      51.341  28.609  27.210  1.00  0.00     0.202 C 
BRANCH   3   4
ATOM      4  C   UNL A   1      50.062  29.454  27.119  1.00  0.00     0.261 C 
BRANCH   4   5
ATOM      5  O   UNL A   1      49.535  29.931  28.377  1.00  0.00    -0.462 OA
BRANCH   5   6
ATOM      6  C   UNL A   1      49.121  31.223  28.354  1.00  0.00     0.328 C 
ATOM      7  O   UNL A   1      49.160  31.949  29.344  1.00  0.00    -0.250 OA
BRANCH   6   8
ATOM      8  C   UNL A   1      48.749  31.772  26.944  1.00  0.00     0.194 C 
BRANCH   8   9
ATOM      9  C   UNL A   1      49.373  33.154  26.632  1.00  0.00     0.017 C 
ATOM     10  C   UNL A   1      48.848  34.319  27.476  1.00  0.00     0.010 C 
ATOM     11  C   UNL A   1      50.901  33.118  26.751  1.00  0.00     0.010 C 
ENDBRANCH   8   9
BRANCH   8  12
ATOM     12  N   UNL A   1      47.384  31.627  26.373  1.00  0.00    -0.341 N 
ATOM     13  C   UNL A   1      46.126  32.063  26.631  1.00  0.00     0.242 C 
ATOM     14  H   UNL A   1      47.397  31.045  25.578  1.00  0.00     0.164 HD
ATOM     15  O   UNL A   1      45.305  31.869  25.727  1.00  0.00    -0.273 OA
BRANCH  13  16
ATOM     16  C   UNL A   1      45.725  32.751  27.943  1.00  0.00     0.168 C 
ATOM     17  C   UNL A   1      45.543  31.711  29.055  1.00  0.00     0.041 C 
BRANCH  16  18
ATOM     18  N   UNL A   1      44.477  33.498  27.824  1.00  0.00    -0.343 N 
ATOM     19  C   UNL A   1      44.293  34.853  27.861  1.00  0.00     0.240 C 
ATOM     20  H   UNL A   1      43.663  32.958  27.700  1.00  0.00     0.164 HD
ATOM     21  O   UNL A   1      43.145  35.295  27.803  1.00  0.00    -0.273 OA
BRANCH  19  22
ATOM     22  C   UNL A   1      45.510  35.785  27.929  1.00  0.00     0.219 C 
BRANCH  22  23
ATOM     23  N   UNL A   1      45.254  36.932  27.090  1.00  0.00    -0.312 N 
ATOM     24  C   UNL A   1      45.990  38.073  27.015  1.00  0.00     0.407 C 
ATOM     25  H   UNL A   1      44.459  36.883  26.511  1.00  0.00     0.167 HD
ATOM     26  O   UNL A   1      45.501  39.092  26.553  1.00  0.00    -0.225 OA
BRANCH  24  27
ATOM     27  O   UNL A   1      47.236  37.954  27.535  1.00  0.00    -0.445 OA
BRANCH  27  28
ATOM     28  C   UNL A   1      48.251  38.751  26.897  1.00  0.00     0.270 C 
BRANCH  28  29
ATOM     29  C   UNL A   1      49.251  37.882  26.177  1.00  0.00    -0.011 A 
ATOM     30  C   UNL A   1      48.884  37.133  25.050  1.00  0.00     0.007 A 
ATOM     31  C   UNL A   1      50.567  37.776  26.652  1.00  0.00     0.007 A 
ATOM     32  C   UNL A   1      49.822  36.325  24.401  1.00  0.00     0.000 A 
ATOM     33  C   UNL A   1      51.501  36.972  26.005  1.00  0.00     0.000 A 
ATOM     34  C   UNL A   1      51.131  36.250  24.876  1.00  0.00     0.000 A 
ENDBRANCH  28  29
ENDBRANCH  27  28
ENDBRANCH  24  27
ENDBRANCH  22  23
ENDBRANCH  19  22
ENDBRANCH  16  18
ENDBRANCH  13  16
ENDBRANCH   8  12
ENDBRANCH   6   8
ENDBRANCH   5   6
ENDBRANCH   4   5
ENDBRANCH   3   4
ENDBRANCH   2   3
ENDBRANCH   1   2
BRANCH   1  35
ATOM     35  C   UNL A   1      51.681  28.478  23.859  1.00  0.00     0.188 C 
BRANCH  35  36
ATOM     36  O   UNL A   1      50.269  28.469  23.800  1.00  0.00    -0.377 OA
BRANCH  36  37
ATOM     37  C   UNL A   1      49.704  27.518  22.904  1.00  0.00     0.188 C 
BRANCH  37  38
ATOM     38  C   UNL A   1      48.202  27.237  23.086  1.00  0.00     0.188 C 
BRANCH  38  39
ATOM     39  O   UNL A   1      47.941  26.119  23.936  1.00  0.00    -0.376 OA
BRANCH  39  40
ATOM     40  C   UNL A   1      47.017  26.325  25.002  1.00  0.00     0.202 C 
BRANCH  40  41
ATOM     41  C   UNL A   1      46.121  25.120  25.336  1.00  0.00     0.261 C 
BRANCH  41  42
ATOM     42  O   UNL A   1      44.994  25.395  26.185  1.00  0.00    -0.460 OA
BRANCH  42  43
ATOM     43  C   UNL A   1      45.169  25.257  27.516  1.00  0.00     0.338 C 
ATOM     44  O   UNL A   1      46.005  24.571  28.077  1.00  0.00    -0.246 OA
BRANCH  43  45
ATOM     45  C   UNL A   1      44.313  26.245  28.203  1.00  0.00     0.060 A 
ATOM     46  C   UNL A   1      44.567  27.606  27.987  1.00  0.00     0.016 A 
ATOM     47  C   UNL A   1      43.309  25.840  29.086  1.00  0.00     0.016 A 
ATOM     48  C   UNL A   1      43.870  28.566  28.716  1.00  0.00     0.010 A 
ATOM     49  C   UNL A   1      42.624  26.803  29.831  1.00  0.00     0.010 A 
ATOM     50  C   UNL A   1      42.946  28.164  29.689  1.00  0.00    -0.014 A 
BRANCH  50  51
ATOM     51  C   UNL A   1      42.548  29.132  30.738  1.00  0.00     0.031 A 
ATOM     52  C   UNL A   1      43.422  29.233  31.962  1.00  0.00     0.074 A 
ATOM     53  C   UNL A   1      41.473  29.928  30.598  1.00  0.00     0.049 A 
ATOM     54  N   UNL A   1      43.288  29.987  33.021  1.00  0.00    -0.248 NA
ATOM     55  C   UNL A   1      44.611  28.363  31.991  1.00  0.00     0.031 C 
ATOM     56  C   UNL A   1      40.580  29.952  29.442  1.00  0.00     0.029 A 
ATOM     57  N   UNL A   1      40.954  30.872  31.446  1.00  0.00    -0.354 N 
ATOM     58  C   UNL A   1      44.370  29.680  33.840  1.00  0.00     0.074 A 
ATOM     59  C   UNL A   1      45.134  28.652  33.172  1.00  0.00     0.031 C 
ATOM     60  C   UNL A   1      39.612  30.859  29.660  1.00  0.00     0.029 A 
ATOM     61  C   UNL A   1      39.804  31.463  30.978  1.00  0.00     0.049 A 
ATOM     62  H   UNL A   1      41.367  31.107  32.309  1.00  0.00     0.167 HD
ATOM     63  C   UNL A   1      44.705  30.216  35.036  1.00  0.00     0.037 A 
ATOM     64  C   UNL A   1      38.997  32.372  31.560  1.00  0.00     0.037 A 
ATOM     65  C   UNL A   1      43.940  31.237  35.699  1.00  0.00     0.049 A 
ATOM     66  C   UNL A   1      39.355  32.910  32.924  1.00  0.00     0.074 A 
ATOM     67  C   UNL A   1      44.191  31.849  36.914  1.00  0.00     0.029 A 
ATOM     68  N   UNL A   1      42.769  31.792  35.203  1.00  0.00    -0.354 N 
ATOM     69  N   UNL A   1      40.390  32.626  33.680  1.00  0.00    -0.248 NA
ATOM     70  C   UNL A   1      38.439  33.899  33.512  1.00  0.00     0.031 C 
ATOM     71  C   UNL A   1      43.149  32.745  37.173  1.00  0.00     0.029 A 
ATOM     72  C   UNL A   1      42.277  32.727  36.095  1.00  0.00     0.049 A 
ATOM     73  H   UNL A   1      42.352  31.555  34.344  1.00  0.00     0.167 HD
ATOM     74  C   UNL A   1      40.267  33.424  34.815  1.00  0.00     0.074 A 
ATOM     75  C   UNL A   1      39.059  34.205  34.643  1.00  0.00     0.031 C 
ATOM     76  C   UNL A   1      41.080  33.507  35.898  1.00  0.00     0.037 A 
BRANCH  63  77
ATOM     77  C   UNL A   1      45.938  29.684  35.712  1.00  0.00     0.058 A 
ATOM     78  C   UNL A   1      45.886  28.584  36.583  1.00  0.00     0.135 A 
ATOM     79  C   UNL A   1      47.189  30.277  35.476  1.00  0.00     0.135 A 
ATOM     80  F   UNL A   1      44.712  27.997  36.862  1.00  0.00    -0.206 F 
ATOM     81  C   UNL A   1      47.028  28.105  37.217  1.00  0.00     0.059 A 
ATOM     82  C   UNL A   1      48.348  29.798  36.079  1.00  0.00     0.059 A 
ATOM     83  F   UNL A   1      47.292  31.336  34.659  1.00  0.00    -0.206 F 
ATOM     84  C   UNL A   1      48.255  28.721  36.960  1.00  0.00     0.060 A 
BRANCH  84  85
ATOM     85  S   UNL A   1      49.728  28.089  37.790  1.00  0.00     0.124 S 
ATOM     86  O   UNL A   1      50.676  29.175  37.567  1.00  0.00    -0.237 OA
ATOM     87  O   UNL A   1      49.265  27.924  39.165  1.00  0.00    -0.237 OA
ATOM     88  O   UNL A   1      50.015  26.849  37.076  1.00  0.00    -0.744 OA
ENDBRANCH  84  85
ENDBRANCH  63  77
BRANCH  64  89
ATOM     89  C   UNL A   1      37.767  32.831  30.861  1.00  0.00     0.058 A 
ATOM     90  C   UNL A   1      36.509  32.299  31.179  1.00  0.00     0.135 A 
ATOM     91  C   UNL A   1      37.827  33.809  29.856  1.00  0.00     0.135 A 
ATOM     92  F   UNL A   1      36.401  31.351  32.124  1.00  0.00    -0.206 F 
ATOM     93  C   UNL A   1      35.355  32.707  30.517  1.00  0.00     0.059 A 
ATOM     94  C   UNL A   1      36.684  34.253  29.196  1.00  0.00     0.059 A 
ATOM     95  F   UNL A   1      39.006  34.353  29.517  1.00  0.00    -0.206 F 
ATOM     96  C   UNL A   1      35.453  33.688  29.528  1.00  0.00     0.060 A 
BRANCH  96  97
ATOM     97  S   UNL A   1      33.942  34.242  28.706  1.00  0.00     0.124 S 
ATOM     98  O   UNL A   1      33.066  34.499  29.843  1.00  0.00    -0.237 OA
ATOM     99  O   UNL A   1      34.405  35.418  27.976  1.00  0.00    -0.237 OA
ATOM    100  O   UNL A   1      33.576  33.102  27.871  1.00  0.00    -0.744 OA
ENDBRANCH  96  97
ENDBRANCH  64  89
BRANCH  76 101
ATOM    101  C   UNL A   1      40.724  34.508  36.962  1.00  0.00     0.058 A 
ATOM    102  C   UNL A   1      41.142  35.846  36.891  1.00  0.00     0.135 A 
ATOM    103  C   UNL A   1      39.900  34.133  38.036  1.00  0.00     0.135 A 
ATOM    104  F   UNL A   1      41.932  36.254  35.886  1.00  0.00    -0.206 F 
ATOM    105  C   UNL A   1      40.771  36.773  37.859  1.00  0.00     0.059 A 
ATOM    106  C   UNL A   1      39.495  35.051  39.001  1.00  0.00     0.059 A 
ATOM    107  F   UNL A   1      39.461  32.869  38.144  1.00  0.00    -0.206 F 
ATOM    108  C   UNL A   1      39.946  36.367  38.911  1.00  0.00     0.060 A 
BRANCH 108 109
ATOM    109  S   UNL A   1      39.444  37.587  40.142  1.00  0.00     0.124 S 
ATOM    110  O   UNL A   1      40.633  38.428  40.225  1.00  0.00    -0.237 OA
ATOM    111  O   UNL A   1      38.275  38.201  39.519  1.00  0.00    -0.237 OA
ATOM    112  O   UNL A   1      39.162  36.778  41.325  1.00  0.00    -0.744 OA
ENDBRANCH 108 109
ENDBRANCH  76 101
ENDBRANCH  50  51
ENDBRANCH  43  45
ENDBRANCH  42  43
ENDBRANCH  41  42
ENDBRANCH  40  41
ENDBRANCH  39  40
ENDBRANCH  38  39
ENDBRANCH  37  38
ENDBRANCH  36  37
ENDBRANCH  35  36
ENDBRANCH   1  35
TORSDOF 32
ENDMDL
MODEL 2
REMARK VINA RESULT:      -5.7      4.739     10.865
REMARK SMILES CC(C)[C@H](NC(=O)[C@H](C)NC(=O)CNC(=O)OCc1ccccc1)C(=O)OCCOCCOCCOCCOC(=O)c1ccc(-c2c3nc(c(-c4c(F)cc(S(=O)(=O)[O-])cc4F)c4ccc([nH]4)c(-c4c(F)cc(S(=O)(=O)[O-])cc4F)c4nc(c(-c5c(F)cc(S(=O)(=O)[O-])cc5F)c5ccc2[nH]5)C=C4)C=C3)cc1
REMARK SMILES IDX 31 1 30 2 29 3 28 4 27 5 25 6 26 7 4 8 2 9 1 10 3 11 5 12
REMARK SMILES IDX 6 13 7 15 8 16 9 17 10 18 11 19 12 21 13 22 14 23 15 24
REMARK SMILES IDX 16 26 17 27 18 28 19 29 20 30 24 31 21 32 23 33 22 34 32 35
REMARK SMILES IDX 33 36 34 37 35 38 36 39 37 40 38 41 39 42 40 43 41 44 42 45
REMARK SMILES IDX 43 46 107 47 44 48 106 49 45 50 46 51 47 52 100 53 48 54
REMARK SMILES IDX 105 55 99 56 101 57 49 58 104 59 98 60 97 61 50 63 84 64
REMARK SMILES IDX 63 65 83 66 64 67 67 68 82 69 102 70 65 71 66 72 81 74
REMARK SMILES IDX 103 75 68 76 51 77 52 78 61 79 53 80 54 81 60 82 62 83 55 84
REMARK SMILES IDX 56 85 57 86 58 87 59 88 85 89 86 90 95 91 87 92 88 93 94 94
REMARK SMILES IDX 96 95 89 96 90 97 91 98 92 99 93 100 69 101 70 102 79 103
REMARK SMILES IDX 71 104 72 105 78 106 80 107 73 108 74 109 75 110 76 111
REMARK SMILES IDX 77 112
REMARK H PARENT 5 14 10 20 14 25 101 62 67 73
REMARK Flexibility Score: inf
ROOT
ATOM      1  C   UNL A   1      44.802  29.369  34.276  1.00  0.00     0.188 C 
ENDROOT
BRANCH   1   2
ATOM      2  O   UNL A   1      45.763  29.300  33.230  1.00  0.00    -0.376 OA
BRANCH   2   3
ATOM      3  C   UNL A   1      45.938  28.107  32.477  1.00  0.00     0.202 C 
BRANCH   3   4
ATOM      4  C   UNL A   1      46.442  28.200  31.030  1.00  0.00     0.261 C 
BRANCH   4   5
ATOM      5  O   UNL A   1      45.544  27.689  30.019  1.00  0.00    -0.462 OA
BRANCH   5   6
ATOM      6  C   UNL A   1      45.203  28.592  29.067  1.00  0.00     0.328 C 
ATOM      7  O   UNL A   1      44.247  29.354  29.187  1.00  0.00    -0.250 OA
BRANCH   6   8
ATOM      8  C   UNL A   1      46.207  28.715  27.882  1.00  0.00     0.194 C 
BRANCH   8   9
ATOM      9  C   UNL A   1      45.526  28.952  26.512  1.00  0.00     0.017 C 
ATOM     10  C   UNL A   1      46.461  28.926  25.299  1.00  0.00     0.010 C 
ATOM     11  C   UNL A   1      44.390  27.952  26.272  1.00  0.00     0.010 C 
ENDBRANCH   8   9
BRANCH   8  12
ATOM     12  N   UNL A   1      47.410  27.848  27.772  1.00  0.00    -0.341 N 
ATOM     13  C   UNL A   1      47.725  26.602  27.337  1.00  0.00     0.242 C 
ATOM     14  H   UNL A   1      48.209  28.312  28.114  1.00  0.00     0.164 HD
ATOM     15  O   UNL A   1      48.935  26.374  27.220  1.00  0.00    -0.273 OA
BRANCH  13  16
ATOM     16  C   UNL A   1      46.674  25.534  27.007  1.00  0.00     0.168 C 
ATOM     17  C   UNL A   1      46.671  24.440  28.082  1.00  0.00     0.041 C 
BRANCH  16  18
ATOM     18  N   UNL A   1      46.915  24.891  25.719  1.00  0.00    -0.343 N 
ATOM     19  C   UNL A   1      46.017  24.249  24.911  1.00  0.00     0.240 C 
ATOM     20  H   UNL A   1      47.842  24.924  25.389  1.00  0.00     0.164 HD
ATOM     21  O   UNL A   1      46.428  23.713  23.881  1.00  0.00    -0.273 OA
BRANCH  19  22
ATOM     22  C   UNL A   1      44.527  24.250  25.278  1.00  0.00     0.219 C 
BRANCH  22  23
ATOM     23  N   UNL A   1      43.997  22.929  25.032  1.00  0.00    -0.312 N 
ATOM     24  C   UNL A   1      42.793  22.442  25.435  1.00  0.00     0.407 C 
ATOM     25  H   UNL A   1      44.569  22.315  24.518  1.00  0.00     0.167 HD
ATOM     26  O   UNL A   1      42.601  21.236  25.480  1.00  0.00    -0.225 OA
BRANCH  24  27
ATOM     27  O   UNL A   1      41.911  23.402  25.806  1.00  0.00    -0.445 OA
BRANCH  27  28
ATOM     28  C   UNL A   1      41.078  23.074  26.933  1.00  0.00     0.270 C 
BRANCH  28  29
ATOM     29  C   UNL A   1      39.639  22.908  26.514  1.00  0.00    -0.011 A 
ATOM     30  C   UNL A   1      39.149  21.671  26.071  1.00  0.00     0.007 A 
ATOM     31  C   UNL A   1      38.769  24.009  26.520  1.00  0.00     0.007 A 
ATOM     32  C   UNL A   1      37.815  21.538  25.676  1.00  0.00     0.000 A 
ATOM     33  C   UNL A   1      37.440  23.876  26.128  1.00  0.00     0.000 A 
ATOM     34  C   UNL A   1      36.960  22.640  25.711  1.00  0.00     0.000 A 
ENDBRANCH  28  29
ENDBRANCH  27  28
ENDBRANCH  24  27
ENDBRANCH  22  23
ENDBRANCH  19  22
ENDBRANCH  16  18
ENDBRANCH  13  16
ENDBRANCH   8  12
ENDBRANCH   6   8
ENDBRANCH   5   6
ENDBRANCH   4   5
ENDBRANCH   3   4
ENDBRANCH   2   3
ENDBRANCH   1   2
BRANCH   1  35
ATOM     35  C   UNL A   1      43.293  29.233  34.005  1.00  0.00     0.188 C 
BRANCH  35  36
ATOM     36  O   UNL A   1      42.457  29.450  35.123  1.00  0.00    -0.377 OA
BRANCH  36  37
ATOM     37  C   UNL A   1      41.063  29.311  34.876  1.00  0.00     0.188 C 
BRANCH  37  38
ATOM     38  C   UNL A   1      40.640  29.323  33.396  1.00  0.00     0.188 C 
BRANCH  38  39
ATOM     39  O   UNL A   1      39.879  28.173  33.022  1.00  0.00    -0.376 OA
BRANCH  39  40
ATOM     40  C   UNL A   1      38.712  28.404  32.235  1.00  0.00     0.202 C 
BRANCH  40  41
ATOM     41  C   UNL A   1      38.763  27.841  30.804  1.00  0.00     0.261 C 
BRANCH  41  42
ATOM     42  O   UNL A   1      39.517  28.612  29.855  1.00  0.00    -0.460 OA
BRANCH  42  43
ATOM     43  C   UNL A   1      38.899  29.662  29.275  1.00  0.00     0.338 C 
ATOM     44  O   UNL A   1      37.834  29.649  28.685  1.00  0.00    -0.246 OA
BRANCH  43  45
ATOM     45  C   UNL A   1      39.621  30.895  29.652  1.00  0.00     0.060 A 
ATOM     46  C   UNL A   1      40.990  30.800  29.935  1.00  0.00     0.016 A 
ATOM     47  C   UNL A   1      38.952  32.115  29.774  1.00  0.00     0.016 A 
ATOM     48  C   UNL A   1      41.677  31.909  30.420  1.00  0.00     0.010 A 
ATOM     49  C   UNL A   1      39.637  33.222  30.279  1.00  0.00     0.010 A 
ATOM     50  C   UNL A   1      40.986  33.104  30.658  1.00  0.00    -0.014 A 
BRANCH  50  51
ATOM     51  C   UNL A   1      41.591  34.112  31.561  1.00  0.00     0.031 A 
ATOM     52  C   UNL A   1      42.361  35.242  30.927  1.00  0.00     0.074 A 
ATOM     53  C   UNL A   1      41.432  34.057  32.895  1.00  0.00     0.049 A 
ATOM     54  N   UNL A   1      42.993  36.238  31.491  1.00  0.00    -0.248 NA
ATOM     55  C   UNL A   1      42.425  35.248  29.455  1.00  0.00     0.031 C 
ATOM     56  C   UNL A   1      40.673  33.038  33.617  1.00  0.00     0.029 A 
ATOM     57  N   UNL A   1      41.907  34.885  33.879  1.00  0.00    -0.354 N 
ATOM     58  C   UNL A   1      43.528  36.984  30.445  1.00  0.00     0.074 A 
ATOM     59  C   UNL A   1      43.175  36.311  29.216  1.00  0.00     0.031 C 
ATOM     60  C   UNL A   1      40.745  33.295  34.935  1.00  0.00     0.029 A 
ATOM     61  C   UNL A   1      41.573  34.482  35.150  1.00  0.00     0.049 A 
ATOM     62  H   UNL A   1      42.438  35.694  33.693  1.00  0.00     0.167 HD
ATOM     63  C   UNL A   1      44.240  38.133  30.503  1.00  0.00     0.037 A 
ATOM     64  C   UNL A   1      41.914  35.005  36.344  1.00  0.00     0.037 A 
ATOM     65  C   UNL A   1      44.591  38.797  31.728  1.00  0.00     0.049 A 
ATOM     66  C   UNL A   1      42.763  36.253  36.387  1.00  0.00     0.074 A 
ATOM     67  C   UNL A   1      45.310  39.967  31.898  1.00  0.00     0.029 A 
ATOM     68  N   UNL A   1      44.254  38.344  32.995  1.00  0.00    -0.354 N 
ATOM     69  N   UNL A   1      43.247  36.958  35.392  1.00  0.00    -0.248 NA
ATOM     70  C   UNL A   1      43.105  36.780  37.716  1.00  0.00     0.031 C 
ATOM     71  C   UNL A   1      45.443  40.200  33.271  1.00  0.00     0.029 A 
ATOM     72  C   UNL A   1      44.764  39.202  33.953  1.00  0.00     0.049 A 
ATOM     73  H   UNL A   1      43.730  37.533  33.184  1.00  0.00     0.167 HD
ATOM     74  C   UNL A   1      43.922  38.028  35.973  1.00  0.00     0.074 A 
ATOM     75  C   UNL A   1      43.779  37.880  37.407  1.00  0.00     0.031 C 
ATOM     76  C   UNL A   1      44.595  39.045  35.377  1.00  0.00     0.037 A 
BRANCH  63  77
ATOM     77  C   UNL A   1      44.705  38.724  29.201  1.00  0.00     0.058 A 
ATOM     78  C   UNL A   1      43.971  39.723  28.541  1.00  0.00     0.135 A 
ATOM     79  C   UNL A   1      45.905  38.293  28.613  1.00  0.00     0.135 A 
ATOM     80  F   UNL A   1      42.805  40.152  29.047  1.00  0.00    -0.206 F 
ATOM     81  C   UNL A   1      44.400  40.256  27.329  1.00  0.00     0.059 A 
ATOM     82  C   UNL A   1      46.364  38.830  27.416  1.00  0.00     0.059 A 
ATOM     83  F   UNL A   1      46.639  37.334  29.200  1.00  0.00    -0.206 F 
ATOM     84  C   UNL A   1      45.597  39.802  26.773  1.00  0.00     0.060 A 
BRANCH  84  85
ATOM     85  S   UNL A   1      46.139  40.502  25.200  1.00  0.00     0.124 S 
ATOM     86  O   UNL A   1      46.621  39.314  24.503  1.00  0.00    -0.237 OA
ATOM     87  O   UNL A   1      44.908  41.088  24.678  1.00  0.00    -0.237 OA
ATOM     88  O   UNL A   1      47.169  41.460  25.591  1.00  0.00    -0.744 OA
ENDBRANCH  84  85
ENDBRANCH  63  77
BRANCH  64  89
ATOM     89  C   UNL A   1      41.458  34.353  37.601  1.00  0.00     0.058 A 
ATOM     90  C   UNL A   1      42.255  33.404  38.256  1.00  0.00     0.135 A 
ATOM     91  C   UNL A   1      40.212  34.664  38.168  1.00  0.00     0.135 A 
ATOM     92  F   UNL A   1      43.449  33.062  37.747  1.00  0.00    -0.206 F 
ATOM     93  C   UNL A   1      41.829  32.773  39.421  1.00  0.00     0.059 A 
ATOM     94  C   UNL A   1      39.774  34.066  39.347  1.00  0.00     0.059 A 
ATOM     95  F   UNL A   1      39.414  35.570  37.582  1.00  0.00    -0.206 F 
ATOM     96  C   UNL A   1      40.587  33.114  39.961  1.00  0.00     0.060 A 
BRANCH  96  97
ATOM     97  S   UNL A   1      40.064  32.321  41.498  1.00  0.00     0.124 S 
ATOM     98  O   UNL A   1      40.225  33.405  42.459  1.00  0.00    -0.237 OA
ATOM     99  O   UNL A   1      38.688  31.937  41.191  1.00  0.00    -0.237 OA
ATOM    100  O   UNL A   1      40.997  31.208  41.637  1.00  0.00    -0.744 OA
ENDBRANCH  96  97
ENDBRANCH  64  89
BRANCH  76 101
ATOM    101  C   UNL A   1      45.189  40.104  36.263  1.00  0.00     0.058 A 
ATOM    102  C   UNL A   1      44.543  41.330  36.487  1.00  0.00     0.135 A 
ATOM    103  C   UNL A   1      46.390  39.861  36.948  1.00  0.00     0.135 A 
ATOM    104  F   UNL A   1      43.393  41.613  35.855  1.00  0.00    -0.206 F 
ATOM    105  C   UNL A   1      45.079  42.287  37.343  1.00  0.00     0.059 A 
ATOM    106  C   UNL A   1      46.931  40.792  37.830  1.00  0.00     0.059 A 
ATOM    107  F   UNL A   1      47.041  38.698  36.781  1.00  0.00    -0.206 F 
ATOM    108  C   UNL A   1      46.274  42.008  38.012  1.00  0.00     0.060 A 
BRANCH 108 109
ATOM    109  S   UNL A   1      46.942  43.243  39.145  1.00  0.00     0.124 S 
ATOM    110  O   UNL A   1      46.093  43.057  40.317  1.00  0.00    -0.237 OA
ATOM    111  O   UNL A   1      48.330  42.814  39.294  1.00  0.00    -0.237 OA
ATOM    112  O   UNL A   1      46.756  44.500  38.426  1.00  0.00    -0.744 OA
ENDBRANCH 108 109
ENDBRANCH  76 101
ENDBRANCH  50  51
ENDBRANCH  43  45
ENDBRANCH  42  43
ENDBRANCH  41  42
ENDBRANCH  40  41
ENDBRANCH  39  40
ENDBRANCH  38  39
ENDBRANCH  37  38
ENDBRANCH  36  37
ENDBRANCH  35  36
ENDBRANCH   1  35
TORSDOF 32
ENDMDL
MODEL 3
REMARK VINA RESULT:      -5.7      4.954     12.147
REMARK SMILES CC(C)[C@H](NC(=O)[C@H](C)NC(=O)CNC(=O)OCc1ccccc1)C(=O)OCCOCCOCCOCCOC(=O)c1ccc(-c2c3nc(c(-c4c(F)cc(S(=O)(=O)[O-])cc4F)c4ccc([nH]4)c(-c4c(F)cc(S(=O)(=O)[O-])cc4F)c4nc(c(-c5c(F)cc(S(=O)(=O)[O-])cc5F)c5ccc2[nH]5)C=C4)C=C3)cc1
REMARK SMILES IDX 31 1 30 2 29 3 28 4 27 5 25 6 26 7 4 8 2 9 1 10 3 11 5 12
REMARK SMILES IDX 6 13 7 15 8 16 9 17 10 18 11 19 12 21 13 22 14 23 15 24
REMARK SMILES IDX 16 26 17 27 18 28 19 29 20 30 24 31 21 32 23 33 22 34 32 35
REMARK SMILES IDX 33 36 34 37 35 38 36 39 37 40 38 41 39 42 40 43 41 44 42 45
REMARK SMILES IDX 43 46 107 47 44 48 106 49 45 50 46 51 47 52 100 53 48 54
REMARK SMILES IDX 105 55 99 56 101 57 49 58 104 59 98 60 97 61 50 63 84 64
REMARK SMILES IDX 63 65 83 66 64 67 67 68 82 69 102 70 65 71 66 72 81 74
REMARK SMILES IDX 103 75 68 76 51 77 52 78 61 79 53 80 54 81 60 82 62 83 55 84
REMARK SMILES IDX 56 85 57 86 58 87 59 88 85 89 86 90 95 91 87 92 88 93 94 94
REMARK SMILES IDX 96 95 89 96 90 97 91 98 92 99 93 100 69 101 70 102 79 103
REMARK SMILES IDX 71 104 72 105 78 106 80 107 73 108 74 109 75 110 76 111
REMARK SMILES IDX 77 112
REMARK H PARENT 5 14 10 20 14 25 101 62 67 73
REMARK Flexibility Score: inf
ROOT
ATOM      1  C   UNL A   1      39.519  30.413  34.408  1.00  0.00     0.188 C 
ENDROOT
BRANCH   1   2
ATOM      2  O   UNL A   1      38.327  29.669  34.186  1.00  0.00    -0.376 OA
BRANCH   2   3
ATOM      3  C   UNL A   1      38.233  28.744  33.111  1.00  0.00     0.202 C 
BRANCH   3   4
ATOM      4  C   UNL A   1      37.865  29.256  31.712  1.00  0.00     0.261 C 
BRANCH   4   5
ATOM      5  O   UNL A   1      38.954  29.814  30.941  1.00  0.00    -0.462 OA
BRANCH   5   6
ATOM      6  C   UNL A   1      38.587  30.810  30.096  1.00  0.00     0.328 C 
ATOM      7  O   UNL A   1      38.528  30.659  28.879  1.00  0.00    -0.250 OA
BRANCH   6   8
ATOM      8  C   UNL A   1      38.081  32.111  30.789  1.00  0.00     0.194 C 
BRANCH   8   9
ATOM      9  C   UNL A   1      39.050  32.660  31.864  1.00  0.00     0.017 C 
ATOM     10  C   UNL A   1      40.460  32.994  31.371  1.00  0.00     0.010 C 
ATOM     11  C   UNL A   1      38.472  33.898  32.558  1.00  0.00     0.010 C 
ENDBRANCH   8   9
BRANCH   8  12
ATOM     12  N   UNL A   1      36.655  32.306  31.161  1.00  0.00    -0.341 N 
ATOM     13  C   UNL A   1      35.524  32.811  30.609  1.00  0.00     0.242 C 
ATOM     14  H   UNL A   1      36.482  31.973  32.072  1.00  0.00     0.164 HD
ATOM     15  O   UNL A   1      34.478  32.549  31.217  1.00  0.00    -0.273 OA
BRANCH  13  16
ATOM     16  C   UNL A   1      35.514  33.649  29.324  1.00  0.00     0.168 C 
ATOM     17  C   UNL A   1      36.889  34.290  29.096  1.00  0.00     0.041 C 
BRANCH  16  18
ATOM     18  N   UNL A   1      34.525  34.721  29.363  1.00  0.00    -0.343 N 
ATOM     19  C   UNL A   1      33.310  34.776  28.738  1.00  0.00     0.240 C 
ATOM     20  H   UNL A   1      34.763  35.505  29.910  1.00  0.00     0.164 HD
ATOM     21  O   UNL A   1      32.637  35.803  28.845  1.00  0.00    -0.273 OA
BRANCH  19  22
ATOM     22  C   UNL A   1      32.797  33.557  27.962  1.00  0.00     0.219 C 
BRANCH  22  23
ATOM     23  N   UNL A   1      33.864  32.587  27.879  1.00  0.00    -0.312 N 
ATOM     24  C   UNL A   1      33.744  31.254  27.641  1.00  0.00     0.407 C 
ATOM     25  H   UNL A   1      34.778  32.929  28.010  1.00  0.00     0.167 HD
ATOM     26  O   UNL A   1      34.650  30.491  27.937  1.00  0.00    -0.225 OA
BRANCH  24  27
ATOM     27  O   UNL A   1      32.545  30.899  27.117  1.00  0.00    -0.445 OA
BRANCH  27  28
ATOM     28  C   UNL A   1      32.186  29.514  27.276  1.00  0.00     0.270 C 
BRANCH  28  29
ATOM     29  C   UNL A   1      31.792  28.901  25.956  1.00  0.00    -0.011 A 
ATOM     30  C   UNL A   1      31.241  29.679  24.927  1.00  0.00     0.007 A 
ATOM     31  C   UNL A   1      31.933  27.520  25.747  1.00  0.00     0.007 A 
ATOM     32  C   UNL A   1      30.872  29.091  23.715  1.00  0.00     0.000 A 
ATOM     33  C   UNL A   1      31.566  26.935  24.538  1.00  0.00     0.000 A 
ATOM     34  C   UNL A   1      31.041  27.721  23.519  1.00  0.00     0.000 A 
ENDBRANCH  28  29
ENDBRANCH  27  28
ENDBRANCH  24  27
ENDBRANCH  22  23
ENDBRANCH  19  22
ENDBRANCH  16  18
ENDBRANCH  13  16
ENDBRANCH   8  12
ENDBRANCH   6   8
ENDBRANCH   5   6
ENDBRANCH   4   5
ENDBRANCH   3   4
ENDBRANCH   2   3
ENDBRANCH   1   2
BRANCH   1  35
ATOM     35  C   UNL A   1      40.893  29.908  33.933  1.00  0.00     0.188 C 
BRANCH  35  36
ATOM     36  O   UNL A   1      41.832  29.658  34.958  1.00  0.00    -0.377 OA
BRANCH  36  37
ATOM     37  C   UNL A   1      41.576  28.503  35.749  1.00  0.00     0.188 C 
BRANCH  37  38
ATOM     38  C   UNL A   1      42.812  27.675  36.146  1.00  0.00     0.188 C 
BRANCH  38  39
ATOM     39  O   UNL A   1      42.946  26.471  35.387  1.00  0.00    -0.376 OA
BRANCH  39  40
ATOM     40  C   UNL A   1      41.859  25.550  35.449  1.00  0.00     0.202 C 
BRANCH  40  41
ATOM     41  C   UNL A   1      42.256  24.064  35.433  1.00  0.00     0.261 C 
BRANCH  41  42
ATOM     42  O   UNL A   1      43.640  23.784  35.702  1.00  0.00    -0.460 OA
BRANCH  42  43
ATOM     43  C   UNL A   1      44.313  23.045  34.795  1.00  0.00     0.338 C 
ATOM     44  O   UNL A   1      44.175  21.856  34.572  1.00  0.00    -0.246 OA
BRANCH  43  45
ATOM     45  C   UNL A   1      45.110  23.958  33.951  1.00  0.00     0.060 A 
ATOM     46  C   UNL A   1      46.331  24.428  34.454  1.00  0.00     0.016 A 
ATOM     47  C   UNL A   1      44.643  24.383  32.705  1.00  0.00     0.016 A 
ATOM     48  C   UNL A   1      47.048  25.390  33.747  1.00  0.00     0.010 A 
ATOM     49  C   UNL A   1      45.353  25.362  32.007  1.00  0.00     0.010 A 
ATOM     50  C   UNL A   1      46.526  25.909  32.556  1.00  0.00    -0.014 A 
BRANCH  50  51
ATOM     51  C   UNL A   1      47.045  27.204  32.054  1.00  0.00     0.031 A 
ATOM     52  C   UNL A   1      48.168  27.162  31.049  1.00  0.00     0.074 A 
ATOM     53  C   UNL A   1      46.515  28.378  32.437  1.00  0.00     0.049 A 
ATOM     54  N   UNL A   1      48.802  28.145  30.467  1.00  0.00    -0.248 NA
ATOM     55  C   UNL A   1      48.636  25.824  30.644  1.00  0.00     0.031 C 
ATOM     56  C   UNL A   1      45.400  28.542  33.368  1.00  0.00     0.029 A 
ATOM     57  N   UNL A   1      46.854  29.660  32.087  1.00  0.00    -0.354 N 
ATOM     58  C   UNL A   1      49.742  27.547  29.634  1.00  0.00     0.074 A 
ATOM     59  C   UNL A   1      49.618  26.117  29.807  1.00  0.00     0.031 C 
ATOM     60  C   UNL A   1      45.154  29.854  33.525  1.00  0.00     0.029 A 
ATOM     61  C   UNL A   1      46.108  30.622  32.724  1.00  0.00     0.049 A 
ATOM     62  H   UNL A   1      47.564  29.871  31.438  1.00  0.00     0.167 HD
ATOM     63  C   UNL A   1      50.622  28.134  28.792  1.00  0.00     0.037 A 
ATOM     64  C   UNL A   1      46.201  31.966  32.676  1.00  0.00     0.037 A 
ATOM     65  C   UNL A   1      50.745  29.557  28.626  1.00  0.00     0.049 A 
ATOM     66  C   UNL A   1      47.234  32.601  31.777  1.00  0.00     0.074 A 
ATOM     67  C   UNL A   1      51.605  30.256  27.798  1.00  0.00     0.029 A 
ATOM     68  N   UNL A   1      49.988  30.499  29.307  1.00  0.00    -0.354 N 
ATOM     69  N   UNL A   1      48.105  32.025  30.981  1.00  0.00    -0.248 NA
ATOM     70  C   UNL A   1      47.293  34.070  31.763  1.00  0.00     0.031 C 
ATOM     71  C   UNL A   1      51.396  31.623  28.010  1.00  0.00     0.029 A 
ATOM     72  C   UNL A   1      50.372  31.773  28.931  1.00  0.00     0.049 A 
ATOM     73  H   UNL A   1      49.283  30.290  29.961  1.00  0.00     0.167 HD
ATOM     74  C   UNL A   1      48.790  33.059  30.349  1.00  0.00     0.074 A 
ATOM     75  C   UNL A   1      48.229  34.297  30.852  1.00  0.00     0.031 C 
ATOM     76  C   UNL A   1      49.789  32.994  29.432  1.00  0.00     0.037 A 
BRANCH  63  77
ATOM     77  C   UNL A   1      51.537  27.234  28.009  1.00  0.00     0.058 A 
ATOM     78  C   UNL A   1      52.810  26.881  28.486  1.00  0.00     0.135 A 
ATOM     79  C   UNL A   1      51.130  26.710  26.772  1.00  0.00     0.135 A 
ATOM     80  F   UNL A   1      53.257  27.375  29.650  1.00  0.00    -0.206 F 
ATOM     81  C   UNL A   1      53.658  26.059  27.750  1.00  0.00     0.059 A 
ATOM     82  C   UNL A   1      51.952  25.866  26.032  1.00  0.00     0.059 A 
ATOM     83  F   UNL A   1      49.926  27.023  26.268  1.00  0.00    -0.206 F 
ATOM     84  C   UNL A   1      53.220  25.558  26.522  1.00  0.00     0.060 A 
BRANCH  84  85
ATOM     85  S   UNL A   1      54.332  24.493  25.579  1.00  0.00     0.124 S 
ATOM     86  O   UNL A   1      54.865  25.430  24.595  1.00  0.00    -0.237 OA
ATOM     87  O   UNL A   1      55.273  24.042  26.599  1.00  0.00    -0.237 OA
ATOM     88  O   UNL A   1      53.446  23.462  25.048  1.00  0.00    -0.744 OA
ENDBRANCH  84  85
ENDBRANCH  63  77
BRANCH  64  89
ATOM     89  C   UNL A   1      45.296  32.806  33.505  1.00  0.00     0.058 A 
ATOM     90  C   UNL A   1      45.627  33.146  34.824  1.00  0.00     0.135 A 
ATOM     91  C   UNL A   1      44.078  33.282  32.993  1.00  0.00     0.135 A 
ATOM     92  F   UNL A   1      46.773  32.704  35.364  1.00  0.00    -0.206 F 
ATOM     93  C   UNL A   1      44.777  33.914  35.615  1.00  0.00     0.059 A 
ATOM     94  C   UNL A   1      43.223  34.074  33.755  1.00  0.00     0.059 A 
ATOM     95  F   UNL A   1      43.718  32.990  31.734  1.00  0.00    -0.206 F 
ATOM     96  C   UNL A   1      43.578  34.377  35.069  1.00  0.00     0.060 A 
BRANCH  96  97
ATOM     97  S   UNL A   1      42.504  35.410  36.091  1.00  0.00     0.124 S 
ATOM     98  O   UNL A   1      42.620  36.702  35.426  1.00  0.00    -0.237 OA
ATOM     99  O   UNL A   1      41.216  34.736  35.958  1.00  0.00    -0.237 OA
ATOM    100  O   UNL A   1      43.113  35.323  37.414  1.00  0.00    -0.744 OA
ENDBRANCH  96  97
ENDBRANCH  64  89
BRANCH  76 101
ATOM    101  C   UNL A   1      50.310  34.288  28.874  1.00  0.00     0.058 A 
ATOM    102  C   UNL A   1      51.398  34.960  29.453  1.00  0.00     0.135 A 
ATOM    103  C   UNL A   1      49.752  34.829  27.704  1.00  0.00     0.135 A 
ATOM    104  F   UNL A   1      51.966  34.485  30.573  1.00  0.00    -0.206 F 
ATOM    105  C   UNL A   1      51.901  36.134  28.903  1.00  0.00     0.059 A 
ATOM    106  C   UNL A   1      50.256  35.988  27.122  1.00  0.00     0.059 A 
ATOM    107  F   UNL A   1      48.719  34.218  27.102  1.00  0.00    -0.206 F 
ATOM    108  C   UNL A   1      51.324  36.641  27.736  1.00  0.00     0.060 A 
BRANCH 108 109
ATOM    109  S   UNL A   1      52.005  38.147  27.013  1.00  0.00     0.124 S 
ATOM    110  O   UNL A   1      53.234  38.314  27.782  1.00  0.00    -0.237 OA
ATOM    111  O   UNL A   1      52.181  37.773  25.612  1.00  0.00    -0.237 OA
ATOM    112  O   UNL A   1      50.967  39.144  27.262  1.00  0.00    -0.744 OA
ENDBRANCH 108 109
ENDBRANCH  76 101
ENDBRANCH  50  51
ENDBRANCH  43  45
ENDBRANCH  42  43
ENDBRANCH  41  42
ENDBRANCH  40  41
ENDBRANCH  39  40
ENDBRANCH  38  39
ENDBRANCH  37  38
ENDBRANCH  36  37
ENDBRANCH  35  36
ENDBRANCH   1  35
TORSDOF 32
ENDMDL
