MODEL 1
REMARK VINA RESULT:      -9.4      0.000      0.000
REMARK SMILES O=C(OCCOCCOCCOCCOC(=O)[C@@H]1CCCCN1c1ccccc1[N+](=O)[O-])c1ccc(-c2c3nc(c(-c4c(F)cc(S(=O)(=O)[O-])cc4F)c4ccc([nH]4)c(-c4c(F)cc(S(=O)(=O)[O-])cc4F)c4nc(c(-c5c(F)cc(S(=O)(=O)[O-])cc5F)c5ccc2[nH]5)C=C4)C=C3)cc1
REMARK SMILES IDX 8 1 7 2 6 3 5 4 4 5 3 6 2 7 1 8 33 9 34 10 98 11 35 12 97 13
REMARK SMILES IDX 36 14 37 15 38 16 91 17 39 18 96 19 90 20 92 21 40 22 95 23
REMARK SMILES IDX 89 24 88 25 41 27 75 28 54 29 74 30 55 31 58 32 73 33 93 34
REMARK SMILES IDX 56 35 57 36 72 38 94 39 59 40 42 41 43 42 52 43 44 44 45 45
REMARK SMILES IDX 51 46 53 47 46 48 47 49 48 50 49 51 50 52 76 53 77 54 86 55
REMARK SMILES IDX 78 56 79 57 85 58 87 59 80 60 81 61 82 62 83 63 84 64 60 65
REMARK SMILES IDX 61 66 70 67 62 68 63 69 69 70 71 71 64 72 65 73 66 74 67 75
REMARK SMILES IDX 68 76 9 77 10 78 11 79 12 80 13 81 14 82 15 83 16 84 17 85
REMARK SMILES IDX 18 86 19 87 23 88 20 89 22 90 21 91 24 92 25 93 29 94 26 95
REMARK SMILES IDX 28 96 27 97 30 98 31 99 32 100
REMARK H PARENT 92 26 58 37
REMARK Flexibility Score: inf
ROOT
ATOM      1  C   UNL A   1      35.332  34.084  28.725  1.00  0.00     0.188 C 
ENDROOT
BRANCH   1   2
ATOM      2  C   UNL A   1      34.103  34.043  29.619  1.00  0.00     0.188 C 
BRANCH   2   3
ATOM      3  O   UNL A   1      34.483  33.666  30.940  1.00  0.00    -0.376 OA
BRANCH   3   4
ATOM      4  C   UNL A   1      35.618  34.290  31.512  1.00  0.00     0.202 C 
BRANCH   4   5
ATOM      5  C   UNL A   1      36.590  33.365  32.256  1.00  0.00     0.261 C 
BRANCH   5   6
ATOM      6  O   UNL A   1      36.947  32.203  31.469  1.00  0.00    -0.460 OA
BRANCH   6   7
ATOM      7  C   UNL A   1      37.691  31.144  31.894  1.00  0.00     0.338 C 
ATOM      8  O   UNL A   1      37.471  30.633  32.993  1.00  0.00    -0.246 OA
BRANCH   7   9
ATOM      9  C   UNL A   1      38.812  30.625  31.068  1.00  0.00     0.060 A 
ATOM     10  C   UNL A   1      39.915  30.023  31.658  1.00  0.00     0.016 A 
ATOM     11  C   UNL A   1      38.762  30.673  29.677  1.00  0.00     0.016 A 
ATOM     12  C   UNL A   1      41.021  29.629  30.959  1.00  0.00     0.010 A 
ATOM     13  C   UNL A   1      39.848  30.195  28.931  1.00  0.00     0.010 A 
ATOM     14  C   UNL A   1      40.991  29.703  29.584  1.00  0.00    -0.014 A 
BRANCH  14  15
ATOM     15  C   UNL A   1      42.261  29.415  28.914  1.00  0.00     0.031 A 
ATOM     16  C   UNL A   1      42.426  28.045  28.345  1.00  0.00     0.074 A 
ATOM     17  C   UNL A   1      43.127  30.416  28.663  1.00  0.00     0.049 A 
ATOM     18  N   UNL A   1      43.498  27.471  27.889  1.00  0.00    -0.248 NA
ATOM     19  C   UNL A   1      41.213  27.204  28.277  1.00  0.00     0.031 C 
ATOM     20  C   UNL A   1      42.909  31.834  28.986  1.00  0.00     0.029 A 
ATOM     21  N   UNL A   1      44.349  30.406  28.053  1.00  0.00    -0.354 N 
ATOM     22  C   UNL A   1      43.114  26.177  27.572  1.00  0.00     0.074 A 
ATOM     23  C   UNL A   1      41.702  26.054  27.837  1.00  0.00     0.031 C 
ATOM     24  C   UNL A   1      43.966  32.550  28.574  1.00  0.00     0.029 A 
ATOM     25  C   UNL A   1      44.976  31.631  28.075  1.00  0.00     0.049 A 
ATOM     26  H   UNL A   1      44.743  29.604  27.639  1.00  0.00     0.167 HD
ATOM     27  C   UNL A   1      43.912  25.181  27.134  1.00  0.00     0.037 A 
ATOM     28  C   UNL A   1      46.258  31.938  27.810  1.00  0.00     0.037 A 
ATOM     29  C   UNL A   1      45.306  25.393  26.855  1.00  0.00     0.049 A 
ATOM     30  C   UNL A   1      47.153  30.792  27.419  1.00  0.00     0.074 A 
ATOM     31  C   UNL A   1      46.257  24.481  26.453  1.00  0.00     0.029 A 
ATOM     32  N   UNL A   1      45.936  26.630  26.950  1.00  0.00    -0.354 N 
ATOM     33  N   UNL A   1      46.833  29.532  27.223  1.00  0.00    -0.248 NA
ATOM     34  C   UNL A   1      48.577  31.088  27.248  1.00  0.00     0.031 C 
ATOM     35  C   UNL A   1      47.478  25.157  26.358  1.00  0.00     0.029 A 
ATOM     36  C   UNL A   1      47.275  26.502  26.644  1.00  0.00     0.049 A 
ATOM     37  H   UNL A   1      45.492  27.473  27.197  1.00  0.00     0.167 HD
ATOM     38  C   UNL A   1      48.016  28.883  26.901  1.00  0.00     0.074 A 
ATOM     39  C   UNL A   1      49.052  29.901  26.898  1.00  0.00     0.031 C 
ATOM     40  C   UNL A   1      48.244  27.570  26.647  1.00  0.00     0.037 A 
BRANCH  27  41
ATOM     41  C   UNL A   1      43.332  23.803  27.049  1.00  0.00     0.058 A 
ATOM     42  C   UNL A   1      43.110  23.000  28.177  1.00  0.00     0.135 A 
ATOM     43  C   UNL A   1      42.988  23.276  25.792  1.00  0.00     0.135 A 
ATOM     44  F   UNL A   1      43.468  23.433  29.397  1.00  0.00    -0.206 F 
ATOM     45  C   UNL A   1      42.560  21.726  28.064  1.00  0.00     0.059 A 
ATOM     46  C   UNL A   1      42.417  22.017  25.657  1.00  0.00     0.059 A 
ATOM     47  F   UNL A   1      43.215  23.990  24.677  1.00  0.00    -0.206 F 
ATOM     48  C   UNL A   1      42.206  21.248  26.799  1.00  0.00     0.060 A 
BRANCH  48  49
ATOM     49  S   UNL A   1      41.439  19.619  26.674  1.00  0.00     0.124 S 
ATOM     50  O   UNL A   1      40.022  19.952  26.783  1.00  0.00    -0.237 OA
ATOM     51  O   UNL A   1      41.884  19.169  25.358  1.00  0.00    -0.237 OA
ATOM     52  O   UNL A   1      42.001  18.889  27.806  1.00  0.00    -0.744 OA
ENDBRANCH  48  49
ENDBRANCH  27  41
BRANCH  28  53
ATOM     53  C   UNL A   1      46.788  33.313  28.042  1.00  0.00     0.058 A 
ATOM     54  C   UNL A   1      47.289  33.707  29.291  1.00  0.00     0.135 A 
ATOM     55  C   UNL A   1      46.766  34.284  27.023  1.00  0.00     0.135 A 
ATOM     56  F   UNL A   1      47.331  32.826  30.303  1.00  0.00    -0.206 F 
ATOM     57  C   UNL A   1      47.711  35.013  29.534  1.00  0.00     0.059 A 
ATOM     58  C   UNL A   1      47.215  35.585  27.229  1.00  0.00     0.059 A 
ATOM     59  F   UNL A   1      46.306  33.972  25.801  1.00  0.00    -0.206 F 
ATOM     60  C   UNL A   1      47.663  35.947  28.497  1.00  0.00     0.060 A 
BRANCH  60  61
ATOM     61  S   UNL A   1      48.189  37.644  28.824  1.00  0.00     0.124 S 
ATOM     62  O   UNL A   1      48.509  38.115  27.482  1.00  0.00    -0.237 OA
ATOM     63  O   UNL A   1      46.997  38.224  29.437  1.00  0.00    -0.237 OA
ATOM     64  O   UNL A   1      49.327  37.478  29.723  1.00  0.00    -0.744 OA
ENDBRANCH  60  61
ENDBRANCH  28  53
BRANCH  40  65
ATOM     65  C   UNL A   1      49.654  27.187  26.324  1.00  0.00     0.058 A 
ATOM     66  C   UNL A   1      50.520  26.699  27.312  1.00  0.00     0.135 A 
ATOM     67  C   UNL A   1      50.108  27.234  24.997  1.00  0.00     0.135 A 
ATOM     68  F   UNL A   1      50.126  26.649  28.594  1.00  0.00    -0.206 F 
ATOM     69  C   UNL A   1      51.803  26.277  26.994  1.00  0.00     0.059 A 
ATOM     70  C   UNL A   1      51.374  26.786  24.652  1.00  0.00     0.059 A 
ATOM     71  F   UNL A   1      49.303  27.683  24.021  1.00  0.00    -0.206 F 
ATOM     72  C   UNL A   1      52.217  26.317  25.660  1.00  0.00     0.060 A 
BRANCH  72  73
ATOM     73  S   UNL A   1      53.864  25.707  25.254  1.00  0.00     0.124 S 
ATOM     74  O   UNL A   1      54.343  26.744  24.346  1.00  0.00    -0.237 OA
ATOM     75  O   UNL A   1      54.509  25.660  26.562  1.00  0.00    -0.237 OA
ATOM     76  O   UNL A   1      53.602  24.408  24.642  1.00  0.00    -0.744 OA
ENDBRANCH  72  73
ENDBRANCH  40  65
ENDBRANCH  14  15
ENDBRANCH   7   9
ENDBRANCH   6   7
ENDBRANCH   5   6
ENDBRANCH   4   5
ENDBRANCH   3   4
ENDBRANCH   2   3
ENDBRANCH   1   2
BRANCH   1  77
ATOM     77  O   UNL A   1      35.196  33.168  27.648  1.00  0.00    -0.377 OA
BRANCH  77  78
ATOM     78  C   UNL A   1      35.001  31.812  28.030  1.00  0.00     0.188 C 
BRANCH  78  79
ATOM     79  C   UNL A   1      33.819  31.118  27.349  1.00  0.00     0.188 C 
BRANCH  79  80
ATOM     80  O   UNL A   1      33.690  29.720  27.525  1.00  0.00    -0.376 OA
BRANCH  80  81
ATOM     81  C   UNL A   1      32.495  29.052  27.116  1.00  0.00     0.202 C 
BRANCH  81  82
ATOM     82  C   UNL A   1      32.510  27.648  26.481  1.00  0.00     0.261 C 
BRANCH  82  83
ATOM     83  O   UNL A   1      31.531  26.703  26.998  1.00  0.00    -0.462 OA
BRANCH  83  84
ATOM     84  C   UNL A   1      31.078  25.790  26.102  1.00  0.00     0.328 C 
ATOM     85  O   UNL A   1      30.320  24.868  26.417  1.00  0.00    -0.250 OA
BRANCH  84  86
ATOM     86  C   UNL A   1      31.703  25.783  24.710  1.00  0.00     0.192 C 
ATOM     87  C   UNL A   1      30.671  26.186  23.659  1.00  0.00     0.037 C 
ATOM     88  N   UNL A   1      32.693  24.800  24.159  1.00  0.00    -0.353 N 
ATOM     89  C   UNL A   1      31.386  26.750  22.432  1.00  0.00     0.005 C 
ATOM     90  C   UNL A   1      33.411  25.358  22.984  1.00  0.00     0.118 C 
ATOM     91  C   UNL A   1      32.405  25.748  21.901  1.00  0.00     0.022 C 
BRANCH  88  92
ATOM     92  C   UNL A   1      32.769  23.417  24.229  1.00  0.00     0.116 A 
ATOM     93  C   UNL A   1      31.938  22.597  23.451  1.00  0.00     0.033 A 
ATOM     94  C   UNL A   1      33.783  22.733  24.966  1.00  0.00     0.292 A 
ATOM     95  C   UNL A   1      32.151  21.207  23.339  1.00  0.00     0.003 A 
ATOM     96  C   UNL A   1      34.048  21.353  24.798  1.00  0.00     0.088 A 
ATOM     97  C   UNL A   1      33.224  20.590  23.980  1.00  0.00     0.007 A 
BRANCH  94  98
ATOM     98  N   UNL A   1      34.562  23.410  26.020  1.00  0.00     0.064 N 
ATOM     99  O   UNL A   1      35.578  24.028  25.660  1.00  0.00    -0.258 OA
ATOM    100  O   UNL A   1      34.197  23.319  27.201  1.00  0.00    -0.258 OA
ENDBRANCH  94  98
ENDBRANCH  88  92
ENDBRANCH  84  86
ENDBRANCH  83  84
ENDBRANCH  82  83
ENDBRANCH  81  82
ENDBRANCH  80  81
ENDBRANCH  79  80
ENDBRANCH  78  79
ENDBRANCH  77  78
ENDBRANCH   1  77
TORSDOF 25
ENDMDL
MODEL 2
REMARK VINA RESULT:      -9.3      2.407      9.077
REMARK SMILES O=C(OCCOCCOCCOCCOC(=O)[C@@H]1CCCCN1c1ccccc1[N+](=O)[O-])c1ccc(-c2c3nc(c(-c4c(F)cc(S(=O)(=O)[O-])cc4F)c4ccc([nH]4)c(-c4c(F)cc(S(=O)(=O)[O-])cc4F)c4nc(c(-c5c(F)cc(S(=O)(=O)[O-])cc5F)c5ccc2[nH]5)C=C4)C=C3)cc1
REMARK SMILES IDX 8 1 7 2 6 3 5 4 4 5 3 6 2 7 1 8 33 9 34 10 98 11 35 12 97 13
REMARK SMILES IDX 36 14 37 15 38 16 91 17 39 18 96 19 90 20 92 21 40 22 95 23
REMARK SMILES IDX 89 24 88 25 41 27 75 28 54 29 74 30 55 31 58 32 73 33 93 34
REMARK SMILES IDX 56 35 57 36 72 38 94 39 59 40 42 41 43 42 52 43 44 44 45 45
REMARK SMILES IDX 51 46 53 47 46 48 47 49 48 50 49 51 50 52 76 53 77 54 86 55
REMARK SMILES IDX 78 56 79 57 85 58 87 59 80 60 81 61 82 62 83 63 84 64 60 65
REMARK SMILES IDX 61 66 70 67 62 68 63 69 69 70 71 71 64 72 65 73 66 74 67 75
REMARK SMILES IDX 68 76 9 77 10 78 11 79 12 80 13 81 14 82 15 83 16 84 17 85
REMARK SMILES IDX 18 86 19 87 23 88 20 89 22 90 21 91 24 92 25 93 29 94 26 95
REMARK SMILES IDX 28 96 27 97 30 98 31 99 32 100
REMARK H PARENT 92 26 58 37
REMARK Flexibility Score: inf
ROOT
ATOM      1  C   UNL A   1      36.166  21.798  24.517  1.00  0.00     0.188 C 
ENDROOT
BRANCH   1   2
ATOM      2  C   UNL A   1      36.844  20.486  24.880  1.00  0.00     0.188 C 
BRANCH   2   3
ATOM      3  O   UNL A   1      38.202  20.731  25.239  1.00  0.00    -0.376 OA
BRANCH   3   4
ATOM      4  C   UNL A   1      39.073  19.622  25.347  1.00  0.00     0.202 C 
BRANCH   4   5
ATOM      5  C   UNL A   1      40.256  19.786  26.312  1.00  0.00     0.261 C 
BRANCH   5   6
ATOM      6  O   UNL A   1      41.445  19.112  25.835  1.00  0.00    -0.460 OA
BRANCH   6   7
ATOM      7  C   UNL A   1      42.634  19.702  25.530  1.00  0.00     0.338 C 
ATOM      8  O   UNL A   1      43.477  19.095  24.869  1.00  0.00    -0.246 OA
BRANCH   7   9
ATOM      9  C   UNL A   1      42.955  21.063  26.033  1.00  0.00     0.060 A 
ATOM     10  C   UNL A   1      43.068  22.138  25.163  1.00  0.00     0.016 A 
ATOM     11  C   UNL A   1      43.094  21.311  27.396  1.00  0.00     0.016 A 
ATOM     12  C   UNL A   1      43.470  23.385  25.554  1.00  0.00     0.010 A 
ATOM     13  C   UNL A   1      43.421  22.602  27.833  1.00  0.00     0.010 A 
ATOM     14  C   UNL A   1      43.640  23.629  26.899  1.00  0.00    -0.014 A 
BRANCH  14  15
ATOM     15  C   UNL A   1      44.220  24.932  27.231  1.00  0.00     0.031 A 
ATOM     16  C   UNL A   1      43.293  25.958  27.792  1.00  0.00     0.074 A 
ATOM     17  C   UNL A   1      45.557  25.093  27.210  1.00  0.00     0.049 A 
ATOM     18  N   UNL A   1      43.493  27.228  27.978  1.00  0.00    -0.248 NA
ATOM     19  C   UNL A   1      41.954  25.489  28.203  1.00  0.00     0.031 C 
ATOM     20  C   UNL A   1      46.539  24.044  26.898  1.00  0.00     0.029 A 
ATOM     21  N   UNL A   1      46.328  26.187  27.485  1.00  0.00    -0.354 N 
ATOM     22  C   UNL A   1      42.282  27.726  28.435  1.00  0.00     0.074 A 
ATOM     23  C   UNL A   1      41.361  26.622  28.547  1.00  0.00     0.031 C 
ATOM     24  C   UNL A   1      47.777  24.550  26.996  1.00  0.00     0.029 A 
ATOM     25  C   UNL A   1      47.669  25.977  27.254  1.00  0.00     0.049 A 
ATOM     26  H   UNL A   1      45.963  27.039  27.815  1.00  0.00     0.167 HD
ATOM     27  C   UNL A   1      41.984  29.017  28.691  1.00  0.00     0.037 A 
ATOM     28  C   UNL A   1      48.670  26.872  27.166  1.00  0.00     0.037 A 
ATOM     29  C   UNL A   1      42.971  30.057  28.593  1.00  0.00     0.049 A 
ATOM     30  C   UNL A   1      48.293  28.317  27.359  1.00  0.00     0.074 A 
ATOM     31  C   UNL A   1      42.818  31.415  28.772  1.00  0.00     0.029 A 
ATOM     32  N   UNL A   1      44.310  29.830  28.291  1.00  0.00    -0.354 N 
ATOM     33  N   UNL A   1      47.123  28.824  27.680  1.00  0.00    -0.248 NA
ATOM     34  C   UNL A   1      49.346  29.313  27.146  1.00  0.00     0.031 C 
ATOM     35  C   UNL A   1      44.057  32.016  28.523  1.00  0.00     0.029 A 
ATOM     36  C   UNL A   1      44.993  31.027  28.246  1.00  0.00     0.049 A 
ATOM     37  H   UNL A   1      44.711  28.945  28.133  1.00  0.00     0.167 HD
ATOM     38  C   UNL A   1      47.298  30.200  27.712  1.00  0.00     0.074 A 
ATOM     39  C   UNL A   1      48.698  30.439  27.408  1.00  0.00     0.031 C 
ATOM     40  C   UNL A   1      46.396  31.183  27.951  1.00  0.00     0.037 A 
BRANCH  27  41
ATOM     41  C   UNL A   1      40.556  29.363  28.978  1.00  0.00     0.058 A 
ATOM     42  C   UNL A   1      39.571  29.417  27.980  1.00  0.00     0.135 A 
ATOM     43  C   UNL A   1      40.167  29.649  30.298  1.00  0.00     0.135 A 
ATOM     44  F   UNL A   1      39.898  29.204  26.695  1.00  0.00    -0.206 F 
ATOM     45  C   UNL A   1      38.249  29.733  28.282  1.00  0.00     0.059 A 
ATOM     46  C   UNL A   1      38.849  29.944  30.626  1.00  0.00     0.059 A 
ATOM     47  F   UNL A   1      41.078  29.648  31.284  1.00  0.00    -0.206 F 
ATOM     48  C   UNL A   1      37.896  29.985  29.611  1.00  0.00     0.060 A 
BRANCH  48  49
ATOM     49  S   UNL A   1      36.168  30.335  29.995  1.00  0.00     0.124 S 
ATOM     50  O   UNL A   1      36.040  29.754  31.328  1.00  0.00    -0.237 OA
ATOM     51  O   UNL A   1      36.128  31.793  29.933  1.00  0.00    -0.237 OA
ATOM     52  O   UNL A   1      35.437  29.645  28.937  1.00  0.00    -0.744 OA
ENDBRANCH  48  49
ENDBRANCH  27  41
BRANCH  28  53
ATOM     53  C   UNL A   1      50.042  26.459  26.752  1.00  0.00     0.058 A 
ATOM     54  C   UNL A   1      50.429  26.444  25.404  1.00  0.00     0.135 A 
ATOM     55  C   UNL A   1      50.990  26.028  27.698  1.00  0.00     0.135 A 
ATOM     56  F   UNL A   1      49.566  26.840  24.455  1.00  0.00    -0.206 F 
ATOM     57  C   UNL A   1      51.683  25.984  25.005  1.00  0.00     0.059 A 
ATOM     58  C   UNL A   1      52.261  25.598  27.329  1.00  0.00     0.059 A 
ATOM     59  F   UNL A   1      50.688  26.025  29.006  1.00  0.00    -0.206 F 
ATOM     60  C   UNL A   1      52.590  25.556  25.977  1.00  0.00     0.060 A 
BRANCH  60  61
ATOM     61  S   UNL A   1      54.205  24.938  25.453  1.00  0.00     0.124 S 
ATOM     62  O   UNL A   1      54.942  24.944  26.711  1.00  0.00    -0.237 OA
ATOM     63  O   UNL A   1      53.872  23.622  24.914  1.00  0.00    -0.237 OA
ATOM     64  O   UNL A   1      54.637  25.920  24.464  1.00  0.00    -0.744 OA
ENDBRANCH  60  61
ENDBRANCH  28  53
BRANCH  40  65
ATOM     65  C   UNL A   1      46.913  32.587  27.915  1.00  0.00     0.058 A 
ATOM     66  C   UNL A   1      47.685  33.105  28.965  1.00  0.00     0.135 A 
ATOM     67  C   UNL A   1      46.702  33.385  26.782  1.00  0.00     0.135 A 
ATOM     68  F   UNL A   1      47.901  32.376  30.072  1.00  0.00    -0.206 F 
ATOM     69  C   UNL A   1      48.223  34.382  28.896  1.00  0.00     0.059 A 
ATOM     70  C   UNL A   1      47.259  34.651  26.677  1.00  0.00     0.059 A 
ATOM     71  F   UNL A   1      45.980  32.919  25.750  1.00  0.00    -0.206 F 
ATOM     72  C   UNL A   1      48.011  35.143  27.744  1.00  0.00     0.060 A 
BRANCH  72  73
ATOM     73  S   UNL A   1      48.769  36.775  27.642  1.00  0.00     0.124 S 
ATOM     74  O   UNL A   1      49.776  36.565  26.607  1.00  0.00    -0.237 OA
ATOM     75  O   UNL A   1      47.640  37.620  27.267  1.00  0.00    -0.237 OA
ATOM     76  O   UNL A   1      49.289  36.992  28.989  1.00  0.00    -0.744 OA
ENDBRANCH  72  73
ENDBRANCH  40  65
ENDBRANCH  14  15
ENDBRANCH   7   9
ENDBRANCH   6   7
ENDBRANCH   5   6
ENDBRANCH   4   5
ENDBRANCH   3   4
ENDBRANCH   2   3
ENDBRANCH   1   2
BRANCH   1  77
ATOM     77  O   UNL A   1      36.555  22.827  25.416  1.00  0.00    -0.377 OA
BRANCH  77  78
ATOM     78  C   UNL A   1      35.494  23.408  26.162  1.00  0.00     0.188 C 
BRANCH  78  79
ATOM     79  C   UNL A   1      34.545  22.401  26.817  1.00  0.00     0.188 C 
BRANCH  79  80
ATOM     80  O   UNL A   1      33.213  22.348  26.341  1.00  0.00    -0.376 OA
BRANCH  80  81
ATOM     81  C   UNL A   1      32.168  23.011  27.053  1.00  0.00     0.202 C 
BRANCH  81  82
ATOM     82  C   UNL A   1      30.727  23.095  26.517  1.00  0.00     0.261 C 
BRANCH  82  83
ATOM     83  O   UNL A   1      30.531  23.931  25.340  1.00  0.00    -0.462 OA
BRANCH  83  84
ATOM     84  C   UNL A   1      30.819  25.246  25.511  1.00  0.00     0.328 C 
ATOM     85  O   UNL A   1      30.300  25.930  26.398  1.00  0.00    -0.250 OA
BRANCH  84  86
ATOM     86  C   UNL A   1      31.643  25.944  24.434  1.00  0.00     0.192 C 
ATOM     87  C   UNL A   1      33.130  25.654  24.627  1.00  0.00     0.037 C 
ATOM     88  N   UNL A   1      31.422  27.310  23.856  1.00  0.00    -0.353 N 
ATOM     89  C   UNL A   1      33.860  25.815  23.295  1.00  0.00     0.005 C 
ATOM     90  C   UNL A   1      32.105  27.459  22.545  1.00  0.00     0.118 C 
ATOM     91  C   UNL A   1      33.603  27.200  22.711  1.00  0.00     0.022 C 
BRANCH  88  92
ATOM     92  C   UNL A   1      31.105  28.528  24.439  1.00  0.00     0.116 A 
ATOM     93  C   UNL A   1      31.781  28.991  25.578  1.00  0.00     0.033 A 
ATOM     94  C   UNL A   1      30.195  29.457  23.850  1.00  0.00     0.292 A 
ATOM     95  C   UNL A   1      31.633  30.312  26.049  1.00  0.00     0.003 A 
ATOM     96  C   UNL A   1      30.101  30.804  24.271  1.00  0.00     0.088 A 
ATOM     97  C   UNL A   1      30.825  31.229  25.378  1.00  0.00     0.007 A 
BRANCH  94  98
ATOM     98  N   UNL A   1      29.227  29.040  22.818  1.00  0.00     0.064 N 
ATOM     99  O   UNL A   1      28.142  28.580  23.216  1.00  0.00    -0.258 OA
ATOM    100  O   UNL A   1      29.532  29.139  21.621  1.00  0.00    -0.258 OA
ENDBRANCH  94  98
ENDBRANCH  88  92
ENDBRANCH  84  86
ENDBRANCH  83  84
ENDBRANCH  82  83
ENDBRANCH  81  82
ENDBRANCH  80  81
ENDBRANCH  79  80
ENDBRANCH  78  79
ENDBRANCH  77  78
ENDBRANCH   1  77
TORSDOF 25
ENDMDL
MODEL 3
REMARK VINA RESULT:      -9.3      1.301      2.089
REMARK SMILES O=C(OCCOCCOCCOCCOC(=O)[C@@H]1CCCCN1c1ccccc1[N+](=O)[O-])c1ccc(-c2c3nc(c(-c4c(F)cc(S(=O)(=O)[O-])cc4F)c4ccc([nH]4)c(-c4c(F)cc(S(=O)(=O)[O-])cc4F)c4nc(c(-c5c(F)cc(S(=O)(=O)[O-])cc5F)c5ccc2[nH]5)C=C4)C=C3)cc1
REMARK SMILES IDX 8 1 7 2 6 3 5 4 4 5 3 6 2 7 1 8 33 9 34 10 98 11 35 12 97 13
REMARK SMILES IDX 36 14 37 15 38 16 91 17 39 18 96 19 90 20 92 21 40 22 95 23
REMARK SMILES IDX 89 24 88 25 41 27 75 28 54 29 74 30 55 31 58 32 73 33 93 34
REMARK SMILES IDX 56 35 57 36 72 38 94 39 59 40 42 41 43 42 52 43 44 44 45 45
REMARK SMILES IDX 51 46 53 47 46 48 47 49 48 50 49 51 50 52 76 53 77 54 86 55
REMARK SMILES IDX 78 56 79 57 85 58 87 59 80 60 81 61 82 62 83 63 84 64 60 65
REMARK SMILES IDX 61 66 70 67 62 68 63 69 69 70 71 71 64 72 65 73 66 74 67 75
REMARK SMILES IDX 68 76 9 77 10 78 11 79 12 80 13 81 14 82 15 83 16 84 17 85
REMARK SMILES IDX 18 86 19 87 23 88 20 89 22 90 21 91 24 92 25 93 29 94 26 95
REMARK SMILES IDX 28 96 27 97 30 98 31 99 32 100
REMARK H PARENT 92 26 58 37
REMARK Flexibility Score: inf
ROOT
ATOM      1  C   UNL A   1      33.482  35.554  29.391  1.00  0.00     0.188 C 
ENDROOT
BRANCH   1   2
ATOM      2  C   UNL A   1      33.547  35.468  30.908  1.00  0.00     0.188 C 
BRANCH   2   3
ATOM      3  O   UNL A   1      33.771  34.116  31.302  1.00  0.00    -0.376 OA
BRANCH   3   4
ATOM      4  C   UNL A   1      35.086  33.735  31.661  1.00  0.00     0.202 C 
BRANCH   4   5
ATOM      5  C   UNL A   1      35.563  32.378  31.128  1.00  0.00     0.261 C 
BRANCH   5   6
ATOM      6  O   UNL A   1      37.001  32.331  30.967  1.00  0.00    -0.460 OA
BRANCH   6   7
ATOM      7  C   UNL A   1      37.844  31.428  31.542  1.00  0.00     0.338 C 
ATOM      8  O   UNL A   1      37.711  31.124  32.728  1.00  0.00    -0.246 OA
BRANCH   7   9
ATOM      9  C   UNL A   1      38.966  30.838  30.767  1.00  0.00     0.060 A 
ATOM     10  C   UNL A   1      40.029  30.217  31.409  1.00  0.00     0.016 A 
ATOM     11  C   UNL A   1      38.957  30.838  29.375  1.00  0.00     0.016 A 
ATOM     12  C   UNL A   1      41.138  29.759  30.757  1.00  0.00     0.010 A 
ATOM     13  C   UNL A   1      40.044  30.294  28.677  1.00  0.00     0.010 A 
ATOM     14  C   UNL A   1      41.149  29.784  29.380  1.00  0.00    -0.014 A 
BRANCH  14  15
ATOM     15  C   UNL A   1      42.425  29.426  28.757  1.00  0.00     0.031 A 
ATOM     16  C   UNL A   1      42.539  28.044  28.205  1.00  0.00     0.074 A 
ATOM     17  C   UNL A   1      43.349  30.379  28.528  1.00  0.00     0.049 A 
ATOM     18  N   UNL A   1      43.596  27.412  27.792  1.00  0.00    -0.248 NA
ATOM     19  C   UNL A   1      41.289  27.264  28.102  1.00  0.00     0.031 C 
ATOM     20  C   UNL A   1      43.193  31.809  28.831  1.00  0.00     0.029 A 
ATOM     21  N   UNL A   1      44.590  30.301  27.961  1.00  0.00    -0.354 N 
ATOM     22  C   UNL A   1      43.158  26.135  27.472  1.00  0.00     0.074 A 
ATOM     23  C   UNL A   1      41.734  26.087  27.689  1.00  0.00     0.031 C 
ATOM     24  C   UNL A   1      44.297  32.467  28.451  1.00  0.00     0.029 A 
ATOM     25  C   UNL A   1      45.276  31.493  27.995  1.00  0.00     0.049 A 
ATOM     26  H   UNL A   1      44.956  29.477  27.568  1.00  0.00     0.167 HD
ATOM     27  C   UNL A   1      43.920  25.096  27.071  1.00  0.00     0.037 A 
ATOM     28  C   UNL A   1      46.581  31.733  27.773  1.00  0.00     0.037 A 
ATOM     29  C   UNL A   1      45.331  25.235  26.840  1.00  0.00     0.049 A 
ATOM     30  C   UNL A   1      47.430  30.539  27.423  1.00  0.00     0.074 A 
ATOM     31  C   UNL A   1      46.248  24.271  26.479  1.00  0.00     0.029 A 
ATOM     32  N   UNL A   1      46.020  26.439  26.946  1.00  0.00    -0.354 N 
ATOM     33  N   UNL A   1      47.053  29.294  27.227  1.00  0.00    -0.248 NA
ATOM     34  C   UNL A   1      48.872  30.761  27.299  1.00  0.00     0.031 C 
ATOM     35  C   UNL A   1      47.504  24.884  26.421  1.00  0.00     0.029 A 
ATOM     36  C   UNL A   1      47.360  26.240  26.689  1.00  0.00     0.049 A 
ATOM     37  H   UNL A   1      45.611  27.306  27.171  1.00  0.00     0.167 HD
ATOM     38  C   UNL A   1      48.212  28.583  26.952  1.00  0.00     0.074 A 
ATOM     39  C   UNL A   1      49.297  29.547  26.976  1.00  0.00     0.031 C 
ATOM     40  C   UNL A   1      48.381  27.259  26.717  1.00  0.00     0.037 A 
BRANCH  27  41
ATOM     41  C   UNL A   1      43.273  23.748  26.977  1.00  0.00     0.058 A 
ATOM     42  C   UNL A   1      42.931  23.153  25.753  1.00  0.00     0.135 A 
ATOM     43  C   UNL A   1      42.991  23.035  28.154  1.00  0.00     0.135 A 
ATOM     44  F   UNL A   1      43.131  23.812  24.601  1.00  0.00    -0.206 F 
ATOM     45  C   UNL A   1      42.340  21.894  25.700  1.00  0.00     0.059 A 
ATOM     46  C   UNL A   1      42.422  21.768  28.124  1.00  0.00     0.059 A 
ATOM     47  F   UNL A   1      43.264  23.576  29.352  1.00  0.00    -0.206 F 
ATOM     48  C   UNL A   1      42.099  21.204  26.892  1.00  0.00     0.060 A 
BRANCH  48  49
ATOM     49  S   UNL A   1      41.386  19.548  26.804  1.00  0.00     0.124 S 
ATOM     50  O   UNL A   1      41.436  19.283  25.369  1.00  0.00    -0.237 OA
ATOM     51  O   UNL A   1      42.310  18.771  27.625  1.00  0.00    -0.237 OA
ATOM     52  O   UNL A   1      40.050  19.723  27.364  1.00  0.00    -0.744 OA
ENDBRANCH  48  49
ENDBRANCH  27  41
BRANCH  28  53
ATOM     53  C   UNL A   1      47.172  33.082  28.012  1.00  0.00     0.058 A 
ATOM     54  C   UNL A   1      47.277  34.030  26.984  1.00  0.00     0.135 A 
ATOM     55  C   UNL A   1      47.686  33.439  29.273  1.00  0.00     0.135 A 
ATOM     56  F   UNL A   1      46.809  33.745  25.759  1.00  0.00    -0.206 F 
ATOM     57  C   UNL A   1      47.899  35.261  27.183  1.00  0.00     0.059 A 
ATOM     58  C   UNL A   1      48.279  34.676  29.506  1.00  0.00     0.059 A 
ATOM     59  F   UNL A   1      47.610  32.581  30.302  1.00  0.00    -0.206 F 
ATOM     60  C   UNL A   1      48.404  35.572  28.448  1.00  0.00     0.060 A 
BRANCH  60  61
ATOM     61  S   UNL A   1      49.231  37.159  28.694  1.00  0.00     0.124 S 
ATOM     62  O   UNL A   1      49.103  37.335  30.135  1.00  0.00    -0.237 OA
ATOM     63  O   UNL A   1      50.578  36.885  28.201  1.00  0.00    -0.237 OA
ATOM     64  O   UNL A   1      48.448  38.078  27.873  1.00  0.00    -0.744 OA
ENDBRANCH  60  61
ENDBRANCH  28  53
BRANCH  40  65
ATOM     65  C   UNL A   1      49.780  26.802  26.446  1.00  0.00     0.058 A 
ATOM     66  C   UNL A   1      50.632  26.410  27.488  1.00  0.00     0.135 A 
ATOM     67  C   UNL A   1      50.236  26.678  25.125  1.00  0.00     0.135 A 
ATOM     68  F   UNL A   1      50.237  26.523  28.766  1.00  0.00    -0.206 F 
ATOM     69  C   UNL A   1      51.903  25.919  27.228  1.00  0.00     0.059 A 
ATOM     70  C   UNL A   1      51.490  26.159  24.840  1.00  0.00     0.059 A 
ATOM     71  F   UNL A   1      49.444  27.031  24.100  1.00  0.00    -0.206 F 
ATOM     72  C   UNL A   1      52.319  25.790  25.900  1.00  0.00     0.060 A 
BRANCH  72  73
ATOM     73  S   UNL A   1      53.949  25.091  25.575  1.00  0.00     0.124 S 
ATOM     74  O   UNL A   1      54.600  25.257  26.870  1.00  0.00    -0.237 OA
ATOM     75  O   UNL A   1      53.628  23.718  25.197  1.00  0.00    -0.237 OA
ATOM     76  O   UNL A   1      54.468  25.929  24.498  1.00  0.00    -0.744 OA
ENDBRANCH  72  73
ENDBRANCH  40  65
ENDBRANCH  14  15
ENDBRANCH   7   9
ENDBRANCH   6   7
ENDBRANCH   5   6
ENDBRANCH   4   5
ENDBRANCH   3   4
ENDBRANCH   2   3
ENDBRANCH   1   2
BRANCH   1  77
ATOM     77  O   UNL A   1      32.902  34.377  28.848  1.00  0.00    -0.377 OA
BRANCH  77  78
ATOM     78  C   UNL A   1      33.650  33.762  27.806  1.00  0.00     0.188 C 
BRANCH  78  79
ATOM     79  C   UNL A   1      33.609  32.232  27.805  1.00  0.00     0.188 C 
BRANCH  79  80
ATOM     80  O   UNL A   1      34.816  31.544  27.537  1.00  0.00    -0.376 OA
BRANCH  80  81
ATOM     81  C   UNL A   1      34.977  30.187  27.952  1.00  0.00     0.202 C 
BRANCH  81  82
ATOM     82  C   UNL A   1      34.761  29.000  26.994  1.00  0.00     0.261 C 
BRANCH  82  83
ATOM     83  O   UNL A   1      33.716  29.168  25.993  1.00  0.00    -0.462 OA
BRANCH  83  84
ATOM     84  C   UNL A   1      32.730  28.237  26.024  1.00  0.00     0.328 C 
ATOM     85  O   UNL A   1      32.155  27.913  27.067  1.00  0.00    -0.250 OA
BRANCH  84  86
ATOM     86  C   UNL A   1      32.483  27.414  24.764  1.00  0.00     0.192 C 
ATOM     87  C   UNL A   1      30.989  27.349  24.452  1.00  0.00     0.037 C 
ATOM     88  N   UNL A   1      33.186  26.159  24.340  1.00  0.00    -0.353 N 
ATOM     89  C   UNL A   1      30.790  27.079  22.961  1.00  0.00     0.005 C 
ATOM     90  C   UNL A   1      33.019  25.911  22.885  1.00  0.00     0.118 C 
ATOM     91  C   UNL A   1      31.532  25.815  22.544  1.00  0.00     0.022 C 
BRANCH  88  92
ATOM     92  C   UNL A   1      33.566  25.022  25.039  1.00  0.00     0.116 A 
ATOM     93  C   UNL A   1      34.903  24.598  25.076  1.00  0.00     0.033 A 
ATOM     94  C   UNL A   1      32.672  24.297  25.884  1.00  0.00     0.292 A 
ATOM     95  C   UNL A   1      35.342  23.587  25.955  1.00  0.00     0.003 A 
ATOM     96  C   UNL A   1      33.120  23.336  26.821  1.00  0.00     0.088 A 
ATOM     97  C   UNL A   1      34.463  22.982  26.852  1.00  0.00     0.007 A 
BRANCH  94  98
ATOM     98  N   UNL A   1      31.209  24.443  25.768  1.00  0.00     0.064 N 
ATOM     99  O   UNL A   1      30.659  23.864  24.815  1.00  0.00    -0.258 OA
ATOM    100  O   UNL A   1      30.598  25.142  26.589  1.00  0.00    -0.258 OA
ENDBRANCH  94  98
ENDBRANCH  88  92
ENDBRANCH  84  86
ENDBRANCH  83  84
ENDBRANCH  82  83
ENDBRANCH  81  82
ENDBRANCH  80  81
ENDBRANCH  79  80
ENDBRANCH  78  79
ENDBRANCH  77  78
ENDBRANCH   1  77
TORSDOF 25
ENDMDL
