MODEL 1
REMARK VINA RESULT:      -7.2      0.000      0.000
REMARK SMILES CN(C)C(=O)c1cccc(NCc2cc(C(=O)OCCOCCOCCOCCOC(=O)c3ccc(-c4c5nc(c(-c6c(F)cc(S(=O)(=O)[O-])cc6F)c6ccc([nH]6)c(-c6c(F)cc(S(=O)(=O)[O-])cc6F)c6nc(c(-c7c(F)cc(S(=O)(=O)[O-])cc7F)c7ccc4[nH]7)C=C6)C=C5)cc3)cs2)c1
REMARK SMILES IDX 23 1 22 2 21 3 20 4 19 5 18 6 16 7 17 8 15 9 13 10 14 11
REMARK SMILES IDX 100 12 99 13 12 14 11 15 10 17 6 18 7 19 101 20 8 21 9 22
REMARK SMILES IDX 4 23 1 24 2 25 3 26 5 27 24 28 25 29 26 30 27 31 28 32 29 33
REMARK SMILES IDX 30 34 31 35 32 36 33 37 34 38 98 39 35 40 97 41 36 42 37 43
REMARK SMILES IDX 38 44 91 45 39 46 96 47 90 48 92 49 40 50 95 51 89 52 88 53
REMARK SMILES IDX 41 55 75 56 54 57 74 58 55 59 58 60 73 61 93 62 56 63 57 64
REMARK SMILES IDX 72 66 94 67 59 68 42 69 43 70 52 71 44 72 45 73 51 74 53 75
REMARK SMILES IDX 46 76 47 77 48 78 49 79 50 80 76 81 77 82 86 83 78 84 79 85
REMARK SMILES IDX 85 86 87 87 80 88 81 89 82 90 83 91 84 92 60 93 61 94 70 95
REMARK SMILES IDX 62 96 63 97 69 98 71 99 64 100 65 101 66 102 67 103 68 104
REMARK H PARENT 11 16 92 54 58 65
REMARK Flexibility Score: inf
ROOT
ATOM      1  C   UNL A   1      40.837  28.368  29.446  1.00  0.00     0.188 C 
ENDROOT
BRANCH   1   2
ATOM      2  C   UNL A   1      40.743  29.267  28.204  1.00  0.00     0.188 C 
BRANCH   2   3
ATOM      3  O   UNL A   1      41.720  28.982  27.207  1.00  0.00    -0.376 OA
BRANCH   3   4
ATOM      4  C   UNL A   1      41.341  28.037  26.214  1.00  0.00     0.202 C 
BRANCH   4   5
ATOM      5  C   UNL A   1      42.343  27.904  25.061  1.00  0.00     0.261 C 
BRANCH   5   6
ATOM      6  O   UNL A   1      43.186  26.744  25.114  1.00  0.00    -0.460 OA
BRANCH   6   7
ATOM      7  C   UNL A   1      44.506  26.935  25.358  1.00  0.00     0.339 C 
ATOM      8  O   UNL A   1      45.214  27.757  24.786  1.00  0.00    -0.246 OA
BRANCH   7   9
ATOM      9  C   UNL A   1      44.968  26.129  26.482  1.00  0.00     0.071 A 
ATOM     10  C   UNL A   1      44.955  25.054  28.571  1.00  0.00     0.025 A 
ATOM     11  C   UNL A   1      44.251  25.859  27.697  1.00  0.00     0.033 A 
ATOM     12  S   UNL A   1      46.517  24.696  27.966  1.00  0.00    -0.146 S 
ATOM     13  C   UNL A   1      46.224  25.555  26.519  1.00  0.00     0.080 A 
BRANCH  10  14
ATOM     14  C   UNL A   1      44.493  24.481  29.883  1.00  0.00     0.159 C 
BRANCH  14  15
ATOM     15  N   UNL A   1      43.402  23.528  29.777  1.00  0.00    -0.380 N 
ATOM     16  H   UNL A   1      43.123  23.084  30.610  1.00  0.00     0.160 HD
BRANCH  15  17
ATOM     17  C   UNL A   1      42.717  23.180  28.633  1.00  0.00     0.035 A 
ATOM     18  C   UNL A   1      42.708  21.950  26.519  1.00  0.00     0.042 A 
ATOM     19  C   UNL A   1      41.438  22.436  26.215  1.00  0.00     0.014 A 
ATOM     20  C   UNL A   1      43.349  22.341  27.703  1.00  0.00     0.039 A 
ATOM     21  C   UNL A   1      40.798  23.276  27.120  1.00  0.00     0.003 A 
ATOM     22  C   UNL A   1      41.432  23.636  28.316  1.00  0.00     0.026 A 
BRANCH  18  23
ATOM     23  C   UNL A   1      43.385  21.064  25.545  1.00  0.00     0.253 C 
ATOM     24  C   UNL A   1      44.095  18.848  24.820  1.00  0.00     0.146 C 
ATOM     25  N   UNL A   1      43.330  19.682  25.729  1.00  0.00    -0.345 N 
ATOM     26  C   UNL A   1      42.451  19.001  26.668  1.00  0.00     0.146 C 
ATOM     27  O   UNL A   1      43.970  21.590  24.600  1.00  0.00    -0.269 OA
ENDBRANCH  18  23
ENDBRANCH  15  17
ENDBRANCH  14  15
ENDBRANCH  10  14
ENDBRANCH   7   9
ENDBRANCH   6   7
ENDBRANCH   5   6
ENDBRANCH   4   5
ENDBRANCH   3   4
ENDBRANCH   2   3
ENDBRANCH   1   2
BRANCH   1  28
ATOM     28  O   UNL A   1      39.855  27.357  29.567  1.00  0.00    -0.377 OA
BRANCH  28  29
ATOM     29  C   UNL A   1      38.816  27.496  30.532  1.00  0.00     0.188 C 
BRANCH  29  30
ATOM     30  C   UNL A   1      39.010  28.272  31.851  1.00  0.00     0.188 C 
BRANCH  30  31
ATOM     31  O   UNL A   1      37.881  28.268  32.721  1.00  0.00    -0.376 OA
BRANCH  31  32
ATOM     32  C   UNL A   1      37.414  29.546  33.136  1.00  0.00     0.202 C 
BRANCH  32  33
ATOM     33  C   UNL A   1      38.494  30.368  33.845  1.00  0.00     0.261 C 
BRANCH  33  34
ATOM     34  O   UNL A   1      38.934  29.815  35.095  1.00  0.00    -0.460 OA
BRANCH  34  35
ATOM     35  C   UNL A   1      39.950  30.452  35.717  1.00  0.00     0.338 C 
ATOM     36  O   UNL A   1      39.873  31.231  36.650  1.00  0.00    -0.246 OA
BRANCH  35  37
ATOM     37  C   UNL A   1      41.210  29.907  35.182  1.00  0.00     0.060 A 
ATOM     38  C   UNL A   1      42.402  30.607  35.409  1.00  0.00     0.016 A 
ATOM     39  C   UNL A   1      41.208  28.710  34.463  1.00  0.00     0.016 A 
ATOM     40  C   UNL A   1      43.598  30.120  34.885  1.00  0.00     0.010 A 
ATOM     41  C   UNL A   1      42.403  28.234  33.926  1.00  0.00     0.010 A 
ATOM     42  C   UNL A   1      43.596  28.951  34.110  1.00  0.00    -0.014 A 
BRANCH  42  43
ATOM     43  C   UNL A   1      44.796  28.566  33.336  1.00  0.00     0.031 A 
ATOM     44  C   UNL A   1      45.064  29.279  32.040  1.00  0.00     0.074 A 
ATOM     45  C   UNL A   1      45.611  27.585  33.757  1.00  0.00     0.049 A 
ATOM     46  N   UNL A   1      46.001  29.067  31.155  1.00  0.00    -0.248 NA
ATOM     47  C   UNL A   1      44.146  30.378  31.696  1.00  0.00     0.031 C 
ATOM     48  C   UNL A   1      45.463  26.838  35.005  1.00  0.00     0.029 A 
ATOM     49  N   UNL A   1      46.720  27.036  33.164  1.00  0.00    -0.354 N 
ATOM     50  C   UNL A   1      45.788  30.002  30.151  1.00  0.00     0.074 A 
ATOM     51  C   UNL A   1      44.617  30.766  30.520  1.00  0.00     0.031 C 
ATOM     52  C   UNL A   1      46.436  25.912  35.075  1.00  0.00     0.029 A 
ATOM     53  C   UNL A   1      47.257  25.985  33.867  1.00  0.00     0.049 A 
ATOM     54  H   UNL A   1      47.097  27.366  32.316  1.00  0.00     0.167 HD
ATOM     55  C   UNL A   1      46.506  30.208  29.022  1.00  0.00     0.037 A 
ATOM     56  C   UNL A   1      48.278  25.161  33.554  1.00  0.00     0.037 A 
ATOM     57  C   UNL A   1      47.659  29.435  28.648  1.00  0.00     0.049 A 
ATOM     58  C   UNL A   1      49.020  25.365  32.258  1.00  0.00     0.074 A 
ATOM     59  C   UNL A   1      48.465  29.574  27.533  1.00  0.00     0.029 A 
ATOM     60  N   UNL A   1      48.162  28.367  29.378  1.00  0.00    -0.354 N 
ATOM     61  N   UNL A   1      48.831  26.274  31.331  1.00  0.00    -0.248 NA
ATOM     62  C   UNL A   1      50.116  24.429  31.965  1.00  0.00     0.031 C 
ATOM     63  C   UNL A   1      49.433  28.564  27.567  1.00  0.00     0.029 A 
ATOM     64  C   UNL A   1      49.255  27.823  28.725  1.00  0.00     0.049 A 
ATOM     65  H   UNL A   1      47.797  28.044  30.233  1.00  0.00     0.167 HD
ATOM     66  C   UNL A   1      49.795  26.034  30.358  1.00  0.00     0.074 A 
ATOM     67  C   UNL A   1      50.572  24.899  30.811  1.00  0.00     0.031 C 
ATOM     68  C   UNL A   1      50.019  26.696  29.195  1.00  0.00     0.037 A 
BRANCH  55  69
ATOM     69  C   UNL A   1      46.043  31.301  28.104  1.00  0.00     0.058 A 
ATOM     70  C   UNL A   1      46.487  32.624  28.256  1.00  0.00     0.135 A 
ATOM     71  C   UNL A   1      45.152  31.022  27.055  1.00  0.00     0.135 A 
ATOM     72  F   UNL A   1      47.322  32.946  29.256  1.00  0.00    -0.206 F 
ATOM     73  C   UNL A   1      46.044  33.638  27.414  1.00  0.00     0.059 A 
ATOM     74  C   UNL A   1      44.712  32.018  26.188  1.00  0.00     0.059 A 
ATOM     75  F   UNL A   1      44.692  29.775  26.873  1.00  0.00    -0.206 F 
ATOM     76  C   UNL A   1      45.153  33.326  26.386  1.00  0.00     0.060 A 
BRANCH  76  77
ATOM     77  S   UNL A   1      44.580  34.654  25.305  1.00  0.00     0.124 S 
ATOM     78  O   UNL A   1      43.168  34.732  25.665  1.00  0.00    -0.237 OA
ATOM     79  O   UNL A   1      45.405  35.782  25.730  1.00  0.00    -0.237 OA
ATOM     80  O   UNL A   1      44.861  34.146  23.966  1.00  0.00    -0.744 OA
ENDBRANCH  76  77
ENDBRANCH  55  69
BRANCH  56  81
ATOM     81  C   UNL A   1      48.651  24.058  34.477  1.00  0.00     0.058 A 
ATOM     82  C   UNL A   1      49.828  24.118  35.236  1.00  0.00     0.135 A 
ATOM     83  C   UNL A   1      47.838  22.922  34.617  1.00  0.00     0.135 A 
ATOM     84  F   UNL A   1      50.643  25.178  35.126  1.00  0.00    -0.206 F 
ATOM     85  C   UNL A   1      50.194  23.088  36.096  1.00  0.00     0.059 A 
ATOM     86  C   UNL A   1      48.171  21.888  35.485  1.00  0.00     0.059 A 
ATOM     87  F   UNL A   1      46.697  22.821  33.917  1.00  0.00    -0.206 F 
ATOM     88  C   UNL A   1      49.356  21.976  36.216  1.00  0.00     0.060 A 
BRANCH  88  89
ATOM     89  S   UNL A   1      49.808  20.669  37.378  1.00  0.00     0.124 S 
ATOM     90  O   UNL A   1      50.504  21.424  38.413  1.00  0.00    -0.237 OA
ATOM     91  O   UNL A   1      48.505  20.126  37.751  1.00  0.00    -0.237 OA
ATOM     92  O   UNL A   1      50.641  19.781  36.574  1.00  0.00    -0.744 OA
ENDBRANCH  88  89
ENDBRANCH  56  81
BRANCH  68  93
ATOM     93  C   UNL A   1      51.166  26.232  28.341  1.00  0.00     0.058 A 
ATOM     94  C   UNL A   1      50.956  25.470  27.182  1.00  0.00     0.135 A 
ATOM     95  C   UNL A   1      52.481  26.616  28.648  1.00  0.00     0.135 A 
ATOM     96  F   UNL A   1      49.719  25.074  26.848  1.00  0.00    -0.206 F 
ATOM     97  C   UNL A   1      52.015  25.094  26.361  1.00  0.00     0.059 A 
ATOM     98  C   UNL A   1      53.552  26.269  27.830  1.00  0.00     0.059 A 
ATOM     99  F   UNL A   1      52.731  27.354  29.741  1.00  0.00    -0.206 F 
ATOM    100  C   UNL A   1      53.309  25.500  26.693  1.00  0.00     0.060 A 
BRANCH 100 101
ATOM    101  S   UNL A   1      54.671  25.047  25.595  1.00  0.00     0.124 S 
ATOM    102  O   UNL A   1      54.433  25.925  24.455  1.00  0.00    -0.237 OA
ATOM    103  O   UNL A   1      55.844  25.361  26.405  1.00  0.00    -0.237 OA
ATOM    104  O   UNL A   1      54.449  23.624  25.351  1.00  0.00    -0.744 OA
ENDBRANCH 100 101
ENDBRANCH  68  93
ENDBRANCH  42  43
ENDBRANCH  35  37
ENDBRANCH  34  35
ENDBRANCH  33  34
ENDBRANCH  32  33
ENDBRANCH  31  32
ENDBRANCH  30  31
ENDBRANCH  29  30
ENDBRANCH  28  29
ENDBRANCH   1  28
TORSDOF 27
ENDMDL
MODEL 2
REMARK VINA RESULT:      -6.5      7.275     11.147
REMARK SMILES CN(C)C(=O)c1cccc(NCc2cc(C(=O)OCCOCCOCCOCCOC(=O)c3ccc(-c4c5nc(c(-c6c(F)cc(S(=O)(=O)[O-])cc6F)c6ccc([nH]6)c(-c6c(F)cc(S(=O)(=O)[O-])cc6F)c6nc(c(-c7c(F)cc(S(=O)(=O)[O-])cc7F)c7ccc4[nH]7)C=C6)C=C5)cc3)cs2)c1
REMARK SMILES IDX 23 1 22 2 21 3 20 4 19 5 18 6 16 7 17 8 15 9 13 10 14 11
REMARK SMILES IDX 100 12 99 13 12 14 11 15 10 17 6 18 7 19 101 20 8 21 9 22
REMARK SMILES IDX 4 23 1 24 2 25 3 26 5 27 24 28 25 29 26 30 27 31 28 32 29 33
REMARK SMILES IDX 30 34 31 35 32 36 33 37 34 38 98 39 35 40 97 41 36 42 37 43
REMARK SMILES IDX 38 44 91 45 39 46 96 47 90 48 92 49 40 50 95 51 89 52 88 53
REMARK SMILES IDX 41 55 75 56 54 57 74 58 55 59 58 60 73 61 93 62 56 63 57 64
REMARK SMILES IDX 72 66 94 67 59 68 42 69 43 70 52 71 44 72 45 73 51 74 53 75
REMARK SMILES IDX 46 76 47 77 48 78 49 79 50 80 76 81 77 82 86 83 78 84 79 85
REMARK SMILES IDX 85 86 87 87 80 88 81 89 82 90 83 91 84 92 60 93 61 94 70 95
REMARK SMILES IDX 62 96 63 97 69 98 71 99 64 100 65 101 66 102 67 103 68 104
REMARK H PARENT 11 16 92 54 58 65
REMARK Flexibility Score: inf
ROOT
ATOM      1  C   UNL A   1      39.099  27.699  28.652  1.00  0.00     0.188 C 
ENDROOT
BRANCH   1   2
ATOM      2  C   UNL A   1      39.992  26.549  28.164  1.00  0.00     0.188 C 
BRANCH   2   3
ATOM      3  O   UNL A   1      39.579  25.981  26.924  1.00  0.00    -0.376 OA
BRANCH   3   4
ATOM      4  C   UNL A   1      40.004  24.646  26.677  1.00  0.00     0.202 C 
BRANCH   4   5
ATOM      5  C   UNL A   1      38.867  23.616  26.680  1.00  0.00     0.261 C 
BRANCH   5   6
ATOM      6  O   UNL A   1      37.558  24.151  26.436  1.00  0.00    -0.460 OA
BRANCH   6   7
ATOM      7  C   UNL A   1      36.886  23.700  25.348  1.00  0.00     0.339 C 
ATOM      8  O   UNL A   1      37.392  23.475  24.254  1.00  0.00    -0.246 OA
BRANCH   7   9
ATOM      9  C   UNL A   1      35.498  23.386  25.664  1.00  0.00     0.071 A 
ATOM     10  C   UNL A   1      33.206  22.975  25.346  1.00  0.00     0.025 A 
ATOM     11  C   UNL A   1      34.403  23.299  24.739  1.00  0.00     0.033 A 
ATOM     12  S   UNL A   1      33.383  22.862  27.046  1.00  0.00    -0.146 S 
ATOM     13  C   UNL A   1      35.059  23.177  26.959  1.00  0.00     0.080 A 
BRANCH  10  14
ATOM     14  C   UNL A   1      31.879  22.700  24.695  1.00  0.00     0.159 C 
BRANCH  14  15
ATOM     15  N   UNL A   1      31.964  22.210  23.330  1.00  0.00    -0.380 N 
ATOM     16  H   UNL A   1      31.953  22.888  22.617  1.00  0.00     0.160 HD
BRANCH  15  17
ATOM     17  C   UNL A   1      32.058  20.894  22.929  1.00  0.00     0.035 A 
ATOM     18  C   UNL A   1      32.425  18.560  23.558  1.00  0.00     0.042 A 
ATOM     19  C   UNL A   1      32.329  18.161  22.226  1.00  0.00     0.014 A 
ATOM     20  C   UNL A   1      32.317  19.915  23.899  1.00  0.00     0.039 A 
ATOM     21  C   UNL A   1      32.080  19.118  21.248  1.00  0.00     0.003 A 
ATOM     22  C   UNL A   1      31.942  20.466  21.601  1.00  0.00     0.026 A 
BRANCH  18  23
ATOM     23  C   UNL A   1      32.699  17.535  24.592  1.00  0.00     0.253 C 
ATOM     24  C   UNL A   1      34.235  16.042  25.754  1.00  0.00     0.146 C 
ATOM     25  N   UNL A   1      34.013  17.125  24.814  1.00  0.00    -0.345 N 
ATOM     26  C   UNL A   1      35.194  17.795  24.289  1.00  0.00     0.146 C 
ATOM     27  O   UNL A   1      31.743  17.086  25.222  1.00  0.00    -0.269 OA
ENDBRANCH  18  23
ENDBRANCH  15  17
ENDBRANCH  14  15
ENDBRANCH  10  14
ENDBRANCH   7   9
ENDBRANCH   6   7
ENDBRANCH   5   6
ENDBRANCH   4   5
ENDBRANCH   3   4
ENDBRANCH   2   3
ENDBRANCH   1   2
BRANCH   1  28
ATOM     28  O   UNL A   1      39.196  28.918  27.940  1.00  0.00    -0.377 OA
BRANCH  28  29
ATOM     29  C   UNL A   1      38.471  30.057  28.393  1.00  0.00     0.188 C 
BRANCH  29  30
ATOM     30  C   UNL A   1      36.996  29.977  28.840  1.00  0.00     0.188 C 
BRANCH  30  31
ATOM     31  O   UNL A   1      36.193  31.092  28.461  1.00  0.00    -0.376 OA
BRANCH  31  32
ATOM     32  C   UNL A   1      35.418  31.679  29.499  1.00  0.00     0.202 C 
BRANCH  32  33
ATOM     33  C   UNL A   1      36.235  32.627  30.383  1.00  0.00     0.261 C 
BRANCH  33  34
ATOM     34  O   UNL A   1      35.656  33.930  30.546  1.00  0.00    -0.460 OA
BRANCH  34  35
ATOM     35  C   UNL A   1      35.510  34.376  31.814  1.00  0.00     0.338 C 
ATOM     36  O   UNL A   1      34.577  35.009  32.272  1.00  0.00    -0.246 OA
BRANCH  35  37
ATOM     37  C   UNL A   1      36.613  33.812  32.612  1.00  0.00     0.060 A 
ATOM     38  C   UNL A   1      36.313  32.906  33.638  1.00  0.00     0.016 A 
ATOM     39  C   UNL A   1      37.933  34.177  32.342  1.00  0.00     0.016 A 
ATOM     40  C   UNL A   1      37.342  32.385  34.420  1.00  0.00     0.010 A 
ATOM     41  C   UNL A   1      38.959  33.668  33.137  1.00  0.00     0.010 A 
ATOM     42  C   UNL A   1      38.665  32.794  34.196  1.00  0.00    -0.014 A 
BRANCH  42  43
ATOM     43  C   UNL A   1      39.725  32.460  35.172  1.00  0.00     0.031 A 
ATOM     44  C   UNL A   1      40.050  33.466  36.240  1.00  0.00     0.074 A 
ATOM     45  C   UNL A   1      40.406  31.304  35.092  1.00  0.00     0.049 A 
ATOM     46  N   UNL A   1      40.983  33.434  37.152  1.00  0.00    -0.248 NA
ATOM     47  C   UNL A   1      39.209  34.674  36.277  1.00  0.00     0.031 C 
ATOM     48  C   UNL A   1      40.165  30.245  34.113  1.00  0.00     0.029 A 
ATOM     49  N   UNL A   1      41.455  30.839  35.843  1.00  0.00    -0.354 N 
ATOM     50  C   UNL A   1      40.844  34.613  37.873  1.00  0.00     0.074 A 
ATOM     51  C   UNL A   1      39.754  35.353  37.276  1.00  0.00     0.031 C 
ATOM     52  C   UNL A   1      41.058  29.259  34.311  1.00  0.00     0.029 A 
ATOM     53  C   UNL A   1      41.947  29.630  35.411  1.00  0.00     0.049 A 
ATOM     54  H   UNL A   1      41.821  31.324  36.618  1.00  0.00     0.167 HD
ATOM     55  C   UNL A   1      41.560  35.040  38.941  1.00  0.00     0.037 A 
ATOM     56  C   UNL A   1      43.010  28.921  35.843  1.00  0.00     0.037 A 
ATOM     57  C   UNL A   1      42.654  34.312  39.521  1.00  0.00     0.049 A 
ATOM     58  C   UNL A   1      43.835  29.449  36.989  1.00  0.00     0.074 A 
ATOM     59  C   UNL A   1      43.432  34.651  40.612  1.00  0.00     0.029 A 
ATOM     60  N   UNL A   1      43.133  33.099  39.046  1.00  0.00    -0.354 N 
ATOM     61  N   UNL A   1      43.674  30.550  37.684  1.00  0.00    -0.248 NA
ATOM     62  C   UNL A   1      44.989  28.640  37.407  1.00  0.00     0.031 C 
ATOM     63  C   UNL A   1      44.410  33.662  40.774  1.00  0.00     0.029 A 
ATOM     64  C   UNL A   1      44.212  32.687  39.809  1.00  0.00     0.049 A 
ATOM     65  H   UNL A   1      42.761  32.605  38.281  1.00  0.00     0.167 HD
ATOM     66  C   UNL A   1      44.689  30.553  38.636  1.00  0.00     0.074 A 
ATOM     67  C   UNL A   1      45.456  29.342  38.431  1.00  0.00     0.031 C 
ATOM     68  C   UNL A   1      44.960  31.474  39.593  1.00  0.00     0.037 A 
BRANCH  55  69
ATOM     69  C   UNL A   1      41.187  36.370  39.529  1.00  0.00     0.058 A 
ATOM     70  C   UNL A   1      41.971  37.514  39.312  1.00  0.00     0.135 A 
ATOM     71  C   UNL A   1      40.029  36.504  40.311  1.00  0.00     0.135 A 
ATOM     72  F   UNL A   1      43.099  37.433  38.591  1.00  0.00    -0.206 F 
ATOM     73  C   UNL A   1      41.632  38.741  39.872  1.00  0.00     0.059 A 
ATOM     74  C   UNL A   1      39.660  37.727  40.863  1.00  0.00     0.059 A 
ATOM     75  F   UNL A   1      39.250  35.439  40.554  1.00  0.00    -0.206 F 
ATOM     76  C   UNL A   1      40.477  38.837  40.649  1.00  0.00     0.060 A 
BRANCH  76  77
ATOM     77  S   UNL A   1      40.053  40.434  41.375  1.00  0.00     0.124 S 
ATOM     78  O   UNL A   1      39.264  41.038  40.305  1.00  0.00    -0.237 OA
ATOM     79  O   UNL A   1      39.309  40.049  42.570  1.00  0.00    -0.237 OA
ATOM     80  O   UNL A   1      41.353  41.050  41.621  1.00  0.00    -0.744 OA
ENDBRANCH  76  77
ENDBRANCH  55  69
BRANCH  56  81
ATOM     81  C   UNL A   1      43.366  27.639  35.180  1.00  0.00     0.058 A 
ATOM     82  C   UNL A   1      42.883  26.417  35.666  1.00  0.00     0.135 A 
ATOM     83  C   UNL A   1      44.195  27.613  34.048  1.00  0.00     0.135 A 
ATOM     84  F   UNL A   1      42.098  26.390  36.753  1.00  0.00    -0.206 F 
ATOM     85  C   UNL A   1      43.216  25.209  35.061  1.00  0.00     0.059 A 
ATOM     86  C   UNL A   1      44.526  26.421  33.413  1.00  0.00     0.059 A 
ATOM     87  F   UNL A   1      44.677  28.758  33.540  1.00  0.00    -0.206 F 
ATOM     88  C   UNL A   1      44.038  25.222  33.931  1.00  0.00     0.060 A 
BRANCH  88  89
ATOM     89  S   UNL A   1      44.418  23.656  33.116  1.00  0.00     0.124 S 
ATOM     90  O   UNL A   1      43.234  22.865  33.431  1.00  0.00    -0.237 OA
ATOM     91  O   UNL A   1      44.563  24.062  31.721  1.00  0.00    -0.237 OA
ATOM     92  O   UNL A   1      45.654  23.232  33.767  1.00  0.00    -0.744 OA
ENDBRANCH  88  89
ENDBRANCH  56  81
BRANCH  68  93
ATOM     93  C   UNL A   1      46.115  31.200  40.515  1.00  0.00     0.058 A 
ATOM     94  C   UNL A   1      45.955  30.448  41.689  1.00  0.00     0.135 A 
ATOM     95  C   UNL A   1      47.409  31.632  40.181  1.00  0.00     0.135 A 
ATOM     96  F   UNL A   1      44.738  30.016  42.054  1.00  0.00    -0.206 F 
ATOM     97  C   UNL A   1      47.038  30.144  42.508  1.00  0.00     0.059 A 
ATOM     98  C   UNL A   1      48.509  31.322  40.974  1.00  0.00     0.059 A 
ATOM     99  F   UNL A   1      47.615  32.346  39.063  1.00  0.00    -0.206 F 
ATOM    100  C   UNL A   1      48.311  30.584  42.141  1.00  0.00     0.060 A 
BRANCH 100 101
ATOM    101  S   UNL A   1      49.718  30.145  43.187  1.00  0.00     0.124 S 
ATOM    102  O   UNL A   1      50.291  31.456  43.472  1.00  0.00    -0.237 OA
ATOM    103  O   UNL A   1      49.075  29.475  44.313  1.00  0.00    -0.237 OA
ATOM    104  O   UNL A   1      50.521  29.280  42.328  1.00  0.00    -0.744 OA
ENDBRANCH 100 101
ENDBRANCH  68  93
ENDBRANCH  42  43
ENDBRANCH  35  37
ENDBRANCH  34  35
ENDBRANCH  33  34
ENDBRANCH  32  33
ENDBRANCH  31  32
ENDBRANCH  30  31
ENDBRANCH  29  30
ENDBRANCH  28  29
ENDBRANCH   1  28
TORSDOF 27
ENDMDL
MODEL 3
REMARK VINA RESULT:      -6.5      5.138     11.746
REMARK SMILES CN(C)C(=O)c1cccc(NCc2cc(C(=O)OCCOCCOCCOCCOC(=O)c3ccc(-c4c5nc(c(-c6c(F)cc(S(=O)(=O)[O-])cc6F)c6ccc([nH]6)c(-c6c(F)cc(S(=O)(=O)[O-])cc6F)c6nc(c(-c7c(F)cc(S(=O)(=O)[O-])cc7F)c7ccc4[nH]7)C=C6)C=C5)cc3)cs2)c1
REMARK SMILES IDX 23 1 22 2 21 3 20 4 19 5 18 6 16 7 17 8 15 9 13 10 14 11
REMARK SMILES IDX 100 12 99 13 12 14 11 15 10 17 6 18 7 19 101 20 8 21 9 22
REMARK SMILES IDX 4 23 1 24 2 25 3 26 5 27 24 28 25 29 26 30 27 31 28 32 29 33
REMARK SMILES IDX 30 34 31 35 32 36 33 37 34 38 98 39 35 40 97 41 36 42 37 43
REMARK SMILES IDX 38 44 91 45 39 46 96 47 90 48 92 49 40 50 95 51 89 52 88 53
REMARK SMILES IDX 41 55 75 56 54 57 74 58 55 59 58 60 73 61 93 62 56 63 57 64
REMARK SMILES IDX 72 66 94 67 59 68 42 69 43 70 52 71 44 72 45 73 51 74 53 75
REMARK SMILES IDX 46 76 47 77 48 78 49 79 50 80 76 81 77 82 86 83 78 84 79 85
REMARK SMILES IDX 85 86 87 87 80 88 81 89 82 90 83 91 84 92 60 93 61 94 70 95
REMARK SMILES IDX 62 96 63 97 69 98 71 99 64 100 65 101 66 102 67 103 68 104
REMARK H PARENT 11 16 92 54 58 65
REMARK Flexibility Score: inf
ROOT
ATOM      1  C   UNL A   1      48.400  27.338  29.882  1.00  0.00     0.188 C 
ENDROOT
BRANCH   1   2
ATOM      2  C   UNL A   1      47.963  27.090  31.333  1.00  0.00     0.188 C 
BRANCH   2   3
ATOM      3  O   UNL A   1      47.516  25.760  31.585  1.00  0.00    -0.376 OA
BRANCH   3   4
ATOM      4  C   UNL A   1      46.312  25.373  30.934  1.00  0.00     0.202 C 
BRANCH   4   5
ATOM      5  C   UNL A   1      45.193  24.943  31.891  1.00  0.00     0.261 C 
BRANCH   5   6
ATOM      6  O   UNL A   1      45.523  25.011  33.286  1.00  0.00    -0.460 OA
BRANCH   6   7
ATOM      7  C   UNL A   1      44.585  24.600  34.175  1.00  0.00     0.339 C 
ATOM      8  O   UNL A   1      43.414  24.964  34.180  1.00  0.00    -0.246 OA
BRANCH   7   9
ATOM      9  C   UNL A   1      45.102  23.565  35.062  1.00  0.00     0.071 A 
ATOM     10  C   UNL A   1      45.944  21.486  35.763  1.00  0.00     0.025 A 
ATOM     11  C   UNL A   1      45.484  22.230  34.694  1.00  0.00     0.033 A 
ATOM     12  S   UNL A   1      45.833  22.367  37.228  1.00  0.00    -0.146 S 
ATOM     13  C   UNL A   1      45.239  23.753  36.425  1.00  0.00     0.080 A 
BRANCH  10  14
ATOM     14  C   UNL A   1      46.520  20.097  35.748  1.00  0.00     0.159 C 
BRANCH  14  15
ATOM     15  N   UNL A   1      46.925  19.594  37.049  1.00  0.00    -0.380 N 
ATOM     16  H   UNL A   1      46.242  19.108  37.565  1.00  0.00     0.160 HD
BRANCH  15  17
ATOM     17  C   UNL A   1      48.164  19.727  37.638  1.00  0.00     0.035 A 
ATOM     18  C   UNL A   1      50.415  20.675  37.529  1.00  0.00     0.042 A 
ATOM     19  C   UNL A   1      50.768  20.033  38.715  1.00  0.00     0.014 A 
ATOM     20  C   UNL A   1      49.135  20.500  36.985  1.00  0.00     0.039 A 
ATOM     21  C   UNL A   1      49.822  19.255  39.373  1.00  0.00     0.003 A 
ATOM     22  C   UNL A   1      48.534  19.112  38.839  1.00  0.00     0.026 A 
BRANCH  18  23
ATOM     23  C   UNL A   1      51.433  21.494  36.832  1.00  0.00     0.253 C 
ATOM     24  C   UNL A   1      53.527  21.692  35.601  1.00  0.00     0.146 C 
ATOM     25  N   UNL A   1      52.489  20.858  36.179  1.00  0.00    -0.345 N 
ATOM     26  C   UNL A   1      52.558  19.431  35.903  1.00  0.00     0.146 C 
ATOM     27  O   UNL A   1      51.300  22.717  36.854  1.00  0.00    -0.269 OA
ENDBRANCH  18  23
ENDBRANCH  15  17
ENDBRANCH  14  15
ENDBRANCH  10  14
ENDBRANCH   7   9
ENDBRANCH   6   7
ENDBRANCH   5   6
ENDBRANCH   4   5
ENDBRANCH   3   4
ENDBRANCH   2   3
ENDBRANCH   1   2
BRANCH   1  28
ATOM     28  O   UNL A   1      49.683  26.863  29.521  1.00  0.00    -0.377 OA
BRANCH  28  29
ATOM     29  C   UNL A   1      49.854  26.164  28.292  1.00  0.00     0.188 C 
BRANCH  29  30
ATOM     30  C   UNL A   1      49.347  24.721  28.082  1.00  0.00     0.188 C 
BRANCH  30  31
ATOM     31  O   UNL A   1      48.509  24.540  26.943  1.00  0.00    -0.376 OA
BRANCH  31  32
ATOM     32  C   UNL A   1      47.721  25.663  26.568  1.00  0.00     0.202 C 
BRANCH  32  33
ATOM     33  C   UNL A   1      46.429  25.264  25.850  1.00  0.00     0.261 C 
BRANCH  33  34
ATOM     34  O   UNL A   1      45.233  25.783  26.452  1.00  0.00    -0.460 OA
BRANCH  34  35
ATOM     35  C   UNL A   1      44.867  27.034  26.096  1.00  0.00     0.338 C 
ATOM     36  O   UNL A   1      44.976  27.553  25.000  1.00  0.00    -0.246 OA
BRANCH  35  37
ATOM     37  C   UNL A   1      44.143  27.625  27.235  1.00  0.00     0.060 A 
ATOM     38  C   UNL A   1      44.109  29.019  27.367  1.00  0.00     0.016 A 
ATOM     39  C   UNL A   1      43.501  26.802  28.163  1.00  0.00     0.016 A 
ATOM     40  C   UNL A   1      43.452  29.593  28.454  1.00  0.00     0.010 A 
ATOM     41  C   UNL A   1      42.859  27.378  29.258  1.00  0.00     0.010 A 
ATOM     42  C   UNL A   1      42.857  28.773  29.423  1.00  0.00    -0.014 A 
BRANCH  42  43
ATOM     43  C   UNL A   1      42.389  29.347  30.703  1.00  0.00     0.031 A 
ATOM     44  C   UNL A   1      41.105  30.127  30.704  1.00  0.00     0.074 A 
ATOM     45  C   UNL A   1      43.104  29.205  31.832  1.00  0.00     0.049 A 
ATOM     46  N   UNL A   1      40.535  30.785  31.678  1.00  0.00    -0.248 NA
ATOM     47  C   UNL A   1      40.368  30.175  29.430  1.00  0.00     0.031 C 
ATOM     48  C   UNL A   1      44.352  28.454  31.956  1.00  0.00     0.029 A 
ATOM     49  N   UNL A   1      42.886  29.709  33.089  1.00  0.00    -0.354 N 
ATOM     50  C   UNL A   1      39.374  31.324  31.138  1.00  0.00     0.074 A 
ATOM     51  C   UNL A   1      39.333  30.941  29.745  1.00  0.00     0.031 C 
ATOM     52  C   UNL A   1      44.801  28.563  33.219  1.00  0.00     0.029 A 
ATOM     53  C   UNL A   1      43.887  29.412  33.982  1.00  0.00     0.049 A 
ATOM     54  H   UNL A   1      42.087  30.233  33.329  1.00  0.00     0.167 HD
ATOM     55  C   UNL A   1      38.425  32.070  31.752  1.00  0.00     0.037 A 
ATOM     56  C   UNL A   1      44.055  29.804  35.262  1.00  0.00     0.037 A 
ATOM     57  C   UNL A   1      38.478  32.465  33.132  1.00  0.00     0.049 A 
ATOM     58  C   UNL A   1      43.020  30.692  35.904  1.00  0.00     0.074 A 
ATOM     59  C   UNL A   1      37.560  33.207  33.852  1.00  0.00     0.029 A 
ATOM     60  N   UNL A   1      39.516  32.159  34.000  1.00  0.00    -0.354 N 
ATOM     61  N   UNL A   1      41.909  31.169  35.394  1.00  0.00    -0.248 NA
ATOM     62  C   UNL A   1      43.262  31.098  37.296  1.00  0.00     0.031 C 
ATOM     63  C   UNL A   1      38.061  33.384  35.146  1.00  0.00     0.029 A 
ATOM     64  C   UNL A   1      39.272  32.716  35.244  1.00  0.00     0.049 A 
ATOM     65  H   UNL A   1      40.309  31.623  33.768  1.00  0.00     0.167 HD
ATOM     66  C   UNL A   1      41.310  31.910  36.407  1.00  0.00     0.074 A 
ATOM     67  C   UNL A   1      42.178  31.813  37.563  1.00  0.00     0.031 C 
ATOM     68  C   UNL A   1      40.146  32.605  36.384  1.00  0.00     0.037 A 
BRANCH  55  69
ATOM     69  C   UNL A   1      37.264  32.523  30.916  1.00  0.00     0.058 A 
ATOM     70  C   UNL A   1      36.092  31.757  30.814  1.00  0.00     0.135 A 
ATOM     71  C   UNL A   1      37.318  33.739  30.217  1.00  0.00     0.135 A 
ATOM     72  F   UNL A   1      35.998  30.576  31.445  1.00  0.00    -0.206 F 
ATOM     73  C   UNL A   1      35.023  32.170  30.026  1.00  0.00     0.059 A 
ATOM     74  C   UNL A   1      36.252  34.182  29.441  1.00  0.00     0.059 A 
ATOM     75  F   UNL A   1      38.420  34.503  30.276  1.00  0.00    -0.206 F 
ATOM     76  C   UNL A   1      35.114  33.382  29.339  1.00  0.00     0.060 A 
BRANCH  76  77
ATOM     77  S   UNL A   1      33.722  33.903  28.316  1.00  0.00     0.124 S 
ATOM     78  O   UNL A   1      33.285  32.629  27.751  1.00  0.00    -0.237 OA
ATOM     79  O   UNL A   1      32.821  34.505  29.294  1.00  0.00    -0.237 OA
ATOM     80  O   UNL A   1      34.327  34.835  27.369  1.00  0.00    -0.744 OA
ENDBRANCH  76  77
ENDBRANCH  55  69
BRANCH  56  81
ATOM     81  C   UNL A   1      45.258  29.371  36.019  1.00  0.00     0.058 A 
ATOM     82  C   UNL A   1      46.402  30.178  36.080  1.00  0.00     0.135 A 
ATOM     83  C   UNL A   1      45.286  28.142  36.696  1.00  0.00     0.135 A 
ATOM     84  F   UNL A   1      46.427  31.356  35.439  1.00  0.00    -0.206 F 
ATOM     85  C   UNL A   1      47.538  29.780  36.778  1.00  0.00     0.059 A 
ATOM     86  C   UNL A   1      46.402  27.731  37.417  1.00  0.00     0.059 A 
ATOM     87  F   UNL A   1      44.212  27.337  36.674  1.00  0.00    -0.206 F 
ATOM     88  C   UNL A   1      47.527  28.554  37.446  1.00  0.00     0.060 A 
BRANCH  88  89
ATOM     89  S   UNL A   1      48.984  28.070  38.398  1.00  0.00     0.124 S 
ATOM     90  O   UNL A   1      50.065  28.482  37.510  1.00  0.00    -0.237 OA
ATOM     91  O   UNL A   1      48.827  28.853  39.620  1.00  0.00    -0.237 OA
ATOM     92  O   UNL A   1      48.814  26.630  38.560  1.00  0.00    -0.744 OA
ENDBRANCH  88  89
ENDBRANCH  56  81
BRANCH  68  93
ATOM     93  C   UNL A   1      39.722  33.294  37.651  1.00  0.00     0.058 A 
ATOM     94  C   UNL A   1      38.736  32.750  38.488  1.00  0.00     0.135 A 
ATOM     95  C   UNL A   1      40.362  34.473  38.066  1.00  0.00     0.135 A 
ATOM     96  F   UNL A   1      38.092  31.628  38.133  1.00  0.00    -0.206 F 
ATOM     97  C   UNL A   1      38.389  33.359  39.690  1.00  0.00     0.059 A 
ATOM     98  C   UNL A   1      40.046  35.086  39.275  1.00  0.00     0.059 A 
ATOM     99  F   UNL A   1      41.319  35.026  37.305  1.00  0.00    -0.206 F 
ATOM    100  C   UNL A   1      39.052  34.526  40.076  1.00  0.00     0.060 A 
BRANCH 100 101
ATOM    101  S   UNL A   1      38.628  35.283  41.660  1.00  0.00     0.124 S 
ATOM    102  O   UNL A   1      37.618  34.359  42.165  1.00  0.00    -0.237 OA
ATOM    103  O   UNL A   1      39.906  35.273  42.365  1.00  0.00    -0.237 OA
ATOM    104  O   UNL A   1      38.139  36.606  41.283  1.00  0.00    -0.744 OA
ENDBRANCH 100 101
ENDBRANCH  68  93
ENDBRANCH  42  43
ENDBRANCH  35  37
ENDBRANCH  34  35
ENDBRANCH  33  34
ENDBRANCH  32  33
ENDBRANCH  31  32
ENDBRANCH  30  31
ENDBRANCH  29  30
ENDBRANCH  28  29
ENDBRANCH   1  28
TORSDOF 27
ENDMDL
