MODEL 1
REMARK VINA RESULT:      -9.3      0.000      0.000
REMARK SMILES O=C(CCCCCN1C(=O)[C@@H]2CC=CC[C@H]2C1=O)OCCOCCOCCOCCOC(=O)c1ccc(-c2c3nc(c(-c4c(F)cc(S(=O)(=O)[O-])cc4F)c4ccc([nH]4)c(-c4c(F)cc(S(=O)(=O)[O-])cc4F)c4nc(c(-c5c(F)cc(S(=O)(=O)[O-])cc5F)c5ccc2[nH]5)C=C4)C=C3)cc1
REMARK SMILES IDX 24 1 23 2 22 3 21 4 20 5 19 6 2 7 1 8 3 9 4 10 5 11 6 12
REMARK SMILES IDX 7 13 8 14 9 15 17 16 10 17 11 18 16 19 18 20 12 21 15 22
REMARK SMILES IDX 13 23 14 24 25 25 26 26 27 27 28 28 29 29 30 30 31 31 32 32
REMARK SMILES IDX 33 33 34 34 35 35 99 36 36 37 98 38 37 39 38 40 39 41 92 42
REMARK SMILES IDX 40 43 97 44 91 45 93 46 41 47 96 48 90 49 89 50 42 52 76 53
REMARK SMILES IDX 55 54 75 55 56 56 59 57 74 58 94 59 57 60 58 61 73 63 95 64
REMARK SMILES IDX 60 65 43 66 44 67 53 68 45 69 46 70 52 71 54 72 47 73 48 74
REMARK SMILES IDX 49 75 50 76 51 77 77 78 78 79 87 80 79 81 80 82 86 83 88 84
REMARK SMILES IDX 81 85 82 86 83 87 84 88 85 89 61 90 62 91 71 92 63 93 64 94
REMARK SMILES IDX 70 95 72 96 65 97 66 98 67 99 68 100 69 101
REMARK H PARENT 93 51 59 62
REMARK Flexibility Score: inf
ROOT
ATOM      1  C   UNL A   1      33.979  31.627  27.906  1.00  0.00     0.188 C 
ENDROOT
BRANCH   1   2
ATOM      2  C   UNL A   1      33.557  30.425  27.070  1.00  0.00     0.188 C 
BRANCH   2   3
ATOM      3  O   UNL A   1      32.268  29.885  27.355  1.00  0.00    -0.376 OA
BRANCH   3   4
ATOM      4  C   UNL A   1      31.744  28.920  26.468  1.00  0.00     0.202 C 
BRANCH   4   5
ATOM      5  C   UNL A   1      32.062  27.509  26.913  1.00  0.00     0.261 C 
BRANCH   5   6
ATOM      6  O   UNL A   1      30.966  26.568  26.921  1.00  0.00    -0.463 OA
BRANCH   6   7
ATOM      7  C   UNL A   1      30.396  25.806  25.975  1.00  0.00     0.305 C 
ATOM      8  O   UNL A   1      30.606  24.588  26.025  1.00  0.00    -0.252 OA
BRANCH   7   9
ATOM      9  C   UNL A   1      29.521  26.330  24.849  1.00  0.00     0.123 C 
BRANCH   9  10
ATOM     10  C   UNL A   1      30.124  26.659  23.494  1.00  0.00     0.012 C 
BRANCH  10  11
ATOM     11  C   UNL A   1      31.003  25.592  22.863  1.00  0.00     0.002 C 
BRANCH  11  12
ATOM     12  C   UNL A   1      31.891  26.013  21.677  1.00  0.00     0.022 C 
BRANCH  12  13
ATOM     13  C   UNL A   1      33.394  26.124  21.966  1.00  0.00     0.128 C 
BRANCH  13  14
ATOM     14  N   UNL A   1      33.816  25.082  22.870  1.00  0.00    -0.282 N 
ATOM     15  C   UNL A   1      33.973  25.294  24.222  1.00  0.00     0.233 C 
ATOM     16  C   UNL A   1      33.817  23.741  22.536  1.00  0.00     0.233 C 
ATOM     17  O   UNL A   1      34.099  26.357  24.806  1.00  0.00    -0.274 OA
ATOM     18  C   UNL A   1      33.717  23.966  24.854  1.00  0.00     0.095 C 
ATOM     19  C   UNL A   1      34.211  23.003  23.783  1.00  0.00     0.095 C 
ATOM     20  O   UNL A   1      33.578  23.246  21.456  1.00  0.00    -0.274 OA
ATOM     21  C   UNL A   1      34.306  23.637  26.201  1.00  0.00     0.041 C 
ATOM     22  C   UNL A   1      33.596  21.641  24.034  1.00  0.00     0.041 C 
ATOM     23  C   UNL A   1      34.114  22.157  26.457  1.00  0.00    -0.030 C 
ATOM     24  C   UNL A   1      33.764  21.274  25.497  1.00  0.00    -0.030 C 
ENDBRANCH  13  14
ENDBRANCH  12  13
ENDBRANCH  11  12
ENDBRANCH  10  11
ENDBRANCH   9  10
ENDBRANCH   7   9
ENDBRANCH   6   7
ENDBRANCH   5   6
ENDBRANCH   4   5
ENDBRANCH   3   4
ENDBRANCH   2   3
ENDBRANCH   1   2
BRANCH   1  25
ATOM     25  O   UNL A   1      35.217  32.261  27.621  1.00  0.00    -0.377 OA
BRANCH  25  26
ATOM     26  C   UNL A   1      35.633  33.417  28.326  1.00  0.00     0.188 C 
BRANCH  26  27
ATOM     27  C   UNL A   1      34.526  34.129  29.115  1.00  0.00     0.188 C 
BRANCH  27  28
ATOM     28  O   UNL A   1      34.589  34.099  30.532  1.00  0.00    -0.376 OA
BRANCH  28  29
ATOM     29  C   UNL A   1      35.826  34.429  31.161  1.00  0.00     0.202 C 
BRANCH  29  30
ATOM     30  C   UNL A   1      36.475  33.487  32.201  1.00  0.00     0.261 C 
BRANCH  30  31
ATOM     31  O   UNL A   1      37.430  32.541  31.677  1.00  0.00    -0.460 OA
BRANCH  31  32
ATOM     32  C   UNL A   1      36.927  31.369  31.221  1.00  0.00     0.338 C 
ATOM     33  O   UNL A   1      35.747  31.060  31.172  1.00  0.00    -0.246 OA
BRANCH  32  34
ATOM     34  C   UNL A   1      37.976  30.553  30.562  1.00  0.00     0.060 A 
ATOM     35  C   UNL A   1      38.910  29.908  31.388  1.00  0.00     0.016 A 
ATOM     36  C   UNL A   1      38.116  30.488  29.174  1.00  0.00     0.016 A 
ATOM     37  C   UNL A   1      40.003  29.239  30.838  1.00  0.00     0.010 A 
ATOM     38  C   UNL A   1      39.235  29.841  28.622  1.00  0.00     0.010 A 
ATOM     39  C   UNL A   1      40.206  29.249  29.452  1.00  0.00    -0.014 A 
BRANCH  39  40
ATOM     40  C   UNL A   1      41.538  28.840  28.929  1.00  0.00     0.031 A 
ATOM     41  C   UNL A   1      42.634  29.875  28.868  1.00  0.00     0.074 A 
ATOM     42  C   UNL A   1      41.809  27.561  28.601  1.00  0.00     0.049 A 
ATOM     43  N   UNL A   1      43.882  29.747  28.496  1.00  0.00    -0.248 NA
ATOM     44  C   UNL A   1      42.271  31.239  29.289  1.00  0.00     0.031 C 
ATOM     45  C   UNL A   1      40.855  26.456  28.652  1.00  0.00     0.029 A 
ATOM     46  N   UNL A   1      42.974  26.978  28.163  1.00  0.00    -0.354 N 
ATOM     47  C   UNL A   1      44.456  31.005  28.652  1.00  0.00     0.074 A 
ATOM     48  C   UNL A   1      43.408  31.893  29.105  1.00  0.00     0.031 C 
ATOM     49  C   UNL A   1      41.468  25.330  28.246  1.00  0.00     0.029 A 
ATOM     50  C   UNL A   1      42.854  25.637  27.888  1.00  0.00     0.049 A 
ATOM     51  H   UNL A   1      43.817  27.477  28.055  1.00  0.00     0.167 HD
ATOM     52  C   UNL A   1      45.741  31.385  28.455  1.00  0.00     0.037 A 
ATOM     53  C   UNL A   1      43.752  24.761  27.390  1.00  0.00     0.037 A 
ATOM     54  C   UNL A   1      46.783  30.505  27.991  1.00  0.00     0.049 A 
ATOM     55  C   UNL A   1      45.162  25.224  27.109  1.00  0.00     0.074 A 
ATOM     56  C   UNL A   1      48.114  30.799  27.750  1.00  0.00     0.029 A 
ATOM     57  N   UNL A   1      46.613  29.162  27.690  1.00  0.00    -0.354 N 
ATOM     58  N   UNL A   1      45.691  26.413  27.279  1.00  0.00    -0.248 NA
ATOM     59  C   UNL A   1      46.099  24.221  26.585  1.00  0.00     0.031 C 
ATOM     60  C   UNL A   1      48.737  29.648  27.256  1.00  0.00     0.029 A 
ATOM     61  C   UNL A   1      47.809  28.619  27.247  1.00  0.00     0.049 A 
ATOM     62  H   UNL A   1      45.767  28.667  27.778  1.00  0.00     0.167 HD
ATOM     63  C   UNL A   1      47.027  26.293  26.902  1.00  0.00     0.074 A 
ATOM     64  C   UNL A   1      47.229  24.910  26.526  1.00  0.00     0.031 C 
ATOM     65  C   UNL A   1      47.998  27.241  26.868  1.00  0.00     0.037 A 
BRANCH  52  66
ATOM     66  C   UNL A   1      46.092  32.823  28.731  1.00  0.00     0.058 A 
ATOM     67  C   UNL A   1      46.579  33.238  29.982  1.00  0.00     0.135 A 
ATOM     68  C   UNL A   1      45.986  33.792  27.719  1.00  0.00     0.135 A 
ATOM     69  F   UNL A   1      46.681  32.358  30.991  1.00  0.00    -0.206 F 
ATOM     70  C   UNL A   1      46.928  34.561  30.225  1.00  0.00     0.059 A 
ATOM     71  C   UNL A   1      46.359  35.116  27.932  1.00  0.00     0.059 A 
ATOM     72  F   UNL A   1      45.524  33.454  26.505  1.00  0.00    -0.206 F 
ATOM     73  C   UNL A   1      46.820  35.492  29.192  1.00  0.00     0.060 A 
BRANCH  73  74
ATOM     74  S   UNL A   1      47.305  37.201  29.519  1.00  0.00     0.124 S 
ATOM     75  O   UNL A   1      48.761  37.106  29.470  1.00  0.00    -0.237 OA
ATOM     76  O   UNL A   1      46.679  37.918  28.412  1.00  0.00    -0.237 OA
ATOM     77  O   UNL A   1      46.739  37.470  30.837  1.00  0.00    -0.744 OA
ENDBRANCH  73  74
ENDBRANCH  52  66
BRANCH  53  78
ATOM     78  C   UNL A   1      43.347  23.356  27.095  1.00  0.00     0.058 A 
ATOM     79  C   UNL A   1      43.012  22.942  25.797  1.00  0.00     0.135 A 
ATOM     80  C   UNL A   1      43.257  22.404  28.124  1.00  0.00     0.135 A 
ATOM     81  F   UNL A   1      43.065  23.815  24.779  1.00  0.00    -0.206 F 
ATOM     82  C   UNL A   1      42.582  21.644  25.532  1.00  0.00     0.059 A 
ATOM     83  C   UNL A   1      42.860  21.093  27.879  1.00  0.00     0.059 A 
ATOM     84  F   UNL A   1      43.570  22.743  29.384  1.00  0.00    -0.206 F 
ATOM     85  C   UNL A   1      42.512  20.725  26.581  1.00  0.00     0.060 A 
BRANCH  85  86
ATOM     86  S   UNL A   1      41.996  19.033  26.221  1.00  0.00     0.124 S 
ATOM     87  O   UNL A   1      42.208  18.380  27.508  1.00  0.00    -0.237 OA
ATOM     88  O   UNL A   1      40.605  19.217  25.819  1.00  0.00    -0.237 OA
ATOM     89  O   UNL A   1      42.900  18.627  25.150  1.00  0.00    -0.744 OA
ENDBRANCH  85  86
ENDBRANCH  53  78
BRANCH  65  90
ATOM     90  C   UNL A   1      49.376  26.806  26.431  1.00  0.00     0.058 A 
ATOM     91  C   UNL A   1      49.792  26.894  25.093  1.00  0.00     0.135 A 
ATOM     92  C   UNL A   1      50.295  26.304  27.367  1.00  0.00     0.135 A 
ATOM     93  F   UNL A   1      48.957  27.368  24.155  1.00  0.00    -0.206 F 
ATOM     94  C   UNL A   1      51.047  26.449  24.690  1.00  0.00     0.059 A 
ATOM     95  C   UNL A   1      51.569  25.887  26.992  1.00  0.00     0.059 A 
ATOM     96  F   UNL A   1      49.960  26.213  28.665  1.00  0.00    -0.206 F 
ATOM     97  C   UNL A   1      51.927  25.941  25.646  1.00  0.00     0.060 A 
BRANCH  97  98
ATOM     98  S   UNL A   1      53.545  25.350  25.107  1.00  0.00     0.124 S 
ATOM     99  O   UNL A   1      53.432  23.916  25.356  1.00  0.00    -0.237 OA
ATOM    100  O   UNL A   1      53.573  25.750  23.704  1.00  0.00    -0.237 OA
ATOM    101  O   UNL A   1      54.476  26.066  25.976  1.00  0.00    -0.744 OA
ENDBRANCH  97  98
ENDBRANCH  65  90
ENDBRANCH  39  40
ENDBRANCH  32  34
ENDBRANCH  31  32
ENDBRANCH  30  31
ENDBRANCH  29  30
ENDBRANCH  28  29
ENDBRANCH  27  28
ENDBRANCH  26  27
ENDBRANCH  25  26
ENDBRANCH   1  25
TORSDOF 28
ENDMDL
MODEL 2
REMARK VINA RESULT:      -9.2      1.946      2.768
REMARK SMILES O=C(CCCCCN1C(=O)[C@@H]2CC=CC[C@H]2C1=O)OCCOCCOCCOCCOC(=O)c1ccc(-c2c3nc(c(-c4c(F)cc(S(=O)(=O)[O-])cc4F)c4ccc([nH]4)c(-c4c(F)cc(S(=O)(=O)[O-])cc4F)c4nc(c(-c5c(F)cc(S(=O)(=O)[O-])cc5F)c5ccc2[nH]5)C=C4)C=C3)cc1
REMARK SMILES IDX 24 1 23 2 22 3 21 4 20 5 19 6 2 7 1 8 3 9 4 10 5 11 6 12
REMARK SMILES IDX 7 13 8 14 9 15 17 16 10 17 11 18 16 19 18 20 12 21 15 22
REMARK SMILES IDX 13 23 14 24 25 25 26 26 27 27 28 28 29 29 30 30 31 31 32 32
REMARK SMILES IDX 33 33 34 34 35 35 99 36 36 37 98 38 37 39 38 40 39 41 92 42
REMARK SMILES IDX 40 43 97 44 91 45 93 46 41 47 96 48 90 49 89 50 42 52 76 53
REMARK SMILES IDX 55 54 75 55 56 56 59 57 74 58 94 59 57 60 58 61 73 63 95 64
REMARK SMILES IDX 60 65 43 66 44 67 53 68 45 69 46 70 52 71 54 72 47 73 48 74
REMARK SMILES IDX 49 75 50 76 51 77 77 78 78 79 87 80 79 81 80 82 86 83 88 84
REMARK SMILES IDX 81 85 82 86 83 87 84 88 85 89 61 90 62 91 71 92 63 93 64 94
REMARK SMILES IDX 70 95 72 96 65 97 66 98 67 99 68 100 69 101
REMARK H PARENT 93 51 59 62
REMARK Flexibility Score: inf
ROOT
ATOM      1  C   UNL A   1      33.527  31.906  27.691  1.00  0.00     0.188 C 
ENDROOT
BRANCH   1   2
ATOM      2  C   UNL A   1      33.605  30.450  27.252  1.00  0.00     0.188 C 
BRANCH   2   3
ATOM      3  O   UNL A   1      33.020  30.143  25.989  1.00  0.00    -0.376 OA
BRANCH   3   4
ATOM      4  C   UNL A   1      33.006  28.794  25.574  1.00  0.00     0.202 C 
BRANCH   4   5
ATOM      5  C   UNL A   1      31.627  28.181  25.688  1.00  0.00     0.261 C 
BRANCH   5   6
ATOM      6  O   UNL A   1      31.081  27.586  24.492  1.00  0.00    -0.463 OA
BRANCH   6   7
ATOM      7  C   UNL A   1      30.262  26.546  24.267  1.00  0.00     0.305 C 
ATOM      8  O   UNL A   1      29.110  26.801  23.899  1.00  0.00    -0.252 OA
BRANCH   7   9
ATOM      9  C   UNL A   1      30.647  25.086  24.440  1.00  0.00     0.123 C 
BRANCH   9  10
ATOM     10  C   UNL A   1      30.685  24.457  25.823  1.00  0.00     0.012 C 
BRANCH  10  11
ATOM     11  C   UNL A   1      31.994  24.568  26.585  1.00  0.00     0.002 C 
BRANCH  11  12
ATOM     12  C   UNL A   1      33.273  24.827  25.767  1.00  0.00     0.022 C 
BRANCH  12  13
ATOM     13  C   UNL A   1      34.226  23.635  25.610  1.00  0.00     0.128 C 
BRANCH  13  14
ATOM     14  N   UNL A   1      33.498  22.450  25.228  1.00  0.00    -0.282 N 
ATOM     15  C   UNL A   1      33.165  22.176  23.919  1.00  0.00     0.233 C 
ATOM     16  C   UNL A   1      33.325  21.362  26.061  1.00  0.00     0.233 C 
ATOM     17  O   UNL A   1      33.128  22.949  22.976  1.00  0.00    -0.274 OA
ATOM     18  C   UNL A   1      33.091  20.687  23.842  1.00  0.00     0.095 C 
ATOM     19  C   UNL A   1      32.620  20.319  25.242  1.00  0.00     0.095 C 
ATOM     20  O   UNL A   1      33.648  21.262  27.226  1.00  0.00    -0.274 OA
ATOM     21  C   UNL A   1      32.249  20.019  22.787  1.00  0.00     0.041 C 
ATOM     22  C   UNL A   1      32.951  18.862  25.498  1.00  0.00     0.041 C 
ATOM     23  C   UNL A   1      32.148  18.545  23.120  1.00  0.00    -0.030 C 
ATOM     24  C   UNL A   1      32.493  18.027  24.318  1.00  0.00    -0.030 C 
ENDBRANCH  13  14
ENDBRANCH  12  13
ENDBRANCH  11  12
ENDBRANCH  10  11
ENDBRANCH   9  10
ENDBRANCH   7   9
ENDBRANCH   6   7
ENDBRANCH   5   6
ENDBRANCH   4   5
ENDBRANCH   3   4
ENDBRANCH   2   3
ENDBRANCH   1   2
BRANCH   1  25
ATOM     25  O   UNL A   1      34.688  32.718  27.591  1.00  0.00    -0.377 OA
BRANCH  25  26
ATOM     26  C   UNL A   1      34.660  34.092  27.934  1.00  0.00     0.188 C 
BRANCH  26  27
ATOM     27  C   UNL A   1      33.352  34.574  28.575  1.00  0.00     0.188 C 
BRANCH  27  28
ATOM     28  O   UNL A   1      33.211  34.451  29.982  1.00  0.00    -0.376 OA
BRANCH  28  29
ATOM     29  C   UNL A   1      33.853  35.418  30.812  1.00  0.00     0.202 C 
BRANCH  29  30
ATOM     30  C   UNL A   1      34.515  35.015  32.149  1.00  0.00     0.261 C 
BRANCH  30  31
ATOM     31  O   UNL A   1      35.614  34.084  32.046  1.00  0.00    -0.460 OA
BRANCH  31  32
ATOM     32  C   UNL A   1      35.285  32.773  31.965  1.00  0.00     0.338 C 
ATOM     33  O   UNL A   1      34.184  32.290  32.179  1.00  0.00    -0.246 OA
BRANCH  32  34
ATOM     34  C   UNL A   1      36.381  31.979  31.357  1.00  0.00     0.060 A 
ATOM     35  C   UNL A   1      37.308  31.382  32.226  1.00  0.00     0.016 A 
ATOM     36  C   UNL A   1      36.569  31.893  29.976  1.00  0.00     0.016 A 
ATOM     37  C   UNL A   1      38.439  30.739  31.725  1.00  0.00     0.010 A 
ATOM     38  C   UNL A   1      37.726  31.273  29.474  1.00  0.00     0.010 A 
ATOM     39  C   UNL A   1      38.688  30.729  30.347  1.00  0.00    -0.014 A 
BRANCH  39  40
ATOM     40  C   UNL A   1      40.049  30.354  29.876  1.00  0.00     0.031 A 
ATOM     41  C   UNL A   1      41.140  31.396  29.931  1.00  0.00     0.074 A 
ATOM     42  C   UNL A   1      40.346  29.097  29.495  1.00  0.00     0.049 A 
ATOM     43  N   UNL A   1      42.407  31.293  29.622  1.00  0.00    -0.248 NA
ATOM     44  C   UNL A   1      40.745  32.733  30.405  1.00  0.00     0.031 C 
ATOM     45  C   UNL A   1      39.398  27.986  29.434  1.00  0.00     0.029 A 
ATOM     46  N   UNL A   1      41.537  28.543  29.090  1.00  0.00    -0.354 N 
ATOM     47  C   UNL A   1      42.963  32.543  29.876  1.00  0.00     0.074 A 
ATOM     48  C   UNL A   1      41.885  33.401  30.319  1.00  0.00     0.031 C 
ATOM     49  C   UNL A   1      40.041  26.887  29.001  1.00  0.00     0.029 A 
ATOM     50  C   UNL A   1      41.441  27.218  28.737  1.00  0.00     0.049 A 
ATOM     51  H   UNL A   1      42.381  29.050  29.055  1.00  0.00     0.167 HD
ATOM     52  C   UNL A   1      44.254  32.938  29.771  1.00  0.00     0.037 A 
ATOM     53  C   UNL A   1      42.371  26.374  28.242  1.00  0.00     0.037 A 
ATOM     54  C   UNL A   1      45.326  32.089  29.317  1.00  0.00     0.049 A 
ATOM     55  C   UNL A   1      43.791  26.857  28.064  1.00  0.00     0.074 A 
ATOM     56  C   UNL A   1      46.666  32.401  29.166  1.00  0.00     0.029 A 
ATOM     57  N   UNL A   1      45.181  30.764  28.936  1.00  0.00    -0.354 N 
ATOM     58  N   UNL A   1      44.302  28.037  28.326  1.00  0.00    -0.248 NA
ATOM     59  C   UNL A   1      44.762  25.888  27.538  1.00  0.00     0.031 C 
ATOM     60  C   UNL A   1      47.322  31.280  28.644  1.00  0.00     0.029 A 
ATOM     61  C   UNL A   1      46.403  30.250  28.530  1.00  0.00     0.049 A 
ATOM     62  H   UNL A   1      44.335  30.261  28.950  1.00  0.00     0.167 HD
ATOM     63  C   UNL A   1      45.657  27.943  28.017  1.00  0.00     0.074 A 
ATOM     64  C   UNL A   1      45.889  26.584  27.578  1.00  0.00     0.031 C 
ATOM     65  C   UNL A   1      46.622  28.896  28.087  1.00  0.00     0.037 A 
BRANCH  52  66
ATOM     66  C   UNL A   1      44.580  34.360  30.143  1.00  0.00     0.058 A 
ATOM     67  C   UNL A   1      44.986  34.709  31.442  1.00  0.00     0.135 A 
ATOM     68  C   UNL A   1      44.530  35.381  29.179  1.00  0.00     0.135 A 
ATOM     69  F   UNL A   1      45.032  33.778  32.408  1.00  0.00    -0.206 F 
ATOM     70  C   UNL A   1      45.313  36.019  31.775  1.00  0.00     0.059 A 
ATOM     71  C   UNL A   1      44.882  36.693  29.483  1.00  0.00     0.059 A 
ATOM     72  F   UNL A   1      44.144  35.106  27.923  1.00  0.00    -0.206 F 
ATOM     73  C   UNL A   1      45.264  37.003  30.788  1.00  0.00     0.060 A 
BRANCH  73  74
ATOM     74  S   UNL A   1      45.718  38.693  31.233  1.00  0.00     0.124 S 
ATOM     75  O   UNL A   1      45.911  38.573  32.675  1.00  0.00    -0.237 OA
ATOM     76  O   UNL A   1      46.928  38.906  30.447  1.00  0.00    -0.237 OA
ATOM     77  O   UNL A   1      44.559  39.478  30.820  1.00  0.00    -0.744 OA
ENDBRANCH  73  74
ENDBRANCH  52  66
BRANCH  53  78
ATOM     78  C   UNL A   1      41.992  24.986  27.849  1.00  0.00     0.058 A 
ATOM     79  C   UNL A   1      41.279  24.721  26.670  1.00  0.00     0.135 A 
ATOM     80  C   UNL A   1      42.314  23.894  28.673  1.00  0.00     0.135 A 
ATOM     81  F   UNL A   1      40.933  25.728  25.855  1.00  0.00    -0.206 F 
ATOM     82  C   UNL A   1      40.880  23.430  26.332  1.00  0.00     0.059 A 
ATOM     83  C   UNL A   1      41.953  22.592  28.341  1.00  0.00     0.059 A 
ATOM     84  F   UNL A   1      43.000  24.088  29.810  1.00  0.00    -0.206 F 
ATOM     85  C   UNL A   1      41.224  22.371  27.174  1.00  0.00     0.060 A 
BRANCH  85  86
ATOM     86  S   UNL A   1      40.741  20.696  26.706  1.00  0.00     0.124 S 
ATOM     87  O   UNL A   1      39.415  20.918  26.140  1.00  0.00    -0.237 OA
ATOM     88  O   UNL A   1      41.788  20.330  25.756  1.00  0.00    -0.237 OA
ATOM     89  O   UNL A   1      40.774  19.971  27.972  1.00  0.00    -0.744 OA
ENDBRANCH  85  86
ENDBRANCH  53  78
BRANCH  65  90
ATOM     90  C   UNL A   1      48.024  28.491  27.704  1.00  0.00     0.058 A 
ATOM     91  C   UNL A   1      48.428  28.395  26.362  1.00  0.00     0.135 A 
ATOM     92  C   UNL A   1      48.979  28.203  28.693  1.00  0.00     0.135 A 
ATOM     93  F   UNL A   1      47.559  28.660  25.374  1.00  0.00    -0.206 F 
ATOM     94  C   UNL A   1      49.710  27.977  26.015  1.00  0.00     0.059 A 
ATOM     95  C   UNL A   1      50.277  27.819  28.369  1.00  0.00     0.059 A 
ATOM     96  F   UNL A   1      48.657  28.295  29.993  1.00  0.00    -0.206 F 
ATOM     97  C   UNL A   1      50.626  27.685  27.026  1.00  0.00     0.060 A 
BRANCH  97  98
ATOM     98  S   UNL A   1      52.278  27.126  26.562  1.00  0.00     0.124 S 
ATOM     99  O   UNL A   1      52.209  25.705  26.886  1.00  0.00    -0.237 OA
ATOM    100  O   UNL A   1      52.331  27.451  25.139  1.00  0.00    -0.237 OA
ATOM    101  O   UNL A   1      53.159  27.922  27.413  1.00  0.00    -0.744 OA
ENDBRANCH  97  98
ENDBRANCH  65  90
ENDBRANCH  39  40
ENDBRANCH  32  34
ENDBRANCH  31  32
ENDBRANCH  30  31
ENDBRANCH  29  30
ENDBRANCH  28  29
ENDBRANCH  27  28
ENDBRANCH  26  27
ENDBRANCH  25  26
ENDBRANCH   1  25
TORSDOF 28
ENDMDL
MODEL 3
REMARK VINA RESULT:      -9.0      5.795     12.324
REMARK SMILES O=C(CCCCCN1C(=O)[C@@H]2CC=CC[C@H]2C1=O)OCCOCCOCCOCCOC(=O)c1ccc(-c2c3nc(c(-c4c(F)cc(S(=O)(=O)[O-])cc4F)c4ccc([nH]4)c(-c4c(F)cc(S(=O)(=O)[O-])cc4F)c4nc(c(-c5c(F)cc(S(=O)(=O)[O-])cc5F)c5ccc2[nH]5)C=C4)C=C3)cc1
REMARK SMILES IDX 24 1 23 2 22 3 21 4 20 5 19 6 2 7 1 8 3 9 4 10 5 11 6 12
REMARK SMILES IDX 7 13 8 14 9 15 17 16 10 17 11 18 16 19 18 20 12 21 15 22
REMARK SMILES IDX 13 23 14 24 25 25 26 26 27 27 28 28 29 29 30 30 31 31 32 32
REMARK SMILES IDX 33 33 34 34 35 35 99 36 36 37 98 38 37 39 38 40 39 41 92 42
REMARK SMILES IDX 40 43 97 44 91 45 93 46 41 47 96 48 90 49 89 50 42 52 76 53
REMARK SMILES IDX 55 54 75 55 56 56 59 57 74 58 94 59 57 60 58 61 73 63 95 64
REMARK SMILES IDX 60 65 43 66 44 67 53 68 45 69 46 70 52 71 54 72 47 73 48 74
REMARK SMILES IDX 49 75 50 76 51 77 77 78 78 79 87 80 79 81 80 82 86 83 88 84
REMARK SMILES IDX 81 85 82 86 83 87 84 88 85 89 61 90 62 91 71 92 63 93 64 94
REMARK SMILES IDX 70 95 72 96 65 97 66 98 67 99 68 100 69 101
REMARK H PARENT 93 51 59 62
REMARK Flexibility Score: inf
ROOT
ATOM      1  C   UNL A   1      43.409  18.848  25.790  1.00  0.00     0.188 C 
ENDROOT
BRANCH   1   2
ATOM      2  C   UNL A   1      42.036  19.508  25.756  1.00  0.00     0.188 C 
BRANCH   2   3
ATOM      3  O   UNL A   1      41.882  20.675  26.560  1.00  0.00    -0.376 OA
BRANCH   3   4
ATOM      4  C   UNL A   1      40.587  21.218  26.700  1.00  0.00     0.202 C 
BRANCH   4   5
ATOM      5  C   UNL A   1      39.541  20.372  26.006  1.00  0.00     0.261 C 
BRANCH   5   6
ATOM      6  O   UNL A   1      38.519  21.078  25.269  1.00  0.00    -0.463 OA
BRANCH   6   7
ATOM      7  C   UNL A   1      37.414  21.748  25.631  1.00  0.00     0.305 C 
ATOM      8  O   UNL A   1      36.344  21.128  25.613  1.00  0.00    -0.252 OA
BRANCH   7   9
ATOM      9  C   UNL A   1      37.383  23.208  26.052  1.00  0.00     0.123 C 
BRANCH   9  10
ATOM     10  C   UNL A   1      36.475  24.196  25.340  1.00  0.00     0.012 C 
BRANCH  10  11
ATOM     11  C   UNL A   1      35.331  23.608  24.531  1.00  0.00     0.002 C 
BRANCH  11  12
ATOM     12  C   UNL A   1      34.063  24.466  24.365  1.00  0.00     0.022 C 
BRANCH  12  13
ATOM     13  C   UNL A   1      33.520  25.121  25.642  1.00  0.00     0.128 C 
BRANCH  13  14
ATOM     14  N   UNL A   1      32.437  26.021  25.330  1.00  0.00    -0.282 N 
ATOM     15  C   UNL A   1      32.648  27.286  24.829  1.00  0.00     0.233 C 
ATOM     16  C   UNL A   1      31.120  25.618  25.225  1.00  0.00     0.233 C 
ATOM     17  O   UNL A   1      33.674  27.946  24.858  1.00  0.00    -0.274 OA
ATOM     18  C   UNL A   1      31.428  27.593  24.024  1.00  0.00     0.095 C 
ATOM     19  C   UNL A   1      30.350  26.828  24.780  1.00  0.00     0.095 C 
ATOM     20  O   UNL A   1      30.659  24.522  25.464  1.00  0.00    -0.274 OA
ATOM     21  C   UNL A   1      31.016  29.020  23.776  1.00  0.00     0.041 C 
ATOM     22  C   UNL A   1      29.164  26.623  23.857  1.00  0.00     0.041 C 
ATOM     23  C   UNL A   1      29.623  29.018  23.184  1.00  0.00    -0.030 C 
ATOM     24  C   UNL A   1      28.811  27.939  23.191  1.00  0.00    -0.030 C 
ENDBRANCH  13  14
ENDBRANCH  12  13
ENDBRANCH  11  12
ENDBRANCH  10  11
ENDBRANCH   9  10
ENDBRANCH   7   9
ENDBRANCH   6   7
ENDBRANCH   5   6
ENDBRANCH   4   5
ENDBRANCH   3   4
ENDBRANCH   2   3
ENDBRANCH   1   2
BRANCH   1  25
ATOM     25  O   UNL A   1      44.256  18.965  24.656  1.00  0.00    -0.377 OA
BRANCH  25  26
ATOM     26  C   UNL A   1      45.243  19.978  24.573  1.00  0.00     0.188 C 
BRANCH  26  27
ATOM     27  C   UNL A   1      44.877  21.298  25.267  1.00  0.00     0.188 C 
BRANCH  27  28
ATOM     28  O   UNL A   1      45.556  22.476  24.864  1.00  0.00    -0.376 OA
BRANCH  28  29
ATOM     29  C   UNL A   1      44.791  23.664  24.667  1.00  0.00     0.202 C 
BRANCH  29  30
ATOM     30  C   UNL A   1      43.360  23.801  25.235  1.00  0.00     0.261 C 
BRANCH  30  31
ATOM     31  O   UNL A   1      42.970  25.132  25.632  1.00  0.00    -0.460 OA
BRANCH  31  32
ATOM     32  C   UNL A   1      41.737  25.260  26.178  1.00  0.00     0.338 C 
ATOM     33  O   UNL A   1      40.717  24.708  25.794  1.00  0.00    -0.246 OA
BRANCH  32  34
ATOM     34  C   UNL A   1      41.792  25.992  27.467  1.00  0.00     0.060 A 
ATOM     35  C   UNL A   1      40.776  25.738  28.401  1.00  0.00     0.016 A 
ATOM     36  C   UNL A   1      42.749  26.974  27.732  1.00  0.00     0.016 A 
ATOM     37  C   UNL A   1      40.685  26.487  29.574  1.00  0.00     0.010 A 
ATOM     38  C   UNL A   1      42.636  27.751  28.899  1.00  0.00     0.010 A 
ATOM     39  C   UNL A   1      41.580  27.539  29.805  1.00  0.00    -0.014 A 
BRANCH  39  40
ATOM     40  C   UNL A   1      41.252  28.527  30.869  1.00  0.00     0.031 A 
ATOM     41  C   UNL A   1      42.085  28.529  32.127  1.00  0.00     0.074 A 
ATOM     42  C   UNL A   1      40.303  29.467  30.695  1.00  0.00     0.049 A 
ATOM     43  N   UNL A   1      42.022  29.320  33.167  1.00  0.00    -0.248 NA
ATOM     44  C   UNL A   1      43.135  27.500  32.219  1.00  0.00     0.031 C 
ATOM     45  C   UNL A   1      39.455  29.603  29.513  1.00  0.00     0.029 A 
ATOM     46  N   UNL A   1      39.897  30.490  31.519  1.00  0.00    -0.354 N 
ATOM     47  C   UNL A   1      43.029  28.896  34.029  1.00  0.00     0.074 A 
ATOM     48  C   UNL A   1      43.656  27.748  33.412  1.00  0.00     0.031 C 
ATOM     49  C   UNL A   1      38.618  30.641  29.693  1.00  0.00     0.029 A 
ATOM     50  C   UNL A   1      38.858  31.232  31.010  1.00  0.00     0.049 A 
ATOM     51  H   UNL A   1      40.313  30.674  32.393  1.00  0.00     0.167 HD
ATOM     52  C   UNL A   1      43.412  29.424  35.216  1.00  0.00     0.037 A 
ATOM     53  C   UNL A   1      38.168  32.259  31.550  1.00  0.00     0.037 A 
ATOM     54  C   UNL A   1      42.779  30.559  35.840  1.00  0.00     0.049 A 
ATOM     55  C   UNL A   1      38.565  32.785  32.909  1.00  0.00     0.074 A 
ATOM     56  C   UNL A   1      43.088  31.161  37.047  1.00  0.00     0.029 A 
ATOM     57  N   UNL A   1      41.707  31.260  35.309  1.00  0.00    -0.354 N 
ATOM     58  N   UNL A   1      39.531  32.383  33.702  1.00  0.00    -0.248 NA
ATOM     59  C   UNL A   1      37.788  33.915  33.438  1.00  0.00     0.031 C 
ATOM     60  C   UNL A   1      42.170  32.193  37.271  1.00  0.00     0.029 A 
ATOM     61  C   UNL A   1      41.328  32.275  36.174  1.00  0.00     0.049 A 
ATOM     62  H   UNL A   1      41.277  31.066  34.446  1.00  0.00     0.167 HD
ATOM     63  C   UNL A   1      39.490  33.225  34.811  1.00  0.00     0.074 A 
ATOM     64  C   UNL A   1      38.424  34.175  34.571  1.00  0.00     0.031 C 
ATOM     65  C   UNL A   1      40.261  33.212  35.929  1.00  0.00     0.037 A 
BRANCH  52  66
ATOM     66  C   UNL A   1      44.564  28.769  35.930  1.00  0.00     0.058 A 
ATOM     67  C   UNL A   1      45.887  29.208  35.753  1.00  0.00     0.135 A 
ATOM     68  C   UNL A   1      44.342  27.721  36.839  1.00  0.00     0.135 A 
ATOM     69  F   UNL A   1      46.161  30.193  34.882  1.00  0.00    -0.206 F 
ATOM     70  C   UNL A   1      46.947  28.620  36.435  1.00  0.00     0.059 A 
ATOM     71  C   UNL A   1      45.384  27.138  37.554  1.00  0.00     0.059 A 
ATOM     72  F   UNL A   1      43.099  27.258  37.044  1.00  0.00    -0.206 F 
ATOM     73  C   UNL A   1      46.685  27.589  37.337  1.00  0.00     0.060 A 
BRANCH  73  74
ATOM     74  S   UNL A   1      48.071  26.856  38.233  1.00  0.00     0.124 S 
ATOM     75  O   UNL A   1      49.030  27.956  38.238  1.00  0.00    -0.237 OA
ATOM     76  O   UNL A   1      47.470  26.534  39.524  1.00  0.00    -0.237 OA
ATOM     77  O   UNL A   1      48.439  25.707  37.412  1.00  0.00    -0.744 OA
ENDBRANCH  73  74
ENDBRANCH  52  66
BRANCH  53  78
ATOM     78  C   UNL A   1      37.007  32.848  30.824  1.00  0.00     0.058 A 
ATOM     79  C   UNL A   1      37.177  33.809  29.815  1.00  0.00     0.135 A 
ATOM     80  C   UNL A   1      35.692  32.478  31.151  1.00  0.00     0.135 A 
ATOM     81  F   UNL A   1      38.411  34.210  29.473  1.00  0.00    -0.206 F 
ATOM     82  C   UNL A   1      36.090  34.398  29.175  1.00  0.00     0.059 A 
ATOM     83  C   UNL A   1      34.590  33.028  30.504  1.00  0.00     0.059 A 
ATOM     84  F   UNL A   1      35.469  31.559  32.104  1.00  0.00    -0.206 F 
ATOM     85  C   UNL A   1      34.799  33.998  29.525  1.00  0.00     0.060 A 
BRANCH  85  86
ATOM     86  S   UNL A   1      33.396  34.734  28.659  1.00  0.00     0.124 S 
ATOM     87  O   UNL A   1      32.470  34.986  29.757  1.00  0.00    -0.237 OA
ATOM     88  O   UNL A   1      34.000  35.915  28.048  1.00  0.00    -0.237 OA
ATOM     89  O   UNL A   1      32.996  33.690  27.722  1.00  0.00    -0.744 OA
ENDBRANCH  85  86
ENDBRANCH  53  78
BRANCH  65  90
ATOM     90  C   UNL A   1      39.996  34.276  36.965  1.00  0.00     0.058 A 
ATOM     91  C   UNL A   1      40.544  35.565  36.863  1.00  0.00     0.135 A 
ATOM     92  C   UNL A   1      39.173  34.005  38.071  1.00  0.00     0.135 A 
ATOM     93  F   UNL A   1      41.336  35.882  35.826  1.00  0.00    -0.206 F 
ATOM     94  C   UNL A   1      40.332  36.527  37.846  1.00  0.00     0.059 A 
ATOM     95  C   UNL A   1      38.918  34.964  39.047  1.00  0.00     0.059 A 
ATOM     96  F   UNL A   1      38.606  32.796  38.214  1.00  0.00    -0.206 F 
ATOM     97  C   UNL A   1      39.522  36.215  38.938  1.00  0.00     0.060 A 
BRANCH  97  98
ATOM     98  S   UNL A   1      39.270  37.466  40.215  1.00  0.00     0.124 S 
ATOM     99  O   UNL A   1      38.257  38.315  39.598  1.00  0.00    -0.237 OA
ATOM    100  O   UNL A   1      38.822  36.667  41.352  1.00  0.00    -0.237 OA
ATOM    101  O   UNL A   1      40.591  38.071  40.364  1.00  0.00    -0.744 OA
ENDBRANCH  97  98
ENDBRANCH  65  90
ENDBRANCH  39  40
ENDBRANCH  32  34
ENDBRANCH  31  32
ENDBRANCH  30  31
ENDBRANCH  29  30
ENDBRANCH  28  29
ENDBRANCH  27  28
ENDBRANCH  26  27
ENDBRANCH  25  26
ENDBRANCH   1  25
TORSDOF 28
ENDMDL
