MODEL 1
REMARK VINA RESULT:      -9.3      0.000      0.000
REMARK SMILES NS(=O)(=O)c1ccc(-n2nc(C(=O)OCCOCCOCCOCCOC(=O)c3ccc(-c4c5nc(c(-c6c(F)cc(S(=O)(=O)[O-])cc6F)c6ccc([nH]6)c(-c6c(F)cc(S(=O)(=O)[O-])cc6F)c6nc(c(-c7c(F)cc(S(=O)(=O)[O-])cc7F)c7ccc4[nH]7)C=C6)C=C5)cc3)cc2-c2ccc(Cl)s2)cc1
REMARK SMILES IDX 20 1 19 2 18 3 17 4 16 5 15 6 14 7 12 8 13 9 11 10 9 11
REMARK SMILES IDX 10 12 96 13 95 14 8 15 5 16 6 17 104 18 7 19 103 20 2 21
REMARK SMILES IDX 3 22 4 23 1 24 97 27 98 28 102 29 99 30 100 31 101 32 21 33
REMARK SMILES IDX 22 34 23 35 24 36 25 37 26 38 27 39 28 40 29 41 30 42 94 43
REMARK SMILES IDX 31 44 93 45 32 46 33 47 34 48 87 49 35 50 92 51 86 52 88 53
REMARK SMILES IDX 36 54 91 55 85 56 84 57 37 59 71 60 50 61 70 62 51 63 54 64
REMARK SMILES IDX 69 65 89 66 52 67 53 68 68 70 90 71 55 72 38 73 39 74 48 75
REMARK SMILES IDX 40 76 41 77 47 78 49 79 42 80 43 81 44 82 45 83 46 84 72 85
REMARK SMILES IDX 73 86 82 87 74 88 75 89 81 90 83 91 76 92 77 93 78 94 79 95
REMARK SMILES IDX 80 96 56 97 57 98 66 99 58 100 59 101 65 102 67 103 60 104
REMARK SMILES IDX 61 105 62 106 63 107 64 108
REMARK H PARENT 1 25 1 26 88 58 54 69
REMARK Flexibility Score: inf
ROOT
ATOM      1  O   UNL A   1      34.978  22.505  26.298  1.00  0.00    -0.377 OA
ENDROOT
BRANCH   1   2
ATOM      2  C   UNL A   1      33.632  22.749  25.927  1.00  0.00     0.188 C 
BRANCH   2   3
ATOM      3  C   UNL A   1      33.046  24.061  26.497  1.00  0.00     0.188 C 
BRANCH   3   4
ATOM      4  O   UNL A   1      32.415  25.027  25.667  1.00  0.00    -0.376 OA
BRANCH   4   5
ATOM      5  C   UNL A   1      33.113  26.067  25.007  1.00  0.00     0.202 C 
BRANCH   5   6
ATOM      6  C   UNL A   1      34.076  27.040  25.711  1.00  0.00     0.261 C 
BRANCH   6   7
ATOM      7  O   UNL A   1      33.501  28.012  26.578  1.00  0.00    -0.458 OA
BRANCH   7   8
ATOM      8  C   UNL A   1      33.615  29.306  26.171  1.00  0.00     0.358 C 
ATOM      9  O   UNL A   1      33.157  29.754  25.127  1.00  0.00    -0.244 OA
BRANCH   8  10
ATOM     10  C   UNL A   1      34.281  30.114  27.202  1.00  0.00     0.171 A 
ATOM     11  N   UNL A   1      34.585  31.612  28.698  1.00  0.00    -0.231 N 
ATOM     12  N   UNL A   1      33.652  31.106  27.861  1.00  0.00    -0.160 NA
ATOM     13  C   UNL A   1      35.795  30.948  28.600  1.00  0.00     0.085 A 
ATOM     14  C   UNL A   1      35.590  29.921  27.706  1.00  0.00     0.068 A 
BRANCH  11  15
ATOM     15  C   UNL A   1      34.329  32.830  29.365  1.00  0.00     0.065 A 
ATOM     16  C   UNL A   1      33.634  35.121  30.754  1.00  0.00     0.082 A 
ATOM     17  C   UNL A   1      34.219  34.051  31.438  1.00  0.00     0.024 A 
ATOM     18  C   UNL A   1      33.419  35.062  29.370  1.00  0.00     0.024 A 
ATOM     19  C   UNL A   1      34.556  32.894  30.744  1.00  0.00     0.030 A 
ATOM     20  C   UNL A   1      33.791  33.914  28.662  1.00  0.00     0.030 A 
BRANCH  16  21
ATOM     21  S   UNL A   1      33.183  36.561  31.673  1.00  0.00     0.238 S 
ATOM     22  O   UNL A   1      32.165  36.214  32.631  1.00  0.00    -0.207 OA
ATOM     23  O   UNL A   1      33.045  37.673  30.756  1.00  0.00    -0.207 OA
BRANCH  21  24
ATOM     24  N   UNL A   1      34.552  36.877  32.593  1.00  0.00    -0.225 NA
ATOM     25  H   UNL A   1      35.233  37.383  32.027  1.00  0.00     0.137 HD
ATOM     26  H   UNL A   1      34.959  35.997  32.910  1.00  0.00     0.137 HD
ENDBRANCH  21  24
ENDBRANCH  16  21
ENDBRANCH  11  15
BRANCH  13  27
ATOM     27  C   UNL A   1      37.010  31.305  29.271  1.00  0.00     0.054 A 
ATOM     28  C   UNL A   1      37.680  30.513  30.184  1.00  0.00     0.024 A 
ATOM     29  S   UNL A   1      37.822  32.794  29.020  1.00  0.00    -0.122 S 
ATOM     30  C   UNL A   1      38.910  31.096  30.606  1.00  0.00     0.033 A 
ATOM     31  C   UNL A   1      39.096  32.324  30.026  1.00  0.00     0.094 A 
ATOM     32  Cl  UNL A   1      40.454  33.353  30.231  1.00  0.00    -0.072 Cl
ENDBRANCH  13  27
ENDBRANCH   8  10
ENDBRANCH   7   8
ENDBRANCH   6   7
ENDBRANCH   5   6
ENDBRANCH   4   5
ENDBRANCH   3   4
ENDBRANCH   2   3
ENDBRANCH   1   2
BRANCH   1  33
ATOM     33  C   UNL A   1      35.961  23.354  25.708  1.00  0.00     0.188 C 
BRANCH  33  34
ATOM     34  C   UNL A   1      36.441  23.063  24.263  1.00  0.00     0.188 C 
BRANCH  34  35
ATOM     35  O   UNL A   1      37.244  21.901  24.125  1.00  0.00    -0.376 OA
BRANCH  35  36
ATOM     36  C   UNL A   1      37.880  21.266  25.217  1.00  0.00     0.202 C 
BRANCH  36  37
ATOM     37  C   UNL A   1      39.321  21.634  25.546  1.00  0.00     0.261 C 
BRANCH  37  38
ATOM     38  O   UNL A   1      39.555  21.881  26.916  1.00  0.00    -0.460 OA
BRANCH  38  39
ATOM     39  C   UNL A   1      39.681  23.186  27.224  1.00  0.00     0.338 C 
ATOM     40  O   UNL A   1      38.786  23.987  27.424  1.00  0.00    -0.246 OA
BRANCH  39  41
ATOM     41  C   UNL A   1      41.094  23.531  27.099  1.00  0.00     0.060 A 
ATOM     42  C   UNL A   1      41.965  22.872  27.964  1.00  0.00     0.016 A 
ATOM     43  C   UNL A   1      41.439  24.717  26.431  1.00  0.00     0.016 A 
ATOM     44  C   UNL A   1      43.096  23.543  28.353  1.00  0.00     0.010 A 
ATOM     45  C   UNL A   1      42.555  25.396  26.841  1.00  0.00     0.010 A 
ATOM     46  C   UNL A   1      43.318  24.836  27.859  1.00  0.00    -0.014 A 
BRANCH  46  47
ATOM     47  C   UNL A   1      44.510  25.525  28.292  1.00  0.00     0.031 A 
ATOM     48  C   UNL A   1      44.532  25.611  29.765  1.00  0.00     0.074 A 
ATOM     49  C   UNL A   1      45.474  25.933  27.445  1.00  0.00     0.049 A 
ATOM     50  N   UNL A   1      44.235  26.644  30.477  1.00  0.00    -0.248 NA
ATOM     51  C   UNL A   1      44.598  24.355  30.535  1.00  0.00     0.031 C 
ATOM     52  C   UNL A   1      45.586  25.642  26.012  1.00  0.00     0.029 A 
ATOM     53  N   UNL A   1      46.617  26.628  27.703  1.00  0.00    -0.354 N 
ATOM     54  C   UNL A   1      44.424  26.229  31.789  1.00  0.00     0.074 A 
ATOM     55  C   UNL A   1      44.349  24.795  31.770  1.00  0.00     0.031 C 
ATOM     56  C   UNL A   1      46.832  25.954  25.588  1.00  0.00     0.029 A 
ATOM     57  C   UNL A   1      47.558  26.588  26.676  1.00  0.00     0.049 A 
ATOM     58  H   UNL A   1      46.765  27.116  28.544  1.00  0.00     0.167 HD
ATOM     59  C   UNL A   1      45.042  27.065  32.665  1.00  0.00     0.037 A 
ATOM     60  C   UNL A   1      48.846  27.013  26.747  1.00  0.00     0.037 A 
ATOM     61  C   UNL A   1      45.022  28.418  32.161  1.00  0.00     0.049 A 
ATOM     62  C   UNL A   1      48.914  27.984  27.867  1.00  0.00     0.074 A 
ATOM     63  C   UNL A   1      44.060  29.373  31.910  1.00  0.00     0.029 A 
ATOM     64  N   UNL A   1      46.130  28.750  31.424  1.00  0.00    -0.354 N 
ATOM     65  N   UNL A   1      48.321  29.147  27.841  1.00  0.00    -0.248 NA
ATOM     66  C   UNL A   1      49.313  27.521  29.191  1.00  0.00     0.031 C 
ATOM     67  C   UNL A   1      44.568  30.177  30.847  1.00  0.00     0.029 A 
ATOM     68  C   UNL A   1      45.848  29.732  30.516  1.00  0.00     0.049 A 
ATOM     69  H   UNL A   1      47.015  28.333  31.534  1.00  0.00     0.167 HD
ATOM     70  C   UNL A   1      47.885  29.340  29.137  1.00  0.00     0.074 A 
ATOM     71  C   UNL A   1      48.666  28.413  29.946  1.00  0.00     0.031 C 
ATOM     72  C   UNL A   1      46.706  29.987  29.378  1.00  0.00     0.037 A 
BRANCH  59  73
ATOM     73  C   UNL A   1      46.116  26.610  33.635  1.00  0.00     0.058 A 
ATOM     74  C   UNL A   1      47.232  25.913  33.128  1.00  0.00     0.135 A 
ATOM     75  C   UNL A   1      45.962  26.558  35.042  1.00  0.00     0.135 A 
ATOM     76  F   UNL A   1      47.466  25.870  31.807  1.00  0.00    -0.206 F 
ATOM     77  C   UNL A   1      48.093  25.179  33.949  1.00  0.00     0.059 A 
ATOM     78  C   UNL A   1      46.836  25.879  35.879  1.00  0.00     0.059 A 
ATOM     79  F   UNL A   1      44.908  27.076  35.679  1.00  0.00    -0.206 F 
ATOM     80  C   UNL A   1      47.881  25.167  35.324  1.00  0.00     0.060 A 
BRANCH  80  81
ATOM     81  S   UNL A   1      48.960  24.198  36.387  1.00  0.00     0.124 S 
ATOM     82  O   UNL A   1      49.484  23.212  35.450  1.00  0.00    -0.237 OA
ATOM     83  O   UNL A   1      49.904  25.208  36.855  1.00  0.00    -0.237 OA
ATOM     84  O   UNL A   1      48.049  23.683  37.406  1.00  0.00    -0.744 OA
ENDBRANCH  80  81
ENDBRANCH  59  73
BRANCH  60  85
ATOM     85  C   UNL A   1      50.073  26.461  26.108  1.00  0.00     0.058 A 
ATOM     86  C   UNL A   1      50.747  27.168  25.092  1.00  0.00     0.135 A 
ATOM     87  C   UNL A   1      50.781  25.389  26.685  1.00  0.00     0.135 A 
ATOM     88  F   UNL A   1      50.155  28.209  24.488  1.00  0.00    -0.206 F 
ATOM     89  C   UNL A   1      52.067  26.879  24.726  1.00  0.00     0.059 A 
ATOM     90  C   UNL A   1      52.095  25.078  26.330  1.00  0.00     0.059 A 
ATOM     91  F   UNL A   1      50.250  24.669  27.684  1.00  0.00    -0.206 F 
ATOM     92  C   UNL A   1      52.743  25.848  25.372  1.00  0.00     0.060 A 
BRANCH  92  93
ATOM     93  S   UNL A   1      54.509  25.602  25.053  1.00  0.00     0.124 S 
ATOM     94  O   UNL A   1      54.635  24.153  25.152  1.00  0.00    -0.237 OA
ATOM     95  O   UNL A   1      54.663  26.167  23.716  1.00  0.00    -0.237 OA
ATOM     96  O   UNL A   1      55.154  26.360  26.123  1.00  0.00    -0.744 OA
ENDBRANCH  92  93
ENDBRANCH  60  85
BRANCH  72  97
ATOM     97  C   UNL A   1      46.212  30.940  28.329  1.00  0.00     0.058 A 
ATOM     98  C   UNL A   1      45.277  30.636  27.324  1.00  0.00     0.135 A 
ATOM     99  C   UNL A   1      46.664  32.266  28.409  1.00  0.00     0.135 A 
ATOM    100  F   UNL A   1      44.734  29.414  27.234  1.00  0.00    -0.206 F 
ATOM    101  C   UNL A   1      44.843  31.605  26.416  1.00  0.00     0.059 A 
ATOM    102  C   UNL A   1      46.220  33.253  27.539  1.00  0.00     0.059 A 
ATOM    103  F   UNL A   1      47.522  32.626  29.378  1.00  0.00    -0.206 F 
ATOM    104  C   UNL A   1      45.321  32.911  26.533  1.00  0.00     0.060 A 
BRANCH 104 105
ATOM    105  S   UNL A   1      44.723  34.180  25.397  1.00  0.00     0.124 S 
ATOM    106  O   UNL A   1      45.957  34.627  24.758  1.00  0.00    -0.237 OA
ATOM    107  O   UNL A   1      43.802  33.433  24.546  1.00  0.00    -0.237 OA
ATOM    108  O   UNL A   1      44.088  35.157  26.280  1.00  0.00    -0.744 OA
ENDBRANCH 104 105
ENDBRANCH  72  97
ENDBRANCH  46  47
ENDBRANCH  39  41
ENDBRANCH  38  39
ENDBRANCH  37  38
ENDBRANCH  36  37
ENDBRANCH  35  36
ENDBRANCH  34  35
ENDBRANCH  33  34
ENDBRANCH   1  33
TORSDOF 27
ENDMDL
MODEL 2
REMARK VINA RESULT:      -8.9      4.272      9.599
REMARK SMILES NS(=O)(=O)c1ccc(-n2nc(C(=O)OCCOCCOCCOCCOC(=O)c3ccc(-c4c5nc(c(-c6c(F)cc(S(=O)(=O)[O-])cc6F)c6ccc([nH]6)c(-c6c(F)cc(S(=O)(=O)[O-])cc6F)c6nc(c(-c7c(F)cc(S(=O)(=O)[O-])cc7F)c7ccc4[nH]7)C=C6)C=C5)cc3)cc2-c2ccc(Cl)s2)cc1
REMARK SMILES IDX 20 1 19 2 18 3 17 4 16 5 15 6 14 7 12 8 13 9 11 10 9 11
REMARK SMILES IDX 10 12 96 13 95 14 8 15 5 16 6 17 104 18 7 19 103 20 2 21
REMARK SMILES IDX 3 22 4 23 1 24 97 27 98 28 102 29 99 30 100 31 101 32 21 33
REMARK SMILES IDX 22 34 23 35 24 36 25 37 26 38 27 39 28 40 29 41 30 42 94 43
REMARK SMILES IDX 31 44 93 45 32 46 33 47 34 48 87 49 35 50 92 51 86 52 88 53
REMARK SMILES IDX 36 54 91 55 85 56 84 57 37 59 71 60 50 61 70 62 51 63 54 64
REMARK SMILES IDX 69 65 89 66 52 67 53 68 68 70 90 71 55 72 38 73 39 74 48 75
REMARK SMILES IDX 40 76 41 77 47 78 49 79 42 80 43 81 44 82 45 83 46 84 72 85
REMARK SMILES IDX 73 86 82 87 74 88 75 89 81 90 83 91 76 92 77 93 78 94 79 95
REMARK SMILES IDX 80 96 56 97 57 98 66 99 58 100 59 101 65 102 67 103 60 104
REMARK SMILES IDX 61 105 62 106 63 107 64 108
REMARK H PARENT 1 25 1 26 88 58 54 69
REMARK Flexibility Score: inf
ROOT
ATOM      1  O   UNL A   1      43.093  34.556  40.177  1.00  0.00    -0.377 OA
ENDROOT
BRANCH   1   2
ATOM      2  C   UNL A   1      43.252  35.598  39.230  1.00  0.00     0.188 C 
BRANCH   2   3
ATOM      3  C   UNL A   1      41.966  35.940  38.441  1.00  0.00     0.188 C 
BRANCH   3   4
ATOM      4  O   UNL A   1      41.193  34.940  37.792  1.00  0.00    -0.376 OA
BRANCH   4   5
ATOM      5  C   UNL A   1      40.040  34.349  38.363  1.00  0.00     0.202 C 
BRANCH   5   6
ATOM      6  C   UNL A   1      39.863  32.835  38.574  1.00  0.00     0.261 C 
BRANCH   6   7
ATOM      7  O   UNL A   1      39.518  32.055  37.435  1.00  0.00    -0.458 OA
BRANCH   7   8
ATOM      8  C   UNL A   1      38.195  31.770  37.293  1.00  0.00     0.358 C 
ATOM      9  O   UNL A   1      37.460  31.388  38.196  1.00  0.00    -0.244 OA
BRANCH   8  10
ATOM     10  C   UNL A   1      37.745  32.075  35.928  1.00  0.00     0.171 A 
ATOM     11  N   UNL A   1      36.734  33.049  34.314  1.00  0.00    -0.231 N 
ATOM     12  N   UNL A   1      36.928  33.109  35.650  1.00  0.00    -0.160 NA
ATOM     13  C   UNL A   1      37.429  32.005  33.728  1.00  0.00     0.085 A 
ATOM     14  C   UNL A   1      38.157  31.424  34.741  1.00  0.00     0.068 A 
BRANCH  11  15
ATOM     15  C   UNL A   1      35.728  33.845  33.724  1.00  0.00     0.065 A 
ATOM     16  C   UNL A   1      33.782  35.280  32.376  1.00  0.00     0.082 A 
ATOM     17  C   UNL A   1      33.470  34.022  32.903  1.00  0.00     0.024 A 
ATOM     18  C   UNL A   1      35.057  35.836  32.544  1.00  0.00     0.024 A 
ATOM     19  C   UNL A   1      34.450  33.295  33.569  1.00  0.00     0.030 A 
ATOM     20  C   UNL A   1      36.035  35.123  33.245  1.00  0.00     0.030 A 
BRANCH  16  21
ATOM     21  S   UNL A   1      32.523  36.160  31.504  1.00  0.00     0.238 S 
ATOM     22  O   UNL A   1      31.468  36.513  32.419  1.00  0.00    -0.207 OA
ATOM     23  O   UNL A   1      32.272  35.487  30.246  1.00  0.00    -0.207 OA
BRANCH  21  24
ATOM     24  N   UNL A   1      33.265  37.615  31.118  1.00  0.00    -0.225 NA
ATOM     25  H   UNL A   1      33.435  38.148  31.971  1.00  0.00     0.137 HD
ATOM     26  H   UNL A   1      32.659  38.152  30.497  1.00  0.00     0.137 HD
ENDBRANCH  21  24
ENDBRANCH  16  21
ENDBRANCH  11  15
BRANCH  13  27
ATOM     27  C   UNL A   1      37.352  31.608  32.354  1.00  0.00     0.054 A 
ATOM     28  C   UNL A   1      37.599  32.430  31.270  1.00  0.00     0.024 A 
ATOM     29  S   UNL A   1      36.945  30.019  31.855  1.00  0.00    -0.122 S 
ATOM     30  C   UNL A   1      37.540  31.725  30.033  1.00  0.00     0.033 A 
ATOM     31  C   UNL A   1      37.211  30.410  30.231  1.00  0.00     0.094 A 
ATOM     32  Cl  UNL A   1      37.065  29.202  29.022  1.00  0.00    -0.072 Cl
ENDBRANCH  13  27
ENDBRANCH   8  10
ENDBRANCH   7   8
ENDBRANCH   6   7
ENDBRANCH   5   6
ENDBRANCH   4   5
ENDBRANCH   3   4
ENDBRANCH   2   3
ENDBRANCH   1   2
BRANCH   1  33
ATOM     33  C   UNL A   1      44.146  33.595  40.245  1.00  0.00     0.188 C 
BRANCH  33  34
ATOM     34  C   UNL A   1      44.827  33.128  38.932  1.00  0.00     0.188 C 
BRANCH  34  35
ATOM     35  O   UNL A   1      44.395  31.863  38.455  1.00  0.00    -0.376 OA
BRANCH  35  36
ATOM     36  C   UNL A   1      45.283  30.805  38.154  1.00  0.00     0.202 C 
BRANCH  36  37
ATOM     37  C   UNL A   1      44.968  29.408  38.674  1.00  0.00     0.261 C 
BRANCH  37  38
ATOM     38  O   UNL A   1      44.523  28.510  37.680  1.00  0.00    -0.460 OA
BRANCH  38  39
ATOM     39  C   UNL A   1      45.309  27.426  37.530  1.00  0.00     0.338 C 
ATOM     40  O   UNL A   1      45.895  26.813  38.402  1.00  0.00    -0.246 OA
BRANCH  39  41
ATOM     41  C   UNL A   1      45.491  27.213  36.097  1.00  0.00     0.060 A 
ATOM     42  C   UNL A   1      46.616  27.804  35.527  1.00  0.00     0.016 A 
ATOM     43  C   UNL A   1      44.391  26.783  35.337  1.00  0.00     0.016 A 
ATOM     44  C   UNL A   1      46.528  28.192  34.214  1.00  0.00     0.010 A 
ATOM     45  C   UNL A   1      44.296  27.195  34.036  1.00  0.00     0.010 A 
ATOM     46  C   UNL A   1      45.330  27.969  33.522  1.00  0.00    -0.014 A 
BRANCH  46  47
ATOM     47  C   UNL A   1      45.259  28.396  32.145  1.00  0.00     0.031 A 
ATOM     48  C   UNL A   1      44.502  29.659  32.052  1.00  0.00     0.074 A 
ATOM     49  C   UNL A   1      45.883  27.752  31.141  1.00  0.00     0.049 A 
ATOM     50  N   UNL A   1      43.277  29.793  31.672  1.00  0.00    -0.248 NA
ATOM     51  C   UNL A   1      45.051  30.853  32.723  1.00  0.00     0.031 C 
ATOM     52  C   UNL A   1      46.835  26.642  31.246  1.00  0.00     0.029 A 
ATOM     53  N   UNL A   1      45.867  28.011  29.804  1.00  0.00    -0.354 N 
ATOM     54  C   UNL A   1      43.038  31.159  31.741  1.00  0.00     0.074 A 
ATOM     55  C   UNL A   1      44.018  31.693  32.645  1.00  0.00     0.031 C 
ATOM     56  C   UNL A   1      47.470  26.483  30.062  1.00  0.00     0.029 A 
ATOM     57  C   UNL A   1      46.880  27.382  29.084  1.00  0.00     0.049 A 
ATOM     58  H   UNL A   1      45.195  28.595  29.382  1.00  0.00     0.167 HD
ATOM     59  C   UNL A   1      42.351  31.762  30.734  1.00  0.00     0.037 A 
ATOM     60  C   UNL A   1      47.219  27.623  27.791  1.00  0.00     0.037 A 
ATOM     61  C   UNL A   1      41.629  30.776  29.963  1.00  0.00     0.049 A 
ATOM     62  C   UNL A   1      46.032  28.237  27.146  1.00  0.00     0.074 A 
ATOM     63  C   UNL A   1      40.575  29.916  30.184  1.00  0.00     0.029 A 
ATOM     64  N   UNL A   1      42.330  30.298  28.885  1.00  0.00    -0.354 N 
ATOM     65  N   UNL A   1      44.916  27.591  26.941  1.00  0.00    -0.248 NA
ATOM     66  C   UNL A   1      45.931  29.690  27.072  1.00  0.00     0.031 C 
ATOM     67  C   UNL A   1      40.785  28.803  29.319  1.00  0.00     0.029 A 
ATOM     68  C   UNL A   1      41.926  29.035  28.551  1.00  0.00     0.049 A 
ATOM     69  H   UNL A   1      43.032  30.800  28.413  1.00  0.00     0.167 HD
ATOM     70  C   UNL A   1      43.929  28.533  27.158  1.00  0.00     0.074 A 
ATOM     71  C   UNL A   1      44.602  29.822  27.057  1.00  0.00     0.031 C 
ATOM     72  C   UNL A   1      42.742  28.168  27.727  1.00  0.00     0.037 A 
BRANCH  59  73
ATOM     73  C   UNL A   1      42.766  33.084  30.116  1.00  0.00     0.058 A 
ATOM     74  C   UNL A   1      41.772  34.048  29.856  1.00  0.00     0.135 A 
ATOM     75  C   UNL A   1      44.017  33.328  29.500  1.00  0.00     0.135 A 
ATOM     76  F   UNL A   1      40.537  33.910  30.366  1.00  0.00    -0.206 F 
ATOM     77  C   UNL A   1      41.988  35.139  29.010  1.00  0.00     0.059 A 
ATOM     78  C   UNL A   1      44.269  34.433  28.698  1.00  0.00     0.059 A 
ATOM     79  F   UNL A   1      45.038  32.468  29.556  1.00  0.00    -0.206 F 
ATOM     80  C   UNL A   1      43.242  35.318  28.433  1.00  0.00     0.060 A 
BRANCH  80  81
ATOM     81  S   UNL A   1      43.524  36.695  27.312  1.00  0.00     0.124 S 
ATOM     82  O   UNL A   1      42.599  36.384  26.229  1.00  0.00    -0.237 OA
ATOM     83  O   UNL A   1      43.172  37.838  28.150  1.00  0.00    -0.237 OA
ATOM     84  O   UNL A   1      44.943  36.578  26.988  1.00  0.00    -0.744 OA
ENDBRANCH  80  81
ENDBRANCH  59  73
BRANCH  60  85
ATOM     85  C   UNL A   1      48.556  27.614  27.135  1.00  0.00     0.058 A 
ATOM     86  C   UNL A   1      48.886  26.646  26.165  1.00  0.00     0.135 A 
ATOM     87  C   UNL A   1      49.418  28.725  27.213  1.00  0.00     0.135 A 
ATOM     88  F   UNL A   1      48.119  25.556  26.013  1.00  0.00    -0.206 F 
ATOM     89  C   UNL A   1      49.957  26.806  25.278  1.00  0.00     0.059 A 
ATOM     90  C   UNL A   1      50.497  28.902  26.344  1.00  0.00     0.059 A 
ATOM     91  F   UNL A   1      49.181  29.724  28.075  1.00  0.00    -0.206 F 
ATOM     92  C   UNL A   1      50.741  27.954  25.357  1.00  0.00     0.060 A 
BRANCH  92  93
ATOM     93  S   UNL A   1      51.994  28.267  24.088  1.00  0.00     0.124 S 
ATOM     94  O   UNL A   1      51.809  27.132  23.193  1.00  0.00    -0.237 OA
ATOM     95  O   UNL A   1      51.585  29.567  23.564  1.00  0.00    -0.237 OA
ATOM     96  O   UNL A   1      53.245  28.271  24.843  1.00  0.00    -0.744 OA
ENDBRANCH  92  93
ENDBRANCH  60  85
BRANCH  72  97
ATOM     97  C   UNL A   1      42.317  26.736  27.584  1.00  0.00     0.058 A 
ATOM     98  C   UNL A   1      42.586  25.708  28.505  1.00  0.00     0.135 A 
ATOM     99  C   UNL A   1      41.517  26.416  26.476  1.00  0.00     0.135 A 
ATOM    100  F   UNL A   1      43.271  25.953  29.631  1.00  0.00    -0.206 F 
ATOM    101  C   UNL A   1      42.110  24.410  28.307  1.00  0.00     0.059 A 
ATOM    102  C   UNL A   1      41.004  25.141  26.278  1.00  0.00     0.059 A 
ATOM    103  F   UNL A   1      41.188  27.368  25.588  1.00  0.00    -0.206 F 
ATOM    104  C   UNL A   1      41.318  24.137  27.189  1.00  0.00     0.060 A 
BRANCH 104 105
ATOM    105  S   UNL A   1      40.654  22.475  26.956  1.00  0.00     0.124 S 
ATOM    106  O   UNL A   1      41.461  21.974  25.849  1.00  0.00    -0.237 OA
ATOM    107  O   UNL A   1      40.899  21.852  28.254  1.00  0.00    -0.237 OA
ATOM    108  O   UNL A   1      39.246  22.711  26.645  1.00  0.00    -0.744 OA
ENDBRANCH 104 105
ENDBRANCH  72  97
ENDBRANCH  46  47
ENDBRANCH  39  41
ENDBRANCH  38  39
ENDBRANCH  37  38
ENDBRANCH  36  37
ENDBRANCH  35  36
ENDBRANCH  34  35
ENDBRANCH  33  34
ENDBRANCH   1  33
TORSDOF 27
ENDMDL
MODEL 3
REMARK VINA RESULT:      -8.7      1.924      2.859
REMARK SMILES NS(=O)(=O)c1ccc(-n2nc(C(=O)OCCOCCOCCOCCOC(=O)c3ccc(-c4c5nc(c(-c6c(F)cc(S(=O)(=O)[O-])cc6F)c6ccc([nH]6)c(-c6c(F)cc(S(=O)(=O)[O-])cc6F)c6nc(c(-c7c(F)cc(S(=O)(=O)[O-])cc7F)c7ccc4[nH]7)C=C6)C=C5)cc3)cc2-c2ccc(Cl)s2)cc1
REMARK SMILES IDX 20 1 19 2 18 3 17 4 16 5 15 6 14 7 12 8 13 9 11 10 9 11
REMARK SMILES IDX 10 12 96 13 95 14 8 15 5 16 6 17 104 18 7 19 103 20 2 21
REMARK SMILES IDX 3 22 4 23 1 24 97 27 98 28 102 29 99 30 100 31 101 32 21 33
REMARK SMILES IDX 22 34 23 35 24 36 25 37 26 38 27 39 28 40 29 41 30 42 94 43
REMARK SMILES IDX 31 44 93 45 32 46 33 47 34 48 87 49 35 50 92 51 86 52 88 53
REMARK SMILES IDX 36 54 91 55 85 56 84 57 37 59 71 60 50 61 70 62 51 63 54 64
REMARK SMILES IDX 69 65 89 66 52 67 53 68 68 70 90 71 55 72 38 73 39 74 48 75
REMARK SMILES IDX 40 76 41 77 47 78 49 79 42 80 43 81 44 82 45 83 46 84 72 85
REMARK SMILES IDX 73 86 82 87 74 88 75 89 81 90 83 91 76 92 77 93 78 94 79 95
REMARK SMILES IDX 80 96 56 97 57 98 66 99 58 100 59 101 65 102 67 103 60 104
REMARK SMILES IDX 61 105 62 106 63 107 64 108
REMARK H PARENT 1 25 1 26 88 58 54 69
REMARK Flexibility Score: inf
ROOT
ATOM      1  O   UNL A   1      35.156  22.351  26.464  1.00  0.00    -0.377 OA
ENDROOT
BRANCH   1   2
ATOM      2  C   UNL A   1      33.812  22.582  26.079  1.00  0.00     0.188 C 
BRANCH   2   3
ATOM      3  C   UNL A   1      33.342  24.044  26.264  1.00  0.00     0.188 C 
BRANCH   3   4
ATOM      4  O   UNL A   1      32.751  24.784  25.204  1.00  0.00    -0.376 OA
BRANCH   4   5
ATOM      5  C   UNL A   1      33.386  25.873  24.561  1.00  0.00     0.202 C 
BRANCH   5   6
ATOM      6  C   UNL A   1      33.809  27.168  25.276  1.00  0.00     0.261 C 
BRANCH   6   7
ATOM      7  O   UNL A   1      32.807  27.865  26.008  1.00  0.00    -0.458 OA
BRANCH   7   8
ATOM      8  C   UNL A   1      32.669  29.186  25.710  1.00  0.00     0.358 C 
ATOM      9  O   UNL A   1      31.949  29.632  24.825  1.00  0.00    -0.244 OA
BRANCH   8  10
ATOM     10  C   UNL A   1      33.431  30.010  26.658  1.00  0.00     0.171 A 
ATOM     11  N   UNL A   1      35.031  30.669  27.917  1.00  0.00    -0.231 N 
ATOM     12  N   UNL A   1      34.684  29.698  27.043  1.00  0.00    -0.160 NA
ATOM     13  C   UNL A   1      34.028  31.609  28.083  1.00  0.00     0.085 A 
ATOM     14  C   UNL A   1      33.027  31.249  27.210  1.00  0.00     0.068 A 
BRANCH  11  15
ATOM     15  C   UNL A   1      36.195  30.512  28.699  1.00  0.00     0.065 A 
ATOM     16  C   UNL A   1      38.565  30.078  30.062  1.00  0.00     0.082 A 
ATOM     17  C   UNL A   1      38.517  31.046  29.053  1.00  0.00     0.024 A 
ATOM     18  C   UNL A   1      37.425  29.342  30.411  1.00  0.00     0.024 A 
ATOM     19  C   UNL A   1      37.330  31.256  28.359  1.00  0.00     0.030 A 
ATOM     20  C   UNL A   1      36.220  29.576  29.740  1.00  0.00     0.030 A 
BRANCH  16  21
ATOM     21  S   UNL A   1      40.099  29.811  30.897  1.00  0.00     0.238 S 
ATOM     22  O   UNL A   1      39.990  30.287  32.253  1.00  0.00    -0.207 OA
ATOM     23  O   UNL A   1      41.181  30.202  30.018  1.00  0.00    -0.207 OA
BRANCH  21  24
ATOM     24  N   UNL A   1      40.182  28.140  31.031  1.00  0.00    -0.225 NA
ATOM     25  H   UNL A   1      41.139  27.832  30.861  1.00  0.00     0.137 HD
ATOM     26  H   UNL A   1      39.560  27.713  30.343  1.00  0.00     0.137 HD
ENDBRANCH  21  24
ENDBRANCH  16  21
ENDBRANCH  11  15
BRANCH  13  27
ATOM     27  C   UNL A   1      34.041  32.699  29.013  1.00  0.00     0.054 A 
ATOM     28  C   UNL A   1      34.551  32.647  30.296  1.00  0.00     0.024 A 
ATOM     29  S   UNL A   1      33.418  34.254  28.649  1.00  0.00    -0.122 S 
ATOM     30  C   UNL A   1      34.511  33.915  30.946  1.00  0.00     0.033 A 
ATOM     31  C   UNL A   1      33.933  34.861  30.141  1.00  0.00     0.094 A 
ATOM     32  Cl  UNL A   1      33.716  36.522  30.514  1.00  0.00    -0.072 Cl
ENDBRANCH  13  27
ENDBRANCH   8  10
ENDBRANCH   7   8
ENDBRANCH   6   7
ENDBRANCH   5   6
ENDBRANCH   4   5
ENDBRANCH   3   4
ENDBRANCH   2   3
ENDBRANCH   1   2
BRANCH   1  33
ATOM     33  C   UNL A   1      36.161  22.809  25.561  1.00  0.00     0.188 C 
BRANCH  33  34
ATOM     34  C   UNL A   1      36.511  21.947  24.321  1.00  0.00     0.188 C 
BRANCH  34  35
ATOM     35  O   UNL A   1      37.069  20.677  24.617  1.00  0.00    -0.376 OA
BRANCH  35  36
ATOM     36  C   UNL A   1      38.034  20.472  25.630  1.00  0.00     0.202 C 
BRANCH  36  37
ATOM     37  C   UNL A   1      39.360  21.215  25.545  1.00  0.00     0.261 C 
BRANCH  37  38
ATOM     38  O   UNL A   1      39.822  21.717  26.781  1.00  0.00    -0.460 OA
BRANCH  38  39
ATOM     39  C   UNL A   1      39.668  23.047  26.925  1.00  0.00     0.338 C 
ATOM     40  O   UNL A   1      38.624  23.660  27.049  1.00  0.00    -0.246 OA
BRANCH  39  41
ATOM     41  C   UNL A   1      40.977  23.663  26.725  1.00  0.00     0.060 A 
ATOM     42  C   UNL A   1      42.081  22.871  27.031  1.00  0.00     0.016 A 
ATOM     43  C   UNL A   1      41.050  25.061  26.616  1.00  0.00     0.016 A 
ATOM     44  C   UNL A   1      43.210  23.509  27.476  1.00  0.00     0.010 A 
ATOM     45  C   UNL A   1      42.169  25.694  27.086  1.00  0.00     0.010 A 
ATOM     46  C   UNL A   1      43.198  24.906  27.589  1.00  0.00    -0.014 A 
BRANCH  46  47
ATOM     47  C   UNL A   1      44.395  25.552  28.071  1.00  0.00     0.031 A 
ATOM     48  C   UNL A   1      44.402  25.559  29.546  1.00  0.00     0.074 A 
ATOM     49  C   UNL A   1      45.374  25.990  27.257  1.00  0.00     0.049 A 
ATOM     50  N   UNL A   1      44.112  26.556  30.311  1.00  0.00    -0.248 NA
ATOM     51  C   UNL A   1      44.441  24.262  30.248  1.00  0.00     0.031 C 
ATOM     52  C   UNL A   1      45.497  25.775  25.812  1.00  0.00     0.029 A 
ATOM     53  N   UNL A   1      46.524  26.652  27.563  1.00  0.00    -0.354 N 
ATOM     54  C   UNL A   1      44.281  26.068  31.599  1.00  0.00     0.074 A 
ATOM     55  C   UNL A   1      44.186  24.639  31.503  1.00  0.00     0.031 C 
ATOM     56  C   UNL A   1      46.752  26.091  25.417  1.00  0.00     0.029 A 
ATOM     57  C   UNL A   1      47.475  26.654  26.546  1.00  0.00     0.049 A 
ATOM     58  H   UNL A   1      46.671  27.093  28.432  1.00  0.00     0.167 HD
ATOM     59  C   UNL A   1      44.902  26.846  32.525  1.00  0.00     0.037 A 
ATOM     60  C   UNL A   1      48.769  27.054  26.652  1.00  0.00     0.037 A 
ATOM     61  C   UNL A   1      44.908  28.225  32.095  1.00  0.00     0.049 A 
ATOM     62  C   UNL A   1      48.839  27.963  27.823  1.00  0.00     0.074 A 
ATOM     63  C   UNL A   1      43.963  29.206  31.886  1.00  0.00     0.029 A 
ATOM     64  N   UNL A   1      46.029  28.578  31.388  1.00  0.00    -0.354 N 
ATOM     65  N   UNL A   1      48.264  29.134  27.854  1.00  0.00    -0.248 NA
ATOM     66  C   UNL A   1      49.217  27.423  29.124  1.00  0.00     0.031 C 
ATOM     67  C   UNL A   1      44.495  30.058  30.874  1.00  0.00     0.029 A 
ATOM     68  C   UNL A   1      45.771  29.613  30.532  1.00  0.00     0.049 A 
ATOM     69  H   UNL A   1      46.906  28.143  31.485  1.00  0.00     0.167 HD
ATOM     70  C   UNL A   1      47.817  29.264  29.154  1.00  0.00     0.074 A 
ATOM     71  C   UNL A   1      48.576  28.283  29.920  1.00  0.00     0.031 C 
ATOM     72  C   UNL A   1      46.645  29.915  29.418  1.00  0.00     0.037 A 
BRANCH  59  73
ATOM     73  C   UNL A   1      45.959  26.323  33.481  1.00  0.00     0.058 A 
ATOM     74  C   UNL A   1      47.122  25.735  32.943  1.00  0.00     0.135 A 
ATOM     75  C   UNL A   1      45.755  26.100  34.864  1.00  0.00     0.135 A 
ATOM     76  F   UNL A   1      47.407  25.858  31.637  1.00  0.00    -0.206 F 
ATOM     77  C   UNL A   1      47.984  24.945  33.708  1.00  0.00     0.059 A 
ATOM     78  C   UNL A   1      46.627  25.362  35.653  1.00  0.00     0.059 A 
ATOM     79  F   UNL A   1      44.657  26.496  35.513  1.00  0.00    -0.206 F 
ATOM     80  C   UNL A   1      47.723  24.763  35.063  1.00  0.00     0.060 A 
BRANCH  80  81
ATOM     81  S   UNL A   1      48.803  23.718  36.051  1.00  0.00     0.124 S 
ATOM     82  O   UNL A   1      49.362  24.682  36.990  1.00  0.00    -0.237 OA
ATOM     83  O   UNL A   1      47.859  22.752  36.604  1.00  0.00    -0.237 OA
ATOM     84  O   UNL A   1      49.736  23.176  35.066  1.00  0.00    -0.744 OA
ENDBRANCH  80  81
ENDBRANCH  59  73
BRANCH  60  85
ATOM     85  C   UNL A   1      49.994  26.519  25.996  1.00  0.00     0.058 A 
ATOM     86  C   UNL A   1      50.605  27.201  24.925  1.00  0.00     0.135 A 
ATOM     87  C   UNL A   1      50.763  25.503  26.598  1.00  0.00     0.135 A 
ATOM     88  F   UNL A   1      49.953  28.189  24.294  1.00  0.00    -0.206 F 
ATOM     89  C   UNL A   1      51.922  26.944  24.526  1.00  0.00     0.059 A 
ATOM     90  C   UNL A   1      52.075  25.225  26.211  1.00  0.00     0.059 A 
ATOM     91  F   UNL A   1      50.295  24.813  27.647  1.00  0.00    -0.206 F 
ATOM     92  C   UNL A   1      52.660  25.972  25.196  1.00  0.00     0.060 A 
BRANCH  92  93
ATOM     93  S   UNL A   1      54.422  25.778  24.826  1.00  0.00     0.124 S 
ATOM     94  O   UNL A   1      54.492  26.226  23.441  1.00  0.00    -0.237 OA
ATOM     95  O   UNL A   1      55.044  26.655  25.813  1.00  0.00    -0.237 OA
ATOM     96  O   UNL A   1      54.655  24.350  25.034  1.00  0.00    -0.744 OA
ENDBRANCH  92  93
ENDBRANCH  60  85
BRANCH  72  97
ATOM     97  C   UNL A   1      46.177  30.931  28.417  1.00  0.00     0.058 A 
ATOM     98  C   UNL A   1      45.247  30.696  27.389  1.00  0.00     0.135 A 
ATOM     99  C   UNL A   1      46.649  32.243  28.573  1.00  0.00     0.135 A 
ATOM    100  F   UNL A   1      44.686  29.489  27.228  1.00  0.00    -0.206 F 
ATOM    101  C   UNL A   1      44.838  31.719  26.530  1.00  0.00     0.059 A 
ATOM    102  C   UNL A   1      46.229  33.282  27.753  1.00  0.00     0.059 A 
ATOM    103  F   UNL A   1      47.502  32.537  29.568  1.00  0.00    -0.206 F 
ATOM    104  C   UNL A   1      45.336  33.010  26.721  1.00  0.00     0.060 A 
BRANCH 104 105
ATOM    105  S   UNL A   1      44.769  34.347  25.649  1.00  0.00     0.124 S 
ATOM    106  O   UNL A   1      45.798  35.361  25.853  1.00  0.00    -0.237 OA
ATOM    107  O   UNL A   1      44.753  33.713  24.334  1.00  0.00    -0.237 OA
ATOM    108  O   UNL A   1      43.450  34.679  26.186  1.00  0.00    -0.744 OA
ENDBRANCH 104 105
ENDBRANCH  72  97
ENDBRANCH  46  47
ENDBRANCH  39  41
ENDBRANCH  38  39
ENDBRANCH  37  38
ENDBRANCH  36  37
ENDBRANCH  35  36
ENDBRANCH  34  35
ENDBRANCH  33  34
ENDBRANCH   1  33
TORSDOF 27
ENDMDL
