MODEL 1
REMARK VINA RESULT:      -9.8      0.000      0.000
REMARK SMILES CC(C)c1cc(C(=O)N[C@@H](Cc2c[nH]c3ccccc23)C(=O)OCCOCCOCCOCCOC(=O)c2ccc(-c3c4nc(c(-c5c(F)cc(S(=O)(=O)[O-])cc5F)c5ccc([nH]5)c(-c5c(F)cc(S(=O)(=O)[O-])cc5F)c5nc(c(-c6c(F)cc(S(=O)(=O)[O-])cc6F)c6ccc3[nH]6)C=C5)C=C4)cc2)n(C)n1
REMARK SMILES IDX 29 1 28 2 27 3 26 4 25 5 24 6 23 7 21 8 22 9 10 10 9 11 7 12
REMARK SMILES IDX 8 13 6 15 4 16 5 17 106 18 104 19 105 20 2 21 1 22 3 23
REMARK SMILES IDX 11 24 12 25 13 26 20 27 14 28 15 29 19 30 16 32 18 33 17 34
REMARK SMILES IDX 30 35 31 36 32 37 33 38 34 39 35 40 36 41 37 42 38 43 39 44
REMARK SMILES IDX 103 45 40 46 102 47 41 48 42 49 43 50 96 51 44 52 101 53
REMARK SMILES IDX 95 54 97 55 45 56 100 57 94 58 93 59 46 61 80 62 59 63 79 64
REMARK SMILES IDX 60 65 63 66 78 67 98 68 61 69 62 70 77 72 99 73 64 74 47 75
REMARK SMILES IDX 48 76 57 77 49 78 50 79 56 80 58 81 51 82 52 83 53 84 54 85
REMARK SMILES IDX 55 86 81 87 82 88 91 89 83 90 84 91 90 92 92 93 85 94 86 95
REMARK SMILES IDX 87 96 88 97 89 98 65 99 66 100 75 101 67 102 68 103 74 104
REMARK SMILES IDX 76 105 69 106 70 107 71 108 72 109 73 110
REMARK H PARENT 9 14 14 31 97 60 63 71
REMARK Flexibility Score: inf
ROOT
ATOM      1  O   UNL A   1      41.096  23.225  27.647  1.00  0.00    -0.377 OA
ENDROOT
BRANCH   1   2
ATOM      2  C   UNL A   1      40.032  22.567  26.999  1.00  0.00     0.188 C 
BRANCH   2   3
ATOM      3  C   UNL A   1      38.870  23.464  26.551  1.00  0.00     0.188 C 
BRANCH   3   4
ATOM      4  O   UNL A   1      37.916  23.014  25.603  1.00  0.00    -0.376 OA
BRANCH   4   5
ATOM      5  C   UNL A   1      36.957  23.897  25.031  1.00  0.00     0.202 C 
BRANCH   5   6
ATOM      6  C   UNL A   1      35.699  23.404  24.298  1.00  0.00     0.261 C 
BRANCH   6   7
ATOM      7  O   UNL A   1      34.462  23.964  24.759  1.00  0.00    -0.462 OA
BRANCH   7   8
ATOM      8  C   UNL A   1      33.349  23.441  24.212  1.00  0.00     0.329 C 
ATOM      9  O   UNL A   1      32.872  23.784  23.130  1.00  0.00    -0.250 OA
BRANCH   8  10
ATOM     10  C   UNL A   1      32.663  22.353  25.049  1.00  0.00     0.197 C 
BRANCH  10  11
ATOM     11  N   UNL A   1      31.493  22.516  25.899  1.00  0.00    -0.337 N 
ATOM     12  C   UNL A   1      30.890  23.627  26.447  1.00  0.00     0.270 C 
ATOM     13  O   UNL A   1      30.097  23.357  27.357  1.00  0.00    -0.268 OA
ATOM     14  H   UNL A   1      31.047  21.669  26.126  1.00  0.00     0.164 HD
BRANCH  12  15
ATOM     15  C   UNL A   1      31.019  25.018  25.991  1.00  0.00     0.126 A 
ATOM     16  C   UNL A   1      31.809  27.142  25.962  1.00  0.00     0.066 A 
ATOM     17  C   UNL A   1      31.992  25.873  26.535  1.00  0.00     0.059 A 
ATOM     18  N   UNL A   1      30.755  27.130  25.157  1.00  0.00    -0.177 NA
ATOM     19  N   UNL A   1      30.400  25.837  25.063  1.00  0.00    -0.263 N 
ATOM     20  C   UNL A   1      29.561  25.582  23.918  1.00  0.00     0.174 C 
BRANCH  16  21
ATOM     21  C   UNL A   1      32.614  28.399  26.099  1.00  0.00     0.034 C 
ATOM     22  C   UNL A   1      31.840  29.438  26.924  1.00  0.00     0.014 C 
ATOM     23  C   UNL A   1      33.980  28.138  26.741  1.00  0.00     0.014 C 
ENDBRANCH  16  21
ENDBRANCH  12  15
ENDBRANCH  10  11
BRANCH  10  24
ATOM     24  C   UNL A   1      32.489  21.099  24.188  1.00  0.00     0.074 C 
BRANCH  24  25
ATOM     25  C   UNL A   1      33.619  20.146  24.406  1.00  0.00    -0.020 A 
ATOM     26  C   UNL A   1      34.932  20.454  24.702  1.00  0.00     0.087 A 
ATOM     27  C   UNL A   1      33.497  18.723  24.464  1.00  0.00     0.003 A 
ATOM     28  N   UNL A   1      35.595  19.282  24.958  1.00  0.00    -0.361 N 
ATOM     29  C   UNL A   1      34.741  18.214  24.824  1.00  0.00     0.046 A 
ATOM     30  C   UNL A   1      32.421  17.828  24.288  1.00  0.00     0.010 A 
ATOM     31  H   UNL A   1      36.547  19.216  25.203  1.00  0.00     0.166 HD
ATOM     32  C   UNL A   1      34.968  16.846  25.007  1.00  0.00     0.026 A 
ATOM     33  C   UNL A   1      32.629  16.459  24.470  1.00  0.00     0.001 A 
ATOM     34  C   UNL A   1      33.887  15.979  24.820  1.00  0.00     0.002 A 
ENDBRANCH  24  25
ENDBRANCH  10  24
ENDBRANCH   8  10
ENDBRANCH   7   8
ENDBRANCH   6   7
ENDBRANCH   5   6
ENDBRANCH   4   5
ENDBRANCH   3   4
ENDBRANCH   2   3
ENDBRANCH   1   2
BRANCH   1  35
ATOM     35  C   UNL A   1      42.390  22.648  27.545  1.00  0.00     0.188 C 
BRANCH  35  36
ATOM     36  C   UNL A   1      43.392  22.843  28.702  1.00  0.00     0.188 C 
BRANCH  36  37
ATOM     37  O   UNL A   1      44.755  22.924  28.312  1.00  0.00    -0.376 OA
BRANCH  37  38
ATOM     38  C   UNL A   1      45.077  23.041  26.934  1.00  0.00     0.202 C 
BRANCH  38  39
ATOM     39  C   UNL A   1      45.231  24.442  26.317  1.00  0.00     0.261 C 
BRANCH  39  40
ATOM     40  O   UNL A   1      44.091  25.312  26.379  1.00  0.00    -0.460 OA
BRANCH  40  41
ATOM     41  C   UNL A   1      44.282  26.635  26.208  1.00  0.00     0.338 C 
ATOM     42  O   UNL A   1      44.779  27.185  25.239  1.00  0.00    -0.246 OA
BRANCH  41  43
ATOM     43  C   UNL A   1      43.585  27.334  27.309  1.00  0.00     0.060 A 
ATOM     44  C   UNL A   1      43.701  28.727  27.411  1.00  0.00     0.016 A 
ATOM     45  C   UNL A   1      42.808  26.622  28.227  1.00  0.00     0.016 A 
ATOM     46  C   UNL A   1      43.077  29.408  28.456  1.00  0.00     0.010 A 
ATOM     47  C   UNL A   1      42.205  27.301  29.289  1.00  0.00     0.010 A 
ATOM     48  C   UNL A   1      42.371  28.692  29.429  1.00  0.00    -0.014 A 
BRANCH  48  49
ATOM     49  C   UNL A   1      42.002  29.355  30.704  1.00  0.00     0.031 A 
ATOM     50  C   UNL A   1      40.754  30.195  30.729  1.00  0.00     0.074 A 
ATOM     51  C   UNL A   1      42.737  29.200  31.818  1.00  0.00     0.049 A 
ATOM     52  N   UNL A   1      40.242  30.898  31.705  1.00  0.00    -0.248 NA
ATOM     53  C   UNL A   1      39.981  30.247  29.478  1.00  0.00     0.031 C 
ATOM     54  C   UNL A   1      43.930  28.366  31.938  1.00  0.00     0.029 A 
ATOM     55  N   UNL A   1      42.580  29.747  33.067  1.00  0.00    -0.354 N 
ATOM     56  C   UNL A   1      39.096  31.487  31.182  1.00  0.00     0.074 A 
ATOM     57  C   UNL A   1      39.010  31.088  29.794  1.00  0.00     0.031 C 
ATOM     58  C   UNL A   1      44.398  28.456  33.195  1.00  0.00     0.029 A 
ATOM     59  C   UNL A   1      43.561  29.382  33.957  1.00  0.00     0.049 A 
ATOM     60  H   UNL A   1      41.834  30.345  33.303  1.00  0.00     0.167 HD
ATOM     61  C   UNL A   1      38.191  32.282  31.803  1.00  0.00     0.037 A 
ATOM     62  C   UNL A   1      43.765  29.766  35.234  1.00  0.00     0.037 A 
ATOM     63  C   UNL A   1      38.293  32.688  33.181  1.00  0.00     0.049 A 
ATOM     64  C   UNL A   1      42.803  30.733  35.878  1.00  0.00     0.074 A 
ATOM     65  C   UNL A   1      37.427  33.482  33.911  1.00  0.00     0.029 A 
ATOM     66  N   UNL A   1      39.337  32.349  34.031  1.00  0.00    -0.354 N 
ATOM     67  N   UNL A   1      41.713  31.268  35.383  1.00  0.00    -0.248 NA
ATOM     68  C   UNL A   1      43.104  31.148  37.256  1.00  0.00     0.031 C 
ATOM     69  C   UNL A   1      37.980  33.677  35.182  1.00  0.00     0.029 A 
ATOM     70  C   UNL A   1      39.156  32.947  35.268  1.00  0.00     0.049 A 
ATOM     71  H   UNL A   1      40.094  31.768  33.791  1.00  0.00     0.167 HD
ATOM     72  C   UNL A   1      41.176  32.054  36.401  1.00  0.00     0.074 A 
ATOM     73  C   UNL A   1      42.064  31.920  37.538  1.00  0.00     0.031 C 
ATOM     74  C   UNL A   1      40.048  32.809  36.395  1.00  0.00     0.037 A 
BRANCH  61  75
ATOM     75  C   UNL A   1      37.049  32.803  30.970  1.00  0.00     0.058 A 
ATOM     76  C   UNL A   1      37.217  33.844  30.042  1.00  0.00     0.135 A 
ATOM     77  C   UNL A   1      35.758  32.271  31.126  1.00  0.00     0.135 A 
ATOM     78  F   UNL A   1      38.426  34.402  29.861  1.00  0.00    -0.206 F 
ATOM     79  C   UNL A   1      36.138  34.380  29.346  1.00  0.00     0.059 A 
ATOM     80  C   UNL A   1      34.671  32.766  30.413  1.00  0.00     0.059 A 
ATOM     81  F   UNL A   1      35.538  31.273  31.995  1.00  0.00    -0.206 F 
ATOM     82  C   UNL A   1      34.866  33.840  29.546  1.00  0.00     0.060 A 
BRANCH  82  83
ATOM     83  S   UNL A   1      33.468  34.580  28.677  1.00  0.00     0.124 S 
ATOM     84  O   UNL A   1      34.099  35.734  28.043  1.00  0.00    -0.237 OA
ATOM     85  O   UNL A   1      33.056  33.508  27.776  1.00  0.00    -0.237 OA
ATOM     86  O   UNL A   1      32.527  34.890  29.750  1.00  0.00    -0.744 OA
ENDBRANCH  82  83
ENDBRANCH  61  75
BRANCH  62  87
ATOM     87  C   UNL A   1      44.918  29.216  35.994  1.00  0.00     0.058 A 
ATOM     88  C   UNL A   1      46.188  29.805  35.898  1.00  0.00     0.135 A 
ATOM     89  C   UNL A   1      44.772  28.116  36.854  1.00  0.00     0.135 A 
ATOM     90  F   UNL A   1      46.382  30.847  35.075  1.00  0.00    -0.206 F 
ATOM     91  C   UNL A   1      47.270  29.330  36.632  1.00  0.00     0.059 A 
ATOM     92  C   UNL A   1      45.833  27.637  37.616  1.00  0.00     0.059 A 
ATOM     93  F   UNL A   1      43.577  27.518  36.987  1.00  0.00    -0.206 F 
ATOM     94  C   UNL A   1      47.078  28.253  37.500  1.00  0.00     0.060 A 
BRANCH  94  95
ATOM     95  S   UNL A   1      48.465  27.711  38.521  1.00  0.00     0.124 S 
ATOM     96  O   UNL A   1      48.079  26.342  38.842  1.00  0.00    -0.237 OA
ATOM     97  O   UNL A   1      49.591  27.861  37.604  1.00  0.00    -0.237 OA
ATOM     98  O   UNL A   1      48.446  28.653  39.636  1.00  0.00    -0.744 OA
ENDBRANCH  94  95
ENDBRANCH  62  87
BRANCH  74  99
ATOM     99  C   UNL A   1      39.680  33.525  37.669  1.00  0.00     0.058 A 
ATOM    100  C   UNL A   1      38.757  32.992  38.584  1.00  0.00     0.135 A 
ATOM    101  C   UNL A   1      40.306  34.737  38.006  1.00  0.00     0.135 A 
ATOM    102  F   UNL A   1      38.125  31.840  38.311  1.00  0.00    -0.206 F 
ATOM    103  C   UNL A   1      38.451  33.647  39.772  1.00  0.00     0.059 A 
ATOM    104  C   UNL A   1      40.039  35.392  39.204  1.00  0.00     0.059 A 
ATOM    105  F   UNL A   1      41.206  35.289  37.175  1.00  0.00    -0.206 F 
ATOM    106  C   UNL A   1      39.100  34.845  40.076  1.00  0.00     0.060 A 
BRANCH 106 107
ATOM    107  S   UNL A   1      38.717  35.666  41.638  1.00  0.00     0.124 S 
ATOM    108  O   UNL A   1      38.869  37.072  41.279  1.00  0.00    -0.237 OA
ATOM    109  O   UNL A   1      37.351  35.221  41.896  1.00  0.00    -0.237 OA
ATOM    110  O   UNL A   1      39.724  35.140  42.556  1.00  0.00    -0.744 OA
ENDBRANCH 106 107
ENDBRANCH  74  99
ENDBRANCH  48  49
ENDBRANCH  41  43
ENDBRANCH  40  41
ENDBRANCH  39  40
ENDBRANCH  38  39
ENDBRANCH  37  38
ENDBRANCH  36  37
ENDBRANCH  35  36
ENDBRANCH   1  35
TORSDOF 28
ENDMDL
MODEL 2
REMARK VINA RESULT:      -9.2      6.099      9.935
REMARK SMILES CC(C)c1cc(C(=O)N[C@@H](Cc2c[nH]c3ccccc23)C(=O)OCCOCCOCCOCCOC(=O)c2ccc(-c3c4nc(c(-c5c(F)cc(S(=O)(=O)[O-])cc5F)c5ccc([nH]5)c(-c5c(F)cc(S(=O)(=O)[O-])cc5F)c5nc(c(-c6c(F)cc(S(=O)(=O)[O-])cc6F)c6ccc3[nH]6)C=C5)C=C4)cc2)n(C)n1
REMARK SMILES IDX 29 1 28 2 27 3 26 4 25 5 24 6 23 7 21 8 22 9 10 10 9 11 7 12
REMARK SMILES IDX 8 13 6 15 4 16 5 17 106 18 104 19 105 20 2 21 1 22 3 23
REMARK SMILES IDX 11 24 12 25 13 26 20 27 14 28 15 29 19 30 16 32 18 33 17 34
REMARK SMILES IDX 30 35 31 36 32 37 33 38 34 39 35 40 36 41 37 42 38 43 39 44
REMARK SMILES IDX 103 45 40 46 102 47 41 48 42 49 43 50 96 51 44 52 101 53
REMARK SMILES IDX 95 54 97 55 45 56 100 57 94 58 93 59 46 61 80 62 59 63 79 64
REMARK SMILES IDX 60 65 63 66 78 67 98 68 61 69 62 70 77 72 99 73 64 74 47 75
REMARK SMILES IDX 48 76 57 77 49 78 50 79 56 80 58 81 51 82 52 83 53 84 54 85
REMARK SMILES IDX 55 86 81 87 82 88 91 89 83 90 84 91 90 92 92 93 85 94 86 95
REMARK SMILES IDX 87 96 88 97 89 98 65 99 66 100 75 101 67 102 68 103 74 104
REMARK SMILES IDX 76 105 69 106 70 107 71 108 72 109 73 110
REMARK H PARENT 9 14 14 31 97 60 63 71
REMARK Flexibility Score: inf
ROOT
ATOM      1  O   UNL A   1      38.948  22.899  26.327  1.00  0.00    -0.377 OA
ENDROOT
BRANCH   1   2
ATOM      2  C   UNL A   1      38.636  21.651  25.752  1.00  0.00     0.188 C 
BRANCH   2   3
ATOM      3  C   UNL A   1      37.279  21.569  25.039  1.00  0.00     0.188 C 
BRANCH   3   4
ATOM      4  O   UNL A   1      36.247  22.505  25.308  1.00  0.00    -0.376 OA
BRANCH   4   5
ATOM      5  C   UNL A   1      35.311  22.893  24.309  1.00  0.00     0.202 C 
BRANCH   5   6
ATOM      6  C   UNL A   1      34.083  23.768  24.609  1.00  0.00     0.261 C 
BRANCH   6   7
ATOM      7  O   UNL A   1      34.363  25.156  24.839  1.00  0.00    -0.462 OA
BRANCH   7   8
ATOM      8  C   UNL A   1      33.486  25.800  25.631  1.00  0.00     0.329 C 
ATOM      9  O   UNL A   1      32.614  25.251  26.304  1.00  0.00    -0.250 OA
BRANCH   8  10
ATOM     10  C   UNL A   1      33.624  27.328  25.646  1.00  0.00     0.197 C 
BRANCH  10  11
ATOM     11  N   UNL A   1      33.793  28.198  24.491  1.00  0.00    -0.337 N 
ATOM     12  C   UNL A   1      33.002  28.450  23.393  1.00  0.00     0.270 C 
ATOM     13  O   UNL A   1      33.603  29.016  22.472  1.00  0.00    -0.268 OA
ATOM     14  H   UNL A   1      34.638  28.705  24.497  1.00  0.00     0.164 HD
BRANCH  12  15
ATOM     15  C   UNL A   1      31.556  28.215  23.272  1.00  0.00     0.126 A 
ATOM     16  C   UNL A   1      29.360  28.748  23.105  1.00  0.00     0.066 A 
ATOM     17  C   UNL A   1      30.659  29.282  23.104  1.00  0.00     0.059 A 
ATOM     18  N   UNL A   1      29.405  27.440  23.325  1.00  0.00    -0.177 NA
ATOM     19  N   UNL A   1      30.710  27.120  23.260  1.00  0.00    -0.263 N 
ATOM     20  C   UNL A   1      30.916  25.708  23.050  1.00  0.00     0.174 C 
BRANCH  16  21
ATOM     21  C   UNL A   1      28.034  29.406  22.867  1.00  0.00     0.034 C 
ATOM     22  C   UNL A   1      26.906  28.566  23.485  1.00  0.00     0.014 C 
ATOM     23  C   UNL A   1      27.991  30.829  23.432  1.00  0.00     0.014 C 
ENDBRANCH  16  21
ENDBRANCH  12  15
ENDBRANCH  10  11
BRANCH  10  24
ATOM     24  C   UNL A   1      32.552  27.916  26.566  1.00  0.00     0.074 C 
BRANCH  24  25
ATOM     25  C   UNL A   1      32.778  29.378  26.778  1.00  0.00    -0.020 A 
ATOM     26  C   UNL A   1      31.856  30.398  26.644  1.00  0.00     0.087 A 
ATOM     27  C   UNL A   1      33.982  29.961  27.282  1.00  0.00     0.003 A 
ATOM     28  N   UNL A   1      32.446  31.560  27.068  1.00  0.00    -0.361 N 
ATOM     29  C   UNL A   1      33.739  31.319  27.466  1.00  0.00     0.046 A 
ATOM     30  C   UNL A   1      35.241  29.440  27.643  1.00  0.00     0.010 A 
ATOM     31  H   UNL A   1      32.006  32.441  27.086  1.00  0.00     0.166 HD
ATOM     32  C   UNL A   1      34.703  32.190  27.985  1.00  0.00     0.026 A 
ATOM     33  C   UNL A   1      36.214  30.295  28.167  1.00  0.00     0.001 A 
ATOM     34  C   UNL A   1      35.945  31.650  28.330  1.00  0.00     0.002 A 
ENDBRANCH  24  25
ENDBRANCH  10  24
ENDBRANCH   8  10
ENDBRANCH   7   8
ENDBRANCH   6   7
ENDBRANCH   5   6
ENDBRANCH   4   5
ENDBRANCH   3   4
ENDBRANCH   2   3
ENDBRANCH   1   2
BRANCH   1  35
ATOM     35  C   UNL A   1      40.130  22.989  27.110  1.00  0.00     0.188 C 
BRANCH  35  36
ATOM     36  C   UNL A   1      40.779  21.695  27.642  1.00  0.00     0.188 C 
BRANCH  36  37
ATOM     37  O   UNL A   1      42.153  21.534  27.324  1.00  0.00    -0.376 OA
BRANCH  37  38
ATOM     38  C   UNL A   1      42.733  22.352  26.317  1.00  0.00     0.202 C 
BRANCH  38  39
ATOM     39  C   UNL A   1      44.220  22.733  26.426  1.00  0.00     0.261 C 
BRANCH  39  40
ATOM     40  O   UNL A   1      44.522  24.086  26.797  1.00  0.00    -0.460 OA
BRANCH  40  41
ATOM     41  C   UNL A   1      45.815  24.440  26.938  1.00  0.00     0.338 C 
ATOM     42  O   UNL A   1      46.793  23.736  26.746  1.00  0.00    -0.246 OA
BRANCH  41  43
ATOM     43  C   UNL A   1      45.858  25.902  27.156  1.00  0.00     0.060 A 
ATOM     44  C   UNL A   1      46.351  26.394  28.372  1.00  0.00     0.016 A 
ATOM     45  C   UNL A   1      45.429  26.784  26.161  1.00  0.00     0.016 A 
ATOM     46  C   UNL A   1      46.376  27.767  28.614  1.00  0.00     0.010 A 
ATOM     47  C   UNL A   1      45.429  28.158  26.414  1.00  0.00     0.010 A 
ATOM     48  C   UNL A   1      45.867  28.652  27.657  1.00  0.00    -0.014 A 
BRANCH  48  49
ATOM     49  C   UNL A   1      45.577  30.056  28.037  1.00  0.00     0.031 A 
ATOM     50  C   UNL A   1      46.592  31.109  27.679  1.00  0.00     0.074 A 
ATOM     51  C   UNL A   1      44.438  30.399  28.661  1.00  0.00     0.049 A 
ATOM     52  N   UNL A   1      46.587  32.391  27.931  1.00  0.00    -0.248 NA
ATOM     53  C   UNL A   1      47.775  30.644  26.937  1.00  0.00     0.031 C 
ATOM     54  C   UNL A   1      43.353  29.485  29.007  1.00  0.00     0.029 A 
ATOM     55  N   UNL A   1      44.009  31.621  29.116  1.00  0.00    -0.354 N 
ATOM     56  C   UNL A   1      47.769  32.885  27.390  1.00  0.00     0.074 A 
ATOM     57  C   UNL A   1      48.482  31.757  26.831  1.00  0.00     0.031 C 
ATOM     58  C   UNL A   1      42.378  30.179  29.620  1.00  0.00     0.029 A 
ATOM     59  C   UNL A   1      42.787  31.578  29.744  1.00  0.00     0.049 A 
ATOM     60  H   UNL A   1      44.527  32.450  29.002  1.00  0.00     0.167 HD
ATOM     61  C   UNL A   1      48.218  34.163  27.354  1.00  0.00     0.037 A 
ATOM     62  C   UNL A   1      42.091  32.555  30.360  1.00  0.00     0.037 A 
ATOM     63  C   UNL A   1      47.510  35.278  27.927  1.00  0.00     0.049 A 
ATOM     64  C   UNL A   1      42.654  33.954  30.400  1.00  0.00     0.074 A 
ATOM     65  C   UNL A   1      47.869  36.613  27.937  1.00  0.00     0.029 A 
ATOM     66  N   UNL A   1      46.306  35.183  28.612  1.00  0.00    -0.354 N 
ATOM     67  N   UNL A   1      43.762  34.414  29.869  1.00  0.00    -0.248 NA
ATOM     68  C   UNL A   1      41.870  34.963  31.124  1.00  0.00     0.031 C 
ATOM     69  C   UNL A   1      46.916  37.316  28.684  1.00  0.00     0.029 A 
ATOM     70  C   UNL A   1      45.925  36.431  29.080  1.00  0.00     0.049 A 
ATOM     71  H   UNL A   1      45.796  34.351  28.745  1.00  0.00     0.167 HD
ATOM     72  C   UNL A   1      43.790  35.776  30.164  1.00  0.00     0.074 A 
ATOM     73  C   UNL A   1      42.586  36.060  30.917  1.00  0.00     0.031 C 
ATOM     74  C   UNL A   1      44.724  36.704  29.833  1.00  0.00     0.037 A 
BRANCH  61  75
ATOM     75  C   UNL A   1      49.564  34.400  26.720  1.00  0.00     0.058 A 
ATOM     76  C   UNL A   1      50.763  34.255  27.437  1.00  0.00     0.135 A 
ATOM     77  C   UNL A   1      49.652  34.810  25.379  1.00  0.00     0.135 A 
ATOM     78  F   UNL A   1      50.739  33.880  28.727  1.00  0.00    -0.206 F 
ATOM     79  C   UNL A   1      51.994  34.566  26.869  1.00  0.00     0.059 A 
ATOM     80  C   UNL A   1      50.876  35.091  24.778  1.00  0.00     0.059 A 
ATOM     81  F   UNL A   1      48.541  34.962  24.643  1.00  0.00    -0.206 F 
ATOM     82  C   UNL A   1      52.039  34.993  25.540  1.00  0.00     0.060 A 
BRANCH  82  83
ATOM     83  S   UNL A   1      53.636  35.446  24.833  1.00  0.00     0.124 S 
ATOM     84  O   UNL A   1      53.914  36.701  25.524  1.00  0.00    -0.237 OA
ATOM     85  O   UNL A   1      54.477  34.314  25.211  1.00  0.00    -0.237 OA
ATOM     86  O   UNL A   1      53.355  35.565  23.405  1.00  0.00    -0.744 OA
ENDBRANCH  82  83
ENDBRANCH  61  75
BRANCH  62  87
ATOM     87  C   UNL A   1      40.771  32.246  30.971  1.00  0.00     0.058 A 
ATOM     88  C   UNL A   1      39.579  32.533  30.287  1.00  0.00     0.135 A 
ATOM     89  C   UNL A   1      40.671  31.632  32.229  1.00  0.00     0.135 A 
ATOM     90  F   UNL A   1      39.622  33.136  29.089  1.00  0.00    -0.206 F 
ATOM     91  C   UNL A   1      38.336  32.215  30.824  1.00  0.00     0.059 A 
ATOM     92  C   UNL A   1      39.440  31.283  32.776  1.00  0.00     0.059 A 
ATOM     93  F   UNL A   1      41.780  31.332  32.923  1.00  0.00    -0.206 F 
ATOM     94  C   UNL A   1      38.279  31.577  32.065  1.00  0.00     0.060 A 
BRANCH  94  95
ATOM     95  S   UNL A   1      36.664  31.079  32.704  1.00  0.00     0.124 S 
ATOM     96  O   UNL A   1      35.760  31.833  31.844  1.00  0.00    -0.237 OA
ATOM     97  O   UNL A   1      36.690  29.634  32.496  1.00  0.00    -0.237 OA
ATOM     98  O   UNL A   1      36.713  31.503  34.100  1.00  0.00    -0.744 OA
ENDBRANCH  94  95
ENDBRANCH  62  87
BRANCH  74  99
ATOM     99  C   UNL A   1      44.468  38.130  30.247  1.00  0.00     0.058 A 
ATOM    100  C   UNL A   1      44.983  38.663  31.440  1.00  0.00     0.135 A 
ATOM    101  C   UNL A   1      43.744  38.993  29.406  1.00  0.00     0.135 A 
ATOM    102  F   UNL A   1      45.677  37.884  32.284  1.00  0.00    -0.206 F 
ATOM    103  C   UNL A   1      44.767  39.991  31.795  1.00  0.00     0.059 A 
ATOM    104  C   UNL A   1      43.545  40.332  29.727  1.00  0.00     0.059 A 
ATOM    105  F   UNL A   1      43.237  38.540  28.248  1.00  0.00    -0.206 F 
ATOM    106  C   UNL A   1      44.050  40.820  30.929  1.00  0.00     0.060 A 
BRANCH 106 107
ATOM    107  S   UNL A   1      43.809  42.549  31.388  1.00  0.00     0.124 S 
ATOM    108  O   UNL A   1      44.793  43.219  30.544  1.00  0.00    -0.237 OA
ATOM    109  O   UNL A   1      42.411  42.773  31.034  1.00  0.00    -0.237 OA
ATOM    110  O   UNL A   1      44.096  42.565  32.820  1.00  0.00    -0.744 OA
ENDBRANCH 106 107
ENDBRANCH  74  99
ENDBRANCH  48  49
ENDBRANCH  41  43
ENDBRANCH  40  41
ENDBRANCH  39  40
ENDBRANCH  38  39
ENDBRANCH  37  38
ENDBRANCH  36  37
ENDBRANCH  35  36
ENDBRANCH   1  35
TORSDOF 28
ENDMDL
MODEL 3
REMARK VINA RESULT:      -8.9      4.599      9.972
REMARK SMILES CC(C)c1cc(C(=O)N[C@@H](Cc2c[nH]c3ccccc23)C(=O)OCCOCCOCCOCCOC(=O)c2ccc(-c3c4nc(c(-c5c(F)cc(S(=O)(=O)[O-])cc5F)c5ccc([nH]5)c(-c5c(F)cc(S(=O)(=O)[O-])cc5F)c5nc(c(-c6c(F)cc(S(=O)(=O)[O-])cc6F)c6ccc3[nH]6)C=C5)C=C4)cc2)n(C)n1
REMARK SMILES IDX 29 1 28 2 27 3 26 4 25 5 24 6 23 7 21 8 22 9 10 10 9 11 7 12
REMARK SMILES IDX 8 13 6 15 4 16 5 17 106 18 104 19 105 20 2 21 1 22 3 23
REMARK SMILES IDX 11 24 12 25 13 26 20 27 14 28 15 29 19 30 16 32 18 33 17 34
REMARK SMILES IDX 30 35 31 36 32 37 33 38 34 39 35 40 36 41 37 42 38 43 39 44
REMARK SMILES IDX 103 45 40 46 102 47 41 48 42 49 43 50 96 51 44 52 101 53
REMARK SMILES IDX 95 54 97 55 45 56 100 57 94 58 93 59 46 61 80 62 59 63 79 64
REMARK SMILES IDX 60 65 63 66 78 67 98 68 61 69 62 70 77 72 99 73 64 74 47 75
REMARK SMILES IDX 48 76 57 77 49 78 50 79 56 80 58 81 51 82 52 83 53 84 54 85
REMARK SMILES IDX 55 86 81 87 82 88 91 89 83 90 84 91 90 92 92 93 85 94 86 95
REMARK SMILES IDX 87 96 88 97 89 98 65 99 66 100 75 101 67 102 68 103 74 104
REMARK SMILES IDX 76 105 69 106 70 107 71 108 72 109 73 110
REMARK H PARENT 9 14 14 31 97 60 63 71
REMARK Flexibility Score: inf
ROOT
ATOM      1  O   UNL A   1      33.724  29.491  27.275  1.00  0.00    -0.377 OA
ENDROOT
BRANCH   1   2
ATOM      2  C   UNL A   1      33.351  28.611  26.240  1.00  0.00     0.188 C 
BRANCH   2   3
ATOM      3  C   UNL A   1      33.123  29.260  24.867  1.00  0.00     0.188 C 
BRANCH   3   4
ATOM      4  O   UNL A   1      33.035  28.476  23.688  1.00  0.00    -0.376 OA
BRANCH   4   5
ATOM      5  C   UNL A   1      33.939  27.407  23.432  1.00  0.00     0.202 C 
BRANCH   5   6
ATOM      6  C   UNL A   1      33.474  25.995  23.038  1.00  0.00     0.261 C 
BRANCH   6   7
ATOM      7  O   UNL A   1      32.098  25.891  22.646  1.00  0.00    -0.462 OA
BRANCH   7   8
ATOM      8  C   UNL A   1      31.429  24.839  23.154  1.00  0.00     0.329 C 
ATOM      9  O   UNL A   1      31.497  23.689  22.721  1.00  0.00    -0.250 OA
BRANCH   8  10
ATOM     10  C   UNL A   1      30.522  25.162  24.349  1.00  0.00     0.197 C 
BRANCH  10  11
ATOM     11  N   UNL A   1      30.550  24.529  25.659  1.00  0.00    -0.337 N 
ATOM     12  C   UNL A   1      31.286  23.484  26.172  1.00  0.00     0.270 C 
ATOM     13  O   UNL A   1      30.828  23.030  27.227  1.00  0.00    -0.268 OA
ATOM     14  H   UNL A   1      29.920  24.926  26.305  1.00  0.00     0.164 HD
BRANCH  12  15
ATOM     15  C   UNL A   1      32.560  22.965  25.657  1.00  0.00     0.126 A 
ATOM     16  C   UNL A   1      34.733  23.023  25.015  1.00  0.00     0.066 A 
ATOM     17  C   UNL A   1      33.714  23.766  25.632  1.00  0.00     0.059 A 
ATOM     18  N   UNL A   1      34.261  21.852  24.609  1.00  0.00    -0.177 NA
ATOM     19  N   UNL A   1      33.027  21.770  25.137  1.00  0.00    -0.263 N 
ATOM     20  C   UNL A   1      32.532  20.416  25.164  1.00  0.00     0.174 C 
BRANCH  16  21
ATOM     21  C   UNL A   1      36.184  23.340  24.809  1.00  0.00     0.034 C 
ATOM     22  C   UNL A   1      37.037  22.645  25.882  1.00  0.00     0.014 C 
ATOM     23  C   UNL A   1      36.667  22.930  23.415  1.00  0.00     0.014 C 
ENDBRANCH  16  21
ENDBRANCH  12  15
ENDBRANCH  10  11
BRANCH  10  24
ATOM     24  C   UNL A   1      30.451  26.681  24.524  1.00  0.00     0.074 C 
BRANCH  24  25
ATOM     25  C   UNL A   1      29.198  27.226  23.921  1.00  0.00    -0.020 A 
ATOM     26  C   UNL A   1      27.906  26.782  24.123  1.00  0.00     0.087 A 
ATOM     27  C   UNL A   1      29.117  28.402  23.111  1.00  0.00     0.003 A 
ATOM     28  N   UNL A   1      27.055  27.652  23.491  1.00  0.00    -0.361 N 
ATOM     29  C   UNL A   1      27.769  28.650  22.872  1.00  0.00     0.046 A 
ATOM     30  C   UNL A   1      30.075  29.303  22.602  1.00  0.00     0.010 A 
ATOM     31  H   UNL A   1      26.074  27.573  23.483  1.00  0.00     0.166 HD
ATOM     32  C   UNL A   1      27.328  29.753  22.135  1.00  0.00     0.026 A 
ATOM     33  C   UNL A   1      29.652  30.413  21.868  1.00  0.00     0.001 A 
ATOM     34  C   UNL A   1      28.297  30.629  21.636  1.00  0.00     0.002 A 
ENDBRANCH  24  25
ENDBRANCH  10  24
ENDBRANCH   8  10
ENDBRANCH   7   8
ENDBRANCH   6   7
ENDBRANCH   5   6
ENDBRANCH   4   5
ENDBRANCH   3   4
ENDBRANCH   2   3
ENDBRANCH   1   2
BRANCH   1  35
ATOM     35  C   UNL A   1      33.485  30.877  27.084  1.00  0.00     0.188 C 
BRANCH  35  36
ATOM     36  C   UNL A   1      34.121  31.890  28.058  1.00  0.00     0.188 C 
BRANCH  36  37
ATOM     37  O   UNL A   1      35.365  31.492  28.614  1.00  0.00    -0.376 OA
BRANCH  37  38
ATOM     38  C   UNL A   1      35.686  31.873  29.944  1.00  0.00     0.202 C 
BRANCH  38  39
ATOM     39  C   UNL A   1      36.064  33.337  30.234  1.00  0.00     0.261 C 
BRANCH  39  40
ATOM     40  O   UNL A   1      35.304  34.021  31.240  1.00  0.00    -0.460 OA
BRANCH  40  41
ATOM     41  C   UNL A   1      34.904  33.330  32.326  1.00  0.00     0.338 C 
ATOM     42  O   UNL A   1      33.838  32.754  32.477  1.00  0.00    -0.246 OA
BRANCH  41  43
ATOM     43  C   UNL A   1      36.068  33.200  33.229  1.00  0.00     0.060 A 
ATOM     44  C   UNL A   1      36.564  31.922  33.519  1.00  0.00     0.016 A 
ATOM     45  C   UNL A   1      36.676  34.333  33.775  1.00  0.00     0.016 A 
ATOM     46  C   UNL A   1      37.642  31.770  34.390  1.00  0.00     0.010 A 
ATOM     47  C   UNL A   1      37.739  34.179  34.668  1.00  0.00     0.010 A 
ATOM     48  C   UNL A   1      38.201  32.894  35.008  1.00  0.00    -0.014 A 
BRANCH  48  49
ATOM     49  C   UNL A   1      39.102  32.718  36.174  1.00  0.00     0.031 A 
ATOM     50  C   UNL A   1      40.573  32.546  35.910  1.00  0.00     0.074 A 
ATOM     51  C   UNL A   1      38.638  32.734  37.435  1.00  0.00     0.049 A 
ATOM     52  N   UNL A   1      41.553  32.342  36.750  1.00  0.00    -0.248 NA
ATOM     53  C   UNL A   1      40.992  32.610  34.500  1.00  0.00     0.031 C 
ATOM     54  C   UNL A   1      37.247  32.953  37.823  1.00  0.00     0.029 A 
ATOM     55  N   UNL A   1      39.298  32.559  38.625  1.00  0.00    -0.354 N 
ATOM     56  C   UNL A   1      42.702  32.241  35.973  1.00  0.00     0.074 A 
ATOM     57  C   UNL A   1      42.289  32.369  34.592  1.00  0.00     0.031 C 
ATOM     58  C   UNL A   1      37.157  32.900  39.164  1.00  0.00     0.029 A 
ATOM     59  C   UNL A   1      38.475  32.607  39.725  1.00  0.00     0.049 A 
ATOM     60  H   UNL A   1      40.270  32.414  38.686  1.00  0.00     0.167 HD
ATOM     61  C   UNL A   1      43.984  32.067  36.371  1.00  0.00     0.037 A 
ATOM     62  C   UNL A   1      38.756  32.419  41.030  1.00  0.00     0.037 A 
ATOM     63  C   UNL A   1      44.384  31.924  37.747  1.00  0.00     0.049 A 
ATOM     64  C   UNL A   1      40.175  32.124  41.447  1.00  0.00     0.074 A 
ATOM     65  C   UNL A   1      45.656  31.754  38.261  1.00  0.00     0.029 A 
ATOM     66  N   UNL A   1      43.512  31.913  38.828  1.00  0.00    -0.354 N 
ATOM     67  N   UNL A   1      41.256  32.051  40.708  1.00  0.00    -0.248 NA
ATOM     68  C   UNL A   1      40.410  31.885  42.878  1.00  0.00     0.031 C 
ATOM     69  C   UNL A   1      45.548  31.574  39.645  1.00  0.00     0.029 A 
ATOM     70  C   UNL A   1      44.215  31.703  40.004  1.00  0.00     0.049 A 
ATOM     71  H   UNL A   1      42.538  32.038  38.768  1.00  0.00     0.167 HD
ATOM     72  C   UNL A   1      42.306  31.794  41.587  1.00  0.00     0.074 A 
ATOM     73  C   UNL A   1      41.726  31.728  42.914  1.00  0.00     0.031 C 
ATOM     74  C   UNL A   1      43.627  31.636  41.321  1.00  0.00     0.037 A 
BRANCH  61  75
ATOM     75  C   UNL A   1      45.030  31.965  35.292  1.00  0.00     0.058 A 
ATOM     76  C   UNL A   1      45.638  33.101  34.732  1.00  0.00     0.135 A 
ATOM     77  C   UNL A   1      45.407  30.709  34.787  1.00  0.00     0.135 A 
ATOM     78  F   UNL A   1      45.305  34.329  35.163  1.00  0.00    -0.206 F 
ATOM     79  C   UNL A   1      46.533  33.000  33.671  1.00  0.00     0.059 A 
ATOM     80  C   UNL A   1      46.329  30.582  33.752  1.00  0.00     0.059 A 
ATOM     81  F   UNL A   1      44.863  29.589  35.286  1.00  0.00    -0.206 F 
ATOM     82  C   UNL A   1      46.865  31.735  33.182  1.00  0.00     0.060 A 
BRANCH  82  83
ATOM     83  S   UNL A   1      47.985  31.622  31.772  1.00  0.00     0.124 S 
ATOM     84  O   UNL A   1      48.491  32.989  31.693  1.00  0.00    -0.237 OA
ATOM     85  O   UNL A   1      48.945  30.616  32.214  1.00  0.00    -0.237 OA
ATOM     86  O   UNL A   1      47.112  31.213  30.676  1.00  0.00    -0.744 OA
ENDBRANCH  82  83
ENDBRANCH  61  75
BRANCH  62  87
ATOM     87  C   UNL A   1      37.671  32.528  42.041  1.00  0.00     0.058 A 
ATOM     88  C   UNL A   1      37.059  31.378  42.563  1.00  0.00     0.135 A 
ATOM     89  C   UNL A   1      37.246  33.773  42.529  1.00  0.00     0.135 A 
ATOM     90  F   UNL A   1      37.419  30.166  42.115  1.00  0.00    -0.206 F 
ATOM     91  C   UNL A   1      36.070  31.457  43.538  1.00  0.00     0.059 A 
ATOM     92  C   UNL A   1      36.276  33.877  43.521  1.00  0.00     0.059 A 
ATOM     93  F   UNL A   1      37.802  34.904  42.067  1.00  0.00    -0.206 F 
ATOM     94  C   UNL A   1      35.696  32.713  44.021  1.00  0.00     0.060 A 
BRANCH  94  95
ATOM     95  S   UNL A   1      34.484  32.795  45.358  1.00  0.00     0.124 S 
ATOM     96  O   UNL A   1      33.859  31.481  45.273  1.00  0.00    -0.237 OA
ATOM     97  O   UNL A   1      35.335  33.026  46.521  1.00  0.00    -0.237 OA
ATOM     98  O   UNL A   1      33.641  33.924  44.974  1.00  0.00    -0.744 OA
ENDBRANCH  94  95
ENDBRANCH  62  87
BRANCH  74  99
ATOM     99  C   UNL A   1      44.553  31.414  42.488  1.00  0.00     0.058 A 
ATOM    100  C   UNL A   1      45.071  32.478  43.243  1.00  0.00     0.135 A 
ATOM    101  C   UNL A   1      44.882  30.108  42.893  1.00  0.00     0.135 A 
ATOM    102  F   UNL A   1      44.795  33.746  42.900  1.00  0.00    -0.206 F 
ATOM    103  C   UNL A   1      45.899  32.258  44.340  1.00  0.00     0.059 A 
ATOM    104  C   UNL A   1      45.681  29.864  44.005  1.00  0.00     0.059 A 
ATOM    105  F   UNL A   1      44.407  29.050  42.215  1.00  0.00    -0.206 F 
ATOM    106  C   UNL A   1      46.195  30.946  44.716  1.00  0.00     0.060 A 
BRANCH 106 107
ATOM    107  S   UNL A   1      47.243  30.676  46.161  1.00  0.00     0.124 S 
ATOM    108  O   UNL A   1      47.345  32.025  46.708  1.00  0.00    -0.237 OA
ATOM    109  O   UNL A   1      46.455  29.730  46.945  1.00  0.00    -0.237 OA
ATOM    110  O   UNL A   1      48.475  30.136  45.592  1.00  0.00    -0.744 OA
ENDBRANCH 106 107
ENDBRANCH  74  99
ENDBRANCH  48  49
ENDBRANCH  41  43
ENDBRANCH  40  41
ENDBRANCH  39  40
ENDBRANCH  38  39
ENDBRANCH  37  38
ENDBRANCH  36  37
ENDBRANCH  35  36
ENDBRANCH   1  35
TORSDOF 28
ENDMDL
