MODEL 1
REMARK VINA RESULT:      -8.8      0.000      0.000
REMARK SMILES CC[C@@H](CNC(=O)NCc1c(C)noc1C)C(=O)OCCOCCOCCOCCOC(=O)c1ccc(-c2c3nc(c(-c4c(F)cc(S(=O)(=O)[O-])cc4F)c4ccc([nH]4)c(-c4c(F)cc(S(=O)(=O)[O-])cc4F)c4nc(c(-c5c(F)cc(S(=O)(=O)[O-])cc5F)c5ccc2[nH]5)C=C4)C=C3)cc1
REMARK SMILES IDX 24 1 23 2 22 3 21 4 20 5 19 6 17 7 18 8 3 9 2 10 1 11 4 12
REMARK SMILES IDX 5 13 6 14 7 16 8 17 9 19 10 20 11 21 15 22 12 23 13 24 14 25
REMARK SMILES IDX 16 26 25 27 26 28 27 29 28 30 29 31 30 32 31 33 32 34 33 35
REMARK SMILES IDX 34 36 35 37 99 38 36 39 98 40 37 41 38 42 39 43 92 44 40 45
REMARK SMILES IDX 97 46 91 47 93 48 41 49 96 50 90 51 89 52 42 54 76 55 55 56
REMARK SMILES IDX 75 57 56 58 59 59 74 60 94 61 57 62 58 63 73 65 95 66 60 67
REMARK SMILES IDX 43 68 44 69 53 70 45 71 46 72 52 73 54 74 47 75 48 76 49 77
REMARK SMILES IDX 50 78 51 79 77 80 78 81 87 82 79 83 80 84 86 85 88 86 81 87
REMARK SMILES IDX 82 88 83 89 84 90 85 91 61 92 62 93 71 94 63 95 64 96 70 97
REMARK SMILES IDX 72 98 65 99 66 100 67 101 68 102 69 103
REMARK H PARENT 5 15 8 18 93 53 59 64
REMARK Flexibility Score: inf
ROOT
ATOM      1  C   UNL A   1      35.275  31.401  27.596  1.00  0.00     0.188 C 
ENDROOT
BRANCH   1   2
ATOM      2  C   UNL A   1      33.856  31.114  28.107  1.00  0.00     0.188 C 
BRANCH   2   3
ATOM      3  O   UNL A   1      32.731  31.056  27.248  1.00  0.00    -0.376 OA
BRANCH   3   4
ATOM      4  C   UNL A   1      32.753  30.427  25.976  1.00  0.00     0.202 C 
BRANCH   4   5
ATOM      5  C   UNL A   1      32.598  28.911  25.793  1.00  0.00     0.261 C 
BRANCH   5   6
ATOM      6  O   UNL A   1      31.382  28.423  25.202  1.00  0.00    -0.463 OA
BRANCH   6   7
ATOM      7  C   UNL A   1      31.274  28.560  23.862  1.00  0.00     0.310 C 
ATOM      8  O   UNL A   1      32.155  29.020  23.139  1.00  0.00    -0.252 OA
BRANCH   7   9
ATOM      9  C   UNL A   1      29.915  28.198  23.295  1.00  0.00     0.118 C 
BRANCH   9  10
ATOM     10  C   UNL A   1      29.237  29.200  22.343  1.00  0.00     0.014 C 
ATOM     11  C   UNL A   1      28.435  30.247  23.116  1.00  0.00     0.005 C 
ENDBRANCH   9  10
BRANCH   9  12
ATOM     12  C   UNL A   1      29.999  26.783  22.719  1.00  0.00     0.133 C 
BRANCH  12  13
ATOM     13  N   UNL A   1      31.274  26.508  22.089  1.00  0.00    -0.337 N 
ATOM     14  C   UNL A   1      32.146  25.497  22.145  1.00  0.00     0.315 C 
ATOM     15  H   UNL A   1      31.565  27.229  21.484  1.00  0.00     0.165 HD
ATOM     16  O   UNL A   1      33.239  25.654  21.601  1.00  0.00    -0.249 OA
ATOM     17  N   UNL A   1      31.913  24.322  22.732  1.00  0.00    -0.334 N 
ATOM     18  H   UNL A   1      32.692  23.722  22.682  1.00  0.00     0.165 HD
BRANCH  17  19
ATOM     19  C   UNL A   1      30.802  23.714  23.421  1.00  0.00     0.159 C 
BRANCH  19  20
ATOM     20  C   UNL A   1      31.042  23.503  24.868  1.00  0.00     0.037 A 
ATOM     21  C   UNL A   1      30.632  24.251  26.005  1.00  0.00     0.086 A 
ATOM     22  C   UNL A   1      31.773  22.465  25.414  1.00  0.00     0.138 A 
ATOM     23  C   UNL A   1      29.859  25.516  26.060  1.00  0.00     0.071 C 
ATOM     24  N   UNL A   1      31.061  23.687  27.142  1.00  0.00    -0.085 NA
ATOM     25  O   UNL A   1      31.776  22.570  26.765  1.00  0.00    -0.361 OA
ATOM     26  C   UNL A   1      32.534  21.336  24.840  1.00  0.00     0.091 C 
ENDBRANCH  19  20
ENDBRANCH  17  19
ENDBRANCH  12  13
ENDBRANCH   9  12
ENDBRANCH   7   9
ENDBRANCH   6   7
ENDBRANCH   5   6
ENDBRANCH   4   5
ENDBRANCH   3   4
ENDBRANCH   2   3
ENDBRANCH   1   2
BRANCH   1  27
ATOM     27  O   UNL A   1      35.705  32.742  27.686  1.00  0.00    -0.377 OA
BRANCH  27  28
ATOM     28  C   UNL A   1      36.345  33.177  28.880  1.00  0.00     0.188 C 
BRANCH  28  29
ATOM     29  C   UNL A   1      35.661  34.261  29.732  1.00  0.00     0.188 C 
BRANCH  29  30
ATOM     30  O   UNL A   1      34.537  33.799  30.469  1.00  0.00    -0.376 OA
BRANCH  30  31
ATOM     31  C   UNL A   1      34.599  32.530  31.101  1.00  0.00     0.202 C 
BRANCH  31  32
ATOM     32  C   UNL A   1      35.540  32.354  32.305  1.00  0.00     0.261 C 
BRANCH  32  33
ATOM     33  O   UNL A   1      36.648  31.455  32.143  1.00  0.00    -0.460 OA
BRANCH  33  34
ATOM     34  C   UNL A   1      37.861  31.839  32.596  1.00  0.00     0.338 C 
ATOM     35  O   UNL A   1      38.094  32.530  33.565  1.00  0.00    -0.246 OA
BRANCH  34  36
ATOM     36  C   UNL A   1      38.883  31.096  31.823  1.00  0.00     0.060 A 
ATOM     37  C   UNL A   1      39.747  30.230  32.504  1.00  0.00     0.016 A 
ATOM     38  C   UNL A   1      38.994  31.266  30.442  1.00  0.00     0.016 A 
ATOM     39  C   UNL A   1      40.760  29.566  31.811  1.00  0.00     0.010 A 
ATOM     40  C   UNL A   1      40.023  30.619  29.753  1.00  0.00     0.010 A 
ATOM     41  C   UNL A   1      40.935  29.799  30.442  1.00  0.00    -0.014 A 
BRANCH  41  42
ATOM     42  C   UNL A   1      42.187  29.361  29.777  1.00  0.00     0.031 A 
ATOM     43  C   UNL A   1      43.308  30.357  29.649  1.00  0.00     0.074 A 
ATOM     44  C   UNL A   1      42.338  28.106  29.318  1.00  0.00     0.049 A 
ATOM     45  N   UNL A   1      44.470  30.233  29.063  1.00  0.00    -0.248 NA
ATOM     46  C   UNL A   1      43.084  31.677  30.266  1.00  0.00     0.031 C 
ATOM     47  C   UNL A   1      41.345  27.040  29.429  1.00  0.00     0.029 A 
ATOM     48  N   UNL A   1      43.389  27.521  28.657  1.00  0.00    -0.354 N 
ATOM     49  C   UNL A   1      45.108  31.458  29.227  1.00  0.00     0.074 A 
ATOM     50  C   UNL A   1      44.195  32.321  29.941  1.00  0.00     0.031 C 
ATOM     51  C   UNL A   1      41.830  25.930  28.842  1.00  0.00     0.029 A 
ATOM     52  C   UNL A   1      43.150  26.219  28.283  1.00  0.00     0.049 A 
ATOM     53  H   UNL A   1      44.234  27.989  28.467  1.00  0.00     0.167 HD
ATOM     54  C   UNL A   1      46.347  31.825  28.821  1.00  0.00     0.037 A 
ATOM     55  C   UNL A   1      43.903  25.371  27.553  1.00  0.00     0.037 A 
ATOM     56  C   UNL A   1      47.250  30.958  28.111  1.00  0.00     0.049 A 
ATOM     57  C   UNL A   1      45.248  25.829  27.046  1.00  0.00     0.074 A 
ATOM     58  C   UNL A   1      48.534  31.228  27.674  1.00  0.00     0.029 A 
ATOM     59  N   UNL A   1      46.959  29.658  27.723  1.00  0.00    -0.354 N 
ATOM     60  N   UNL A   1      45.852  26.981  27.226  1.00  0.00    -0.248 NA
ATOM     61  C   UNL A   1      46.018  24.871  26.238  1.00  0.00     0.031 C 
ATOM     62  C   UNL A   1      48.997  30.114  26.966  1.00  0.00     0.029 A 
ATOM     63  C   UNL A   1      48.029  29.124  27.024  1.00  0.00     0.049 A 
ATOM     64  H   UNL A   1      46.117  29.186  27.916  1.00  0.00     0.167 HD
ATOM     65  C   UNL A   1      47.083  26.872  26.584  1.00  0.00     0.074 A 
ATOM     66  C   UNL A   1      47.141  25.540  26.020  1.00  0.00     0.031 C 
ATOM     67  C   UNL A   1      48.077  27.790  26.476  1.00  0.00     0.037 A 
BRANCH  54  68
ATOM     68  C   UNL A   1      46.784  33.238  29.103  1.00  0.00     0.058 A 
ATOM     69  C   UNL A   1      47.487  33.583  30.268  1.00  0.00     0.135 A 
ATOM     70  C   UNL A   1      46.520  34.258  28.174  1.00  0.00     0.135 A 
ATOM     71  F   UNL A   1      47.749  32.653  31.200  1.00  0.00    -0.206 F 
ATOM     72  C   UNL A   1      47.892  34.891  30.513  1.00  0.00     0.059 A 
ATOM     73  C   UNL A   1      46.942  35.567  28.384  1.00  0.00     0.059 A 
ATOM     74  F   UNL A   1      45.846  33.986  27.045  1.00  0.00    -0.206 F 
ATOM     75  C   UNL A   1      47.616  35.876  29.563  1.00  0.00     0.060 A 
BRANCH  75  76
ATOM     76  S   UNL A   1      48.155  37.567  29.892  1.00  0.00     0.124 S 
ATOM     77  O   UNL A   1      48.654  37.454  31.260  1.00  0.00    -0.237 OA
ATOM     78  O   UNL A   1      49.171  37.774  28.865  1.00  0.00    -0.237 OA
ATOM     79  O   UNL A   1      46.936  38.351  29.733  1.00  0.00    -0.744 OA
ENDBRANCH  75  76
ENDBRANCH  54  68
BRANCH  55  80
ATOM     80  C   UNL A   1      43.402  24.003  27.245  1.00  0.00     0.058 A 
ATOM     81  C   UNL A   1      42.628  23.753  26.102  1.00  0.00     0.135 A 
ATOM     82  C   UNL A   1      43.675  22.918  28.094  1.00  0.00     0.135 A 
ATOM     83  F   UNL A   1      42.327  24.758  25.265  1.00  0.00    -0.206 F 
ATOM     84  C   UNL A   1      42.131  22.486  25.819  1.00  0.00     0.059 A 
ATOM     85  C   UNL A   1      43.214  21.634  27.817  1.00  0.00     0.059 A 
ATOM     86  F   UNL A   1      44.414  23.099  29.201  1.00  0.00    -0.206 F 
ATOM     87  C   UNL A   1      42.433  21.430  26.681  1.00  0.00     0.060 A 
BRANCH  87  88
ATOM     88  S   UNL A   1      41.814  19.782  26.278  1.00  0.00     0.124 S 
ATOM     89  O   UNL A   1      42.628  19.438  25.118  1.00  0.00    -0.237 OA
ATOM     90  O   UNL A   1      42.101  19.041  27.502  1.00  0.00    -0.237 OA
ATOM     91  O   UNL A   1      40.397  20.011  26.008  1.00  0.00    -0.744 OA
ENDBRANCH  87  88
ENDBRANCH  55  80
BRANCH  67  92
ATOM     92  C   UNL A   1      49.337  27.377  25.760  1.00  0.00     0.058 A 
ATOM     93  C   UNL A   1      49.417  27.329  24.360  1.00  0.00     0.135 A 
ATOM     94  C   UNL A   1      50.501  27.082  26.491  1.00  0.00     0.135 A 
ATOM     95  F   UNL A   1      48.335  27.597  23.611  1.00  0.00    -0.206 F 
ATOM     96  C   UNL A   1      50.598  26.981  23.711  1.00  0.00     0.059 A 
ATOM     97  C   UNL A   1      51.700  26.764  25.862  1.00  0.00     0.059 A 
ATOM     98  F   UNL A   1      50.486  27.124  27.833  1.00  0.00    -0.206 F 
ATOM     99  C   UNL A   1      51.736  26.703  24.471  1.00  0.00     0.060 A 
BRANCH  99 100
ATOM    100  S   UNL A   1      53.269  26.286  23.613  1.00  0.00     0.124 S 
ATOM    101  O   UNL A   1      54.142  27.381  24.020  1.00  0.00    -0.237 OA
ATOM    102  O   UNL A   1      53.592  24.977  24.172  1.00  0.00    -0.237 OA
ATOM    103  O   UNL A   1      52.880  26.282  22.206  1.00  0.00    -0.744 OA
ENDBRANCH  99 100
ENDBRANCH  67  92
ENDBRANCH  41  42
ENDBRANCH  34  36
ENDBRANCH  33  34
ENDBRANCH  32  33
ENDBRANCH  31  32
ENDBRANCH  30  31
ENDBRANCH  29  30
ENDBRANCH  28  29
ENDBRANCH  27  28
ENDBRANCH   1  27
TORSDOF 28
ENDMDL
MODEL 2
REMARK VINA RESULT:      -8.4      1.059      8.038
REMARK SMILES CC[C@@H](CNC(=O)NCc1c(C)noc1C)C(=O)OCCOCCOCCOCCOC(=O)c1ccc(-c2c3nc(c(-c4c(F)cc(S(=O)(=O)[O-])cc4F)c4ccc([nH]4)c(-c4c(F)cc(S(=O)(=O)[O-])cc4F)c4nc(c(-c5c(F)cc(S(=O)(=O)[O-])cc5F)c5ccc2[nH]5)C=C4)C=C3)cc1
REMARK SMILES IDX 24 1 23 2 22 3 21 4 20 5 19 6 17 7 18 8 3 9 2 10 1 11 4 12
REMARK SMILES IDX 5 13 6 14 7 16 8 17 9 19 10 20 11 21 15 22 12 23 13 24 14 25
REMARK SMILES IDX 16 26 25 27 26 28 27 29 28 30 29 31 30 32 31 33 32 34 33 35
REMARK SMILES IDX 34 36 35 37 99 38 36 39 98 40 37 41 38 42 39 43 92 44 40 45
REMARK SMILES IDX 97 46 91 47 93 48 41 49 96 50 90 51 89 52 42 54 76 55 55 56
REMARK SMILES IDX 75 57 56 58 59 59 74 60 94 61 57 62 58 63 73 65 95 66 60 67
REMARK SMILES IDX 43 68 44 69 53 70 45 71 46 72 52 73 54 74 47 75 48 76 49 77
REMARK SMILES IDX 50 78 51 79 77 80 78 81 87 82 79 83 80 84 86 85 88 86 81 87
REMARK SMILES IDX 82 88 83 89 84 90 85 91 61 92 62 93 71 94 63 95 64 96 70 97
REMARK SMILES IDX 72 98 65 99 66 100 67 101 68 102 69 103
REMARK H PARENT 5 15 8 18 93 53 59 64
REMARK Flexibility Score: inf
ROOT
ATOM      1  C   UNL A   1      35.767  31.127  27.857  1.00  0.00     0.188 C 
ENDROOT
BRANCH   1   2
ATOM      2  C   UNL A   1      34.252  30.995  28.073  1.00  0.00     0.188 C 
BRANCH   2   3
ATOM      3  O   UNL A   1      33.354  30.687  27.020  1.00  0.00    -0.376 OA
BRANCH   3   4
ATOM      4  C   UNL A   1      33.526  29.583  26.147  1.00  0.00     0.202 C 
BRANCH   4   5
ATOM      5  C   UNL A   1      32.787  28.251  26.330  1.00  0.00     0.261 C 
BRANCH   5   6
ATOM      6  O   UNL A   1      31.479  28.118  25.747  1.00  0.00    -0.463 OA
BRANCH   6   7
ATOM      7  C   UNL A   1      31.440  27.685  24.468  1.00  0.00     0.310 C 
ATOM      8  O   UNL A   1      32.305  27.923  23.627  1.00  0.00    -0.252 OA
BRANCH   7   9
ATOM      9  C   UNL A   1      30.169  26.950  24.086  1.00  0.00     0.118 C 
BRANCH   9  10
ATOM     10  C   UNL A   1      29.230  27.610  23.060  1.00  0.00     0.014 C 
ATOM     11  C   UNL A   1      29.235  29.132  23.199  1.00  0.00     0.005 C 
ENDBRANCH   9  10
BRANCH   9  12
ATOM     12  C   UNL A   1      30.540  25.510  23.723  1.00  0.00     0.133 C 
BRANCH  12  13
ATOM     13  N   UNL A   1      31.468  25.433  22.613  1.00  0.00    -0.337 N 
ATOM     14  C   UNL A   1      32.583  24.737  22.374  1.00  0.00     0.315 C 
ATOM     15  H   UNL A   1      31.223  26.028  21.868  1.00  0.00     0.165 HD
ATOM     16  O   UNL A   1      33.241  25.036  21.376  1.00  0.00    -0.249 OA
ATOM     17  N   UNL A   1      33.030  23.731  23.127  1.00  0.00    -0.334 N 
ATOM     18  H   UNL A   1      33.880  23.366  22.792  1.00  0.00     0.165 HD
BRANCH  17  19
ATOM     19  C   UNL A   1      32.573  23.044  24.309  1.00  0.00     0.159 C 
BRANCH  19  20
ATOM     20  C   UNL A   1      33.310  21.790  24.591  1.00  0.00     0.037 A 
ATOM     21  C   UNL A   1      33.170  20.480  24.057  1.00  0.00     0.086 A 
ATOM     22  C   UNL A   1      34.340  21.655  25.503  1.00  0.00     0.138 A 
ATOM     23  C   UNL A   1      32.189  19.977  23.064  1.00  0.00     0.071 C 
ATOM     24  N   UNL A   1      34.066  19.637  24.588  1.00  0.00    -0.085 NA
ATOM     25  O   UNL A   1      34.794  20.378  25.494  1.00  0.00    -0.361 OA
ATOM     26  C   UNL A   1      34.990  22.579  26.455  1.00  0.00     0.091 C 
ENDBRANCH  19  20
ENDBRANCH  17  19
ENDBRANCH  12  13
ENDBRANCH   9  12
ENDBRANCH   7   9
ENDBRANCH   6   7
ENDBRANCH   5   6
ENDBRANCH   4   5
ENDBRANCH   3   4
ENDBRANCH   2   3
ENDBRANCH   1   2
BRANCH   1  27
ATOM     27  O   UNL A   1      36.277  32.442  27.845  1.00  0.00    -0.377 OA
BRANCH  27  28
ATOM     28  C   UNL A   1      36.834  32.972  29.043  1.00  0.00     0.188 C 
BRANCH  28  29
ATOM     29  C   UNL A   1      36.149  34.181  29.705  1.00  0.00     0.188 C 
BRANCH  29  30
ATOM     30  O   UNL A   1      34.990  33.852  30.459  1.00  0.00    -0.376 OA
BRANCH  30  31
ATOM     31  C   UNL A   1      34.967  32.642  31.200  1.00  0.00     0.202 C 
BRANCH  31  32
ATOM     32  C   UNL A   1      36.117  32.360  32.182  1.00  0.00     0.261 C 
BRANCH  32  33
ATOM     33  O   UNL A   1      36.884  31.165  31.963  1.00  0.00    -0.460 OA
BRANCH  33  34
ATOM     34  C   UNL A   1      37.913  30.900  32.797  1.00  0.00     0.338 C 
ATOM     35  O   UNL A   1      37.907  30.959  34.009  1.00  0.00    -0.246 OA
BRANCH  34  36
ATOM     36  C   UNL A   1      39.006  30.315  31.987  1.00  0.00     0.060 A 
ATOM     37  C   UNL A   1      40.114  29.766  32.643  1.00  0.00     0.016 A 
ATOM     38  C   UNL A   1      38.941  30.324  30.592  1.00  0.00     0.016 A 
ATOM     39  C   UNL A   1      41.187  29.267  31.905  1.00  0.00     0.010 A 
ATOM     40  C   UNL A   1      40.026  29.844  29.853  1.00  0.00     0.010 A 
ATOM     41  C   UNL A   1      41.170  29.351  30.507  1.00  0.00    -0.014 A 
BRANCH  41  42
ATOM     42  C   UNL A   1      42.422  29.128  29.743  1.00  0.00     0.031 A 
ATOM     43  C   UNL A   1      42.622  27.789  29.085  1.00  0.00     0.074 A 
ATOM     44  C   UNL A   1      43.350  30.093  29.615  1.00  0.00     0.049 A 
ATOM     45  N   UNL A   1      43.649  27.336  28.416  1.00  0.00    -0.248 NA
ATOM     46  C   UNL A   1      41.511  26.829  29.204  1.00  0.00     0.031 C 
ATOM     47  C   UNL A   1      43.246  31.445  30.162  1.00  0.00     0.029 A 
ATOM     48  N   UNL A   1      44.568  30.078  28.985  1.00  0.00    -0.354 N 
ATOM     49  C   UNL A   1      43.315  26.037  28.046  1.00  0.00     0.074 A 
ATOM     50  C   UNL A   1      42.004  25.765  28.589  1.00  0.00     0.031 C 
ATOM     51  C   UNL A   1      44.364  32.126  29.854  1.00  0.00     0.029 A 
ATOM     52  C   UNL A   1      45.276  31.249  29.122  1.00  0.00     0.049 A 
ATOM     53  H   UNL A   1      44.905  29.301  28.483  1.00  0.00     0.167 HD
ATOM     54  C   UNL A   1      44.037  25.155  27.314  1.00  0.00     0.037 A 
ATOM     55  C   UNL A   1      46.525  31.564  28.722  1.00  0.00     0.037 A 
ATOM     56  C   UNL A   1      45.343  25.436  26.777  1.00  0.00     0.049 A 
ATOM     57  C   UNL A   1      47.340  30.537  27.975  1.00  0.00     0.074 A 
ATOM     58  C   UNL A   1      46.148  24.619  26.005  1.00  0.00     0.029 A 
ATOM     59  N   UNL A   1      46.039  26.622  26.965  1.00  0.00    -0.354 N 
ATOM     60  N   UNL A   1      47.007  29.321  27.610  1.00  0.00    -0.248 NA
ATOM     61  C   UNL A   1      48.703  30.926  27.581  1.00  0.00     0.031 C 
ATOM     62  C   UNL A   1      47.357  25.284  25.780  1.00  0.00     0.029 A 
ATOM     63  C   UNL A   1      47.278  26.544  26.350  1.00  0.00     0.049 A 
ATOM     64  H   UNL A   1      45.702  27.402  27.462  1.00  0.00     0.167 HD
ATOM     65  C   UNL A   1      48.103  28.815  26.916  1.00  0.00     0.074 A 
ATOM     66  C   UNL A   1      49.105  29.860  26.905  1.00  0.00     0.031 C 
ATOM     67  C   UNL A   1      48.263  27.598  26.338  1.00  0.00     0.037 A 
BRANCH  54  68
ATOM     68  C   UNL A   1      43.448  23.790  27.085  1.00  0.00     0.058 A 
ATOM     69  C   UNL A   1      43.533  22.770  28.046  1.00  0.00     0.135 A 
ATOM     70  C   UNL A   1      42.758  23.508  25.894  1.00  0.00     0.135 A 
ATOM     71  F   UNL A   1      44.197  22.976  29.194  1.00  0.00    -0.206 F 
ATOM     72  C   UNL A   1      42.977  21.513  27.825  1.00  0.00     0.059 A 
ATOM     73  C   UNL A   1      42.169  22.269  25.665  1.00  0.00     0.059 A 
ATOM     74  F   UNL A   1      42.651  24.444  24.937  1.00  0.00    -0.206 F 
ATOM     75  C   UNL A   1      42.295  21.274  26.631  1.00  0.00     0.060 A 
BRANCH  75  76
ATOM     76  S   UNL A   1      41.573  19.641  26.363  1.00  0.00     0.124 S 
ATOM     77  O   UNL A   1      40.189  19.982  26.046  1.00  0.00    -0.237 OA
ATOM     78  O   UNL A   1      42.369  19.129  25.251  1.00  0.00    -0.237 OA
ATOM     79  O   UNL A   1      41.775  18.964  27.639  1.00  0.00    -0.744 OA
ENDBRANCH  75  76
ENDBRANCH  54  68
BRANCH  55  80
ATOM     80  C   UNL A   1      47.091  32.907  29.028  1.00  0.00     0.058 A 
ATOM     81  C   UNL A   1      47.588  33.212  30.304  1.00  0.00     0.135 A 
ATOM     82  C   UNL A   1      47.138  33.917  28.054  1.00  0.00     0.135 A 
ATOM     83  F   UNL A   1      47.554  32.286  31.275  1.00  0.00    -0.206 F 
ATOM     84  C   UNL A   1      48.093  34.471  30.610  1.00  0.00     0.059 A 
ATOM     85  C   UNL A   1      47.667  35.176  28.326  1.00  0.00     0.059 A 
ATOM     86  F   UNL A   1      46.680  33.678  26.814  1.00  0.00    -0.206 F 
ATOM     87  C   UNL A   1      48.132  35.447  29.611  1.00  0.00     0.060 A 
BRANCH  87  88
ATOM     88  S   UNL A   1      48.829  37.064  30.012  1.00  0.00     0.124 S 
ATOM     89  O   UNL A   1      49.849  36.710  30.992  1.00  0.00    -0.237 OA
ATOM     90  O   UNL A   1      49.320  37.514  28.713  1.00  0.00    -0.237 OA
ATOM     91  O   UNL A   1      47.684  37.804  30.534  1.00  0.00    -0.744 OA
ENDBRANCH  87  88
ENDBRANCH  55  80
BRANCH  67  92
ATOM     92  C   UNL A   1      49.550  27.338  25.599  1.00  0.00     0.058 A 
ATOM     93  C   UNL A   1      49.650  27.476  24.206  1.00  0.00     0.135 A 
ATOM     94  C   UNL A   1      50.718  27.004  26.307  1.00  0.00     0.135 A 
ATOM     95  F   UNL A   1      48.566  27.789  23.478  1.00  0.00    -0.206 F 
ATOM     96  C   UNL A   1      50.854  27.268  23.539  1.00  0.00     0.059 A 
ATOM     97  C   UNL A   1      51.938  26.825  25.665  1.00  0.00     0.059 A 
ATOM     98  F   UNL A   1      50.684  26.872  27.643  1.00  0.00    -0.206 F 
ATOM     99  C   UNL A   1      51.994  26.947  24.279  1.00  0.00     0.060 A 
BRANCH  99 100
ATOM    100  S   UNL A   1      53.556  26.714  23.403  1.00  0.00     0.124 S 
ATOM    101  O   UNL A   1      54.034  28.086  23.281  1.00  0.00    -0.237 OA
ATOM    102  O   UNL A   1      54.304  25.861  24.322  1.00  0.00    -0.237 OA
ATOM    103  O   UNL A   1      53.153  26.076  22.153  1.00  0.00    -0.744 OA
ENDBRANCH  99 100
ENDBRANCH  67  92
ENDBRANCH  41  42
ENDBRANCH  34  36
ENDBRANCH  33  34
ENDBRANCH  32  33
ENDBRANCH  31  32
ENDBRANCH  30  31
ENDBRANCH  29  30
ENDBRANCH  28  29
ENDBRANCH  27  28
ENDBRANCH   1  27
TORSDOF 28
ENDMDL
MODEL 3
REMARK VINA RESULT:      -8.1      2.094      8.830
REMARK SMILES CC[C@@H](CNC(=O)NCc1c(C)noc1C)C(=O)OCCOCCOCCOCCOC(=O)c1ccc(-c2c3nc(c(-c4c(F)cc(S(=O)(=O)[O-])cc4F)c4ccc([nH]4)c(-c4c(F)cc(S(=O)(=O)[O-])cc4F)c4nc(c(-c5c(F)cc(S(=O)(=O)[O-])cc5F)c5ccc2[nH]5)C=C4)C=C3)cc1
REMARK SMILES IDX 24 1 23 2 22 3 21 4 20 5 19 6 17 7 18 8 3 9 2 10 1 11 4 12
REMARK SMILES IDX 5 13 6 14 7 16 8 17 9 19 10 20 11 21 15 22 12 23 13 24 14 25
REMARK SMILES IDX 16 26 25 27 26 28 27 29 28 30 29 31 30 32 31 33 32 34 33 35
REMARK SMILES IDX 34 36 35 37 99 38 36 39 98 40 37 41 38 42 39 43 92 44 40 45
REMARK SMILES IDX 97 46 91 47 93 48 41 49 96 50 90 51 89 52 42 54 76 55 55 56
REMARK SMILES IDX 75 57 56 58 59 59 74 60 94 61 57 62 58 63 73 65 95 66 60 67
REMARK SMILES IDX 43 68 44 69 53 70 45 71 46 72 52 73 54 74 47 75 48 76 49 77
REMARK SMILES IDX 50 78 51 79 77 80 78 81 87 82 79 83 80 84 86 85 88 86 81 87
REMARK SMILES IDX 82 88 83 89 84 90 85 91 61 92 62 93 71 94 63 95 64 96 70 97
REMARK SMILES IDX 72 98 65 99 66 100 67 101 68 102 69 103
REMARK H PARENT 5 15 8 18 93 53 59 64
REMARK Flexibility Score: inf
ROOT
ATOM      1  C   UNL A   1      32.225  28.335  24.263  1.00  0.00     0.188 C 
ENDROOT
BRANCH   1   2
ATOM      2  C   UNL A   1      33.157  27.175  23.883  1.00  0.00     0.188 C 
BRANCH   2   3
ATOM      3  O   UNL A   1      33.493  26.874  22.539  1.00  0.00    -0.376 OA
BRANCH   3   4
ATOM      4  C   UNL A   1      33.637  25.551  22.049  1.00  0.00     0.202 C 
BRANCH   4   5
ATOM      5  C   UNL A   1      33.927  24.350  22.961  1.00  0.00     0.261 C 
BRANCH   5   6
ATOM      6  O   UNL A   1      35.297  23.954  23.140  1.00  0.00    -0.463 OA
BRANCH   6   7
ATOM      7  C   UNL A   1      35.644  23.555  24.383  1.00  0.00     0.310 C 
ATOM      8  O   UNL A   1      35.799  24.314  25.337  1.00  0.00    -0.252 OA
BRANCH   7   9
ATOM      9  C   UNL A   1      35.946  22.075  24.513  1.00  0.00     0.118 C 
BRANCH   9  10
ATOM     10  C   UNL A   1      37.392  21.606  24.271  1.00  0.00     0.014 C 
ATOM     11  C   UNL A   1      38.163  21.474  25.584  1.00  0.00     0.005 C 
ENDBRANCH   9  10
BRANCH   9  12
ATOM     12  C   UNL A   1      35.370  21.584  25.843  1.00  0.00     0.133 C 
BRANCH  12  13
ATOM     13  N   UNL A   1      34.661  20.327  25.718  1.00  0.00    -0.337 N 
ATOM     14  C   UNL A   1      33.417  19.985  25.374  1.00  0.00     0.315 C 
ATOM     15  H   UNL A   1      35.223  19.548  25.938  1.00  0.00     0.165 HD
ATOM     16  O   UNL A   1      33.080  18.812  25.535  1.00  0.00    -0.249 OA
ATOM     17  N   UNL A   1      32.515  20.818  24.852  1.00  0.00    -0.334 N 
ATOM     18  H   UNL A   1      31.651  20.375  24.690  1.00  0.00     0.165 HD
BRANCH  17  19
ATOM     19  C   UNL A   1      32.493  22.207  24.466  1.00  0.00     0.159 C 
BRANCH  19  20
ATOM     20  C   UNL A   1      31.762  23.078  25.417  1.00  0.00     0.037 A 
ATOM     21  C   UNL A   1      31.784  23.141  26.837  1.00  0.00     0.086 A 
ATOM     22  C   UNL A   1      30.850  24.054  25.066  1.00  0.00     0.138 A 
ATOM     23  C   UNL A   1      32.539  22.299  27.797  1.00  0.00     0.071 C 
ATOM     24  N   UNL A   1      30.969  24.100  27.296  1.00  0.00    -0.085 NA
ATOM     25  O   UNL A   1      30.386  24.668  26.183  1.00  0.00    -0.361 OA
ATOM     26  C   UNL A   1      30.291  24.519  23.780  1.00  0.00     0.091 C 
ENDBRANCH  19  20
ENDBRANCH  17  19
ENDBRANCH  12  13
ENDBRANCH   9  12
ENDBRANCH   7   9
ENDBRANCH   6   7
ENDBRANCH   5   6
ENDBRANCH   4   5
ENDBRANCH   3   4
ENDBRANCH   2   3
ENDBRANCH   1   2
BRANCH   1  27
ATOM     27  O   UNL A   1      32.827  29.412  24.950  1.00  0.00    -0.377 OA
BRANCH  27  28
ATOM     28  C   UNL A   1      31.993  30.343  25.628  1.00  0.00     0.188 C 
BRANCH  28  29
ATOM     29  C   UNL A   1      32.169  30.523  27.147  1.00  0.00     0.188 C 
BRANCH  29  30
ATOM     30  O   UNL A   1      33.493  30.301  27.610  1.00  0.00    -0.376 OA
BRANCH  30  31
ATOM     31  C   UNL A   1      34.407  31.387  27.639  1.00  0.00     0.202 C 
BRANCH  31  32
ATOM     32  C   UNL A   1      35.393  31.486  28.815  1.00  0.00     0.261 C 
BRANCH  32  33
ATOM     33  O   UNL A   1      35.941  30.255  29.313  1.00  0.00    -0.460 OA
BRANCH  33  34
ATOM     34  C   UNL A   1      36.338  29.320  28.423  1.00  0.00     0.338 C 
ATOM     35  O   UNL A   1      35.630  28.645  27.706  1.00  0.00    -0.246 OA
BRANCH  34  36
ATOM     36  C   UNL A   1      37.813  29.403  28.315  1.00  0.00     0.060 A 
ATOM     37  C   UNL A   1      38.400  29.390  27.044  1.00  0.00     0.016 A 
ATOM     38  C   UNL A   1      38.607  29.476  29.461  1.00  0.00     0.016 A 
ATOM     39  C   UNL A   1      39.789  29.402  26.915  1.00  0.00     0.010 A 
ATOM     40  C   UNL A   1      39.998  29.466  29.332  1.00  0.00     0.010 A 
ATOM     41  C   UNL A   1      40.595  29.387  28.060  1.00  0.00    -0.014 A 
BRANCH  41  42
ATOM     42  C   UNL A   1      42.039  29.074  27.937  1.00  0.00     0.031 A 
ATOM     43  C   UNL A   1      42.435  27.651  27.648  1.00  0.00     0.074 A 
ATOM     44  C   UNL A   1      42.979  30.029  28.055  1.00  0.00     0.049 A 
ATOM     45  N   UNL A   1      43.625  27.120  27.552  1.00  0.00    -0.248 NA
ATOM     46  C   UNL A   1      41.332  26.694  27.443  1.00  0.00     0.031 C 
ATOM     47  C   UNL A   1      42.718  31.449  28.283  1.00  0.00     0.029 A 
ATOM     48  N   UNL A   1      44.347  29.942  28.004  1.00  0.00    -0.354 N 
ATOM     49  C   UNL A   1      43.418  25.770  27.290  1.00  0.00     0.074 A 
ATOM     50  C   UNL A   1      41.988  25.557  27.271  1.00  0.00     0.031 C 
ATOM     51  C   UNL A   1      43.892  32.100  28.366  1.00  0.00     0.029 A 
ATOM     52  C   UNL A   1      44.986  31.138  28.234  1.00  0.00     0.049 A 
ATOM     53  H   UNL A   1      44.827  29.102  27.821  1.00  0.00     0.167 HD
ATOM     54  C   UNL A   1      44.338  24.799  27.081  1.00  0.00     0.037 A 
ATOM     55  C   UNL A   1      46.301  31.416  28.349  1.00  0.00     0.037 A 
ATOM     56  C   UNL A   1      45.759  25.022  27.102  1.00  0.00     0.049 A 
ATOM     57  C   UNL A   1      47.305  30.302  28.187  1.00  0.00     0.074 A 
ATOM     58  C   UNL A   1      46.775  24.110  26.879  1.00  0.00     0.029 A 
ATOM     59  N   UNL A   1      46.367  26.240  27.370  1.00  0.00    -0.354 N 
ATOM     60  N   UNL A   1      47.099  29.034  27.917  1.00  0.00    -0.248 NA
ATOM     61  C   UNL A   1      48.724  30.656  28.343  1.00  0.00     0.031 C 
ATOM     62  C   UNL A   1      47.997  24.760  27.077  1.00  0.00     0.029 A 
ATOM     63  C   UNL A   1      47.745  26.095  27.351  1.00  0.00     0.049 A 
ATOM     64  H   UNL A   1      45.890  27.082  27.547  1.00  0.00     0.167 HD
ATOM     65  C   UNL A   1      48.361  28.449  27.837  1.00  0.00     0.074 A 
ATOM     66  C   UNL A   1      49.323  29.504  28.078  1.00  0.00     0.031 C 
ATOM     67  C   UNL A   1      48.692  27.158  27.583  1.00  0.00     0.037 A 
BRANCH  54  68
ATOM     68  C   UNL A   1      43.836  23.399  26.848  1.00  0.00     0.058 A 
ATOM     69  C   UNL A   1      43.809  22.819  25.570  1.00  0.00     0.135 A 
ATOM     70  C   UNL A   1      43.403  22.614  27.930  1.00  0.00     0.135 A 
ATOM     71  F   UNL A   1      44.192  23.529  24.497  1.00  0.00    -0.206 F 
ATOM     72  C   UNL A   1      43.350  21.521  25.369  1.00  0.00     0.059 A 
ATOM     73  C   UNL A   1      42.968  21.304  27.757  1.00  0.00     0.059 A 
ATOM     74  F   UNL A   1      43.401  23.121  29.174  1.00  0.00    -0.206 F 
ATOM     75  C   UNL A   1      42.933  20.771  26.470  1.00  0.00     0.060 A 
BRANCH  75  76
ATOM     76  S   UNL A   1      42.347  19.086  26.194  1.00  0.00     0.124 S 
ATOM     77  O   UNL A   1      40.973  19.323  25.759  1.00  0.00    -0.237 OA
ATOM     78  O   UNL A   1      43.262  18.605  25.164  1.00  0.00    -0.237 OA
ATOM     79  O   UNL A   1      42.491  18.456  27.501  1.00  0.00    -0.744 OA
ENDBRANCH  75  76
ENDBRANCH  54  68
BRANCH  55  80
ATOM     80  C   UNL A   1      46.748  32.805  28.643  1.00  0.00     0.058 A 
ATOM     81  C   UNL A   1      46.980  33.727  27.612  1.00  0.00     0.135 A 
ATOM     82  C   UNL A   1      46.966  33.237  29.962  1.00  0.00     0.135 A 
ATOM     83  F   UNL A   1      46.800  33.360  26.333  1.00  0.00    -0.206 F 
ATOM     84  C   UNL A   1      47.425  35.019  27.872  1.00  0.00     0.059 A 
ATOM     85  C   UNL A   1      47.382  34.534  30.251  1.00  0.00     0.059 A 
ATOM     86  F   UNL A   1      46.756  32.397  30.988  1.00  0.00    -0.206 F 
ATOM     87  C   UNL A   1      47.619  35.415  29.197  1.00  0.00     0.060 A 
BRANCH  87  88
ATOM     88  S   UNL A   1      48.158  37.108  29.521  1.00  0.00     0.124 S 
ATOM     89  O   UNL A   1      48.416  37.064  30.955  1.00  0.00    -0.237 OA
ATOM     90  O   UNL A   1      49.334  37.222  28.663  1.00  0.00    -0.237 OA
ATOM     91  O   UNL A   1      47.009  37.911  29.111  1.00  0.00    -0.744 OA
ENDBRANCH  87  88
ENDBRANCH  55  80
BRANCH  67  92
ATOM     92  C   UNL A   1      50.157  26.813  27.502  1.00  0.00     0.058 A 
ATOM     93  C   UNL A   1      50.922  27.075  26.355  1.00  0.00     0.135 A 
ATOM     94  C   UNL A   1      50.817  26.268  28.617  1.00  0.00     0.135 A 
ATOM     95  F   UNL A   1      50.342  27.591  25.259  1.00  0.00    -0.206 F 
ATOM     96  C   UNL A   1      52.282  26.785  26.307  1.00  0.00     0.059 A 
ATOM     97  C   UNL A   1      52.183  26.002  28.602  1.00  0.00     0.059 A 
ATOM     98  F   UNL A   1      50.139  26.010  29.746  1.00  0.00    -0.206 F 
ATOM     99  C   UNL A   1      52.905  26.253  27.437  1.00  0.00     0.060 A 
BRANCH  99 100
ATOM    100  S   UNL A   1      54.677  25.915  27.370  1.00  0.00     0.124 S 
ATOM    101  O   UNL A   1      54.699  24.559  26.832  1.00  0.00    -0.237 OA
ATOM    102  O   UNL A   1      55.160  26.961  26.473  1.00  0.00    -0.237 OA
ATOM    103  O   UNL A   1      55.101  26.045  28.761  1.00  0.00    -0.744 OA
ENDBRANCH  99 100
ENDBRANCH  67  92
ENDBRANCH  41  42
ENDBRANCH  34  36
ENDBRANCH  33  34
ENDBRANCH  32  33
ENDBRANCH  31  32
ENDBRANCH  30  31
ENDBRANCH  29  30
ENDBRANCH  28  29
ENDBRANCH  27  28
ENDBRANCH   1  27
TORSDOF 28
ENDMDL
