MODEL 1
REMARK VINA RESULT:      -9.3      0.000      0.000
REMARK SMILES O=C(OCCOCCOCCOCCOC(=O)c1ccc(-c2c3nc(c(-c4c(F)cc(S(=O)(=O)[O-])cc4F)c4ccc([nH]4)c(-c4c(F)cc(S(=O)(=O)[O-])cc4F)c4nc(c(-c5c(F)cc(S(=O)(=O)[O-])cc5F)c5ccc2[nH]5)C=C4)C=C3)cc1)C(=O)N1CC[N@@H+]2CCC[C@H]2C1
REMARK SMILES IDX 10 1 9 2 8 3 7 4 6 5 5 6 4 7 3 8 2 9 1 10 84 11 85 12 86 13
REMARK SMILES IDX 87 14 94 15 88 16 93 17 89 18 92 19 90 20 91 22 11 23 12 24
REMARK SMILES IDX 13 25 14 26 15 27 16 28 17 29 18 30 19 31 83 32 20 33 82 34
REMARK SMILES IDX 21 35 22 36 23 37 76 38 24 39 81 40 75 41 77 42 25 43 80 44
REMARK SMILES IDX 74 45 73 46 26 48 60 49 39 50 59 51 40 52 43 53 58 54 78 55
REMARK SMILES IDX 41 56 42 57 57 59 79 60 44 61 27 62 28 63 37 64 29 65 30 66
REMARK SMILES IDX 36 67 38 68 31 69 32 70 33 71 34 72 35 73 61 74 62 75 71 76
REMARK SMILES IDX 63 77 64 78 70 79 72 80 65 81 66 82 67 83 68 84 69 85 45 86
REMARK SMILES IDX 46 87 55 88 47 89 48 90 54 91 56 92 49 93 50 94 51 95 52 96
REMARK SMILES IDX 53 97
REMARK H PARENT 89 21 77 47 43 58
REMARK Flexibility Score: inf
ROOT
ATOM      1  C   UNL A   1      31.397  27.626  25.866  1.00  0.00     0.188 C 
ENDROOT
BRANCH   1   2
ATOM      2  O   UNL A   1      30.650  27.169  24.751  1.00  0.00    -0.377 OA
BRANCH   2   3
ATOM      3  C   UNL A   1      30.725  25.776  24.514  1.00  0.00     0.188 C 
BRANCH   3   4
ATOM      4  C   UNL A   1      31.472  25.437  23.238  1.00  0.00     0.188 C 
BRANCH   4   5
ATOM      5  O   UNL A   1      32.103  24.162  23.203  1.00  0.00    -0.376 OA
BRANCH   5   6
ATOM      6  C   UNL A   1      33.258  23.982  22.397  1.00  0.00     0.202 C 
BRANCH   6   7
ATOM      7  C   UNL A   1      34.548  24.155  23.203  1.00  0.00     0.262 C 
BRANCH   7   8
ATOM      8  O   UNL A   1      35.598  23.221  22.931  1.00  0.00    -0.456 OA
BRANCH   8   9
ATOM      9  C   UNL A   1      36.378  22.754  23.920  1.00  0.00     0.397 C 
ATOM     10  O   UNL A   1      37.153  23.502  24.508  1.00  0.00    -0.240 OA
BRANCH   9  11
ATOM     11  C   UNL A   1      35.942  21.443  24.625  1.00  0.00     0.332 C 
ATOM     12  O   UNL A   1      36.857  20.667  24.918  1.00  0.00    -0.261 OA
BRANCH  11  13
ATOM     13  N   UNL A   1      34.648  21.203  25.076  1.00  0.00    -0.321 N 
ATOM     14  C   UNL A   1      33.696  20.140  24.693  1.00  0.00     0.181 C 
ATOM     15  C   UNL A   1      34.273  21.862  26.321  1.00  0.00     0.185 C 
ATOM     16  C   UNL A   1      32.212  20.624  24.672  1.00  0.00     0.284 C 
ATOM     17  C   UNL A   1      32.906  22.480  26.084  1.00  0.00     0.204 C 
ATOM     18  N   UNL A   1      31.884  21.447  25.842  1.00  0.00    -0.330 N 
ATOM     19  C   UNL A   1      32.293  23.225  27.247  1.00  0.00     0.073 C 
ATOM     20  C   UNL A   1      30.647  22.213  25.750  1.00  0.00     0.262 C 
ATOM     21  H   UNL A   1      31.813  20.742  26.575  1.00  0.00     0.348 HD
ATOM     22  C   UNL A   1      30.793  23.178  26.934  1.00  0.00     0.068 C 
ENDBRANCH  11  13
ENDBRANCH   9  11
ENDBRANCH   8   9
ENDBRANCH   7   8
ENDBRANCH   6   7
ENDBRANCH   5   6
ENDBRANCH   4   5
ENDBRANCH   3   4
ENDBRANCH   2   3
ENDBRANCH   1   2
BRANCH   1  23
ATOM     23  C   UNL A   1      31.783  29.122  25.835  1.00  0.00     0.188 C 
BRANCH  23  24
ATOM     24  O   UNL A   1      32.466  29.764  26.908  1.00  0.00    -0.376 OA
BRANCH  24  25
ATOM     25  C   UNL A   1      32.497  31.178  26.993  1.00  0.00     0.202 C 
BRANCH  25  26
ATOM     26  C   UNL A   1      33.740  31.820  27.626  1.00  0.00     0.261 C 
BRANCH  26  27
ATOM     27  O   UNL A   1      33.867  33.230  27.392  1.00  0.00    -0.460 OA
BRANCH  27  28
ATOM     28  C   UNL A   1      33.637  34.027  28.471  1.00  0.00     0.338 C 
ATOM     29  O   UNL A   1      32.660  34.714  28.671  1.00  0.00    -0.246 OA
BRANCH  28  30
ATOM     30  C   UNL A   1      34.684  33.773  29.500  1.00  0.00     0.060 A 
ATOM     31  C   UNL A   1      36.000  34.144  29.189  1.00  0.00     0.016 A 
ATOM     32  C   UNL A   1      34.392  33.233  30.756  1.00  0.00     0.016 A 
ATOM     33  C   UNL A   1      37.030  33.942  30.109  1.00  0.00     0.010 A 
ATOM     34  C   UNL A   1      35.429  33.010  31.672  1.00  0.00     0.010 A 
ATOM     35  C   UNL A   1      36.758  33.326  31.336  1.00  0.00    -0.014 A 
BRANCH  35  36
ATOM     36  C   UNL A   1      37.880  32.742  32.116  1.00  0.00     0.031 A 
ATOM     37  C   UNL A   1      38.606  31.571  31.504  1.00  0.00     0.074 A 
ATOM     38  C   UNL A   1      38.276  33.233  33.305  1.00  0.00     0.049 A 
ATOM     39  N   UNL A   1      39.579  30.847  31.990  1.00  0.00    -0.248 NA
ATOM     40  C   UNL A   1      38.168  31.166  30.157  1.00  0.00     0.031 C 
ATOM     41  C   UNL A   1      37.699  34.390  33.985  1.00  0.00     0.029 A 
ATOM     42  N   UNL A   1      39.266  32.802  34.156  1.00  0.00    -0.354 N 
ATOM     43  C   UNL A   1      39.862  29.898  31.015  1.00  0.00     0.074 A 
ATOM     44  C   UNL A   1      38.942  30.119  29.922  1.00  0.00     0.031 C 
ATOM     45  C   UNL A   1      38.335  34.567  35.158  1.00  0.00     0.029 A 
ATOM     46  C   UNL A   1      39.344  33.520  35.326  1.00  0.00     0.049 A 
ATOM     47  H   UNL A   1      39.864  32.049  33.947  1.00  0.00     0.167 HD
ATOM     48  C   UNL A   1      40.807  28.931  31.020  1.00  0.00     0.037 A 
ATOM     49  C   UNL A   1      40.124  33.337  36.413  1.00  0.00     0.037 A 
ATOM     50  C   UNL A   1      41.723  28.705  32.104  1.00  0.00     0.049 A 
ATOM     51  C   UNL A   1      41.123  32.203  36.431  1.00  0.00     0.074 A 
ATOM     52  C   UNL A   1      42.719  27.750  32.203  1.00  0.00     0.029 A 
ATOM     53  N   UNL A   1      41.748  29.436  33.282  1.00  0.00    -0.354 N 
ATOM     54  N   UNL A   1      41.388  31.320  35.497  1.00  0.00    -0.248 NA
ATOM     55  C   UNL A   1      41.928  32.041  37.651  1.00  0.00     0.031 C 
ATOM     56  C   UNL A   1      43.318  27.875  33.460  1.00  0.00     0.029 A 
ATOM     57  C   UNL A   1      42.731  28.941  34.123  1.00  0.00     0.049 A 
ATOM     58  H   UNL A   1      41.156  30.194  33.490  1.00  0.00     0.167 HD
ATOM     59  C   UNL A   1      42.410  30.521  36.005  1.00  0.00     0.074 A 
ATOM     60  C   UNL A   1      42.719  31.028  37.325  1.00  0.00     0.031 C 
ATOM     61  C   UNL A   1      43.038  29.466  35.429  1.00  0.00     0.037 A 
BRANCH  48  62
ATOM     62  C   UNL A   1      40.872  28.025  29.824  1.00  0.00     0.058 A 
ATOM     63  C   UNL A   1      41.889  28.140  28.864  1.00  0.00     0.135 A 
ATOM     64  C   UNL A   1      39.906  27.024  29.641  1.00  0.00     0.135 A 
ATOM     65  F   UNL A   1      42.821  29.100  28.978  1.00  0.00    -0.206 F 
ATOM     66  C   UNL A   1      41.932  27.310  27.750  1.00  0.00     0.059 A 
ATOM     67  C   UNL A   1      39.944  26.164  28.549  1.00  0.00     0.059 A 
ATOM     68  F   UNL A   1      38.907  26.879  30.526  1.00  0.00    -0.206 F 
ATOM     69  C   UNL A   1      40.954  26.324  27.601  1.00  0.00     0.060 A 
BRANCH  69  70
ATOM     70  S   UNL A   1      41.025  25.251  26.152  1.00  0.00     0.124 S 
ATOM     71  O   UNL A   1      42.035  24.279  26.561  1.00  0.00    -0.237 OA
ATOM     72  O   UNL A   1      39.658  24.748  26.069  1.00  0.00    -0.237 OA
ATOM     73  O   UNL A   1      41.424  26.156  25.079  1.00  0.00    -0.744 OA
ENDBRANCH  69  70
ENDBRANCH  48  62
BRANCH  49  74
ATOM     74  C   UNL A   1      39.988  34.235  37.594  1.00  0.00     0.058 A 
ATOM     75  C   UNL A   1      39.105  33.931  38.641  1.00  0.00     0.135 A 
ATOM     76  C   UNL A   1      40.721  35.428  37.686  1.00  0.00     0.135 A 
ATOM     77  F   UNL A   1      38.367  32.812  38.593  1.00  0.00    -0.206 F 
ATOM     78  C   UNL A   1      38.948  34.780  39.733  1.00  0.00     0.059 A 
ATOM     79  C   UNL A   1      40.600  36.280  38.778  1.00  0.00     0.059 A 
ATOM     80  F   UNL A   1      41.582  35.764  36.713  1.00  0.00    -0.206 F 
ATOM     81  C   UNL A   1      39.704  35.952  39.795  1.00  0.00     0.060 A 
BRANCH  81  82
ATOM     82  S   UNL A   1      39.539  37.016  41.245  1.00  0.00     0.124 S 
ATOM     83  O   UNL A   1      40.925  37.142  41.678  1.00  0.00    -0.237 OA
ATOM     84  O   UNL A   1      38.935  38.217  40.675  1.00  0.00    -0.237 OA
ATOM     85  O   UNL A   1      38.668  36.245  42.127  1.00  0.00    -0.744 OA
ENDBRANCH  81  82
ENDBRANCH  49  74
BRANCH  61  86
ATOM     86  C   UNL A   1      44.156  28.809  36.193  1.00  0.00     0.058 A 
ATOM     87  C   UNL A   1      45.453  29.346  36.216  1.00  0.00     0.135 A 
ATOM     88  C   UNL A   1      43.905  27.670  36.974  1.00  0.00     0.135 A 
ATOM     89  F   UNL A   1      45.746  30.433  35.486  1.00  0.00    -0.206 F 
ATOM     90  C   UNL A   1      46.465  28.765  36.972  1.00  0.00     0.059 A 
ATOM     91  C   UNL A   1      44.896  27.087  37.758  1.00  0.00     0.059 A 
ATOM     92  F   UNL A   1      42.678  27.123  36.999  1.00  0.00    -0.206 F 
ATOM     93  C   UNL A   1      46.177  27.636  37.742  1.00  0.00     0.060 A 
BRANCH  93  94
ATOM     94  S   UNL A   1      47.489  26.914  38.752  1.00  0.00     0.124 S 
ATOM     95  O   UNL A   1      47.638  25.597  38.142  1.00  0.00    -0.237 OA
ATOM     96  O   UNL A   1      48.596  27.841  38.536  1.00  0.00    -0.237 OA
ATOM     97  O   UNL A   1      46.926  26.923  40.098  1.00  0.00    -0.744 OA
ENDBRANCH  93  94
ENDBRANCH  61  86
ENDBRANCH  35  36
ENDBRANCH  28  30
ENDBRANCH  27  28
ENDBRANCH  26  27
ENDBRANCH  25  26
ENDBRANCH  24  25
ENDBRANCH  23  24
ENDBRANCH   1  23
TORSDOF 24
ENDMDL
MODEL 2
REMARK VINA RESULT:      -9.3      6.423     11.831
REMARK SMILES O=C(OCCOCCOCCOCCOC(=O)c1ccc(-c2c3nc(c(-c4c(F)cc(S(=O)(=O)[O-])cc4F)c4ccc([nH]4)c(-c4c(F)cc(S(=O)(=O)[O-])cc4F)c4nc(c(-c5c(F)cc(S(=O)(=O)[O-])cc5F)c5ccc2[nH]5)C=C4)C=C3)cc1)C(=O)N1CC[N@@H+]2CCC[C@H]2C1
REMARK SMILES IDX 10 1 9 2 8 3 7 4 6 5 5 6 4 7 3 8 2 9 1 10 84 11 85 12 86 13
REMARK SMILES IDX 87 14 94 15 88 16 93 17 89 18 92 19 90 20 91 22 11 23 12 24
REMARK SMILES IDX 13 25 14 26 15 27 16 28 17 29 18 30 19 31 83 32 20 33 82 34
REMARK SMILES IDX 21 35 22 36 23 37 76 38 24 39 81 40 75 41 77 42 25 43 80 44
REMARK SMILES IDX 74 45 73 46 26 48 60 49 39 50 59 51 40 52 43 53 58 54 78 55
REMARK SMILES IDX 41 56 42 57 57 59 79 60 44 61 27 62 28 63 37 64 29 65 30 66
REMARK SMILES IDX 36 67 38 68 31 69 32 70 33 71 34 72 35 73 61 74 62 75 71 76
REMARK SMILES IDX 63 77 64 78 70 79 72 80 65 81 66 82 67 83 68 84 69 85 45 86
REMARK SMILES IDX 46 87 55 88 47 89 48 90 54 91 56 92 49 93 50 94 51 95 52 96
REMARK SMILES IDX 53 97
REMARK H PARENT 89 21 77 47 43 58
REMARK Flexibility Score: inf
ROOT
ATOM      1  C   UNL A   1      36.566  22.702  23.303  1.00  0.00     0.188 C 
ENDROOT
BRANCH   1   2
ATOM      2  O   UNL A   1      35.453  23.363  22.724  1.00  0.00    -0.377 OA
BRANCH   2   3
ATOM      3  C   UNL A   1      34.267  23.323  23.495  1.00  0.00     0.188 C 
BRANCH   3   4
ATOM      4  C   UNL A   1      33.124  22.629  22.778  1.00  0.00     0.188 C 
BRANCH   4   5
ATOM      5  O   UNL A   1      32.147  22.014  23.610  1.00  0.00    -0.376 OA
BRANCH   5   6
ATOM      6  C   UNL A   1      32.268  22.128  25.020  1.00  0.00     0.202 C 
BRANCH   6   7
ATOM      7  C   UNL A   1      31.307  23.175  25.591  1.00  0.00     0.262 C 
BRANCH   7   8
ATOM      8  O   UNL A   1      30.574  23.951  24.638  1.00  0.00    -0.456 OA
BRANCH   8   9
ATOM      9  C   UNL A   1      30.526  25.291  24.732  1.00  0.00     0.397 C 
ATOM     10  O   UNL A   1      30.040  25.830  25.722  1.00  0.00    -0.240 OA
BRANCH   9  11
ATOM     11  C   UNL A   1      31.507  26.110  23.855  1.00  0.00     0.332 C 
ATOM     12  O   UNL A   1      31.545  25.796  22.661  1.00  0.00    -0.261 OA
BRANCH  11  13
ATOM     13  N   UNL A   1      32.179  27.245  24.301  1.00  0.00    -0.321 N 
ATOM     14  C   UNL A   1      33.593  27.413  24.694  1.00  0.00     0.181 C 
ATOM     15  C   UNL A   1      31.518  28.519  24.047  1.00  0.00     0.185 C 
ATOM     16  C   UNL A   1      33.787  28.416  25.875  1.00  0.00     0.284 C 
ATOM     17  C   UNL A   1      31.583  29.304  25.346  1.00  0.00     0.204 C 
ATOM     18  N   UNL A   1      32.974  29.626  25.708  1.00  0.00    -0.330 N 
ATOM     19  C   UNL A   1      30.961  30.680  25.334  1.00  0.00     0.073 C 
ATOM     20  C   UNL A   1      32.827  30.458  26.897  1.00  0.00     0.262 C 
ATOM     21  H   UNL A   1      33.495  30.125  24.987  1.00  0.00     0.348 HD
ATOM     22  C   UNL A   1      31.688  31.397  26.477  1.00  0.00     0.068 C 
ENDBRANCH  11  13
ENDBRANCH   9  11
ENDBRANCH   8   9
ENDBRANCH   7   8
ENDBRANCH   6   7
ENDBRANCH   5   6
ENDBRANCH   4   5
ENDBRANCH   3   4
ENDBRANCH   2   3
ENDBRANCH   1   2
BRANCH   1  23
ATOM     23  C   UNL A   1      36.253  21.849  24.552  1.00  0.00     0.188 C 
BRANCH  23  24
ATOM     24  O   UNL A   1      36.824  22.113  25.830  1.00  0.00    -0.376 OA
BRANCH  24  25
ATOM     25  C   UNL A   1      38.225  22.267  25.971  1.00  0.00     0.202 C 
BRANCH  25  26
ATOM     26  C   UNL A   1      39.108  21.068  25.598  1.00  0.00     0.261 C 
BRANCH  26  27
ATOM     27  O   UNL A   1      39.854  20.514  26.692  1.00  0.00    -0.460 OA
BRANCH  27  28
ATOM     28  C   UNL A   1      41.114  20.098  26.393  1.00  0.00     0.338 C 
ATOM     29  O   UNL A   1      41.432  19.035  25.906  1.00  0.00    -0.246 OA
BRANCH  28  30
ATOM     30  C   UNL A   1      42.058  21.238  26.556  1.00  0.00     0.060 A 
ATOM     31  C   UNL A   1      42.366  21.642  27.864  1.00  0.00     0.016 A 
ATOM     32  C   UNL A   1      42.670  21.873  25.471  1.00  0.00     0.016 A 
ATOM     33  C   UNL A   1      43.248  22.699  28.091  1.00  0.00     0.010 A 
ATOM     34  C   UNL A   1      43.540  22.948  25.697  1.00  0.00     0.010 A 
ATOM     35  C   UNL A   1      43.800  23.392  27.007  1.00  0.00    -0.014 A 
BRANCH  35  36
ATOM     36  C   UNL A   1      44.383  24.740  27.232  1.00  0.00     0.031 A 
ATOM     37  C   UNL A   1      43.439  25.835  27.655  1.00  0.00     0.074 A 
ATOM     38  C   UNL A   1      45.699  24.997  27.103  1.00  0.00     0.049 A 
ATOM     39  N   UNL A   1      43.674  27.104  27.866  1.00  0.00    -0.248 NA
ATOM     40  C   UNL A   1      42.036  25.440  27.867  1.00  0.00     0.031 C 
ATOM     41  C   UNL A   1      46.728  24.021  26.754  1.00  0.00     0.029 A 
ATOM     42  N   UNL A   1      46.389  26.177  27.249  1.00  0.00    -0.354 N 
ATOM     43  C   UNL A   1      42.450  27.656  28.225  1.00  0.00     0.074 A 
ATOM     44  C   UNL A   1      41.470  26.595  28.177  1.00  0.00     0.031 C 
ATOM     45  C   UNL A   1      47.919  24.647  26.695  1.00  0.00     0.029 A 
ATOM     46  C   UNL A   1      47.733  26.072  26.976  1.00  0.00     0.049 A 
ATOM     47  H   UNL A   1      45.961  27.019  27.525  1.00  0.00     0.167 HD
ATOM     48  C   UNL A   1      42.163  28.931  28.571  1.00  0.00     0.037 A 
ATOM     49  C   UNL A   1      48.692  27.021  26.934  1.00  0.00     0.037 A 
ATOM     50  C   UNL A   1      43.132  29.992  28.618  1.00  0.00     0.049 A 
ATOM     51  C   UNL A   1      48.336  28.455  27.251  1.00  0.00     0.074 A 
ATOM     52  C   UNL A   1      42.939  31.318  28.960  1.00  0.00     0.029 A 
ATOM     53  N   UNL A   1      44.475  29.848  28.305  1.00  0.00    -0.354 N 
ATOM     54  N   UNL A   1      47.178  28.961  27.601  1.00  0.00    -0.248 NA
ATOM     55  C   UNL A   1      49.420  29.446  27.167  1.00  0.00     0.031 C 
ATOM     56  C   UNL A   1      44.157  31.987  28.810  1.00  0.00     0.029 A 
ATOM     57  C   UNL A   1      45.119  31.067  28.426  1.00  0.00     0.049 A 
ATOM     58  H   UNL A   1      44.906  29.005  28.036  1.00  0.00     0.167 HD
ATOM     59  C   UNL A   1      47.401  30.321  27.808  1.00  0.00     0.074 A 
ATOM     60  C   UNL A   1      48.806  30.556  27.551  1.00  0.00     0.031 C 
ATOM     61  C   UNL A   1      46.523  31.285  28.182  1.00  0.00     0.037 A 
BRANCH  48  62
ATOM     62  C   UNL A   1      40.732  29.251  28.895  1.00  0.00     0.058 A 
ATOM     63  C   UNL A   1      39.766  29.418  27.890  1.00  0.00     0.135 A 
ATOM     64  C   UNL A   1      40.321  29.386  30.230  1.00  0.00     0.135 A 
ATOM     65  F   UNL A   1      40.114  29.328  26.596  1.00  0.00    -0.206 F 
ATOM     66  C   UNL A   1      38.447  29.732  28.197  1.00  0.00     0.059 A 
ATOM     67  C   UNL A   1      39.001  29.672  30.561  1.00  0.00     0.059 A 
ATOM     68  F   UNL A   1      41.208  29.245  31.228  1.00  0.00    -0.206 F 
ATOM     69  C   UNL A   1      38.074  29.858  29.536  1.00  0.00     0.060 A 
BRANCH  69  70
ATOM     70  S   UNL A   1      36.358  30.261  29.919  1.00  0.00     0.124 S 
ATOM     71  O   UNL A   1      36.146  29.496  31.144  1.00  0.00    -0.237 OA
ATOM     72  O   UNL A   1      36.406  31.711  30.078  1.00  0.00    -0.237 OA
ATOM     73  O   UNL A   1      35.628  29.785  28.749  1.00  0.00    -0.744 OA
ENDBRANCH  69  70
ENDBRANCH  48  62
BRANCH  49  74
ATOM     74  C   UNL A   1      50.088  26.660  26.560  1.00  0.00     0.058 A 
ATOM     75  C   UNL A   1      50.500  26.640  25.219  1.00  0.00     0.135 A 
ATOM     76  C   UNL A   1      51.031  26.304  27.537  1.00  0.00     0.135 A 
ATOM     77  F   UNL A   1      49.633  26.953  24.246  1.00  0.00    -0.206 F 
ATOM     78  C   UNL A   1      51.794  26.273  24.858  1.00  0.00     0.059 A 
ATOM     79  C   UNL A   1      52.337  25.958  27.204  1.00  0.00     0.059 A 
ATOM     80  F   UNL A   1      50.690  26.310  28.835  1.00  0.00    -0.206 F 
ATOM     81  C   UNL A   1      52.707  25.937  25.860  1.00  0.00     0.060 A 
BRANCH  81  82
ATOM     82  S   UNL A   1      54.401  25.523  25.386  1.00  0.00     0.124 S 
ATOM     83  O   UNL A   1      55.170  26.470  26.183  1.00  0.00    -0.237 OA
ATOM     84  O   UNL A   1      54.495  24.122  25.789  1.00  0.00    -0.237 OA
ATOM     85  O   UNL A   1      54.410  25.753  23.944  1.00  0.00    -0.744 OA
ENDBRANCH  81  82
ENDBRANCH  49  74
BRANCH  61  86
ATOM     86  C   UNL A   1      47.052  32.679  28.384  1.00  0.00     0.058 A 
ATOM     87  C   UNL A   1      47.011  33.642  27.364  1.00  0.00     0.135 A 
ATOM     88  C   UNL A   1      47.535  33.076  29.642  1.00  0.00     0.135 A 
ATOM     89  F   UNL A   1      46.560  33.315  26.144  1.00  0.00    -0.206 F 
ATOM     90  C   UNL A   1      47.447  34.946  27.580  1.00  0.00     0.059 A 
ATOM     91  C   UNL A   1      47.953  34.381  29.886  1.00  0.00     0.059 A 
ATOM     92  F   UNL A   1      47.583  32.197  30.657  1.00  0.00    -0.206 F 
ATOM     93  C   UNL A   1      47.915  35.306  28.846  1.00  0.00     0.060 A 
BRANCH  93  94
ATOM     94  S   UNL A   1      48.442  37.012  29.123  1.00  0.00     0.124 S 
ATOM     95  O   UNL A   1      47.760  37.328  30.374  1.00  0.00    -0.237 OA
ATOM     96  O   UNL A   1      49.893  36.882  29.207  1.00  0.00    -0.237 OA
ATOM     97  O   UNL A   1      47.948  37.715  27.944  1.00  0.00    -0.744 OA
ENDBRANCH  93  94
ENDBRANCH  61  86
ENDBRANCH  35  36
ENDBRANCH  28  30
ENDBRANCH  27  28
ENDBRANCH  26  27
ENDBRANCH  25  26
ENDBRANCH  24  25
ENDBRANCH  23  24
ENDBRANCH   1  23
TORSDOF 24
ENDMDL
MODEL 3
REMARK VINA RESULT:      -9.2      5.524      8.690
REMARK SMILES O=C(OCCOCCOCCOCCOC(=O)c1ccc(-c2c3nc(c(-c4c(F)cc(S(=O)(=O)[O-])cc4F)c4ccc([nH]4)c(-c4c(F)cc(S(=O)(=O)[O-])cc4F)c4nc(c(-c5c(F)cc(S(=O)(=O)[O-])cc5F)c5ccc2[nH]5)C=C4)C=C3)cc1)C(=O)N1CC[N@@H+]2CCC[C@H]2C1
REMARK SMILES IDX 10 1 9 2 8 3 7 4 6 5 5 6 4 7 3 8 2 9 1 10 84 11 85 12 86 13
REMARK SMILES IDX 87 14 94 15 88 16 93 17 89 18 92 19 90 20 91 22 11 23 12 24
REMARK SMILES IDX 13 25 14 26 15 27 16 28 17 29 18 30 19 31 83 32 20 33 82 34
REMARK SMILES IDX 21 35 22 36 23 37 76 38 24 39 81 40 75 41 77 42 25 43 80 44
REMARK SMILES IDX 74 45 73 46 26 48 60 49 39 50 59 51 40 52 43 53 58 54 78 55
REMARK SMILES IDX 41 56 42 57 57 59 79 60 44 61 27 62 28 63 37 64 29 65 30 66
REMARK SMILES IDX 36 67 38 68 31 69 32 70 33 71 34 72 35 73 61 74 62 75 71 76
REMARK SMILES IDX 63 77 64 78 70 79 72 80 65 81 66 82 67 83 68 84 69 85 45 86
REMARK SMILES IDX 46 87 55 88 47 89 48 90 54 91 56 92 49 93 50 94 51 95 52 96
REMARK SMILES IDX 53 97
REMARK H PARENT 89 21 77 47 43 58
REMARK Flexibility Score: inf
ROOT
ATOM      1  C   UNL A   1      34.662  23.140  23.380  1.00  0.00     0.188 C 
ENDROOT
BRANCH   1   2
ATOM      2  O   UNL A   1      34.001  24.391  23.468  1.00  0.00    -0.377 OA
BRANCH   2   3
ATOM      3  C   UNL A   1      32.727  24.351  24.083  1.00  0.00     0.188 C 
BRANCH   3   4
ATOM      4  C   UNL A   1      31.604  24.112  23.091  1.00  0.00     0.188 C 
BRANCH   4   5
ATOM      5  O   UNL A   1      30.336  24.654  23.442  1.00  0.00    -0.376 OA
BRANCH   5   6
ATOM      6  C   UNL A   1      30.268  25.675  24.426  1.00  0.00     0.202 C 
BRANCH   6   7
ATOM      7  C   UNL A   1      29.647  26.960  23.871  1.00  0.00     0.262 C 
BRANCH   7   8
ATOM      8  O   UNL A   1      30.071  27.357  22.563  1.00  0.00    -0.456 OA
BRANCH   8   9
ATOM      9  C   UNL A   1      30.746  28.504  22.376  1.00  0.00     0.397 C 
ATOM     10  O   UNL A   1      30.180  29.492  21.917  1.00  0.00    -0.240 OA
BRANCH   9  11
ATOM     11  C   UNL A   1      32.051  28.714  23.186  1.00  0.00     0.332 C 
ATOM     12  O   UNL A   1      33.101  28.562  22.553  1.00  0.00    -0.261 OA
BRANCH  11  13
ATOM     13  N   UNL A   1      32.082  29.215  24.484  1.00  0.00    -0.321 N 
ATOM     14  C   UNL A   1      31.100  30.059  25.194  1.00  0.00     0.181 C 
ATOM     15  C   UNL A   1      33.026  28.575  25.393  1.00  0.00     0.185 C 
ATOM     16  C   UNL A   1      31.763  31.088  26.165  1.00  0.00     0.284 C 
ATOM     17  C   UNL A   1      33.760  29.697  26.109  1.00  0.00     0.204 C 
ATOM     18  N   UNL A   1      32.844  30.483  26.953  1.00  0.00    -0.330 N 
ATOM     19  C   UNL A   1      34.800  29.281  27.121  1.00  0.00     0.073 C 
ATOM     20  C   UNL A   1      33.733  31.420  27.630  1.00  0.00     0.262 C 
ATOM     21  H   UNL A   1      32.319  29.935  27.634  1.00  0.00     0.348 HD
ATOM     22  C   UNL A   1      34.891  30.502  28.043  1.00  0.00     0.068 C 
ENDBRANCH  11  13
ENDBRANCH   9  11
ENDBRANCH   8   9
ENDBRANCH   7   8
ENDBRANCH   6   7
ENDBRANCH   5   6
ENDBRANCH   4   5
ENDBRANCH   3   4
ENDBRANCH   2   3
ENDBRANCH   1   2
BRANCH   1  23
ATOM     23  C   UNL A   1      34.465  22.200  24.590  1.00  0.00     0.188 C 
BRANCH  23  24
ATOM     24  O   UNL A   1      35.186  22.352  25.810  1.00  0.00    -0.376 OA
BRANCH  24  25
ATOM     25  C   UNL A   1      36.288  23.238  25.886  1.00  0.00     0.202 C 
BRANCH  25  26
ATOM     26  C   UNL A   1      37.657  22.704  25.442  1.00  0.00     0.261 C 
BRANCH  26  27
ATOM     27  O   UNL A   1      38.434  22.110  26.492  1.00  0.00    -0.460 OA
BRANCH  27  28
ATOM     28  C   UNL A   1      39.754  22.438  26.502  1.00  0.00     0.338 C 
ATOM     29  O   UNL A   1      40.669  21.783  26.054  1.00  0.00    -0.246 OA
BRANCH  28  30
ATOM     30  C   UNL A   1      39.906  23.845  26.966  1.00  0.00     0.060 A 
ATOM     31  C   UNL A   1      40.259  24.808  26.009  1.00  0.00     0.016 A 
ATOM     32  C   UNL A   1      39.668  24.234  28.288  1.00  0.00     0.016 A 
ATOM     33  C   UNL A   1      40.412  26.147  26.372  1.00  0.00     0.010 A 
ATOM     34  C   UNL A   1      39.842  25.575  28.658  1.00  0.00     0.010 A 
ATOM     35  C   UNL A   1      40.255  26.529  27.710  1.00  0.00    -0.014 A 
BRANCH  35  36
ATOM     36  C   UNL A   1      40.814  27.829  28.161  1.00  0.00     0.031 A 
ATOM     37  C   UNL A   1      42.306  28.010  28.053  1.00  0.00     0.074 A 
ATOM     38  C   UNL A   1      40.045  28.835  28.620  1.00  0.00     0.049 A 
ATOM     39  N   UNL A   1      43.053  29.018  28.421  1.00  0.00    -0.248 NA
ATOM     40  C   UNL A   1      43.055  26.895  27.448  1.00  0.00     0.031 C 
ATOM     41  C   UNL A   1      38.589  28.815  28.725  1.00  0.00     0.029 A 
ATOM     42  N   UNL A   1      40.400  30.076  29.093  1.00  0.00    -0.354 N 
ATOM     43  C   UNL A   1      44.356  28.654  28.100  1.00  0.00     0.074 A 
ATOM     44  C   UNL A   1      44.303  27.325  27.534  1.00  0.00     0.031 C 
ATOM     45  C   UNL A   1      38.174  29.984  29.248  1.00  0.00     0.029 A 
ATOM     46  C   UNL A   1      39.336  30.825  29.540  1.00  0.00     0.049 A 
ATOM     47  H   UNL A   1      41.329  30.400  29.109  1.00  0.00     0.167 HD
ATOM     48  C   UNL A   1      45.497  29.363  28.254  1.00  0.00     0.037 A 
ATOM     49  C   UNL A   1      39.311  32.035  30.137  1.00  0.00     0.037 A 
ATOM     50  C   UNL A   1      45.557  30.683  28.818  1.00  0.00     0.049 A 
ATOM     51  C   UNL A   1      40.605  32.780  30.369  1.00  0.00     0.074 A 
ATOM     52  C   UNL A   1      46.666  31.485  29.013  1.00  0.00     0.029 A 
ATOM     53  N   UNL A   1      44.460  31.392  29.285  1.00  0.00    -0.354 N 
ATOM     54  N   UNL A   1      41.829  32.430  30.050  1.00  0.00    -0.248 NA
ATOM     55  C   UNL A   1      40.514  34.084  31.043  1.00  0.00     0.031 C 
ATOM     56  C   UNL A   1      46.247  32.662  29.641  1.00  0.00     0.029 A 
ATOM     57  C   UNL A   1      44.870  32.615  29.788  1.00  0.00     0.049 A 
ATOM     58  H   UNL A   1      43.530  31.073  29.263  1.00  0.00     0.167 HD
ATOM     59  C   UNL A   1      42.646  33.483  30.455  1.00  0.00     0.074 A 
ATOM     60  C   UNL A   1      41.778  34.484  31.037  1.00  0.00     0.031 C 
ATOM     61  C   UNL A   1      43.992  33.610  30.351  1.00  0.00     0.037 A 
BRANCH  48  62
ATOM     62  C   UNL A   1      46.779  28.704  27.832  1.00  0.00     0.058 A 
ATOM     63  C   UNL A   1      47.237  28.760  26.506  1.00  0.00     0.135 A 
ATOM     64  C   UNL A   1      47.562  28.013  28.769  1.00  0.00     0.135 A 
ATOM     65  F   UNL A   1      46.511  29.384  25.566  1.00  0.00    -0.206 F 
ATOM     66  C   UNL A   1      48.415  28.131  26.120  1.00  0.00     0.059 A 
ATOM     67  C   UNL A   1      48.758  27.400  28.411  1.00  0.00     0.059 A 
ATOM     68  F   UNL A   1      47.162  27.922  30.048  1.00  0.00    -0.206 F 
ATOM     69  C   UNL A   1      49.169  27.453  27.080  1.00  0.00     0.060 A 
BRANCH  69  70
ATOM     70  S   UNL A   1      50.698  26.646  26.564  1.00  0.00     0.124 S 
ATOM     71  O   UNL A   1      51.610  27.041  27.633  1.00  0.00    -0.237 OA
ATOM     72  O   UNL A   1      50.316  25.238  26.545  1.00  0.00    -0.237 OA
ATOM     73  O   UNL A   1      50.970  27.237  25.258  1.00  0.00    -0.744 OA
ENDBRANCH  69  70
ENDBRANCH  48  62
BRANCH  49  74
ATOM     74  C   UNL A   1      38.017  32.625  30.580  1.00  0.00     0.058 A 
ATOM     75  C   UNL A   1      37.190  33.322  29.686  1.00  0.00     0.135 A 
ATOM     76  C   UNL A   1      37.592  32.524  31.915  1.00  0.00     0.135 A 
ATOM     77  F   UNL A   1      37.558  33.463  28.404  1.00  0.00    -0.206 F 
ATOM     78  C   UNL A   1      35.994  33.903  30.098  1.00  0.00     0.059 A 
ATOM     79  C   UNL A   1      36.390  33.075  32.345  1.00  0.00     0.059 A 
ATOM     80  F   UNL A   1      38.344  31.865  32.811  1.00  0.00    -0.206 F 
ATOM     81  C   UNL A   1      35.601  33.771  31.431  1.00  0.00     0.060 A 
BRANCH  81  82
ATOM     82  S   UNL A   1      34.018  34.476  31.942  1.00  0.00     0.124 S 
ATOM     83  O   UNL A   1      33.532  33.466  32.874  1.00  0.00    -0.237 OA
ATOM     84  O   UNL A   1      34.427  35.748  32.532  1.00  0.00    -0.237 OA
ATOM     85  O   UNL A   1      33.281  34.586  30.687  1.00  0.00    -0.744 OA
ENDBRANCH  81  82
ENDBRANCH  49  74
BRANCH  61  86
ATOM     86  C   UNL A   1      44.618  34.892  30.831  1.00  0.00     0.058 A 
ATOM     87  C   UNL A   1      45.126  35.027  32.132  1.00  0.00     0.135 A 
ATOM     88  C   UNL A   1      44.780  35.973  29.949  1.00  0.00     0.135 A 
ATOM     89  F   UNL A   1      44.995  34.024  33.015  1.00  0.00    -0.206 F 
ATOM     90  C   UNL A   1      45.756  36.196  32.548  1.00  0.00     0.059 A 
ATOM     91  C   UNL A   1      45.430  37.141  30.335  1.00  0.00     0.059 A 
ATOM     92  F   UNL A   1      44.325  35.891  28.687  1.00  0.00    -0.206 F 
ATOM     93  C   UNL A   1      45.905  37.247  31.641  1.00  0.00     0.060 A 
BRANCH  93  94
ATOM     94  S   UNL A   1      46.760  38.744  32.180  1.00  0.00     0.124 S 
ATOM     95  O   UNL A   1      46.475  39.657  31.079  1.00  0.00    -0.237 OA
ATOM     96  O   UNL A   1      46.096  39.047  33.443  1.00  0.00    -0.237 OA
ATOM     97  O   UNL A   1      48.151  38.316  32.297  1.00  0.00    -0.744 OA
ENDBRANCH  93  94
ENDBRANCH  61  86
ENDBRANCH  35  36
ENDBRANCH  28  30
ENDBRANCH  27  28
ENDBRANCH  26  27
ENDBRANCH  25  26
ENDBRANCH  24  25
ENDBRANCH  23  24
ENDBRANCH   1  23
TORSDOF 24
ENDMDL
