MODEL 1
REMARK VINA RESULT:     -10.1      0.000      0.000
REMARK SMILES CC[C@H]1CO[C@@H](C)CN1c1cccc(F)c1C(=O)OCCOCCOCCOCCOC(=O)c1ccc(-c2c3nc(c(-c4c(F)cc(S(=O)(=O)[O-])cc4F)c4ccc([nH]4)c(-c4c(F)cc(S(=O)(=O)[O-])cc4F)c4nc(c(-c5c(F)cc(S(=O)(=O)[O-])cc5F)c5ccc2[nH]5)C=C4)C=C3)cc1
REMARK SMILES IDX 26 1 25 2 24 3 23 4 22 5 21 6 20 7 19 8 17 9 18 10 16 11
REMARK SMILES IDX 10 12 11 13 12 14 14 15 13 16 15 17 9 18 3 19 4 20 5 21 8 22
REMARK SMILES IDX 6 23 7 24 2 25 1 26 27 27 28 28 29 29 30 30 31 31 32 32
REMARK SMILES IDX 33 33 34 34 35 35 99 36 36 37 98 38 37 39 38 40 39 41 92 42
REMARK SMILES IDX 40 43 97 44 91 45 93 46 41 47 96 48 90 49 89 50 42 52 76 53
REMARK SMILES IDX 55 54 75 55 56 56 59 57 74 58 94 59 57 60 58 61 73 63 95 64
REMARK SMILES IDX 60 65 43 66 44 67 53 68 45 69 46 70 52 71 54 72 47 73 48 74
REMARK SMILES IDX 49 75 50 76 51 77 77 78 78 79 87 80 79 81 80 82 86 83 88 84
REMARK SMILES IDX 81 85 82 86 83 87 84 88 85 89 61 90 62 91 71 92 63 93 64 94
REMARK SMILES IDX 70 95 72 96 65 97 66 98 67 99 68 100 69 101
REMARK H PARENT 93 51 59 62
REMARK Flexibility Score: inf
ROOT
ATOM      1  C   UNL A   1      36.149  22.522  26.000  1.00  0.00     0.188 C 
ENDROOT
BRANCH   1   2
ATOM      2  O   UNL A   1      35.498  23.770  25.837  1.00  0.00    -0.377 OA
BRANCH   2   3
ATOM      3  C   UNL A   1      34.180  23.772  25.317  1.00  0.00     0.188 C 
BRANCH   3   4
ATOM      4  C   UNL A   1      33.890  23.165  23.934  1.00  0.00     0.188 C 
BRANCH   4   5
ATOM      5  O   UNL A   1      32.665  22.450  23.830  1.00  0.00    -0.376 OA
BRANCH   5   6
ATOM      6  C   UNL A   1      31.626  23.156  23.160  1.00  0.00     0.202 C 
BRANCH   6   7
ATOM      7  C   UNL A   1      30.681  23.853  24.138  1.00  0.00     0.261 C 
BRANCH   7   8
ATOM      8  O   UNL A   1      30.776  25.287  24.074  1.00  0.00    -0.460 OA
BRANCH   8   9
ATOM      9  C   UNL A   1      30.119  26.037  24.998  1.00  0.00     0.343 C 
ATOM     10  O   UNL A   1      29.961  25.756  26.166  1.00  0.00    -0.246 OA
BRANCH   9  11
ATOM     11  C   UNL A   1      29.726  27.309  24.329  1.00  0.00     0.119 A 
ATOM     12  C   UNL A   1      30.527  28.479  24.363  1.00  0.00     0.055 A 
ATOM     13  C   UNL A   1      30.048  29.613  23.676  1.00  0.00     0.027 A 
ATOM     14  C   UNL A   1      28.839  29.597  22.973  1.00  0.00     0.005 A 
ATOM     15  C   UNL A   1      28.514  27.310  23.621  1.00  0.00     0.139 A 
ATOM     16  C   UNL A   1      28.076  28.438  22.938  1.00  0.00     0.040 A 
ATOM     17  F   UNL A   1      27.734  26.219  23.579  1.00  0.00    -0.206 F 
BRANCH  12  18
ATOM     18  N   UNL A   1      31.766  28.534  25.002  1.00  0.00    -0.363 N 
ATOM     19  C   UNL A   1      32.956  27.820  24.457  1.00  0.00     0.108 C 
ATOM     20  C   UNL A   1      34.210  28.481  25.093  1.00  0.00     0.185 C 
ATOM     21  O   UNL A   1      34.196  28.364  26.529  1.00  0.00    -0.375 OA
ATOM     22  C   UNL A   1      31.735  28.373  26.479  1.00  0.00     0.148 C 
ATOM     23  C   UNL A   1      33.021  28.966  27.110  1.00  0.00     0.134 C 
ATOM     24  C   UNL A   1      33.122  30.488  27.044  1.00  0.00     0.040 C 
BRANCH  19  25
ATOM     25  C   UNL A   1      33.072  27.801  22.928  1.00  0.00     0.024 C 
ATOM     26  C   UNL A   1      33.585  26.443  22.451  1.00  0.00     0.006 C 
ENDBRANCH  19  25
ENDBRANCH  12  18
ENDBRANCH   9  11
ENDBRANCH   8   9
ENDBRANCH   7   8
ENDBRANCH   6   7
ENDBRANCH   5   6
ENDBRANCH   4   5
ENDBRANCH   3   4
ENDBRANCH   2   3
ENDBRANCH   1   2
BRANCH   1  27
ATOM     27  C   UNL A   1      37.500  22.352  25.280  1.00  0.00     0.188 C 
BRANCH  27  28
ATOM     28  O   UNL A   1      38.300  21.293  25.810  1.00  0.00    -0.376 OA
BRANCH  28  29
ATOM     29  C   UNL A   1      39.688  21.570  25.943  1.00  0.00     0.202 C 
BRANCH  29  30
ATOM     30  C   UNL A   1      40.061  22.427  27.157  1.00  0.00     0.261 C 
BRANCH  30  31
ATOM     31  O   UNL A   1      39.935  23.844  26.978  1.00  0.00    -0.460 OA
BRANCH  31  32
ATOM     32  C   UNL A   1      41.061  24.591  26.974  1.00  0.00     0.338 C 
ATOM     33  O   UNL A   1      41.979  24.532  26.176  1.00  0.00    -0.246 OA
BRANCH  32  34
ATOM     34  C   UNL A   1      40.876  25.656  27.986  1.00  0.00     0.060 A 
ATOM     35  C   UNL A   1      41.883  26.618  28.151  1.00  0.00     0.016 A 
ATOM     36  C   UNL A   1      39.669  25.765  28.683  1.00  0.00     0.016 A 
ATOM     37  C   UNL A   1      41.688  27.685  29.031  1.00  0.00     0.010 A 
ATOM     38  C   UNL A   1      39.489  26.814  29.586  1.00  0.00     0.010 A 
ATOM     39  C   UNL A   1      40.509  27.760  29.785  1.00  0.00    -0.014 A 
BRANCH  39  40
ATOM     40  C   UNL A   1      40.448  28.649  30.968  1.00  0.00     0.031 A 
ATOM     41  C   UNL A   1      39.459  29.783  30.916  1.00  0.00     0.074 A 
ATOM     42  C   UNL A   1      41.228  28.466  32.048  1.00  0.00     0.049 A 
ATOM     43  N   UNL A   1      39.255  30.745  31.774  1.00  0.00    -0.248 NA
ATOM     44  C   UNL A   1      38.581  29.837  29.732  1.00  0.00     0.031 C 
ATOM     45  C   UNL A   1      42.183  27.375  32.233  1.00  0.00     0.029 A 
ATOM     46  N   UNL A   1      41.337  29.207  33.200  1.00  0.00    -0.354 N 
ATOM     47  C   UNL A   1      38.222  31.507  31.242  1.00  0.00     0.074 A 
ATOM     48  C   UNL A   1      37.861  30.921  29.972  1.00  0.00     0.031 C 
ATOM     49  C   UNL A   1      42.786  27.522  33.429  1.00  0.00     0.029 A 
ATOM     50  C   UNL A   1      42.285  28.733  34.078  1.00  0.00     0.049 A 
ATOM     51  H   UNL A   1      40.788  30.004  33.380  1.00  0.00     0.167 HD
ATOM     52  C   UNL A   1      37.618  32.594  31.772  1.00  0.00     0.037 A 
ATOM     53  C   UNL A   1      42.704  29.236  35.258  1.00  0.00     0.037 A 
ATOM     54  C   UNL A   1      37.987  33.183  33.027  1.00  0.00     0.049 A 
ATOM     55  C   UNL A   1      42.085  30.514  35.774  1.00  0.00     0.074 A 
ATOM     56  C   UNL A   1      37.451  34.301  33.640  1.00  0.00     0.029 A 
ATOM     57  N   UNL A   1      38.982  32.701  33.863  1.00  0.00    -0.354 N 
ATOM     58  N   UNL A   1      41.112  31.229  35.259  1.00  0.00    -0.248 NA
ATOM     59  C   UNL A   1      42.624  31.059  37.030  1.00  0.00     0.031 C 
ATOM     60  C   UNL A   1      38.148  34.518  34.831  1.00  0.00     0.029 A 
ATOM     61  C   UNL A   1      39.086  33.508  34.981  1.00  0.00     0.049 A 
ATOM     62  H   UNL A   1      39.533  31.904  33.688  1.00  0.00     0.167 HD
ATOM     63  C   UNL A   1      40.902  32.284  36.144  1.00  0.00     0.074 A 
ATOM     64  C   UNL A   1      41.843  32.112  37.230  1.00  0.00     0.031 C 
ATOM     65  C   UNL A   1      40.012  33.302  36.066  1.00  0.00     0.037 A 
BRANCH  52  66
ATOM     66  C   UNL A   1      36.495  33.219  31.001  1.00  0.00     0.058 A 
ATOM     67  C   UNL A   1      36.756  34.023  29.881  1.00  0.00     0.135 A 
ATOM     68  C   UNL A   1      35.163  33.091  31.425  1.00  0.00     0.135 A 
ATOM     69  F   UNL A   1      38.011  34.160  29.424  1.00  0.00    -0.206 F 
ATOM     70  C   UNL A   1      35.738  34.713  29.233  1.00  0.00     0.059 A 
ATOM     71  C   UNL A   1      34.126  33.754  30.778  1.00  0.00     0.059 A 
ATOM     72  F   UNL A   1      34.860  32.303  32.469  1.00  0.00    -0.206 F 
ATOM     73  C   UNL A   1      34.429  34.581  29.696  1.00  0.00     0.060 A 
BRANCH  73  74
ATOM     74  S   UNL A   1      33.125  35.509  28.861  1.00  0.00     0.124 S 
ATOM     75  O   UNL A   1      32.348  36.015  29.988  1.00  0.00    -0.237 OA
ATOM     76  O   UNL A   1      33.889  36.505  28.117  1.00  0.00    -0.237 OA
ATOM     77  O   UNL A   1      32.462  34.499  28.042  1.00  0.00    -0.744 OA
ENDBRANCH  73  74
ENDBRANCH  52  66
BRANCH  53  78
ATOM     78  C   UNL A   1      43.772  28.554  36.041  1.00  0.00     0.058 A 
ATOM     79  C   UNL A   1      43.482  27.468  36.882  1.00  0.00     0.135 A 
ATOM     80  C   UNL A   1      45.115  28.944  35.923  1.00  0.00     0.135 A 
ATOM     81  F   UNL A   1      42.215  27.049  37.031  1.00  0.00    -0.206 F 
ATOM     82  C   UNL A   1      44.482  26.798  37.580  1.00  0.00     0.059 A 
ATOM     83  C   UNL A   1      46.137  28.273  36.591  1.00  0.00     0.059 A 
ATOM     84  F   UNL A   1      45.447  29.962  35.115  1.00  0.00    -0.206 F 
ATOM     85  C   UNL A   1      45.808  27.206  37.425  1.00  0.00     0.060 A 
BRANCH  85  86
ATOM     86  S   UNL A   1      47.097  26.294  38.304  1.00  0.00     0.124 S 
ATOM     87  O   UNL A   1      48.247  27.175  38.131  1.00  0.00    -0.237 OA
ATOM     88  O   UNL A   1      46.552  26.217  39.656  1.00  0.00    -0.237 OA
ATOM     89  O   UNL A   1      47.162  25.026  37.586  1.00  0.00    -0.744 OA
ENDBRANCH  85  86
ENDBRANCH  53  78
BRANCH  65  90
ATOM     90  C   UNL A   1      39.968  34.292  37.195  1.00  0.00     0.058 A 
ATOM     91  C   UNL A   1      39.020  34.152  38.223  1.00  0.00     0.135 A 
ATOM     92  C   UNL A   1      40.785  35.433  37.206  1.00  0.00     0.135 A 
ATOM     93  F   UNL A   1      38.207  33.084  38.253  1.00  0.00    -0.206 F 
ATOM     94  C   UNL A   1      38.869  35.120  39.210  1.00  0.00     0.059 A 
ATOM     95  C   UNL A   1      40.668  36.401  38.199  1.00  0.00     0.059 A 
ATOM     96  F   UNL A   1      41.710  35.609  36.249  1.00  0.00    -0.206 F 
ATOM     97  C   UNL A   1      39.695  36.245  39.185  1.00  0.00     0.060 A 
BRANCH  97  98
ATOM     98  S   UNL A   1      39.484  37.493  40.472  1.00  0.00     0.124 S 
ATOM     99  O   UNL A   1      40.744  38.224  40.390  1.00  0.00    -0.237 OA
ATOM    100  O   UNL A   1      38.301  38.214  40.012  1.00  0.00    -0.237 OA
ATOM    101  O   UNL A   1      39.294  36.702  41.684  1.00  0.00    -0.744 OA
ENDBRANCH  97  98
ENDBRANCH  65  90
ENDBRANCH  39  40
ENDBRANCH  32  34
ENDBRANCH  31  32
ENDBRANCH  30  31
ENDBRANCH  29  30
ENDBRANCH  28  29
ENDBRANCH  27  28
ENDBRANCH   1  27
TORSDOF 25
ENDMDL
MODEL 2
REMARK VINA RESULT:      -9.8      6.423     11.746
REMARK SMILES CC[C@H]1CO[C@@H](C)CN1c1cccc(F)c1C(=O)OCCOCCOCCOCCOC(=O)c1ccc(-c2c3nc(c(-c4c(F)cc(S(=O)(=O)[O-])cc4F)c4ccc([nH]4)c(-c4c(F)cc(S(=O)(=O)[O-])cc4F)c4nc(c(-c5c(F)cc(S(=O)(=O)[O-])cc5F)c5ccc2[nH]5)C=C4)C=C3)cc1
REMARK SMILES IDX 26 1 25 2 24 3 23 4 22 5 21 6 20 7 19 8 17 9 18 10 16 11
REMARK SMILES IDX 10 12 11 13 12 14 14 15 13 16 15 17 9 18 3 19 4 20 5 21 8 22
REMARK SMILES IDX 6 23 7 24 2 25 1 26 27 27 28 28 29 29 30 30 31 31 32 32
REMARK SMILES IDX 33 33 34 34 35 35 99 36 36 37 98 38 37 39 38 40 39 41 92 42
REMARK SMILES IDX 40 43 97 44 91 45 93 46 41 47 96 48 90 49 89 50 42 52 76 53
REMARK SMILES IDX 55 54 75 55 56 56 59 57 74 58 94 59 57 60 58 61 73 63 95 64
REMARK SMILES IDX 60 65 43 66 44 67 53 68 45 69 46 70 52 71 54 72 47 73 48 74
REMARK SMILES IDX 49 75 50 76 51 77 77 78 78 79 87 80 79 81 80 82 86 83 88 84
REMARK SMILES IDX 81 85 82 86 83 87 84 88 85 89 61 90 62 91 71 92 63 93 64 94
REMARK SMILES IDX 70 95 72 96 65 97 66 98 67 99 68 100 69 101
REMARK H PARENT 93 51 59 62
REMARK Flexibility Score: inf
ROOT
ATOM      1  C   UNL A   1      34.375  34.156  28.248  1.00  0.00     0.188 C 
ENDROOT
BRANCH   1   2
ATOM      2  O   UNL A   1      33.663  32.951  28.031  1.00  0.00    -0.377 OA
BRANCH   2   3
ATOM      3  C   UNL A   1      34.406  31.783  27.725  1.00  0.00     0.188 C 
BRANCH   3   4
ATOM      4  C   UNL A   1      33.687  30.508  27.252  1.00  0.00     0.188 C 
BRANCH   4   5
ATOM      5  O   UNL A   1      32.295  30.653  27.007  1.00  0.00    -0.376 OA
BRANCH   5   6
ATOM      6  C   UNL A   1      31.681  29.517  26.404  1.00  0.00     0.202 C 
BRANCH   6   7
ATOM      7  C   UNL A   1      31.721  28.291  27.315  1.00  0.00     0.261 C 
BRANCH   7   8
ATOM      8  O   UNL A   1      31.947  27.069  26.590  1.00  0.00    -0.460 OA
BRANCH   8   9
ATOM      9  C   UNL A   1      33.061  26.952  25.818  1.00  0.00     0.343 C 
ATOM     10  O   UNL A   1      34.183  27.283  26.129  1.00  0.00    -0.246 OA
BRANCH   9  11
ATOM     11  C   UNL A   1      32.654  26.247  24.570  1.00  0.00     0.119 A 
ATOM     12  C   UNL A   1      32.649  24.834  24.448  1.00  0.00     0.055 A 
ATOM     13  C   UNL A   1      32.229  24.290  23.217  1.00  0.00     0.027 A 
ATOM     14  C   UNL A   1      31.817  25.099  22.153  1.00  0.00     0.005 A 
ATOM     15  C   UNL A   1      32.241  27.044  23.492  1.00  0.00     0.139 A 
ATOM     16  C   UNL A   1      31.814  26.480  22.295  1.00  0.00     0.040 A 
ATOM     17  F   UNL A   1      32.243  28.383  23.578  1.00  0.00    -0.206 F 
BRANCH  12  18
ATOM     18  N   UNL A   1      32.996  23.978  25.495  1.00  0.00    -0.363 N 
ATOM     19  C   UNL A   1      32.161  23.873  26.725  1.00  0.00     0.108 C 
ATOM     20  C   UNL A   1      32.536  22.531  27.413  1.00  0.00     0.185 C 
ATOM     21  O   UNL A   1      33.929  22.495  27.774  1.00  0.00    -0.375 OA
ATOM     22  C   UNL A   1      34.432  23.984  25.879  1.00  0.00     0.148 C 
ATOM     23  C   UNL A   1      34.790  22.676  26.631  1.00  0.00     0.134 C 
ATOM     24  C   UNL A   1      34.786  21.419  25.765  1.00  0.00     0.040 C 
BRANCH  19  25
ATOM     25  C   UNL A   1      30.647  23.964  26.504  1.00  0.00     0.024 C 
ATOM     26  C   UNL A   1      29.973  22.650  26.899  1.00  0.00     0.006 C 
ENDBRANCH  19  25
ENDBRANCH  12  18
ENDBRANCH   9  11
ENDBRANCH   8   9
ENDBRANCH   7   8
ENDBRANCH   6   7
ENDBRANCH   5   6
ENDBRANCH   4   5
ENDBRANCH   3   4
ENDBRANCH   2   3
ENDBRANCH   1   2
BRANCH   1  27
ATOM     27  C   UNL A   1      34.200  34.821  29.626  1.00  0.00     0.188 C 
BRANCH  27  28
ATOM     28  O   UNL A   1      35.302  34.604  30.510  1.00  0.00    -0.376 OA
BRANCH  28  29
ATOM     29  C   UNL A   1      35.057  33.729  31.604  1.00  0.00     0.202 C 
BRANCH  29  30
ATOM     30  C   UNL A   1      35.106  32.237  31.259  1.00  0.00     0.261 C 
BRANCH  30  31
ATOM     31  O   UNL A   1      36.392  31.732  30.874  1.00  0.00    -0.460 OA
BRANCH  31  32
ATOM     32  C   UNL A   1      36.805  30.562  31.408  1.00  0.00     0.338 C 
ATOM     33  O   UNL A   1      36.144  29.781  32.068  1.00  0.00    -0.246 OA
BRANCH  32  34
ATOM     34  C   UNL A   1      38.150  30.286  30.854  1.00  0.00     0.060 A 
ATOM     35  C   UNL A   1      38.305  30.193  29.463  1.00  0.00     0.016 A 
ATOM     36  C   UNL A   1      39.265  30.231  31.696  1.00  0.00     0.016 A 
ATOM     37  C   UNL A   1      39.578  30.028  28.914  1.00  0.00     0.010 A 
ATOM     38  C   UNL A   1      40.533  30.034  31.149  1.00  0.00     0.010 A 
ATOM     39  C   UNL A   1      40.690  29.902  29.759  1.00  0.00    -0.014 A 
BRANCH  39  40
ATOM     40  C   UNL A   1      41.962  29.362  29.225  1.00  0.00     0.031 A 
ATOM     41  C   UNL A   1      43.121  30.318  29.131  1.00  0.00     0.074 A 
ATOM     42  C   UNL A   1      42.095  28.080  28.840  1.00  0.00     0.049 A 
ATOM     43  N   UNL A   1      44.314  30.129  28.636  1.00  0.00    -0.248 NA
ATOM     44  C   UNL A   1      42.902  31.672  29.673  1.00  0.00     0.031 C 
ATOM     45  C   UNL A   1      41.060  27.052  28.931  1.00  0.00     0.029 A 
ATOM     46  N   UNL A   1      43.169  27.426  28.287  1.00  0.00    -0.354 N 
ATOM     47  C   UNL A   1      44.988  31.330  28.817  1.00  0.00     0.074 A 
ATOM     48  C   UNL A   1      44.067  32.255  29.436  1.00  0.00     0.031 C 
ATOM     49  C   UNL A   1      41.550  25.895  28.446  1.00  0.00     0.029 A 
ATOM     50  C   UNL A   1      42.920  26.109  27.978  1.00  0.00     0.049 A 
ATOM     51  H   UNL A   1      44.038  27.861  28.126  1.00  0.00     0.167 HD
ATOM     52  C   UNL A   1      46.268  31.633  28.506  1.00  0.00     0.037 A 
ATOM     53  C   UNL A   1      43.707  25.195  27.373  1.00  0.00     0.037 A 
ATOM     54  C   UNL A   1      47.178  30.717  27.879  1.00  0.00     0.049 A 
ATOM     55  C   UNL A   1      45.098  25.594  26.938  1.00  0.00     0.074 A 
ATOM     56  C   UNL A   1      48.490  30.937  27.501  1.00  0.00     0.029 A 
ATOM     57  N   UNL A   1      46.873  29.409  27.540  1.00  0.00    -0.354 N 
ATOM     58  N   UNL A   1      45.723  26.735  27.109  1.00  0.00    -0.248 NA
ATOM     59  C   UNL A   1      45.891  24.583  26.221  1.00  0.00     0.031 C 
ATOM     60  C   UNL A   1      48.968  29.770  26.898  1.00  0.00     0.029 A 
ATOM     61  C   UNL A   1      47.968  28.811  26.945  1.00  0.00     0.049 A 
ATOM     62  H   UNL A   1      46.006  28.969  27.701  1.00  0.00     0.167 HD
ATOM     63  C   UNL A   1      46.988  26.567  26.555  1.00  0.00     0.074 A 
ATOM     64  C   UNL A   1      47.045  25.213  26.047  1.00  0.00     0.031 C 
ATOM     65  C   UNL A   1      48.012  27.451  26.471  1.00  0.00     0.037 A 
BRANCH  52  66
ATOM     66  C   UNL A   1      46.765  33.008  28.838  1.00  0.00     0.058 A 
ATOM     67  C   UNL A   1      46.727  34.033  27.880  1.00  0.00     0.135 A 
ATOM     68  C   UNL A   1      47.359  33.285  30.078  1.00  0.00     0.135 A 
ATOM     69  F   UNL A   1      46.150  33.823  26.687  1.00  0.00    -0.206 F 
ATOM     70  C   UNL A   1      47.300  35.275  28.128  1.00  0.00     0.059 A 
ATOM     71  C   UNL A   1      47.919  34.527  30.356  1.00  0.00     0.059 A 
ATOM     72  F   UNL A   1      47.387  32.347  31.039  1.00  0.00    -0.206 F 
ATOM     73  C   UNL A   1      47.904  35.508  29.364  1.00  0.00     0.060 A 
BRANCH  73  74
ATOM     74  S   UNL A   1      48.669  37.116  29.655  1.00  0.00     0.124 S 
ATOM     75  O   UNL A   1      48.290  37.383  31.039  1.00  0.00    -0.237 OA
ATOM     76  O   UNL A   1      50.082  36.827  29.427  1.00  0.00    -0.237 OA
ATOM     77  O   UNL A   1      48.045  37.976  28.654  1.00  0.00    -0.744 OA
ENDBRANCH  73  74
ENDBRANCH  52  66
BRANCH  53  78
ATOM     78  C   UNL A   1      43.214  23.812  27.122  1.00  0.00     0.058 A 
ATOM     79  C   UNL A   1      42.806  23.401  25.843  1.00  0.00     0.135 A 
ATOM     80  C   UNL A   1      43.189  22.856  28.149  1.00  0.00     0.135 A 
ATOM     81  F   UNL A   1      42.811  24.272  24.821  1.00  0.00    -0.206 F 
ATOM     82  C   UNL A   1      42.388  22.098  25.593  1.00  0.00     0.059 A 
ATOM     83  C   UNL A   1      42.800  21.538  27.919  1.00  0.00     0.059 A 
ATOM     84  F   UNL A   1      43.589  23.192  29.385  1.00  0.00    -0.206 F 
ATOM     85  C   UNL A   1      42.392  21.172  26.637  1.00  0.00     0.060 A 
BRANCH  85  86
ATOM     86  S   UNL A   1      41.890  19.472  26.283  1.00  0.00     0.124 S 
ATOM     87  O   UNL A   1      42.634  19.199  25.057  1.00  0.00    -0.237 OA
ATOM     88  O   UNL A   1      42.344  18.762  27.474  1.00  0.00    -0.237 OA
ATOM     89  O   UNL A   1      40.443  19.574  26.131  1.00  0.00    -0.744 OA
ENDBRANCH  85  86
ENDBRANCH  53  78
BRANCH  65  90
ATOM     90  C   UNL A   1      49.300  26.987  25.853  1.00  0.00     0.058 A 
ATOM     91  C   UNL A   1      50.301  26.410  26.652  1.00  0.00     0.135 A 
ATOM     92  C   UNL A   1      49.587  27.210  24.497  1.00  0.00     0.135 A 
ATOM     93  F   UNL A   1      50.081  26.185  27.956  1.00  0.00    -0.206 F 
ATOM     94  C   UNL A   1      51.551  26.090  26.133  1.00  0.00     0.059 A 
ATOM     95  C   UNL A   1      50.822  26.873  23.951  1.00  0.00     0.059 A 
ATOM     96  F   UNL A   1      48.661  27.752  23.692  1.00  0.00    -0.206 F 
ATOM     97  C   UNL A   1      51.804  26.332  24.782  1.00  0.00     0.060 A 
BRANCH  97  98
ATOM     98  S   UNL A   1      53.432  25.913  24.125  1.00  0.00     0.124 S 
ATOM     99  O   UNL A   1      54.264  26.971  24.689  1.00  0.00    -0.237 OA
ATOM    100  O   UNL A   1      53.651  24.576  24.668  1.00  0.00    -0.237 OA
ATOM    101  O   UNL A   1      53.240  25.970  22.679  1.00  0.00    -0.744 OA
ENDBRANCH  97  98
ENDBRANCH  65  90
ENDBRANCH  39  40
ENDBRANCH  32  34
ENDBRANCH  31  32
ENDBRANCH  30  31
ENDBRANCH  29  30
ENDBRANCH  28  29
ENDBRANCH  27  28
ENDBRANCH   1  27
TORSDOF 25
ENDMDL
MODEL 3
REMARK VINA RESULT:      -9.5      1.396      8.355
REMARK SMILES CC[C@H]1CO[C@@H](C)CN1c1cccc(F)c1C(=O)OCCOCCOCCOCCOC(=O)c1ccc(-c2c3nc(c(-c4c(F)cc(S(=O)(=O)[O-])cc4F)c4ccc([nH]4)c(-c4c(F)cc(S(=O)(=O)[O-])cc4F)c4nc(c(-c5c(F)cc(S(=O)(=O)[O-])cc5F)c5ccc2[nH]5)C=C4)C=C3)cc1
REMARK SMILES IDX 26 1 25 2 24 3 23 4 22 5 21 6 20 7 19 8 17 9 18 10 16 11
REMARK SMILES IDX 10 12 11 13 12 14 14 15 13 16 15 17 9 18 3 19 4 20 5 21 8 22
REMARK SMILES IDX 6 23 7 24 2 25 1 26 27 27 28 28 29 29 30 30 31 31 32 32
REMARK SMILES IDX 33 33 34 34 35 35 99 36 36 37 98 38 37 39 38 40 39 41 92 42
REMARK SMILES IDX 40 43 97 44 91 45 93 46 41 47 96 48 90 49 89 50 42 52 76 53
REMARK SMILES IDX 55 54 75 55 56 56 59 57 74 58 94 59 57 60 58 61 73 63 95 64
REMARK SMILES IDX 60 65 43 66 44 67 53 68 45 69 46 70 52 71 54 72 47 73 48 74
REMARK SMILES IDX 49 75 50 76 51 77 77 78 78 79 87 80 79 81 80 82 86 83 88 84
REMARK SMILES IDX 81 85 82 86 83 87 84 88 85 89 61 90 62 91 71 92 63 93 64 94
REMARK SMILES IDX 70 95 72 96 65 97 66 98 67 99 68 100 69 101
REMARK H PARENT 93 51 59 62
REMARK Flexibility Score: inf
ROOT
ATOM      1  C   UNL A   1      36.086  23.271  24.130  1.00  0.00     0.188 C 
ENDROOT
BRANCH   1   2
ATOM      2  O   UNL A   1      34.952  23.374  23.288  1.00  0.00    -0.377 OA
BRANCH   2   3
ATOM      3  C   UNL A   1      33.943  24.306  23.637  1.00  0.00     0.188 C 
BRANCH   3   4
ATOM      4  C   UNL A   1      33.572  24.531  25.113  1.00  0.00     0.188 C 
BRANCH   4   5
ATOM      5  O   UNL A   1      33.068  25.824  25.422  1.00  0.00    -0.376 OA
BRANCH   5   6
ATOM      6  C   UNL A   1      32.142  25.853  26.504  1.00  0.00     0.202 C 
BRANCH   6   7
ATOM      7  C   UNL A   1      31.274  27.109  26.484  1.00  0.00     0.261 C 
BRANCH   7   8
ATOM      8  O   UNL A   1      32.050  28.320  26.505  1.00  0.00    -0.460 OA
BRANCH   8   9
ATOM      9  C   UNL A   1      31.777  29.299  25.602  1.00  0.00     0.343 C 
ATOM     10  O   UNL A   1      31.167  30.323  25.820  1.00  0.00    -0.246 OA
BRANCH   9  11
ATOM     11  C   UNL A   1      32.458  28.923  24.332  1.00  0.00     0.119 A 
ATOM     12  C   UNL A   1      31.778  28.824  23.091  1.00  0.00     0.055 A 
ATOM     13  C   UNL A   1      32.541  28.472  21.959  1.00  0.00     0.027 A 
ATOM     14  C   UNL A   1      33.919  28.241  22.038  1.00  0.00     0.005 A 
ATOM     15  C   UNL A   1      33.839  28.684  24.394  1.00  0.00     0.139 A 
ATOM     16  C   UNL A   1      34.570  28.357  23.258  1.00  0.00     0.040 A 
ATOM     17  F   UNL A   1      34.506  28.764  25.556  1.00  0.00    -0.206 F 
BRANCH  12  18
ATOM     18  N   UNL A   1      30.417  29.098  22.945  1.00  0.00    -0.363 N 
ATOM     19  C   UNL A   1      29.422  28.011  22.725  1.00  0.00     0.108 C 
ATOM     20  C   UNL A   1      28.030  28.589  23.102  1.00  0.00     0.185 C 
ATOM     21  O   UNL A   1      27.691  29.723  22.282  1.00  0.00    -0.375 OA
ATOM     22  C   UNL A   1      30.086  30.248  22.064  1.00  0.00     0.148 C 
ATOM     23  C   UNL A   1      28.667  30.780  22.389  1.00  0.00     0.134 C 
ATOM     24  C   UNL A   1      28.539  31.478  23.741  1.00  0.00     0.040 C 
BRANCH  19  25
ATOM     25  C   UNL A   1      29.690  26.707  23.486  1.00  0.00     0.024 C 
ATOM     26  C   UNL A   1      28.445  26.280  24.263  1.00  0.00     0.006 C 
ENDBRANCH  19  25
ENDBRANCH  12  18
ENDBRANCH   9  11
ENDBRANCH   8   9
ENDBRANCH   7   8
ENDBRANCH   6   7
ENDBRANCH   5   6
ENDBRANCH   4   5
ENDBRANCH   3   4
ENDBRANCH   2   3
ENDBRANCH   1   2
BRANCH   1  27
ATOM     27  C   UNL A   1      36.570  21.847  24.463  1.00  0.00     0.188 C 
BRANCH  27  28
ATOM     28  O   UNL A   1      37.963  21.774  24.773  1.00  0.00    -0.376 OA
BRANCH  28  29
ATOM     29  C   UNL A   1      38.350  22.328  26.023  1.00  0.00     0.202 C 
BRANCH  29  30
ATOM     30  C   UNL A   1      38.764  23.802  25.975  1.00  0.00     0.261 C 
BRANCH  30  31
ATOM     31  O   UNL A   1      39.940  24.140  26.724  1.00  0.00    -0.460 OA
BRANCH  31  32
ATOM     32  C   UNL A   1      40.625  25.251  26.370  1.00  0.00     0.338 C 
ATOM     33  O   UNL A   1      41.020  25.549  25.258  1.00  0.00    -0.246 OA
BRANCH  32  34
ATOM     34  C   UNL A   1      40.611  26.157  27.542  1.00  0.00     0.060 A 
ATOM     35  C   UNL A   1      39.643  25.963  28.539  1.00  0.00     0.016 A 
ATOM     36  C   UNL A   1      41.614  27.116  27.706  1.00  0.00     0.016 A 
ATOM     37  C   UNL A   1      39.670  26.743  29.696  1.00  0.00     0.010 A 
ATOM     38  C   UNL A   1      41.621  27.917  28.848  1.00  0.00     0.010 A 
ATOM     39  C   UNL A   1      40.632  27.753  29.833  1.00  0.00    -0.014 A 
BRANCH  39  40
ATOM     40  C   UNL A   1      40.447  28.812  30.852  1.00  0.00     0.031 A 
ATOM     41  C   UNL A   1      41.341  28.755  32.062  1.00  0.00     0.074 A 
ATOM     42  C   UNL A   1      39.531  29.788  30.720  1.00  0.00     0.049 A 
ATOM     43  N   UNL A   1      41.341  29.505  33.130  1.00  0.00    -0.248 NA
ATOM     44  C   UNL A   1      42.379  27.707  32.064  1.00  0.00     0.031 C 
ATOM     45  C   UNL A   1      38.647  29.975  29.571  1.00  0.00     0.029 A 
ATOM     46  N   UNL A   1      39.194  30.811  31.573  1.00  0.00    -0.354 N 
ATOM     47  C   UNL A   1      42.379  29.030  33.921  1.00  0.00     0.074 A 
ATOM     48  C   UNL A   1      42.970  27.907  33.232  1.00  0.00     0.031 C 
ATOM     49  C   UNL A   1      37.863  31.047  29.795  1.00  0.00     0.029 A 
ATOM     50  C   UNL A   1      38.166  31.602  31.114  1.00  0.00     0.049 A 
ATOM     51  H   UNL A   1      39.647  30.963  32.434  1.00  0.00     0.167 HD
ATOM     52  C   UNL A   1      42.811  29.497  35.113  1.00  0.00     0.037 A 
ATOM     53  C   UNL A   1      37.538  32.639  31.706  1.00  0.00     0.037 A 
ATOM     54  C   UNL A   1      42.215  30.605  35.804  1.00  0.00     0.049 A 
ATOM     55  C   UNL A   1      37.973  33.071  33.087  1.00  0.00     0.074 A 
ATOM     56  C   UNL A   1      42.565  31.140  37.030  1.00  0.00     0.029 A 
ATOM     57  N   UNL A   1      41.147  31.349  35.328  1.00  0.00    -0.354 N 
ATOM     58  N   UNL A   1      38.952  32.610  33.828  1.00  0.00    -0.248 NA
ATOM     59  C   UNL A   1      37.211  34.162  33.717  1.00  0.00     0.031 C 
ATOM     60  C   UNL A   1      41.683  32.187  37.314  1.00  0.00     0.029 A 
ATOM     61  C   UNL A   1      40.815  32.331  36.242  1.00  0.00     0.049 A 
ATOM     62  H   UNL A   1      40.692  31.200  34.467  1.00  0.00     0.167 HD
ATOM     63  C   UNL A   1      38.946  33.375  34.991  1.00  0.00     0.074 A 
ATOM     64  C   UNL A   1      37.870  34.333  34.856  1.00  0.00     0.031 C 
ATOM     65  C   UNL A   1      39.757  33.294  36.074  1.00  0.00     0.037 A 
BRANCH  52  66
ATOM     66  C   UNL A   1      43.985  28.817  35.751  1.00  0.00     0.058 A 
ATOM     67  C   UNL A   1      43.797  27.741  36.632  1.00  0.00     0.135 A 
ATOM     68  C   UNL A   1      45.292  29.288  35.554  1.00  0.00     0.135 A 
ATOM     69  F   UNL A   1      42.569  27.240  36.835  1.00  0.00    -0.206 F 
ATOM     70  C   UNL A   1      44.862  27.182  37.329  1.00  0.00     0.059 A 
ATOM     71  C   UNL A   1      46.376  28.731  36.225  1.00  0.00     0.059 A 
ATOM     72  F   UNL A   1      45.526  30.292  34.693  1.00  0.00    -0.206 F 
ATOM     73  C   UNL A   1      46.145  27.692  37.128  1.00  0.00     0.060 A 
BRANCH  73  74
ATOM     74  S   UNL A   1      47.511  26.976  38.065  1.00  0.00     0.124 S 
ATOM     75  O   UNL A   1      48.661  27.674  37.501  1.00  0.00    -0.237 OA
ATOM     76  O   UNL A   1      47.159  27.332  39.436  1.00  0.00    -0.237 OA
ATOM     77  O   UNL A   1      47.424  25.552  37.755  1.00  0.00    -0.744 OA
ENDBRANCH  73  74
ENDBRANCH  52  66
BRANCH  53  78
ATOM     78  C   UNL A   1      36.422  33.346  31.018  1.00  0.00     0.058 A 
ATOM     79  C   UNL A   1      35.097  33.231  31.466  1.00  0.00     0.135 A 
ATOM     80  C   UNL A   1      36.667  34.195  29.928  1.00  0.00     0.135 A 
ATOM     81  F   UNL A   1      34.802  32.436  32.507  1.00  0.00    -0.206 F 
ATOM     82  C   UNL A   1      34.057  33.926  30.856  1.00  0.00     0.059 A 
ATOM     83  C   UNL A   1      35.648  34.921  29.316  1.00  0.00     0.059 A 
ATOM     84  F   UNL A   1      37.920  34.357  29.475  1.00  0.00    -0.206 F 
ATOM     85  C   UNL A   1      34.343  34.772  29.783  1.00  0.00     0.060 A 
BRANCH  85  86
ATOM     86  S   UNL A   1      32.986  35.701  29.034  1.00  0.00     0.124 S 
ATOM     87  O   UNL A   1      32.209  36.081  30.210  1.00  0.00    -0.237 OA
ATOM     88  O   UNL A   1      33.691  36.786  28.360  1.00  0.00    -0.237 OA
ATOM     89  O   UNL A   1      32.356  34.724  28.153  1.00  0.00    -0.744 OA
ENDBRANCH  85  86
ENDBRANCH  53  78
BRANCH  65  90
ATOM     90  C   UNL A   1      39.555  34.285  37.186  1.00  0.00     0.058 A 
ATOM     91  C   UNL A   1      40.186  35.539  37.139  1.00  0.00     0.135 A 
ATOM     92  C   UNL A   1      38.831  33.956  38.342  1.00  0.00     0.135 A 
ATOM     93  F   UNL A   1      40.898  35.898  36.059  1.00  0.00    -0.206 F 
ATOM     94  C   UNL A   1      40.123  36.425  38.209  1.00  0.00     0.059 A 
ATOM     95  C   UNL A   1      38.734  34.838  39.414  1.00  0.00     0.059 A 
ATOM     96  F   UNL A   1      38.206  32.772  38.432  1.00  0.00    -0.206 F 
ATOM     97  C   UNL A   1      39.400  36.062  39.345  1.00  0.00     0.060 A 
BRANCH  97  98
ATOM     98  S   UNL A   1      39.332  37.222  40.727  1.00  0.00     0.124 S 
ATOM     99  O   UNL A   1      38.756  36.397  41.783  1.00  0.00    -0.237 OA
ATOM    100  O   UNL A   1      40.736  37.582  40.897  1.00  0.00    -0.237 OA
ATOM    101  O   UNL A   1      38.474  38.293  40.228  1.00  0.00    -0.744 OA
ENDBRANCH  97  98
ENDBRANCH  65  90
ENDBRANCH  39  40
ENDBRANCH  32  34
ENDBRANCH  31  32
ENDBRANCH  30  31
ENDBRANCH  29  30
ENDBRANCH  28  29
ENDBRANCH  27  28
ENDBRANCH   1  27
TORSDOF 25
ENDMDL
