MODEL 1
REMARK VINA RESULT:      -9.4      0.000      0.000
REMARK SMILES O=C(OCCOCCOCCOCCOC(=O)c1nnn(-c2cccc(OC(F)(F)F)c2)c1-c1ccncc1)c1ccc(-c2c3nc(c(-c4c(F)cc(S(=O)(=O)[O-])cc4F)c4ccc([nH]4)c(-c4c(F)cc(S(=O)(=O)[O-])cc4F)c4nc(c(-c5c(F)cc(S(=O)(=O)[O-])cc5F)c5ccc2[nH]5)C=C4)C=C3)cc1
REMARK SMILES IDX 9 1 8 2 7 3 6 4 5 5 4 6 3 7 2 8 1 9 40 10 41 11 105 12 42 13
REMARK SMILES IDX 104 14 43 15 44 16 45 17 98 18 46 19 103 20 97 21 99 22
REMARK SMILES IDX 47 23 102 24 96 25 95 26 48 28 82 29 61 30 81 31 62 32 65 33
REMARK SMILES IDX 80 34 100 35 63 36 64 37 79 39 101 40 66 41 49 42 50 43
REMARK SMILES IDX 59 44 51 45 52 46 58 47 60 48 53 49 54 50 55 51 56 52 57 53
REMARK SMILES IDX 83 54 84 55 93 56 85 57 86 58 92 59 94 60 87 61 88 62 89 63
REMARK SMILES IDX 90 64 91 65 67 66 68 67 77 68 69 69 70 70 76 71 78 72 71 73
REMARK SMILES IDX 72 74 73 75 74 76 75 77 10 78 11 79 12 80 13 81 14 82 15 83
REMARK SMILES IDX 16 84 17 85 18 86 19 87 33 88 20 89 21 90 34 91 35 92 39 93
REMARK SMILES IDX 36 94 38 95 37 96 22 97 23 98 32 99 24 100 26 101 25 102
REMARK SMILES IDX 27 103 28 104 29 105 30 106 31 107
REMARK H PARENT 99 27 65 38
REMARK Flexibility Score: inf
ROOT
ATOM      1  O   UNL A   1      41.177  24.593  28.334  1.00  0.00    -0.377 OA
ENDROOT
BRANCH   1   2
ATOM      2  C   UNL A   1      41.960  25.352  27.429  1.00  0.00     0.188 C 
BRANCH   2   3
ATOM      3  C   UNL A   1      42.836  24.535  26.470  1.00  0.00     0.188 C 
BRANCH   3   4
ATOM      4  O   UNL A   1      43.992  23.810  26.854  1.00  0.00    -0.376 OA
BRANCH   4   5
ATOM      5  C   UNL A   1      45.095  23.423  26.065  1.00  0.00     0.202 C 
BRANCH   5   6
ATOM      6  C   UNL A   1      46.088  24.379  25.400  1.00  0.00     0.261 C 
BRANCH   6   7
ATOM      7  O   UNL A   1      45.561  25.464  24.648  1.00  0.00    -0.460 OA
BRANCH   7   8
ATOM      8  C   UNL A   1      45.628  26.790  24.882  1.00  0.00     0.338 C 
ATOM      9  O   UNL A   1      46.535  27.423  24.345  1.00  0.00    -0.246 OA
BRANCH   8  10
ATOM     10  C   UNL A   1      44.753  27.503  25.850  1.00  0.00     0.060 A 
ATOM     11  C   UNL A   1      43.621  28.252  25.530  1.00  0.00     0.016 A 
ATOM     12  C   UNL A   1      45.151  27.414  27.200  1.00  0.00     0.016 A 
ATOM     13  C   UNL A   1      42.985  29.004  26.497  1.00  0.00     0.010 A 
ATOM     14  C   UNL A   1      44.506  28.151  28.180  1.00  0.00     0.010 A 
ATOM     15  C   UNL A   1      43.485  29.012  27.794  1.00  0.00    -0.014 A 
BRANCH  15  16
ATOM     16  C   UNL A   1      42.997  30.077  28.651  1.00  0.00     0.031 A 
ATOM     17  C   UNL A   1      43.948  31.170  28.976  1.00  0.00     0.074 A 
ATOM     18  C   UNL A   1      41.746  30.014  29.146  1.00  0.00     0.049 A 
ATOM     19  N   UNL A   1      44.401  31.530  30.135  1.00  0.00    -0.248 NA
ATOM     20  C   UNL A   1      44.542  31.898  27.847  1.00  0.00     0.031 C 
ATOM     21  C   UNL A   1      40.655  29.123  28.731  1.00  0.00     0.029 A 
ATOM     22  N   UNL A   1      41.155  30.818  30.064  1.00  0.00    -0.354 N 
ATOM     23  C   UNL A   1      45.181  32.661  29.905  1.00  0.00     0.074 A 
ATOM     24  C   UNL A   1      45.338  32.762  28.477  1.00  0.00     0.031 C 
ATOM     25  C   UNL A   1      39.489  29.601  29.211  1.00  0.00     0.029 A 
ATOM     26  C   UNL A   1      39.773  30.736  30.071  1.00  0.00     0.049 A 
ATOM     27  H   UNL A   1      41.662  31.406  30.671  1.00  0.00     0.167 HD
ATOM     28  C   UNL A   1      45.475  33.554  30.891  1.00  0.00     0.037 A 
ATOM     29  C   UNL A   1      38.921  31.612  30.652  1.00  0.00     0.037 A 
ATOM     30  C   UNL A   1      45.345  32.970  32.199  1.00  0.00     0.049 A 
ATOM     31  C   UNL A   1      39.681  32.342  31.700  1.00  0.00     0.074 A 
ATOM     32  C   UNL A   1      45.956  31.921  32.857  1.00  0.00     0.029 A 
ATOM     33  N   UNL A   1      44.240  33.285  32.952  1.00  0.00    -0.354 N 
ATOM     34  N   UNL A   1      40.151  31.786  32.784  1.00  0.00    -0.248 NA
ATOM     35  C   UNL A   1      40.293  33.614  31.341  1.00  0.00     0.031 C 
ATOM     36  C   UNL A   1      44.942  31.359  33.687  1.00  0.00     0.029 A 
ATOM     37  C   UNL A   1      43.784  32.116  33.504  1.00  0.00     0.049 A 
ATOM     38  H   UNL A   1      43.851  34.182  33.073  1.00  0.00     0.167 HD
ATOM     39  C   UNL A   1      41.366  32.417  33.017  1.00  0.00     0.074 A 
ATOM     40  C   UNL A   1      41.348  33.597  32.158  1.00  0.00     0.031 C 
ATOM     41  C   UNL A   1      42.385  31.789  33.676  1.00  0.00     0.037 A 
BRANCH  28  42
ATOM     42  C   UNL A   1      45.559  35.046  30.670  1.00  0.00     0.058 A 
ATOM     43  C   UNL A   1      46.690  35.760  31.119  1.00  0.00     0.135 A 
ATOM     44  C   UNL A   1      44.449  35.839  30.299  1.00  0.00     0.135 A 
ATOM     45  F   UNL A   1      47.802  35.111  31.500  1.00  0.00    -0.206 F 
ATOM     46  C   UNL A   1      46.685  37.148  31.274  1.00  0.00     0.059 A 
ATOM     47  C   UNL A   1      44.442  37.225  30.393  1.00  0.00     0.059 A 
ATOM     48  F   UNL A   1      43.280  35.303  29.927  1.00  0.00    -0.206 F 
ATOM     49  C   UNL A   1      45.544  37.868  30.932  1.00  0.00     0.060 A 
BRANCH  49  50
ATOM     50  S   UNL A   1      45.467  39.633  31.280  1.00  0.00     0.124 S 
ATOM     51  O   UNL A   1      46.746  40.086  30.745  1.00  0.00    -0.237 OA
ATOM     52  O   UNL A   1      44.281  40.040  30.535  1.00  0.00    -0.237 OA
ATOM     53  O   UNL A   1      45.335  39.682  32.732  1.00  0.00    -0.744 OA
ENDBRANCH  49  50
ENDBRANCH  28  42
BRANCH  29  54
ATOM     54  C   UNL A   1      37.651  32.100  30.056  1.00  0.00     0.058 A 
ATOM     55  C   UNL A   1      36.407  31.722  30.582  1.00  0.00     0.135 A 
ATOM     56  C   UNL A   1      37.636  33.143  29.103  1.00  0.00     0.135 A 
ATOM     57  F   UNL A   1      36.335  30.763  31.518  1.00  0.00    -0.206 F 
ATOM     58  C   UNL A   1      35.219  32.358  30.205  1.00  0.00     0.059 A 
ATOM     59  C   UNL A   1      36.464  33.776  28.699  1.00  0.00     0.059 A 
ATOM     60  F   UNL A   1      38.772  33.644  28.597  1.00  0.00    -0.206 F 
ATOM     61  C   UNL A   1      35.260  33.394  29.271  1.00  0.00     0.060 A 
BRANCH  61  62
ATOM     62  S   UNL A   1      33.753  34.316  28.893  1.00  0.00     0.124 S 
ATOM     63  O   UNL A   1      33.039  33.383  28.029  1.00  0.00    -0.237 OA
ATOM     64  O   UNL A   1      33.182  34.527  30.218  1.00  0.00    -0.237 OA
ATOM     65  O   UNL A   1      34.250  35.521  28.233  1.00  0.00    -0.744 OA
ENDBRANCH  61  62
ENDBRANCH  29  54
BRANCH  41  66
ATOM     66  C   UNL A   1      42.085  30.504  34.404  1.00  0.00     0.058 A 
ATOM     67  C   UNL A   1      41.884  29.273  33.758  1.00  0.00     0.135 A 
ATOM     68  C   UNL A   1      42.199  30.483  35.803  1.00  0.00     0.135 A 
ATOM     69  F   UNL A   1      41.871  29.192  32.420  1.00  0.00    -0.206 F 
ATOM     70  C   UNL A   1      41.774  28.077  34.469  1.00  0.00     0.059 A 
ATOM     71  C   UNL A   1      42.122  29.297  36.532  1.00  0.00     0.059 A 
ATOM     72  F   UNL A   1      42.460  31.617  36.474  1.00  0.00    -0.206 F 
ATOM     73  C   UNL A   1      41.904  28.098  35.858  1.00  0.00     0.060 A 
BRANCH  73  74
ATOM     74  S   UNL A   1      41.890  26.534  36.762  1.00  0.00     0.124 S 
ATOM     75  O   UNL A   1      40.542  26.513  37.322  1.00  0.00    -0.237 OA
ATOM     76  O   UNL A   1      42.153  25.554  35.711  1.00  0.00    -0.237 OA
ATOM     77  O   UNL A   1      42.968  26.691  37.735  1.00  0.00    -0.744 OA
ENDBRANCH  73  74
ENDBRANCH  41  66
ENDBRANCH  15  16
ENDBRANCH   8  10
ENDBRANCH   7   8
ENDBRANCH   6   7
ENDBRANCH   5   6
ENDBRANCH   4   5
ENDBRANCH   3   4
ENDBRANCH   2   3
ENDBRANCH   1   2
BRANCH   1  78
ATOM     78  C   UNL A   1      39.791  24.644  28.084  1.00  0.00     0.188 C 
BRANCH  78  79
ATOM     79  C   UNL A   1      39.287  23.671  26.995  1.00  0.00     0.188 C 
BRANCH  79  80
ATOM     80  O   UNL A   1      38.343  24.017  25.984  1.00  0.00    -0.376 OA
BRANCH  80  81
ATOM     81  C   UNL A   1      36.995  23.591  26.039  1.00  0.00     0.202 C 
BRANCH  81  82
ATOM     82  C   UNL A   1      36.365  23.310  24.675  1.00  0.00     0.261 C 
BRANCH  82  83
ATOM     83  O   UNL A   1      35.239  24.145  24.386  1.00  0.00    -0.458 OA
BRANCH  83  84
ATOM     84  C   UNL A   1      34.591  23.902  23.215  1.00  0.00     0.361 C 
ATOM     85  O   UNL A   1      34.691  22.884  22.539  1.00  0.00    -0.244 OA
BRANCH  84  86
ATOM     86  C   UNL A   1      33.740  25.019  22.847  1.00  0.00     0.198 A 
ATOM     87  N   UNL A   1      33.923  25.783  21.718  1.00  0.00    -0.122 NA
ATOM     88  C   UNL A   1      32.580  25.421  23.488  1.00  0.00     0.109 A 
ATOM     89  N   UNL A   1      32.928  26.656  21.640  1.00  0.00    -0.061 NA
ATOM     90  N   UNL A   1      32.236  26.574  22.797  1.00  0.00    -0.212 N 
BRANCH  88  91
ATOM     91  C   UNL A   1      31.894  24.915  24.678  1.00  0.00     0.006 A 
ATOM     92  C   UNL A   1      32.097  25.515  25.921  1.00  0.00     0.030 A 
ATOM     93  C   UNL A   1      31.026  23.824  24.596  1.00  0.00     0.030 A 
ATOM     94  C   UNL A   1      31.427  25.006  27.021  1.00  0.00     0.111 A 
ATOM     95  C   UNL A   1      30.397  23.392  25.753  1.00  0.00     0.111 A 
ATOM     96  N   UNL A   1      30.574  23.964  26.961  1.00  0.00    -0.265 NA
ENDBRANCH  88  91
BRANCH  90  97
ATOM     97  C   UNL A   1      31.638  27.719  23.356  1.00  0.00     0.071 A 
ATOM     98  C   UNL A   1      32.317  28.536  24.252  1.00  0.00     0.029 A 
ATOM     99  C   UNL A   1      30.318  27.997  22.967  1.00  0.00     0.075 A 
ATOM    100  C   UNL A   1      31.681  29.700  24.687  1.00  0.00     0.006 A 
ATOM    101  C   UNL A   1      29.674  29.135  23.423  1.00  0.00     0.131 A 
ATOM    102  C   UNL A   1      30.374  29.998  24.269  1.00  0.00     0.047 A 
BRANCH 101 103
ATOM    103  O   UNL A   1      28.394  29.493  23.107  1.00  0.00    -0.406 OA
BRANCH 103 104
ATOM    104  C   UNL A   1      28.232  30.530  22.145  1.00  0.00     0.573 C 
ATOM    105  F   UNL A   1      29.266  31.399  22.176  1.00  0.00    -0.132 F 
ATOM    106  F   UNL A   1      28.114  30.022  20.898  1.00  0.00    -0.132 F 
ATOM    107  F   UNL A   1      27.103  31.216  22.424  1.00  0.00    -0.132 F 
ENDBRANCH 103 104
ENDBRANCH 101 103
ENDBRANCH  90  97
ENDBRANCH  84  86
ENDBRANCH  83  84
ENDBRANCH  82  83
ENDBRANCH  81  82
ENDBRANCH  80  81
ENDBRANCH  79  80
ENDBRANCH  78  79
ENDBRANCH   1  78
TORSDOF 27
ENDMDL
MODEL 2
REMARK VINA RESULT:      -8.7      2.493      7.351
REMARK SMILES O=C(OCCOCCOCCOCCOC(=O)c1nnn(-c2cccc(OC(F)(F)F)c2)c1-c1ccncc1)c1ccc(-c2c3nc(c(-c4c(F)cc(S(=O)(=O)[O-])cc4F)c4ccc([nH]4)c(-c4c(F)cc(S(=O)(=O)[O-])cc4F)c4nc(c(-c5c(F)cc(S(=O)(=O)[O-])cc5F)c5ccc2[nH]5)C=C4)C=C3)cc1
REMARK SMILES IDX 9 1 8 2 7 3 6 4 5 5 4 6 3 7 2 8 1 9 40 10 41 11 105 12 42 13
REMARK SMILES IDX 104 14 43 15 44 16 45 17 98 18 46 19 103 20 97 21 99 22
REMARK SMILES IDX 47 23 102 24 96 25 95 26 48 28 82 29 61 30 81 31 62 32 65 33
REMARK SMILES IDX 80 34 100 35 63 36 64 37 79 39 101 40 66 41 49 42 50 43
REMARK SMILES IDX 59 44 51 45 52 46 58 47 60 48 53 49 54 50 55 51 56 52 57 53
REMARK SMILES IDX 83 54 84 55 93 56 85 57 86 58 92 59 94 60 87 61 88 62 89 63
REMARK SMILES IDX 90 64 91 65 67 66 68 67 77 68 69 69 70 70 76 71 78 72 71 73
REMARK SMILES IDX 72 74 73 75 74 76 75 77 10 78 11 79 12 80 13 81 14 82 15 83
REMARK SMILES IDX 16 84 17 85 18 86 19 87 33 88 20 89 21 90 34 91 35 92 39 93
REMARK SMILES IDX 36 94 38 95 37 96 22 97 23 98 32 99 24 100 26 101 25 102
REMARK SMILES IDX 27 103 28 104 29 105 30 106 31 107
REMARK H PARENT 99 27 65 38
REMARK Flexibility Score: inf
ROOT
ATOM      1  O   UNL A   1      40.530  25.874  28.131  1.00  0.00    -0.377 OA
ENDROOT
BRANCH   1   2
ATOM      2  C   UNL A   1      40.381  26.735  27.016  1.00  0.00     0.188 C 
BRANCH   2   3
ATOM      3  C   UNL A   1      41.603  26.837  26.095  1.00  0.00     0.188 C 
BRANCH   3   4
ATOM      4  O   UNL A   1      42.828  26.155  26.303  1.00  0.00    -0.376 OA
BRANCH   4   5
ATOM      5  C   UNL A   1      43.913  25.995  25.416  1.00  0.00     0.202 C 
BRANCH   5   6
ATOM      6  C   UNL A   1      45.270  26.691  25.541  1.00  0.00     0.261 C 
BRANCH   6   7
ATOM      7  O   UNL A   1      45.344  28.066  25.186  1.00  0.00    -0.460 OA
BRANCH   7   8
ATOM      8  C   UNL A   1      45.936  29.092  25.828  1.00  0.00     0.338 C 
ATOM      9  O   UNL A   1      47.101  29.358  25.537  1.00  0.00    -0.246 OA
BRANCH   8  10
ATOM     10  C   UNL A   1      45.308  29.834  26.955  1.00  0.00     0.060 A 
ATOM     11  C   UNL A   1      45.982  30.606  27.900  1.00  0.00     0.016 A 
ATOM     12  C   UNL A   1      43.909  29.699  27.059  1.00  0.00     0.016 A 
ATOM     13  C   UNL A   1      45.310  31.111  28.995  1.00  0.00     0.010 A 
ATOM     14  C   UNL A   1      43.225  30.219  28.145  1.00  0.00     0.010 A 
ATOM     15  C   UNL A   1      43.956  30.841  29.150  1.00  0.00    -0.014 A 
BRANCH  15  16
ATOM     16  C   UNL A   1      43.410  31.092  30.471  1.00  0.00     0.031 A 
ATOM     17  C   UNL A   1      43.224  29.915  31.358  1.00  0.00     0.074 A 
ATOM     18  C   UNL A   1      43.057  32.343  30.820  1.00  0.00     0.049 A 
ATOM     19  N   UNL A   1      42.128  29.451  31.867  1.00  0.00    -0.248 NA
ATOM     20  C   UNL A   1      44.412  29.096  31.639  1.00  0.00     0.031 C 
ATOM     21  C   UNL A   1      43.388  33.599  30.134  1.00  0.00     0.029 A 
ATOM     22  N   UNL A   1      42.406  32.763  31.935  1.00  0.00    -0.354 N 
ATOM     23  C   UNL A   1      42.509  28.399  32.698  1.00  0.00     0.074 A 
ATOM     24  C   UNL A   1      43.898  28.143  32.418  1.00  0.00     0.031 C 
ATOM     25  C   UNL A   1      43.156  34.631  30.971  1.00  0.00     0.029 A 
ATOM     26  C   UNL A   1      42.537  34.119  32.180  1.00  0.00     0.049 A 
ATOM     27  H   UNL A   1      41.889  32.158  32.515  1.00  0.00     0.167 HD
ATOM     28  C   UNL A   1      41.713  27.945  33.706  1.00  0.00     0.037 A 
ATOM     29  C   UNL A   1      42.259  34.753  33.342  1.00  0.00     0.037 A 
ATOM     30  C   UNL A   1      40.333  28.290  33.497  1.00  0.00     0.049 A 
ATOM     31  C   UNL A   1      41.315  33.893  34.103  1.00  0.00     0.074 A 
ATOM     32  C   UNL A   1      39.398  28.001  32.522  1.00  0.00     0.029 A 
ATOM     33  N   UNL A   1      39.795  29.320  34.230  1.00  0.00    -0.354 N 
ATOM     34  N   UNL A   1      40.090  33.639  33.726  1.00  0.00    -0.248 NA
ATOM     35  C   UNL A   1      41.870  32.962  35.074  1.00  0.00     0.031 C 
ATOM     36  C   UNL A   1      38.586  29.167  32.424  1.00  0.00     0.029 A 
ATOM     37  C   UNL A   1      39.057  30.086  33.364  1.00  0.00     0.049 A 
ATOM     38  H   UNL A   1      39.915  29.476  35.194  1.00  0.00     0.167 HD
ATOM     39  C   UNL A   1      39.865  32.319  34.094  1.00  0.00     0.074 A 
ATOM     40  C   UNL A   1      40.956  31.991  35.007  1.00  0.00     0.031 C 
ATOM     41  C   UNL A   1      38.976  31.529  33.422  1.00  0.00     0.037 A 
BRANCH  28  42
ATOM     42  C   UNL A   1      42.241  27.476  35.042  1.00  0.00     0.058 A 
ATOM     43  C   UNL A   1      43.050  28.333  35.818  1.00  0.00     0.135 A 
ATOM     44  C   UNL A   1      42.226  26.123  35.450  1.00  0.00     0.135 A 
ATOM     45  F   UNL A   1      43.143  29.640  35.521  1.00  0.00    -0.206 F 
ATOM     46  C   UNL A   1      43.852  27.864  36.861  1.00  0.00     0.059 A 
ATOM     47  C   UNL A   1      42.974  25.645  36.519  1.00  0.00     0.059 A 
ATOM     48  F   UNL A   1      41.568  25.177  34.767  1.00  0.00    -0.206 F 
ATOM     49  C   UNL A   1      43.824  26.511  37.185  1.00  0.00     0.060 A 
BRANCH  49  50
ATOM     50  S   UNL A   1      44.971  25.867  38.415  1.00  0.00     0.124 S 
ATOM     51  O   UNL A   1      44.535  26.577  39.613  1.00  0.00    -0.237 OA
ATOM     52  O   UNL A   1      44.688  24.437  38.379  1.00  0.00    -0.237 OA
ATOM     53  O   UNL A   1      46.277  26.255  37.891  1.00  0.00    -0.744 OA
ENDBRANCH  49  50
ENDBRANCH  28  42
BRANCH  29  54
ATOM     54  C   UNL A   1      43.085  35.824  33.955  1.00  0.00     0.058 A 
ATOM     55  C   UNL A   1      42.502  36.846  34.720  1.00  0.00     0.135 A 
ATOM     56  C   UNL A   1      44.494  35.733  34.006  1.00  0.00     0.135 A 
ATOM     57  F   UNL A   1      41.167  36.982  34.756  1.00  0.00    -0.206 F 
ATOM     58  C   UNL A   1      43.269  37.711  35.509  1.00  0.00     0.059 A 
ATOM     59  C   UNL A   1      45.277  36.594  34.768  1.00  0.00     0.059 A 
ATOM     60  F   UNL A   1      45.152  34.744  33.385  1.00  0.00    -0.206 F 
ATOM     61  C   UNL A   1      44.656  37.568  35.535  1.00  0.00     0.060 A 
BRANCH  61  62
ATOM     62  S   UNL A   1      45.637  38.582  36.664  1.00  0.00     0.124 S 
ATOM     63  O   UNL A   1      44.713  39.668  36.971  1.00  0.00    -0.237 OA
ATOM     64  O   UNL A   1      45.913  37.651  37.752  1.00  0.00    -0.237 OA
ATOM     65  O   UNL A   1      46.798  38.958  35.861  1.00  0.00    -0.744 OA
ENDBRANCH  61  62
ENDBRANCH  29  54
BRANCH  41  66
ATOM     66  C   UNL A   1      38.025  32.183  32.453  1.00  0.00     0.058 A 
ATOM     67  C   UNL A   1      38.300  32.346  31.084  1.00  0.00     0.135 A 
ATOM     68  C   UNL A   1      36.722  32.475  32.884  1.00  0.00     0.135 A 
ATOM     69  F   UNL A   1      39.486  31.988  30.573  1.00  0.00    -0.206 F 
ATOM     70  C   UNL A   1      37.332  32.803  30.188  1.00  0.00     0.059 A 
ATOM     71  C   UNL A   1      35.731  32.905  32.003  1.00  0.00     0.059 A 
ATOM     72  F   UNL A   1      36.377  32.275  34.167  1.00  0.00    -0.206 F 
ATOM     73  C   UNL A   1      36.045  33.072  30.656  1.00  0.00     0.060 A 
BRANCH  73  74
ATOM     74  S   UNL A   1      34.763  33.539  29.472  1.00  0.00     0.124 S 
ATOM     75  O   UNL A   1      33.733  34.103  30.339  1.00  0.00    -0.237 OA
ATOM     76  O   UNL A   1      35.456  34.493  28.610  1.00  0.00    -0.237 OA
ATOM     77  O   UNL A   1      34.414  32.275  28.828  1.00  0.00    -0.744 OA
ENDBRANCH  73  74
ENDBRANCH  41  66
ENDBRANCH  15  16
ENDBRANCH   8  10
ENDBRANCH   7   8
ENDBRANCH   6   7
ENDBRANCH   5   6
ENDBRANCH   4   5
ENDBRANCH   3   4
ENDBRANCH   2   3
ENDBRANCH   1   2
BRANCH   1  78
ATOM     78  C   UNL A   1      39.507  24.912  28.259  1.00  0.00     0.188 C 
BRANCH  78  79
ATOM     79  C   UNL A   1      38.989  24.328  26.927  1.00  0.00     0.188 C 
BRANCH  79  80
ATOM     80  O   UNL A   1      37.610  24.132  26.619  1.00  0.00    -0.376 OA
BRANCH  80  81
ATOM     81  C   UNL A   1      37.174  23.112  25.741  1.00  0.00     0.202 C 
BRANCH  81  82
ATOM     82  C   UNL A   1      36.485  23.619  24.475  1.00  0.00     0.261 C 
BRANCH  82  83
ATOM     83  O   UNL A   1      35.067  23.754  24.616  1.00  0.00    -0.458 OA
BRANCH  83  84
ATOM     84  C   UNL A   1      34.336  23.690  23.471  1.00  0.00     0.361 C 
ATOM     85  O   UNL A   1      34.780  23.463  22.350  1.00  0.00    -0.244 OA
BRANCH  84  86
ATOM     86  C   UNL A   1      32.928  23.926  23.734  1.00  0.00     0.198 A 
ATOM     87  N   UNL A   1      31.948  22.974  23.577  1.00  0.00    -0.122 NA
ATOM     88  C   UNL A   1      32.369  25.074  24.272  1.00  0.00     0.109 A 
ATOM     89  N   UNL A   1      30.796  23.491  23.983  1.00  0.00    -0.061 NA
ATOM     90  N   UNL A   1      31.009  24.806  24.210  1.00  0.00    -0.212 N 
BRANCH  88  91
ATOM     91  C   UNL A   1      32.959  26.346  24.691  1.00  0.00     0.006 A 
ATOM     92  C   UNL A   1      33.045  26.675  26.044  1.00  0.00     0.030 A 
ATOM     93  C   UNL A   1      33.444  27.256  23.749  1.00  0.00     0.030 A 
ATOM     94  C   UNL A   1      33.612  27.888  26.397  1.00  0.00     0.111 A 
ATOM     95  C   UNL A   1      33.999  28.442  24.202  1.00  0.00     0.111 A 
ATOM     96  N   UNL A   1      34.099  28.774  25.506  1.00  0.00    -0.265 NA
ENDBRANCH  88  91
BRANCH  90  97
ATOM     97  C   UNL A   1      29.996  25.749  23.956  1.00  0.00     0.071 A 
ATOM     98  C   UNL A   1      28.762  25.687  24.593  1.00  0.00     0.029 A 
ATOM     99  C   UNL A   1      30.290  26.757  23.025  1.00  0.00     0.075 A 
ATOM    100  C   UNL A   1      27.848  26.714  24.350  1.00  0.00     0.006 A 
ATOM    101  C   UNL A   1      29.372  27.759  22.758  1.00  0.00     0.131 A 
ATOM    102  C   UNL A   1      28.156  27.744  23.446  1.00  0.00     0.047 A 
BRANCH 101 103
ATOM    103  O   UNL A   1      29.558  28.780  21.870  1.00  0.00    -0.406 OA
BRANCH 103 104
ATOM    104  C   UNL A   1      30.354  29.878  22.305  1.00  0.00     0.573 C 
ATOM    105  F   UNL A   1      31.633  29.757  21.885  1.00  0.00    -0.132 F 
ATOM    106  F   UNL A   1      29.849  31.051  21.862  1.00  0.00    -0.132 F 
ATOM    107  F   UNL A   1      30.360  29.910  23.655  1.00  0.00    -0.132 F 
ENDBRANCH 103 104
ENDBRANCH 101 103
ENDBRANCH  90  97
ENDBRANCH  84  86
ENDBRANCH  83  84
ENDBRANCH  82  83
ENDBRANCH  81  82
ENDBRANCH  80  81
ENDBRANCH  79  80
ENDBRANCH  78  79
ENDBRANCH   1  78
TORSDOF 27
ENDMDL
MODEL 3
REMARK VINA RESULT:      -7.9      9.648     16.383
REMARK SMILES O=C(OCCOCCOCCOCCOC(=O)c1nnn(-c2cccc(OC(F)(F)F)c2)c1-c1ccncc1)c1ccc(-c2c3nc(c(-c4c(F)cc(S(=O)(=O)[O-])cc4F)c4ccc([nH]4)c(-c4c(F)cc(S(=O)(=O)[O-])cc4F)c4nc(c(-c5c(F)cc(S(=O)(=O)[O-])cc5F)c5ccc2[nH]5)C=C4)C=C3)cc1
REMARK SMILES IDX 9 1 8 2 7 3 6 4 5 5 4 6 3 7 2 8 1 9 40 10 41 11 105 12 42 13
REMARK SMILES IDX 104 14 43 15 44 16 45 17 98 18 46 19 103 20 97 21 99 22
REMARK SMILES IDX 47 23 102 24 96 25 95 26 48 28 82 29 61 30 81 31 62 32 65 33
REMARK SMILES IDX 80 34 100 35 63 36 64 37 79 39 101 40 66 41 49 42 50 43
REMARK SMILES IDX 59 44 51 45 52 46 58 47 60 48 53 49 54 50 55 51 56 52 57 53
REMARK SMILES IDX 83 54 84 55 93 56 85 57 86 58 92 59 94 60 87 61 88 62 89 63
REMARK SMILES IDX 90 64 91 65 67 66 68 67 77 68 69 69 70 70 76 71 78 72 71 73
REMARK SMILES IDX 72 74 73 75 74 76 75 77 10 78 11 79 12 80 13 81 14 82 15 83
REMARK SMILES IDX 16 84 17 85 18 86 19 87 33 88 20 89 21 90 34 91 35 92 39 93
REMARK SMILES IDX 36 94 38 95 37 96 22 97 23 98 32 99 24 100 26 101 25 102
REMARK SMILES IDX 27 103 28 104 29 105 30 106 31 107
REMARK H PARENT 99 27 65 38
REMARK Flexibility Score: inf
ROOT
ATOM      1  O   UNL A   1      48.232  19.868  37.516  1.00  0.00    -0.377 OA
ENDROOT
BRANCH   1   2
ATOM      2  C   UNL A   1      46.860  19.512  37.533  1.00  0.00     0.188 C 
BRANCH   2   3
ATOM      3  C   UNL A   1      46.028  20.039  36.357  1.00  0.00     0.188 C 
BRANCH   3   4
ATOM      4  O   UNL A   1      45.353  21.286  36.341  1.00  0.00    -0.376 OA
BRANCH   4   5
ATOM      5  C   UNL A   1      45.894  22.582  36.222  1.00  0.00     0.202 C 
BRANCH   5   6
ATOM      6  C   UNL A   1      46.214  23.519  37.389  1.00  0.00     0.261 C 
BRANCH   6   7
ATOM      7  O   UNL A   1      47.159  24.557  37.165  1.00  0.00    -0.460 OA
BRANCH   7   8
ATOM      8  C   UNL A   1      46.987  25.781  36.627  1.00  0.00     0.338 C 
ATOM      9  O   UNL A   1      46.446  26.642  37.318  1.00  0.00    -0.246 OA
BRANCH   8  10
ATOM     10  C   UNL A   1      47.293  26.110  35.209  1.00  0.00     0.060 A 
ATOM     11  C   UNL A   1      47.286  27.387  34.648  1.00  0.00     0.016 A 
ATOM     12  C   UNL A   1      47.585  25.005  34.384  1.00  0.00     0.016 A 
ATOM     13  C   UNL A   1      47.424  27.550  33.284  1.00  0.00     0.010 A 
ATOM     14  C   UNL A   1      47.744  25.163  33.017  1.00  0.00     0.010 A 
ATOM     15  C   UNL A   1      47.567  26.430  32.473  1.00  0.00    -0.014 A 
BRANCH  15  16
ATOM     16  C   UNL A   1      47.350  26.647  31.054  1.00  0.00     0.031 A 
ATOM     17  C   UNL A   1      48.536  27.022  30.242  1.00  0.00     0.074 A 
ATOM     18  C   UNL A   1      46.107  26.548  30.547  1.00  0.00     0.049 A 
ATOM     19  N   UNL A   1      48.740  28.105  29.563  1.00  0.00    -0.248 NA
ATOM     20  C   UNL A   1      49.682  26.103  30.267  1.00  0.00     0.031 C 
ATOM     21  C   UNL A   1      44.914  25.979  31.185  1.00  0.00     0.029 A 
ATOM     22  N   UNL A   1      45.675  26.848  29.296  1.00  0.00    -0.354 N 
ATOM     23  C   UNL A   1      49.957  27.921  28.908  1.00  0.00     0.074 A 
ATOM     24  C   UNL A   1      50.548  26.738  29.478  1.00  0.00     0.031 C 
ATOM     25  C   UNL A   1      43.978  25.750  30.242  1.00  0.00     0.029 A 
ATOM     26  C   UNL A   1      44.453  26.282  28.977  1.00  0.00     0.049 A 
ATOM     27  H   UNL A   1      46.183  27.417  28.673  1.00  0.00     0.167 HD
ATOM     28  C   UNL A   1      50.301  28.634  27.800  1.00  0.00     0.037 A 
ATOM     29  C   UNL A   1      43.925  26.159  27.738  1.00  0.00     0.037 A 
ATOM     30  C   UNL A   1      49.562  29.864  27.703  1.00  0.00     0.049 A 
ATOM     31  C   UNL A   1      44.582  27.174  26.873  1.00  0.00     0.074 A 
ATOM     32  C   UNL A   1      49.450  30.992  28.492  1.00  0.00     0.029 A 
ATOM     33  N   UNL A   1      48.530  29.941  26.801  1.00  0.00    -0.354 N 
ATOM     34  N   UNL A   1      44.435  28.464  27.017  1.00  0.00    -0.248 NA
ATOM     35  C   UNL A   1      45.751  26.766  26.106  1.00  0.00     0.031 C 
ATOM     36  C   UNL A   1      48.101  31.425  28.336  1.00  0.00     0.029 A 
ATOM     37  C   UNL A   1      47.482  30.552  27.441  1.00  0.00     0.049 A 
ATOM     38  H   UNL A   1      48.541  29.620  25.870  1.00  0.00     0.167 HD
ATOM     39  C   UNL A   1      45.677  29.006  26.715  1.00  0.00     0.074 A 
ATOM     40  C   UNL A   1      46.412  27.925  26.065  1.00  0.00     0.031 C 
ATOM     41  C   UNL A   1      46.093  30.189  27.256  1.00  0.00     0.037 A 
BRANCH  28  42
ATOM     42  C   UNL A   1      51.071  28.053  26.636  1.00  0.00     0.058 A 
ATOM     43  C   UNL A   1      52.200  28.732  26.132  1.00  0.00     0.135 A 
ATOM     44  C   UNL A   1      50.571  27.015  25.818  1.00  0.00     0.135 A 
ATOM     45  F   UNL A   1      52.759  29.738  26.825  1.00  0.00    -0.206 F 
ATOM     46  C   UNL A   1      52.735  28.460  24.872  1.00  0.00     0.059 A 
ATOM     47  C   UNL A   1      51.122  26.691  24.584  1.00  0.00     0.059 A 
ATOM     48  F   UNL A   1      49.461  26.333  26.125  1.00  0.00    -0.206 F 
ATOM     49  C   UNL A   1      52.169  27.453  24.095  1.00  0.00     0.060 A 
BRANCH  49  50
ATOM     50  S   UNL A   1      52.743  27.203  22.406  1.00  0.00     0.124 S 
ATOM     51  O   UNL A   1      51.481  27.013  21.700  1.00  0.00    -0.237 OA
ATOM     52  O   UNL A   1      53.447  28.451  22.134  1.00  0.00    -0.237 OA
ATOM     53  O   UNL A   1      53.593  26.022  22.513  1.00  0.00    -0.744 OA
ENDBRANCH  49  50
ENDBRANCH  28  42
BRANCH  29  54
ATOM     54  C   UNL A   1      43.216  24.962  27.219  1.00  0.00     0.058 A 
ATOM     55  C   UNL A   1      43.839  23.705  27.184  1.00  0.00     0.135 A 
ATOM     56  C   UNL A   1      41.826  24.976  26.970  1.00  0.00     0.135 A 
ATOM     57  F   UNL A   1      45.151  23.596  27.444  1.00  0.00    -0.206 F 
ATOM     58  C   UNL A   1      43.121  22.528  26.941  1.00  0.00     0.059 A 
ATOM     59  C   UNL A   1      41.095  23.822  26.708  1.00  0.00     0.059 A 
ATOM     60  F   UNL A   1      41.112  26.108  27.063  1.00  0.00    -0.206 F 
ATOM     61  C   UNL A   1      41.746  22.597  26.716  1.00  0.00     0.060 A 
BRANCH  61  62
ATOM     62  S   UNL A   1      40.791  21.072  26.551  1.00  0.00     0.124 S 
ATOM     63  O   UNL A   1      41.616  20.299  25.629  1.00  0.00    -0.237 OA
ATOM     64  O   UNL A   1      40.743  20.589  27.926  1.00  0.00    -0.237 OA
ATOM     65  O   UNL A   1      39.512  21.529  26.010  1.00  0.00    -0.744 OA
ENDBRANCH  61  62
ENDBRANCH  29  54
BRANCH  41  66
ATOM     66  C   UNL A   1      45.079  31.052  27.963  1.00  0.00     0.058 A 
ATOM     67  C   UNL A   1      44.687  30.854  29.298  1.00  0.00     0.135 A 
ATOM     68  C   UNL A   1      44.641  32.227  27.333  1.00  0.00     0.135 A 
ATOM     69  F   UNL A   1      45.149  29.813  30.004  1.00  0.00    -0.206 F 
ATOM     70  C   UNL A   1      43.874  31.769  29.969  1.00  0.00     0.059 A 
ATOM     71  C   UNL A   1      43.853  33.169  27.993  1.00  0.00     0.059 A 
ATOM     72  F   UNL A   1      45.038  32.507  26.081  1.00  0.00    -0.206 F 
ATOM     73  C   UNL A   1      43.468  32.930  29.310  1.00  0.00     0.060 A 
BRANCH  73  74
ATOM     74  S   UNL A   1      42.525  34.171  30.223  1.00  0.00     0.124 S 
ATOM     75  O   UNL A   1      43.556  34.805  31.038  1.00  0.00    -0.237 OA
ATOM     76  O   UNL A   1      41.965  34.996  29.156  1.00  0.00    -0.237 OA
ATOM     77  O   UNL A   1      41.544  33.380  30.962  1.00  0.00    -0.744 OA
ENDBRANCH  73  74
ENDBRANCH  41  66
ENDBRANCH  15  16
ENDBRANCH   8  10
ENDBRANCH   7   8
ENDBRANCH   6   7
ENDBRANCH   5   6
ENDBRANCH   4   5
ENDBRANCH   3   4
ENDBRANCH   2   3
ENDBRANCH   1   2
BRANCH   1  78
ATOM     78  C   UNL A   1      48.587  20.847  38.466  1.00  0.00     0.188 C 
BRANCH  78  79
ATOM     79  C   UNL A   1      49.495  20.348  39.611  1.00  0.00     0.188 C 
BRANCH  79  80
ATOM     80  O   UNL A   1      49.751  18.973  39.891  1.00  0.00    -0.376 OA
BRANCH  80  81
ATOM     81  C   UNL A   1      50.107  18.524  41.184  1.00  0.00     0.202 C 
BRANCH  81  82
ATOM     82  C   UNL A   1      49.170  18.992  42.296  1.00  0.00     0.261 C 
BRANCH  82  83
ATOM     83  O   UNL A   1      48.038  18.135  42.483  1.00  0.00    -0.458 OA
BRANCH  83  84
ATOM     84  C   UNL A   1      46.816  18.729  42.433  1.00  0.00     0.361 C 
ATOM     85  O   UNL A   1      46.542  19.753  41.817  1.00  0.00    -0.244 OA
BRANCH  84  86
ATOM     86  C   UNL A   1      45.842  17.987  43.213  1.00  0.00     0.198 A 
ATOM     87  N   UNL A   1      45.714  18.089  44.578  1.00  0.00    -0.122 NA
ATOM     88  C   UNL A   1      44.842  17.164  42.721  1.00  0.00     0.109 A 
ATOM     89  N   UNL A   1      44.681  17.349  44.957  1.00  0.00    -0.061 NA
ATOM     90  N   UNL A   1      44.283  16.641  43.878  1.00  0.00    -0.212 N 
BRANCH  88  91
ATOM     91  C   UNL A   1      44.481  16.770  41.358  1.00  0.00     0.006 A 
ATOM     92  C   UNL A   1      43.142  16.718  40.967  1.00  0.00     0.030 A 
ATOM     93  C   UNL A   1      45.463  16.436  40.424  1.00  0.00     0.030 A 
ATOM     94  C   UNL A   1      42.844  16.342  39.668  1.00  0.00     0.111 A 
ATOM     95  C   UNL A   1      45.065  16.078  39.146  1.00  0.00     0.111 A 
ATOM     96  N   UNL A   1      43.778  16.030  38.747  1.00  0.00    -0.265 NA
ENDBRANCH  88  91
BRANCH  90  97
ATOM     97  C   UNL A   1      43.769  15.339  44.027  1.00  0.00     0.071 A 
ATOM     98  C   UNL A   1      42.524  14.982  43.522  1.00  0.00     0.029 A 
ATOM     99  C   UNL A   1      44.572  14.416  44.713  1.00  0.00     0.075 A 
ATOM    100  C   UNL A   1      42.130  13.648  43.634  1.00  0.00     0.006 A 
ATOM    101  C   UNL A   1      44.169  13.098  44.854  1.00  0.00     0.131 A 
ATOM    102  C   UNL A   1      42.951  12.715  44.288  1.00  0.00     0.047 A 
BRANCH 101 103
ATOM    103  O   UNL A   1      44.874  12.126  45.504  1.00  0.00    -0.406 OA
BRANCH 103 104
ATOM    104  C   UNL A   1      45.479  11.118  44.700  1.00  0.00     0.573 C 
ATOM    105  F   UNL A   1      44.773  10.901  43.568  1.00  0.00    -0.132 F 
ATOM    106  F   UNL A   1      46.748  11.450  44.376  1.00  0.00    -0.132 F 
ATOM    107  F   UNL A   1      45.514   9.962  45.396  1.00  0.00    -0.132 F 
ENDBRANCH 103 104
ENDBRANCH 101 103
ENDBRANCH  90  97
ENDBRANCH  84  86
ENDBRANCH  83  84
ENDBRANCH  82  83
ENDBRANCH  81  82
ENDBRANCH  80  81
ENDBRANCH  79  80
ENDBRANCH  78  79
ENDBRANCH   1  78
TORSDOF 27
ENDMDL
