MODEL 1
REMARK VINA RESULT:      -8.7      0.000      0.000
REMARK SMILES Cc1ccnc(C(=O)c2[nH]c3ccc(OC(F)(F)F)cc3c2CC(=O)OCCOCCOCCOCCOC(=O)c2ccc(-c3c4nc(c(-c5c(F)cc(S(=O)(=O)[O-])cc5F)c5ccc([nH]5)c(-c5c(F)cc(S(=O)(=O)[O-])cc5F)c5nc(c(-c6c(F)cc(S(=O)(=O)[O-])cc6F)c6ccc3[nH]6)C=C5)C=C4)cc2)c1
REMARK SMILES IDX 32 1 31 2 30 3 29 4 28 5 27 6 26 7 24 8 25 9 23 10 22 11
REMARK SMILES IDX 9 12 10 13 11 14 21 16 12 17 20 18 13 19 14 20 7 21 8 22
REMARK SMILES IDX 6 23 1 24 2 25 3 26 107 27 4 28 5 29 15 30 16 31 17 32 18 33
REMARK SMILES IDX 19 34 33 35 34 36 35 37 36 38 37 39 38 40 39 41 40 42 41 43
REMARK SMILES IDX 42 44 106 45 43 46 105 47 44 48 45 49 46 50 99 51 47 52
REMARK SMILES IDX 104 53 98 54 100 55 48 56 103 57 97 58 96 59 49 61 83 62
REMARK SMILES IDX 62 63 82 64 63 65 66 66 81 67 101 68 64 69 65 70 80 72
REMARK SMILES IDX 102 73 67 74 50 75 51 76 60 77 52 78 53 79 59 80 61 81 54 82
REMARK SMILES IDX 55 83 56 84 57 85 58 86 84 87 85 88 94 89 86 90 87 91 93 92
REMARK SMILES IDX 95 93 88 94 89 95 90 96 91 97 92 98 68 99 69 100 78 101
REMARK SMILES IDX 70 102 71 103 77 104 79 105 72 106 73 107 74 108 75 109
REMARK SMILES IDX 76 110
REMARK H PARENT 10 15 100 60 66 71
REMARK Flexibility Score: inf
ROOT
ATOM      1  O   UNL A   1      34.516  30.726  27.930  1.00  0.00    -0.377 OA
ENDROOT
BRANCH   1   2
ATOM      2  C   UNL A   1      34.925  29.498  27.352  1.00  0.00     0.188 C 
BRANCH   2   3
ATOM      3  C   UNL A   1      34.016  28.821  26.329  1.00  0.00     0.188 C 
BRANCH   3   4
ATOM      4  O   UNL A   1      33.583  27.507  26.608  1.00  0.00    -0.376 OA
BRANCH   4   5
ATOM      5  C   UNL A   1      32.588  26.948  25.748  1.00  0.00     0.202 C 
BRANCH   5   6
ATOM      6  C   UNL A   1      31.214  26.525  26.308  1.00  0.00     0.261 C 
BRANCH   6   7
ATOM      7  O   UNL A   1      30.325  25.870  25.362  1.00  0.00    -0.463 OA
BRANCH   7   8
ATOM      8  C   UNL A   1      30.466  24.525  25.250  1.00  0.00     0.310 C 
ATOM      9  O   UNL A   1      30.100  23.741  26.128  1.00  0.00    -0.252 OA
BRANCH   8  10
ATOM     10  C   UNL A   1      31.080  23.969  23.977  1.00  0.00     0.161 C 
BRANCH  10  11
ATOM     11  C   UNL A   1      32.563  23.722  23.817  1.00  0.00     0.000 A 
ATOM     12  C   UNL A   1      33.436  24.264  22.856  1.00  0.00     0.093 A 
ATOM     13  N   UNL A   1      34.693  23.790  23.177  1.00  0.00    -0.352 N 
ATOM     14  C   UNL A   1      34.582  22.651  23.940  1.00  0.00     0.046 A 
ATOM     15  H   UNL A   1      35.543  24.205  22.901  1.00  0.00     0.167 HD
ATOM     16  C   UNL A   1      33.264  22.598  24.379  1.00  0.00     0.008 A 
ATOM     17  C   UNL A   1      35.527  21.668  24.255  1.00  0.00     0.030 A 
ATOM     18  C   UNL A   1      32.863  21.481  25.143  1.00  0.00     0.057 A 
ATOM     19  C   UNL A   1      35.084  20.540  24.963  1.00  0.00     0.049 A 
ATOM     20  C   UNL A   1      33.759  20.429  25.381  1.00  0.00     0.130 A 
BRANCH  12  21
ATOM     21  C   UNL A   1      33.110  25.141  21.731  1.00  0.00     0.227 C 
ATOM     22  O   UNL A   1      33.212  24.779  20.557  1.00  0.00    -0.285 OA
BRANCH  21  23
ATOM     23  C   UNL A   1      32.706  26.565  21.928  1.00  0.00     0.113 A 
ATOM     24  C   UNL A   1      29.653  28.583  22.886  1.00  0.00     0.044 C 
ATOM     25  C   UNL A   1      31.064  28.191  22.563  1.00  0.00    -0.047 A 
ATOM     26  C   UNL A   1      32.111  29.075  22.838  1.00  0.00     0.023 A 
ATOM     27  C   UNL A   1      31.368  26.905  22.100  1.00  0.00     0.036 A 
ATOM     28  C   UNL A   1      33.411  28.658  22.611  1.00  0.00     0.112 A 
ATOM     29  N   UNL A   1      33.729  27.431  22.155  1.00  0.00    -0.253 NA
ENDBRANCH  21  23
ENDBRANCH  12  21
BRANCH  20  30
ATOM     30  O   UNL A   1      33.194  19.353  26.009  1.00  0.00    -0.406 OA
BRANCH  30  31
ATOM     31  C   UNL A   1      32.946  18.190  25.240  1.00  0.00     0.573 C 
ATOM     32  F   UNL A   1      32.038  18.427  24.265  1.00  0.00    -0.132 F 
ATOM     33  F   UNL A   1      34.083  17.723  24.686  1.00  0.00    -0.132 F 
ATOM     34  F   UNL A   1      32.438  17.232  26.047  1.00  0.00    -0.132 F 
ENDBRANCH  30  31
ENDBRANCH  20  30
ENDBRANCH  10  11
ENDBRANCH   8  10
ENDBRANCH   7   8
ENDBRANCH   6   7
ENDBRANCH   5   6
ENDBRANCH   4   5
ENDBRANCH   3   4
ENDBRANCH   2   3
ENDBRANCH   1   2
BRANCH   1  35
ATOM     35  C   UNL A   1      35.424  31.466  28.735  1.00  0.00     0.188 C 
BRANCH  35  36
ATOM     36  C   UNL A   1      36.260  30.706  29.765  1.00  0.00     0.188 C 
BRANCH  36  37
ATOM     37  O   UNL A   1      37.519  30.171  29.348  1.00  0.00    -0.376 OA
BRANCH  37  38
ATOM     38  C   UNL A   1      37.836  28.820  29.671  1.00  0.00     0.202 C 
BRANCH  38  39
ATOM     39  C   UNL A   1      39.220  28.620  30.279  1.00  0.00     0.261 C 
BRANCH  39  40
ATOM     40  O   UNL A   1      39.130  28.089  31.608  1.00  0.00    -0.460 OA
BRANCH  40  41
ATOM     41  C   UNL A   1      38.383  28.815  32.473  1.00  0.00     0.338 C 
ATOM     42  O   UNL A   1      37.368  28.465  33.052  1.00  0.00    -0.246 OA
BRANCH  41  43
ATOM     43  C   UNL A   1      39.092  30.074  32.759  1.00  0.00     0.060 A 
ATOM     44  C   UNL A   1      40.396  30.000  33.266  1.00  0.00     0.016 A 
ATOM     45  C   UNL A   1      38.478  31.310  32.546  1.00  0.00     0.016 A 
ATOM     46  C   UNL A   1      41.088  31.167  33.577  1.00  0.00     0.010 A 
ATOM     47  C   UNL A   1      39.164  32.477  32.878  1.00  0.00     0.010 A 
ATOM     48  C   UNL A   1      40.460  32.407  33.414  1.00  0.00    -0.014 A 
BRANCH  48  49
ATOM     49  C   UNL A   1      41.093  33.631  33.945  1.00  0.00     0.031 A 
ATOM     50  C   UNL A   1      42.062  34.369  33.068  1.00  0.00     0.074 A 
ATOM     51  C   UNL A   1      40.817  34.055  35.191  1.00  0.00     0.049 A 
ATOM     52  N   UNL A   1      42.825  35.389  33.354  1.00  0.00    -0.248 NA
ATOM     53  C   UNL A   1      42.194  33.886  31.683  1.00  0.00     0.031 C 
ATOM     54  C   UNL A   1      39.853  33.435  36.099  1.00  0.00     0.029 A 
ATOM     55  N   UNL A   1      41.341  35.096  35.912  1.00  0.00    -0.354 N 
ATOM     56  C   UNL A   1      43.538  35.662  32.193  1.00  0.00     0.074 A 
ATOM     57  C   UNL A   1      43.130  34.692  31.203  1.00  0.00     0.031 C 
ATOM     58  C   UNL A   1      39.871  34.097  37.269  1.00  0.00     0.029 A 
ATOM     59  C   UNL A   1      40.878  35.155  37.204  1.00  0.00     0.049 A 
ATOM     60  H   UNL A   1      41.987  35.739  35.540  1.00  0.00     0.167 HD
ATOM     61  C   UNL A   1      44.453  36.636  31.982  1.00  0.00     0.037 A 
ATOM     62  C   UNL A   1      41.255  35.952  38.224  1.00  0.00     0.037 A 
ATOM     63  C   UNL A   1      44.844  37.592  32.984  1.00  0.00     0.049 A 
ATOM     64  C   UNL A   1      42.339  36.972  37.984  1.00  0.00     0.074 A 
ATOM     65  C   UNL A   1      45.738  38.641  32.868  1.00  0.00     0.029 A 
ATOM     66  N   UNL A   1      44.378  37.604  34.290  1.00  0.00    -0.354 N 
ATOM     67  N   UNL A   1      42.986  37.246  36.874  1.00  0.00    -0.248 NA
ATOM     68  C   UNL A   1      42.754  37.785  39.136  1.00  0.00     0.031 C 
ATOM     69  C   UNL A   1      45.859  39.249  34.121  1.00  0.00     0.029 A 
ATOM     70  C   UNL A   1      44.996  38.617  35.003  1.00  0.00     0.049 A 
ATOM     71  H   UNL A   1      43.707  36.985  34.657  1.00  0.00     0.167 HD
ATOM     72  C   UNL A   1      43.864  38.278  37.189  1.00  0.00     0.074 A 
ATOM     73  C   UNL A   1      43.653  38.591  38.587  1.00  0.00     0.031 C 
ATOM     74  C   UNL A   1      44.766  38.910  36.397  1.00  0.00     0.037 A 
BRANCH  61  75
ATOM     75  C   UNL A   1      45.119  36.698  30.636  1.00  0.00     0.058 A 
ATOM     76  C   UNL A   1      46.257  35.935  30.333  1.00  0.00     0.135 A 
ATOM     77  C   UNL A   1      44.576  37.498  29.617  1.00  0.00     0.135 A 
ATOM     78  F   UNL A   1      46.832  35.173  31.277  1.00  0.00    -0.206 F 
ATOM     79  C   UNL A   1      46.837  35.967  29.068  1.00  0.00     0.059 A 
ATOM     80  C   UNL A   1      45.125  37.525  28.338  1.00  0.00     0.059 A 
ATOM     81  F   UNL A   1      43.496  38.258  29.856  1.00  0.00    -0.206 F 
ATOM     82  C   UNL A   1      46.259  36.761  28.075  1.00  0.00     0.060 A 
BRANCH  82  83
ATOM     83  S   UNL A   1      47.005  36.763  26.432  1.00  0.00     0.124 S 
ATOM     84  O   UNL A   1      48.424  36.639  26.754  1.00  0.00    -0.237 OA
ATOM     85  O   UNL A   1      46.392  35.594  25.810  1.00  0.00    -0.237 OA
ATOM     86  O   UNL A   1      46.601  38.051  25.876  1.00  0.00    -0.744 OA
ENDBRANCH  82  83
ENDBRANCH  61  75
BRANCH  62  87
ATOM     87  C   UNL A   1      40.635  35.799  39.567  1.00  0.00     0.058 A 
ATOM     88  C   UNL A   1      39.468  36.499  39.907  1.00  0.00     0.135 A 
ATOM     89  C   UNL A   1      41.207  34.970  40.547  1.00  0.00     0.135 A 
ATOM     90  F   UNL A   1      38.890  37.313  39.011  1.00  0.00    -0.206 F 
ATOM     91  C   UNL A   1      38.902  36.400  41.174  1.00  0.00     0.059 A 
ATOM     92  C   UNL A   1      40.642  34.831  41.810  1.00  0.00     0.059 A 
ATOM     93  F   UNL A   1      42.320  34.272  40.272  1.00  0.00    -0.206 F 
ATOM     94  C   UNL A   1      39.496  35.563  42.119  1.00  0.00     0.060 A 
BRANCH  94  95
ATOM     95  S   UNL A   1      38.735  35.423  43.750  1.00  0.00     0.124 S 
ATOM     96  O   UNL A   1      39.099  36.699  44.354  1.00  0.00    -0.237 OA
ATOM     97  O   UNL A   1      37.325  35.253  43.416  1.00  0.00    -0.237 OA
ATOM     98  O   UNL A   1      39.382  34.246  44.323  1.00  0.00    -0.744 OA
ENDBRANCH  94  95
ENDBRANCH  62  87
BRANCH  74  99
ATOM     99  C   UNL A   1      45.578  40.015  37.015  1.00  0.00     0.058 A 
ATOM    100  C   UNL A   1      45.115  41.340  37.045  1.00  0.00     0.135 A 
ATOM    101  C   UNL A   1      46.802  39.734  37.643  1.00  0.00     0.135 A 
ATOM    102  F   UNL A   1      43.954  41.663  36.452  1.00  0.00    -0.206 F 
ATOM    103  C   UNL A   1      45.848  42.350  37.657  1.00  0.00     0.059 A 
ATOM    104  C   UNL A   1      47.535  40.722  38.290  1.00  0.00     0.059 A 
ATOM    105  F   UNL A   1      47.285  38.480  37.653  1.00  0.00    -0.206 F 
ATOM    106  C   UNL A   1      47.054  42.031  38.283  1.00  0.00     0.060 A 
BRANCH 106 107
ATOM    107  S   UNL A   1      47.969  43.345  39.115  1.00  0.00     0.124 S 
ATOM    108  O   UNL A   1      48.660  43.976  37.995  1.00  0.00    -0.237 OA
ATOM    109  O   UNL A   1      46.900  44.132  39.724  1.00  0.00    -0.237 OA
ATOM    110  O   UNL A   1      48.823  42.625  40.054  1.00  0.00    -0.744 OA
ENDBRANCH 106 107
ENDBRANCH  74  99
ENDBRANCH  48  49
ENDBRANCH  41  43
ENDBRANCH  40  41
ENDBRANCH  39  40
ENDBRANCH  38  39
ENDBRANCH  37  38
ENDBRANCH  36  37
ENDBRANCH  35  36
ENDBRANCH   1  35
TORSDOF 28
ENDMDL
MODEL 2
REMARK VINA RESULT:      -8.2      9.262     12.952
REMARK SMILES Cc1ccnc(C(=O)c2[nH]c3ccc(OC(F)(F)F)cc3c2CC(=O)OCCOCCOCCOCCOC(=O)c2ccc(-c3c4nc(c(-c5c(F)cc(S(=O)(=O)[O-])cc5F)c5ccc([nH]5)c(-c5c(F)cc(S(=O)(=O)[O-])cc5F)c5nc(c(-c6c(F)cc(S(=O)(=O)[O-])cc6F)c6ccc3[nH]6)C=C5)C=C4)cc2)c1
REMARK SMILES IDX 32 1 31 2 30 3 29 4 28 5 27 6 26 7 24 8 25 9 23 10 22 11
REMARK SMILES IDX 9 12 10 13 11 14 21 16 12 17 20 18 13 19 14 20 7 21 8 22
REMARK SMILES IDX 6 23 1 24 2 25 3 26 107 27 4 28 5 29 15 30 16 31 17 32 18 33
REMARK SMILES IDX 19 34 33 35 34 36 35 37 36 38 37 39 38 40 39 41 40 42 41 43
REMARK SMILES IDX 42 44 106 45 43 46 105 47 44 48 45 49 46 50 99 51 47 52
REMARK SMILES IDX 104 53 98 54 100 55 48 56 103 57 97 58 96 59 49 61 83 62
REMARK SMILES IDX 62 63 82 64 63 65 66 66 81 67 101 68 64 69 65 70 80 72
REMARK SMILES IDX 102 73 67 74 50 75 51 76 60 77 52 78 53 79 59 80 61 81 54 82
REMARK SMILES IDX 55 83 56 84 57 85 58 86 84 87 85 88 94 89 86 90 87 91 93 92
REMARK SMILES IDX 95 93 88 94 89 95 90 96 91 97 92 98 68 99 69 100 78 101
REMARK SMILES IDX 70 102 71 103 77 104 79 105 72 106 73 107 74 108 75 109
REMARK SMILES IDX 76 110
REMARK H PARENT 10 15 100 60 66 71
REMARK Flexibility Score: inf
ROOT
ATOM      1  O   UNL A   1      44.043  18.366  24.545  1.00  0.00    -0.377 OA
ENDROOT
BRANCH   1   2
ATOM      2  C   UNL A   1      43.498  18.381  25.853  1.00  0.00     0.188 C 
BRANCH   2   3
ATOM      3  C   UNL A   1      42.229  19.189  26.118  1.00  0.00     0.188 C 
BRANCH   3   4
ATOM      4  O   UNL A   1      42.229  20.549  25.736  1.00  0.00    -0.376 OA
BRANCH   4   5
ATOM      5  C   UNL A   1      42.408  21.519  26.769  1.00  0.00     0.202 C 
BRANCH   5   6
ATOM      6  C   UNL A   1      41.837  22.944  26.616  1.00  0.00     0.261 C 
BRANCH   6   7
ATOM      7  O   UNL A   1      42.802  23.975  26.270  1.00  0.00    -0.463 OA
BRANCH   7   8
ATOM      8  C   UNL A   1      42.492  25.235  26.665  1.00  0.00     0.310 C 
ATOM      9  O   UNL A   1      41.417  25.774  26.389  1.00  0.00    -0.252 OA
BRANCH   8  10
ATOM     10  C   UNL A   1      43.503  25.999  27.500  1.00  0.00     0.161 C 
BRANCH  10  11
ATOM     11  C   UNL A   1      43.113  26.882  28.664  1.00  0.00     0.000 A 
ATOM     12  C   UNL A   1      42.748  28.241  28.640  1.00  0.00     0.093 A 
ATOM     13  N   UNL A   1      42.412  28.565  29.940  1.00  0.00    -0.352 N 
ATOM     14  C   UNL A   1      42.993  27.670  30.809  1.00  0.00     0.046 A 
ATOM     15  H   UNL A   1      41.843  29.324  30.206  1.00  0.00     0.167 HD
ATOM     16  C   UNL A   1      43.414  26.592  30.040  1.00  0.00     0.008 A 
ATOM     17  C   UNL A   1      43.191  27.740  32.193  1.00  0.00     0.030 A 
ATOM     18  C   UNL A   1      44.105  25.545  30.687  1.00  0.00     0.057 A 
ATOM     19  C   UNL A   1      43.933  26.714  32.798  1.00  0.00     0.049 A 
ATOM     20  C   UNL A   1      44.413  25.638  32.052  1.00  0.00     0.130 A 
BRANCH  12  21
ATOM     21  C   UNL A   1      42.729  29.152  27.495  1.00  0.00     0.227 C 
ATOM     22  O   UNL A   1      41.719  29.340  26.814  1.00  0.00    -0.285 OA
BRANCH  21  23
ATOM     23  C   UNL A   1      43.958  29.856  27.024  1.00  0.00     0.113 A 
ATOM     24  C   UNL A   1      45.529  33.295  27.149  1.00  0.00     0.044 C 
ATOM     25  C   UNL A   1      45.322  31.825  26.939  1.00  0.00    -0.047 A 
ATOM     26  C   UNL A   1      46.418  30.999  26.676  1.00  0.00     0.023 A 
ATOM     27  C   UNL A   1      44.063  31.240  27.119  1.00  0.00     0.036 A 
ATOM     28  C   UNL A   1      46.214  29.634  26.571  1.00  0.00     0.112 A 
ATOM     29  N   UNL A   1      45.011  29.049  26.728  1.00  0.00    -0.253 NA
ENDBRANCH  21  23
ENDBRANCH  12  21
BRANCH  20  30
ATOM     30  O   UNL A   1      45.205  24.622  32.511  1.00  0.00    -0.406 OA
BRANCH  30  31
ATOM     31  C   UNL A   1      44.781  23.921  33.666  1.00  0.00     0.573 C 
ATOM     32  F   UNL A   1      43.431  23.856  33.738  1.00  0.00    -0.132 F 
ATOM     33  F   UNL A   1      45.288  22.671  33.689  1.00  0.00    -0.132 F 
ATOM     34  F   UNL A   1      45.218  24.579  34.763  1.00  0.00    -0.132 F 
ENDBRANCH  30  31
ENDBRANCH  20  30
ENDBRANCH  10  11
ENDBRANCH   8  10
ENDBRANCH   7   8
ENDBRANCH   6   7
ENDBRANCH   5   6
ENDBRANCH   4   5
ENDBRANCH   3   4
ENDBRANCH   2   3
ENDBRANCH   1   2
BRANCH   1  35
ATOM     35  C   UNL A   1      45.085  19.271  24.203  1.00  0.00     0.188 C 
BRANCH  35  36
ATOM     36  C   UNL A   1      46.047  19.713  25.306  1.00  0.00     0.188 C 
BRANCH  36  37
ATOM     37  O   UNL A   1      46.268  21.114  25.485  1.00  0.00    -0.376 OA
BRANCH  37  38
ATOM     38  C   UNL A   1      45.591  22.034  24.633  1.00  0.00     0.202 C 
BRANCH  38  39
ATOM     39  C   UNL A   1      46.319  23.358  24.422  1.00  0.00     0.261 C 
BRANCH  39  40
ATOM     40  O   UNL A   1      47.026  23.755  25.606  1.00  0.00    -0.460 OA
BRANCH  40  41
ATOM     41  C   UNL A   1      47.549  25.003  25.576  1.00  0.00     0.338 C 
ATOM     42  O   UNL A   1      47.863  25.653  24.593  1.00  0.00    -0.246 OA
BRANCH  41  43
ATOM     43  C   UNL A   1      47.521  25.552  26.942  1.00  0.00     0.060 A 
ATOM     44  C   UNL A   1      48.271  26.706  27.208  1.00  0.00     0.016 A 
ATOM     45  C   UNL A   1      46.781  24.933  27.951  1.00  0.00     0.016 A 
ATOM     46  C   UNL A   1      48.293  27.238  28.494  1.00  0.00     0.010 A 
ATOM     47  C   UNL A   1      46.821  25.456  29.243  1.00  0.00     0.010 A 
ATOM     48  C   UNL A   1      47.595  26.595  29.521  1.00  0.00    -0.014 A 
BRANCH  48  49
ATOM     49  C   UNL A   1      47.788  27.016  30.923  1.00  0.00     0.031 A 
ATOM     50  C   UNL A   1      48.648  26.163  31.811  1.00  0.00     0.074 A 
ATOM     51  C   UNL A   1      47.189  28.125  31.391  1.00  0.00     0.049 A 
ATOM     52  N   UNL A   1      48.866  26.261  33.094  1.00  0.00    -0.248 NA
ATOM     53  C   UNL A   1      49.352  25.042  31.163  1.00  0.00     0.031 C 
ATOM     54  C   UNL A   1      46.377  29.045  30.595  1.00  0.00     0.029 A 
ATOM     55  N   UNL A   1      47.156  28.652  32.655  1.00  0.00    -0.354 N 
ATOM     56  C   UNL A   1      49.718  25.210  33.412  1.00  0.00     0.074 A 
ATOM     57  C   UNL A   1      49.966  24.477  32.191  1.00  0.00     0.031 C 
ATOM     58  C   UNL A   1      45.905  30.014  31.399  1.00  0.00     0.029 A 
ATOM     59  C   UNL A   1      46.346  29.756  32.768  1.00  0.00     0.049 A 
ATOM     60  H   UNL A   1      47.663  28.275  33.410  1.00  0.00     0.167 HD
ATOM     61  C   UNL A   1      50.239  24.891  34.619  1.00  0.00     0.037 A 
ATOM     62  C   UNL A   1      45.977  30.451  33.862  1.00  0.00     0.037 A 
ATOM     63  C   UNL A   1      49.978  25.636  35.822  1.00  0.00     0.049 A 
ATOM     64  C   UNL A   1      46.506  30.021  35.207  1.00  0.00     0.074 A 
ATOM     65  C   UNL A   1      50.480  25.421  37.092  1.00  0.00     0.029 A 
ATOM     66  N   UNL A   1      49.129  26.730  35.905  1.00  0.00    -0.354 N 
ATOM     67  N   UNL A   1      47.337  29.046  35.495  1.00  0.00    -0.248 NA
ATOM     68  C   UNL A   1      46.039  30.778  36.378  1.00  0.00     0.031 C 
ATOM     69  C   UNL A   1      49.886  26.346  37.956  1.00  0.00     0.029 A 
ATOM     70  C   UNL A   1      49.060  27.176  37.214  1.00  0.00     0.049 A 
ATOM     71  H   UNL A   1      48.647  27.131  35.147  1.00  0.00     0.167 HD
ATOM     72  C   UNL A   1      47.510  29.089  36.876  1.00  0.00     0.074 A 
ATOM     73  C   UNL A   1      46.713  30.195  37.361  1.00  0.00     0.031 C 
ATOM     74  C   UNL A   1      48.259  28.285  37.672  1.00  0.00     0.037 A 
BRANCH  61  75
ATOM     75  C   UNL A   1      51.111  23.670  34.710  1.00  0.00     0.058 A 
ATOM     76  C   UNL A   1      50.625  22.441  35.182  1.00  0.00     0.135 A 
ATOM     77  C   UNL A   1      52.443  23.720  34.267  1.00  0.00     0.135 A 
ATOM     78  F   UNL A   1      49.367  22.343  35.641  1.00  0.00    -0.206 F 
ATOM     79  C   UNL A   1      51.431  21.307  35.219  1.00  0.00     0.059 A 
ATOM     80  C   UNL A   1      53.258  22.593  34.269  1.00  0.00     0.059 A 
ATOM     81  F   UNL A   1      52.963  24.873  33.817  1.00  0.00    -0.206 F 
ATOM     82  C   UNL A   1      52.744  21.392  34.753  1.00  0.00     0.060 A 
BRANCH  82  83
ATOM     83  S   UNL A   1      53.764  19.902  34.776  1.00  0.00     0.124 S 
ATOM     84  O   UNL A   1      53.899  19.619  33.351  1.00  0.00    -0.237 OA
ATOM     85  O   UNL A   1      54.974  20.364  35.448  1.00  0.00    -0.237 OA
ATOM     86  O   UNL A   1      52.956  18.948  35.530  1.00  0.00    -0.744 OA
ENDBRANCH  82  83
ENDBRANCH  61  75
BRANCH  62  87
ATOM     87  C   UNL A   1      45.039  31.600  33.743  1.00  0.00     0.058 A 
ATOM     88  C   UNL A   1      43.662  31.432  33.947  1.00  0.00     0.135 A 
ATOM     89  C   UNL A   1      45.496  32.884  33.401  1.00  0.00     0.135 A 
ATOM     90  F   UNL A   1      43.174  30.222  34.263  1.00  0.00    -0.206 F 
ATOM     91  C   UNL A   1      42.768  32.486  33.796  1.00  0.00     0.059 A 
ATOM     92  C   UNL A   1      44.625  33.961  33.274  1.00  0.00     0.059 A 
ATOM     93  F   UNL A   1      46.805  33.103  33.202  1.00  0.00    -0.206 F 
ATOM     94  C   UNL A   1      43.259  33.749  33.460  1.00  0.00     0.060 A 
BRANCH  94  95
ATOM     95  S   UNL A   1      42.091  35.115  33.294  1.00  0.00     0.124 S 
ATOM     96  O   UNL A   1      42.976  36.216  32.932  1.00  0.00    -0.237 OA
ATOM     97  O   UNL A   1      41.207  34.633  32.237  1.00  0.00    -0.237 OA
ATOM     98  O   UNL A   1      41.484  35.202  34.619  1.00  0.00    -0.744 OA
ENDBRANCH  94  95
ENDBRANCH  62  87
BRANCH  74  99
ATOM     99  C   UNL A   1      48.268  28.583  39.146  1.00  0.00     0.058 A 
ATOM    100  C   UNL A   1      49.192  29.477  39.710  1.00  0.00     0.135 A 
ATOM    101  C   UNL A   1      47.300  28.020  39.993  1.00  0.00     0.135 A 
ATOM    102  F   UNL A   1      50.143  30.038  38.945  1.00  0.00    -0.206 F 
ATOM    103  C   UNL A   1      49.169  29.786  41.065  1.00  0.00     0.059 A 
ATOM    104  C   UNL A   1      47.237  28.339  41.345  1.00  0.00     0.059 A 
ATOM    105  F   UNL A   1      46.386  27.167  39.502  1.00  0.00    -0.206 F 
ATOM    106  C   UNL A   1      48.183  29.217  41.874  1.00  0.00     0.060 A 
BRANCH 106 107
ATOM    107  S   UNL A   1      48.137  29.664  43.622  1.00  0.00     0.124 S 
ATOM    108  O   UNL A   1      47.048  30.636  43.648  1.00  0.00    -0.237 OA
ATOM    109  O   UNL A   1      47.857  28.383  44.264  1.00  0.00    -0.237 OA
ATOM    110  O   UNL A   1      49.469  30.206  43.871  1.00  0.00    -0.744 OA
ENDBRANCH 106 107
ENDBRANCH  74  99
ENDBRANCH  48  49
ENDBRANCH  41  43
ENDBRANCH  40  41
ENDBRANCH  39  40
ENDBRANCH  38  39
ENDBRANCH  37  38
ENDBRANCH  36  37
ENDBRANCH  35  36
ENDBRANCH   1  35
TORSDOF 28
ENDMDL
MODEL 3
REMARK VINA RESULT:      -8.2      1.647      2.399
REMARK SMILES Cc1ccnc(C(=O)c2[nH]c3ccc(OC(F)(F)F)cc3c2CC(=O)OCCOCCOCCOCCOC(=O)c2ccc(-c3c4nc(c(-c5c(F)cc(S(=O)(=O)[O-])cc5F)c5ccc([nH]5)c(-c5c(F)cc(S(=O)(=O)[O-])cc5F)c5nc(c(-c6c(F)cc(S(=O)(=O)[O-])cc6F)c6ccc3[nH]6)C=C5)C=C4)cc2)c1
REMARK SMILES IDX 32 1 31 2 30 3 29 4 28 5 27 6 26 7 24 8 25 9 23 10 22 11
REMARK SMILES IDX 9 12 10 13 11 14 21 16 12 17 20 18 13 19 14 20 7 21 8 22
REMARK SMILES IDX 6 23 1 24 2 25 3 26 107 27 4 28 5 29 15 30 16 31 17 32 18 33
REMARK SMILES IDX 19 34 33 35 34 36 35 37 36 38 37 39 38 40 39 41 40 42 41 43
REMARK SMILES IDX 42 44 106 45 43 46 105 47 44 48 45 49 46 50 99 51 47 52
REMARK SMILES IDX 104 53 98 54 100 55 48 56 103 57 97 58 96 59 49 61 83 62
REMARK SMILES IDX 62 63 82 64 63 65 66 66 81 67 101 68 64 69 65 70 80 72
REMARK SMILES IDX 102 73 67 74 50 75 51 76 60 77 52 78 53 79 59 80 61 81 54 82
REMARK SMILES IDX 55 83 56 84 57 85 58 86 84 87 85 88 94 89 86 90 87 91 93 92
REMARK SMILES IDX 95 93 88 94 89 95 90 96 91 97 92 98 68 99 69 100 78 101
REMARK SMILES IDX 70 102 71 103 77 104 79 105 72 106 73 107 74 108 75 109
REMARK SMILES IDX 76 110
REMARK H PARENT 10 15 100 60 66 71
REMARK Flexibility Score: inf
ROOT
ATOM      1  O   UNL A   1      34.704  30.936  28.020  1.00  0.00    -0.377 OA
ENDROOT
BRANCH   1   2
ATOM      2  C   UNL A   1      35.207  29.817  27.309  1.00  0.00     0.188 C 
BRANCH   2   3
ATOM      3  C   UNL A   1      34.275  29.058  26.367  1.00  0.00     0.188 C 
BRANCH   3   4
ATOM      4  O   UNL A   1      33.702  27.858  26.841  1.00  0.00    -0.376 OA
BRANCH   4   5
ATOM      5  C   UNL A   1      32.326  27.625  26.539  1.00  0.00     0.202 C 
BRANCH   5   6
ATOM      6  C   UNL A   1      31.728  26.207  26.646  1.00  0.00     0.261 C 
BRANCH   6   7
ATOM      7  O   UNL A   1      30.658  25.904  25.708  1.00  0.00    -0.463 OA
BRANCH   7   8
ATOM      8  C   UNL A   1      30.489  24.592  25.405  1.00  0.00     0.310 C 
ATOM      9  O   UNL A   1      29.858  23.818  26.129  1.00  0.00    -0.252 OA
BRANCH   8  10
ATOM     10  C   UNL A   1      31.084  24.068  24.111  1.00  0.00     0.161 C 
BRANCH  10  11
ATOM     11  C   UNL A   1      32.568  23.858  23.911  1.00  0.00     0.000 A 
ATOM     12  C   UNL A   1      33.412  24.462  22.961  1.00  0.00     0.093 A 
ATOM     13  N   UNL A   1      34.684  23.998  23.235  1.00  0.00    -0.352 N 
ATOM     14  C   UNL A   1      34.609  22.822  23.944  1.00  0.00     0.046 A 
ATOM     15  H   UNL A   1      35.520  24.442  22.963  1.00  0.00     0.167 HD
ATOM     16  C   UNL A   1      33.301  22.723  24.405  1.00  0.00     0.008 A 
ATOM     17  C   UNL A   1      35.578  21.844  24.194  1.00  0.00     0.030 A 
ATOM     18  C   UNL A   1      32.936  21.563  25.122  1.00  0.00     0.057 A 
ATOM     19  C   UNL A   1      35.170  20.676  24.856  1.00  0.00     0.049 A 
ATOM     20  C   UNL A   1      33.855  20.519  25.293  1.00  0.00     0.130 A 
BRANCH  12  21
ATOM     21  C   UNL A   1      33.047  25.385  21.885  1.00  0.00     0.227 C 
ATOM     22  O   UNL A   1      33.258  25.134  20.697  1.00  0.00    -0.285 OA
BRANCH  21  23
ATOM     23  C   UNL A   1      32.465  26.731  22.161  1.00  0.00     0.113 A 
ATOM     24  C   UNL A   1      29.149  28.297  23.091  1.00  0.00     0.044 C 
ATOM     25  C   UNL A   1      30.611  28.100  22.819  1.00  0.00    -0.047 A 
ATOM     26  C   UNL A   1      31.530  29.076  23.213  1.00  0.00     0.023 A 
ATOM     27  C   UNL A   1      31.090  26.898  22.282  1.00  0.00     0.036 A 
ATOM     28  C   UNL A   1      32.880  28.834  23.029  1.00  0.00     0.112 A 
ATOM     29  N   UNL A   1      33.364  27.692  22.504  1.00  0.00    -0.253 NA
ENDBRANCH  21  23
ENDBRANCH  12  21
BRANCH  20  30
ATOM     30  O   UNL A   1      33.324  19.404  25.881  1.00  0.00    -0.406 OA
BRANCH  30  31
ATOM     31  C   UNL A   1      33.062  18.281  25.058  1.00  0.00     0.573 C 
ATOM     32  F   UNL A   1      32.114  17.482  25.598  1.00  0.00    -0.132 F 
ATOM     33  F   UNL A   1      32.672  18.663  23.825  1.00  0.00    -0.132 F 
ATOM     34  F   UNL A   1      34.194  17.551  24.941  1.00  0.00    -0.132 F 
ENDBRANCH  30  31
ENDBRANCH  20  30
ENDBRANCH  10  11
ENDBRANCH   8  10
ENDBRANCH   7   8
ENDBRANCH   6   7
ENDBRANCH   5   6
ENDBRANCH   4   5
ENDBRANCH   3   4
ENDBRANCH   2   3
ENDBRANCH   1   2
BRANCH   1  35
ATOM     35  C   UNL A   1      35.532  31.604  28.964  1.00  0.00     0.188 C 
BRANCH  35  36
ATOM     36  C   UNL A   1      36.256  30.759  30.013  1.00  0.00     0.188 C 
BRANCH  36  37
ATOM     37  O   UNL A   1      37.649  30.501  29.825  1.00  0.00    -0.376 OA
BRANCH  37  38
ATOM     38  C   UNL A   1      38.128  29.165  29.948  1.00  0.00     0.202 C 
BRANCH  38  39
ATOM     39  C   UNL A   1      39.445  29.029  30.705  1.00  0.00     0.261 C 
BRANCH  39  40
ATOM     40  O   UNL A   1      39.256  28.352  31.956  1.00  0.00    -0.460 OA
BRANCH  40  41
ATOM     41  C   UNL A   1      38.360  28.924  32.794  1.00  0.00     0.338 C 
ATOM     42  O   UNL A   1      37.289  28.467  33.159  1.00  0.00    -0.246 OA
BRANCH  41  43
ATOM     43  C   UNL A   1      38.962  30.143  33.360  1.00  0.00     0.060 A 
ATOM     44  C   UNL A   1      40.194  30.030  34.017  1.00  0.00     0.016 A 
ATOM     45  C   UNL A   1      38.316  31.377  33.259  1.00  0.00     0.016 A 
ATOM     46  C   UNL A   1      40.780  31.155  34.590  1.00  0.00     0.010 A 
ATOM     47  C   UNL A   1      38.894  32.498  33.852  1.00  0.00     0.010 A 
ATOM     48  C   UNL A   1      40.115  32.385  34.537  1.00  0.00    -0.014 A 
BRANCH  48  49
ATOM     49  C   UNL A   1      40.612  33.529  35.328  1.00  0.00     0.031 A 
ATOM     50  C   UNL A   1      41.541  34.504  34.663  1.00  0.00     0.074 A 
ATOM     51  C   UNL A   1      40.254  33.675  36.615  1.00  0.00     0.049 A 
ATOM     52  N   UNL A   1      42.195  35.507  35.181  1.00  0.00    -0.248 NA
ATOM     53  C   UNL A   1      41.767  34.316  33.220  1.00  0.00     0.031 C 
ATOM     54  C   UNL A   1      39.319  32.809  37.335  1.00  0.00     0.029 A 
ATOM     55  N   UNL A   1      40.653  34.593  37.551  1.00  0.00    -0.354 N 
ATOM     56  C   UNL A   1      42.921  36.062  34.134  1.00  0.00     0.074 A 
ATOM     57  C   UNL A   1      42.640  35.276  32.954  1.00  0.00     0.031 C 
ATOM     58  C   UNL A   1      39.234  33.227  38.610  1.00  0.00     0.029 A 
ATOM     59  C   UNL A   1      40.140  34.358  38.804  1.00  0.00     0.049 A 
ATOM     60  H   UNL A   1      41.250  35.348  37.345  1.00  0.00     0.167 HD
ATOM     61  C   UNL A   1      43.750  37.132  34.164  1.00  0.00     0.037 A 
ATOM     62  C   UNL A   1      40.406  34.966  39.977  1.00  0.00     0.037 A 
ATOM     63  C   UNL A   1      44.014  37.901  35.351  1.00  0.00     0.049 A 
ATOM     64  C   UNL A   1      41.399  36.101  39.996  1.00  0.00     0.074 A 
ATOM     65  C   UNL A   1      44.811  39.023  35.488  1.00  0.00     0.029 A 
ATOM     66  N   UNL A   1      43.503  37.616  36.608  1.00  0.00    -0.354 N 
ATOM     67  N   UNL A   1      42.057  36.641  38.996  1.00  0.00    -0.248 NA
ATOM     68  C   UNL A   1      41.695  36.703  41.304  1.00  0.00     0.031 C 
ATOM     69  C   UNL A   1      44.830  39.379  36.839  1.00  0.00     0.029 A 
ATOM     70  C   UNL A   1      43.998  38.516  37.535  1.00  0.00     0.049 A 
ATOM     71  H   UNL A   1      42.879  36.883  36.812  1.00  0.00     0.167 HD
ATOM     72  C   UNL A   1      42.824  37.661  39.551  1.00  0.00     0.074 A 
ATOM     73  C   UNL A   1      42.535  37.673  40.970  1.00  0.00     0.031 C 
ATOM     74  C   UNL A   1      43.692  38.509  38.945  1.00  0.00     0.037 A 
BRANCH  61  75
ATOM     75  C   UNL A   1      44.455  37.513  32.893  1.00  0.00     0.058 A 
ATOM     76  C   UNL A   1      45.544  36.780  32.397  1.00  0.00     0.135 A 
ATOM     77  C   UNL A   1      43.998  38.601  32.132  1.00  0.00     0.135 A 
ATOM     78  F   UNL A   1      46.038  35.746  33.097  1.00  0.00    -0.206 F 
ATOM     79  C   UNL A   1      46.160  37.117  31.196  1.00  0.00     0.059 A 
ATOM     80  C   UNL A   1      44.582  38.940  30.914  1.00  0.00     0.059 A 
ATOM     81  F   UNL A   1      42.967  39.344  32.565  1.00  0.00    -0.206 F 
ATOM     82  C   UNL A   1      45.667  38.195  30.458  1.00  0.00     0.060 A 
BRANCH  82  83
ATOM     83  S   UNL A   1      46.456  38.596  28.885  1.00  0.00     0.124 S 
ATOM     84  O   UNL A   1      45.585  39.654  28.382  1.00  0.00    -0.237 OA
ATOM     85  O   UNL A   1      47.788  39.018  29.305  1.00  0.00    -0.237 OA
ATOM     86  O   UNL A   1      46.404  37.338  28.147  1.00  0.00    -0.744 OA
ENDBRANCH  82  83
ENDBRANCH  61  75
BRANCH  62  87
ATOM     87  C   UNL A   1      39.754  34.501  41.230  1.00  0.00     0.058 A 
ATOM     88  C   UNL A   1      40.298  33.445  41.978  1.00  0.00     0.135 A 
ATOM     89  C   UNL A   1      38.565  35.085  41.696  1.00  0.00     0.135 A 
ATOM     90  F   UNL A   1      41.427  32.846  41.568  1.00  0.00    -0.206 F 
ATOM     91  C   UNL A   1      39.677  32.971  43.128  1.00  0.00     0.059 A 
ATOM     92  C   UNL A   1      37.941  34.648  42.861  1.00  0.00     0.059 A 
ATOM     93  F   UNL A   1      38.006  36.103  41.024  1.00  0.00    -0.206 F 
ATOM     94  C   UNL A   1      38.498  33.579  43.562  1.00  0.00     0.060 A 
BRANCH  94  95
ATOM     95  S   UNL A   1      37.716  32.971  45.071  1.00  0.00     0.124 S 
ATOM     96  O   UNL A   1      37.522  34.207  45.821  1.00  0.00    -0.237 OA
ATOM     97  O   UNL A   1      36.505  32.340  44.555  1.00  0.00    -0.237 OA
ATOM     98  O   UNL A   1      38.710  32.050  45.617  1.00  0.00    -0.744 OA
ENDBRANCH  94  95
ENDBRANCH  62  87
BRANCH  74  99
ATOM     99  C   UNL A   1      44.376  39.534  39.807  1.00  0.00     0.058 A 
ATOM    100  C   UNL A   1      45.621  39.281  40.403  1.00  0.00     0.135 A 
ATOM    101  C   UNL A   1      43.810  40.807  39.985  1.00  0.00     0.135 A 
ATOM    102  F   UNL A   1      46.201  38.078  40.271  1.00  0.00    -0.206 F 
ATOM    103  C   UNL A   1      46.272  40.248  41.162  1.00  0.00     0.059 A 
ATOM    104  C   UNL A   1      44.459  41.800  40.712  1.00  0.00     0.059 A 
ATOM    105  F   UNL A   1      42.626  41.106  39.426  1.00  0.00    -0.206 F 
ATOM    106  C   UNL A   1      45.686  41.507  41.306  1.00  0.00     0.060 A 
BRANCH 106 107
ATOM    107  S   UNL A   1      46.565  42.765  42.254  1.00  0.00     0.124 S 
ATOM    108  O   UNL A   1      47.895  42.710  41.655  1.00  0.00    -0.237 OA
ATOM    109  O   UNL A   1      45.791  43.969  41.967  1.00  0.00    -0.237 OA
ATOM    110  O   UNL A   1      46.475  42.282  43.628  1.00  0.00    -0.744 OA
ENDBRANCH 106 107
ENDBRANCH  74  99
ENDBRANCH  48  49
ENDBRANCH  41  43
ENDBRANCH  40  41
ENDBRANCH  39  40
ENDBRANCH  38  39
ENDBRANCH  37  38
ENDBRANCH  36  37
ENDBRANCH  35  36
ENDBRANCH   1  35
TORSDOF 28
ENDMDL
