MODEL 1
REMARK VINA RESULT:     -10.9      0.000      0.000
REMARK SMILES O=C(OCCOCCOCCOCCOC(=O)c1ccc(-c2c3nc(c(-c4c(F)cc(S(=O)(=O)[O-])cc4F)c4ccc([nH]4)c(-c4c(F)cc(S(=O)(=O)[O-])cc4F)c4nc(c(-c5c(F)cc(S(=O)(=O)[O-])cc5F)c5ccc2[nH]5)C=C4)C=C3)cc1)C1=Cc2cc(Cl)cc(-c3ccc(Cl)cc3)c2O[C@@H]1C(F)(F)F
REMARK SMILES IDX 10 1 9 2 8 3 7 4 6 5 5 6 4 7 3 8 2 9 1 10 84 11 85 12 101 13
REMARK SMILES IDX 86 14 100 15 87 16 99 17 88 18 91 19 89 20 90 21 102 22
REMARK SMILES IDX 103 23 104 24 105 25 92 26 93 27 98 28 94 29 97 30 95 31
REMARK SMILES IDX 96 32 11 33 12 34 13 35 14 36 15 37 16 38 17 39 18 40 19 41
REMARK SMILES IDX 83 42 20 43 82 44 21 45 22 46 23 47 76 48 24 49 81 50 75 51
REMARK SMILES IDX 77 52 25 53 80 54 74 55 73 56 26 58 60 59 39 60 59 61 40 62
REMARK SMILES IDX 43 63 58 64 78 65 41 66 42 67 57 69 79 70 44 71 27 72 28 73
REMARK SMILES IDX 37 74 29 75 30 76 36 77 38 78 31 79 32 80 33 81 34 82 35 83
REMARK SMILES IDX 61 84 62 85 71 86 63 87 64 88 70 89 72 90 65 91 66 92 67 93
REMARK SMILES IDX 68 94 69 95 45 96 46 97 55 98 47 99 48 100 54 101 56 102
REMARK SMILES IDX 49 103 50 104 51 105 52 106 53 107
REMARK H PARENT 77 57 43 68
REMARK Flexibility Score: inf
ROOT
ATOM      1  C   UNL A   1      39.260  20.929  26.129  1.00  0.00     0.188 C 
ENDROOT
BRANCH   1   2
ATOM      2  O   UNL A   1      38.030  21.608  26.057  1.00  0.00    -0.377 OA
BRANCH   2   3
ATOM      3  C   UNL A   1      38.257  22.987  26.029  1.00  0.00     0.188 C 
BRANCH   3   4
ATOM      4  C   UNL A   1      37.196  23.658  25.178  1.00  0.00     0.188 C 
BRANCH   4   5
ATOM      5  O   UNL A   1      36.973  23.433  23.748  1.00  0.00    -0.376 OA
BRANCH   5   6
ATOM      6  C   UNL A   1      35.668  23.353  22.740  1.00  0.00     0.202 C 
BRANCH   6   7
ATOM      7  C   UNL A   1      33.778  24.435  22.920  1.00  0.00     0.261 C 
BRANCH   7   8
ATOM      8  O   UNL A   1      33.044  24.758  24.215  1.00  0.00    -0.460 OA
BRANCH   8   9
ATOM      9  C   UNL A   1      32.996  23.715  25.052  1.00  0.00     0.338 C 
ATOM     10  O   UNL A   1      33.046  22.539  24.793  1.00  0.00    -0.246 OA
BRANCH   9  11
ATOM     11  C   UNL A   1      32.393  24.426  26.166  1.00  0.00     0.087 C 
ATOM     12  C   UNL A   1      33.152  25.582  26.629  1.00  0.00     0.027 C 
ATOM     13  C   UNL A   1      30.661  24.505  25.341  1.00  0.00     0.316 C 
ATOM     14  C   UNL A   1      32.701  27.287  26.290  1.00  0.00     0.019 A 
ATOM     15  O   UNL A   1      30.210  26.343  24.830  1.00  0.00    -0.475 OA
ATOM     16  C   UNL A   1      33.547  28.254  26.767  1.00  0.00     0.032 A 
ATOM     17  C   UNL A   1      31.349  27.728  25.285  1.00  0.00     0.135 A 
ATOM     18  C   UNL A   1      33.237  29.562  26.388  1.00  0.00     0.042 A 
ATOM     19  C   UNL A   1      31.197  29.062  24.879  1.00  0.00     0.026 A 
ATOM     20  Cl  UNL A   1      34.248  30.825  27.005  1.00  0.00    -0.084 Cl
ATOM     21  C   UNL A   1      32.158  29.931  25.504  1.00  0.00     0.033 A 
BRANCH  13  22
ATOM     22  C   UNL A   1      30.099  23.403  26.529  1.00  0.00     0.430 C 
ATOM     23  F   UNL A   1      30.855  23.107  27.603  1.00  0.00    -0.167 F 
ATOM     24  F   UNL A   1      28.988  23.985  27.087  1.00  0.00    -0.167 F 
ATOM     25  F   UNL A   1      29.641  22.223  26.034  1.00  0.00    -0.167 F 
ENDBRANCH  13  22
BRANCH  19  26
ATOM     26  C   UNL A   1      30.300  29.714  23.925  1.00  0.00    -0.015 A 
ATOM     27  C   UNL A   1      29.604  30.902  24.203  1.00  0.00     0.010 A 
ATOM     28  C   UNL A   1      29.901  29.050  22.780  1.00  0.00     0.010 A 
ATOM     29  C   UNL A   1      28.754  31.497  23.251  1.00  0.00     0.021 A 
ATOM     30  C   UNL A   1      29.239  29.720  21.753  1.00  0.00     0.021 A 
ATOM     31  C   UNL A   1      28.654  30.946  21.984  1.00  0.00     0.041 A 
ATOM     32  Cl  UNL A   1      27.777  31.714  20.727  1.00  0.00    -0.084 Cl
ENDBRANCH  19  26
ENDBRANCH   9  11
ENDBRANCH   8   9
ENDBRANCH   7   8
ENDBRANCH   6   7
ENDBRANCH   5   6
ENDBRANCH   4   5
ENDBRANCH   3   4
ENDBRANCH   2   3
ENDBRANCH   1   2
BRANCH   1  33
ATOM     33  C   UNL A   1      39.297  19.499  25.616  1.00  0.00     0.188 C 
BRANCH  33  34
ATOM     34  O   UNL A   1      40.580  18.931  25.573  1.00  0.00    -0.376 OA
BRANCH  34  35
ATOM     35  C   UNL A   1      41.596  19.458  26.417  1.00  0.00     0.202 C 
BRANCH  35  36
ATOM     36  C   UNL A   1      42.843  20.234  25.928  1.00  0.00     0.261 C 
BRANCH  36  37
ATOM     37  O   UNL A   1      43.945  19.508  25.356  1.00  0.00    -0.460 OA
BRANCH  37  38
ATOM     38  C   UNL A   1      44.587  20.027  24.286  1.00  0.00     0.338 C 
ATOM     39  O   UNL A   1      44.605  19.572  23.159  1.00  0.00    -0.246 OA
BRANCH  38  40
ATOM     40  C   UNL A   1      45.064  21.382  24.676  1.00  0.00     0.060 A 
ATOM     41  C   UNL A   1      45.617  21.579  25.953  1.00  0.00     0.016 A 
ATOM     42  C   UNL A   1      45.014  22.447  23.773  1.00  0.00     0.016 A 
ATOM     43  C   UNL A   1      46.076  22.845  26.346  1.00  0.00     0.010 A 
ATOM     44  C   UNL A   1      45.479  23.712  24.164  1.00  0.00     0.010 A 
ATOM     45  C   UNL A   1      45.967  23.934  25.471  1.00  0.00    -0.014 A 
BRANCH  45  46
ATOM     46  C   UNL A   1      46.013  25.329  25.997  1.00  0.00     0.031 A 
ATOM     47  C   UNL A   1      47.374  25.985  25.991  1.00  0.00     0.074 A 
ATOM     48  C   UNL A   1      44.942  26.019  26.445  1.00  0.00     0.049 A 
ATOM     49  N   UNL A   1      47.731  27.179  26.379  1.00  0.00    -0.248 NA
ATOM     50  C   UNL A   1      48.492  25.164  25.486  1.00  0.00     0.031 C 
ATOM     51  C   UNL A   1      43.563  25.538  26.482  1.00  0.00     0.029 A 
ATOM     52  N   UNL A   1      44.856  27.290  26.970  1.00  0.00    -0.354 N 
ATOM     53  C   UNL A   1      49.102  27.241  26.162  1.00  0.00     0.074 A 
ATOM     54  C   UNL A   1      49.533  25.940  25.721  1.00  0.00     0.031 C 
ATOM     55  C   UNL A   1      42.776  26.483  27.030  1.00  0.00     0.029 A 
ATOM     56  C   UNL A   1      43.587  27.650  27.371  1.00  0.00     0.049 A 
ATOM     57  H   UNL A   1      45.633  27.889  27.051  1.00  0.00     0.167 HD
ATOM     58  C   UNL A   1      49.931  28.302  26.261  1.00  0.00     0.037 A 
ATOM     59  C   UNL A   1      43.135  28.795  27.930  1.00  0.00     0.037 A 
ATOM     60  C   UNL A   1      49.510  29.602  26.690  1.00  0.00     0.049 A 
ATOM     61  C   UNL A   1      44.097  29.950  28.116  1.00  0.00     0.074 A 
ATOM     62  C   UNL A   1      50.262  30.756  26.798  1.00  0.00     0.029 A 
ATOM     63  N   UNL A   1      48.222  29.915  27.097  1.00  0.00    -0.354 N 
ATOM     64  N   UNL A   1      45.377  30.016  27.830  1.00  0.00    -0.248 NA
ATOM     65  C   UNL A   1      43.543  31.198  28.661  1.00  0.00     0.031 C 
ATOM     66  C   UNL A   1      49.447  31.749  27.348  1.00  0.00     0.029 A 
ATOM     67  C   UNL A   1      48.166  31.239  27.491  1.00  0.00     0.049 A 
ATOM     68  H   UNL A   1      47.463  29.290  27.105  1.00  0.00     0.167 HD
ATOM     69  C   UNL A   1      45.761  31.329  28.096  1.00  0.00     0.074 A 
ATOM     70  C   UNL A   1      44.580  32.019  28.570  1.00  0.00     0.031 C 
ATOM     71  C   UNL A   1      46.976  31.916  27.943  1.00  0.00     0.037 A 
BRANCH  58  72
ATOM     72  C   UNL A   1      51.374  28.075  25.907  1.00  0.00     0.058 A 
ATOM     73  C   UNL A   1      51.826  28.090  24.575  1.00  0.00     0.135 A 
ATOM     74  C   UNL A   1      52.314  27.813  26.915  1.00  0.00     0.135 A 
ATOM     75  F   UNL A   1      50.962  28.300  23.568  1.00  0.00    -0.206 F 
ATOM     76  C   UNL A   1      53.149  27.815  24.254  1.00  0.00     0.059 A 
ATOM     77  C   UNL A   1      53.651  27.576  26.619  1.00  0.00     0.059 A 
ATOM     78  F   UNL A   1      51.933  27.770  28.201  1.00  0.00    -0.206 F 
ATOM     79  C   UNL A   1      54.056  27.564  25.285  1.00  0.00     0.060 A 
BRANCH  79  80
ATOM     80  S   UNL A   1      55.774  27.228  24.852  1.00  0.00     0.124 S 
ATOM     81  O   UNL A   1      56.376  28.550  24.996  1.00  0.00    -0.237 OA
ATOM     82  O   UNL A   1      56.156  26.244  25.860  1.00  0.00    -0.237 OA
ATOM     83  O   UNL A   1      55.688  26.722  23.486  1.00  0.00    -0.744 OA
ENDBRANCH  79  80
ENDBRANCH  58  72
BRANCH  59  84
ATOM     84  C   UNL A   1      41.697  28.953  28.308  1.00  0.00     0.058 A 
ATOM     85  C   UNL A   1      40.707  29.173  27.335  1.00  0.00     0.135 A 
ATOM     86  C   UNL A   1      41.286  28.937  29.650  1.00  0.00     0.135 A 
ATOM     87  F   UNL A   1      41.043  29.217  26.036  1.00  0.00    -0.206 F 
ATOM     88  C   UNL A   1      39.375  29.395  27.676  1.00  0.00     0.059 A 
ATOM     89  C   UNL A   1      39.953  29.128  30.016  1.00  0.00     0.059 A 
ATOM     90  F   UNL A   1      42.183  28.728  30.625  1.00  0.00    -0.206 F 
ATOM     91  C   UNL A   1      39.006  29.365  29.020  1.00  0.00     0.060 A 
BRANCH  91  92
ATOM     92  S   UNL A   1      37.263  29.600  29.445  1.00  0.00     0.124 S 
ATOM     93  O   UNL A   1      37.151  28.832  30.679  1.00  0.00    -0.237 OA
ATOM     94  O   UNL A   1      37.181  31.051  29.584  1.00  0.00    -0.237 OA
ATOM     95  O   UNL A   1      36.559  29.047  28.291  1.00  0.00    -0.744 OA
ENDBRANCH  91  92
ENDBRANCH  59  84
BRANCH  71  96
ATOM     96  C   UNL A   1      47.084  33.396  28.206  1.00  0.00     0.058 A 
ATOM     97  C   UNL A   1      46.832  34.359  27.217  1.00  0.00     0.135 A 
ATOM     98  C   UNL A   1      47.394  33.854  29.499  1.00  0.00     0.135 A 
ATOM     99  F   UNL A   1      46.525  33.981  25.967  1.00  0.00    -0.206 F 
ATOM    100  C   UNL A   1      46.930  35.720  27.489  1.00  0.00     0.059 A 
ATOM    101  C   UNL A   1      47.453  35.209  29.804  1.00  0.00     0.059 A 
ATOM    102  F   UNL A   1      47.624  32.978  30.492  1.00  0.00    -0.206 F 
ATOM    103  C   UNL A   1      47.241  36.134  28.786  1.00  0.00     0.060 A 
BRANCH 103 104
ATOM    104  S   UNL A   1      47.360  37.903  29.125  1.00  0.00     0.124 S 
ATOM    105  O   UNL A   1      48.557  38.265  28.375  1.00  0.00    -0.237 OA
ATOM    106  O   UNL A   1      46.099  38.407  28.588  1.00  0.00    -0.237 OA
ATOM    107  O   UNL A   1      47.485  37.964  30.578  1.00  0.00    -0.744 OA
ENDBRANCH 103 104
ENDBRANCH  71  96
ENDBRANCH  45  46
ENDBRANCH  38  40
ENDBRANCH  37  38
ENDBRANCH  36  37
ENDBRANCH  35  36
ENDBRANCH  34  35
ENDBRANCH  33  34
ENDBRANCH   1  33
TORSDOF 25
ENDMDL
MODEL 2
REMARK VINA RESULT:     -10.1      4.037      9.607
REMARK SMILES O=C(OCCOCCOCCOCCOC(=O)c1ccc(-c2c3nc(c(-c4c(F)cc(S(=O)(=O)[O-])cc4F)c4ccc([nH]4)c(-c4c(F)cc(S(=O)(=O)[O-])cc4F)c4nc(c(-c5c(F)cc(S(=O)(=O)[O-])cc5F)c5ccc2[nH]5)C=C4)C=C3)cc1)C1=Cc2cc(Cl)cc(-c3ccc(Cl)cc3)c2O[C@@H]1C(F)(F)F
REMARK SMILES IDX 10 1 9 2 8 3 7 4 6 5 5 6 4 7 3 8 2 9 1 10 84 11 85 12 101 13
REMARK SMILES IDX 86 14 100 15 87 16 99 17 88 18 91 19 89 20 90 21 102 22
REMARK SMILES IDX 103 23 104 24 105 25 92 26 93 27 98 28 94 29 97 30 95 31
REMARK SMILES IDX 96 32 11 33 12 34 13 35 14 36 15 37 16 38 17 39 18 40 19 41
REMARK SMILES IDX 83 42 20 43 82 44 21 45 22 46 23 47 76 48 24 49 81 50 75 51
REMARK SMILES IDX 77 52 25 53 80 54 74 55 73 56 26 58 60 59 39 60 59 61 40 62
REMARK SMILES IDX 43 63 58 64 78 65 41 66 42 67 57 69 79 70 44 71 27 72 28 73
REMARK SMILES IDX 37 74 29 75 30 76 36 77 38 78 31 79 32 80 33 81 34 82 35 83
REMARK SMILES IDX 61 84 62 85 71 86 63 87 64 88 70 89 72 90 65 91 66 92 67 93
REMARK SMILES IDX 68 94 69 95 45 96 46 97 55 98 47 99 48 100 54 101 56 102
REMARK SMILES IDX 49 103 50 104 51 105 52 106 53 107
REMARK H PARENT 77 57 43 68
REMARK Flexibility Score: inf
ROOT
ATOM      1  C   UNL A   1      40.650  28.572  33.951  1.00  0.00     0.188 C 
ENDROOT
BRANCH   1   2
ATOM      2  O   UNL A   1      40.713  29.207  32.698  1.00  0.00    -0.377 OA
BRANCH   2   3
ATOM      3  C   UNL A   1      40.256  28.334  31.706  1.00  0.00     0.188 C 
BRANCH   3   4
ATOM      4  C   UNL A   1      38.870  28.757  31.259  1.00  0.00     0.188 C 
BRANCH   4   5
ATOM      5  O   UNL A   1      38.066  29.828  31.853  1.00  0.00    -0.376 OA
BRANCH   5   6
ATOM      6  C   UNL A   1      36.460  30.117  32.107  1.00  0.00     0.202 C 
BRANCH   6   7
ATOM      7  C   UNL A   1      35.494  32.043  32.462  1.00  0.00     0.261 C 
BRANCH   7   8
ATOM      8  O   UNL A   1      34.684  32.847  31.450  1.00  0.00    -0.460 OA
BRANCH   8   9
ATOM      9  C   UNL A   1      34.923  34.161  31.529  1.00  0.00     0.338 C 
ATOM     10  O   UNL A   1      34.475  34.962  32.311  1.00  0.00    -0.246 OA
BRANCH   9  11
ATOM     11  C   UNL A   1      35.421  34.319  30.174  1.00  0.00     0.087 C 
ATOM     12  C   UNL A   1      36.590  33.507  29.860  1.00  0.00     0.027 C 
ATOM     13  C   UNL A   1      33.687  34.106  29.378  1.00  0.00     0.316 C 
ATOM     14  C   UNL A   1      36.545  32.020  28.853  1.00  0.00     0.019 A 
ATOM     15  O   UNL A   1      33.569  32.414  28.394  1.00  0.00    -0.475 OA
ATOM     16  C   UNL A   1      37.731  31.352  28.688  1.00  0.00     0.032 A 
ATOM     17  C   UNL A   1      35.068  31.345  28.225  1.00  0.00     0.135 A 
ATOM     18  C   UNL A   1      37.645  30.139  28.002  1.00  0.00     0.042 A 
ATOM     19  C   UNL A   1      35.085  30.066  27.649  1.00  0.00     0.026 A 
ATOM     20  Cl  UNL A   1      39.124  29.280  27.725  1.00  0.00    -0.084 Cl
ATOM     21  C   UNL A   1      36.419  29.540  27.535  1.00  0.00     0.033 A 
BRANCH  13  22
ATOM     22  C   UNL A   1      33.736  35.763  28.943  1.00  0.00     0.430 C 
ATOM     23  F   UNL A   1      34.678  36.223  28.097  1.00  0.00    -0.167 F 
ATOM     24  F   UNL A   1      32.569  36.010  28.264  1.00  0.00    -0.167 F 
ATOM     25  F   UNL A   1      33.697  36.626  29.992  1.00  0.00    -0.167 F 
ENDBRANCH  13  22
BRANCH  19  26
ATOM     26  C   UNL A   1      34.024  29.166  27.197  1.00  0.00    -0.015 A 
ATOM     27  C   UNL A   1      34.233  28.115  26.290  1.00  0.00     0.010 A 
ATOM     28  C   UNL A   1      32.699  29.468  27.456  1.00  0.00     0.010 A 
ATOM     29  C   UNL A   1      33.181  27.270  25.887  1.00  0.00     0.021 A 
ATOM     30  C   UNL A   1      31.692  28.529  27.241  1.00  0.00     0.021 A 
ATOM     31  C   UNL A   1      31.924  27.427  26.448  1.00  0.00     0.041 A 
ATOM     32  Cl  UNL A   1      30.647  26.327  26.134  1.00  0.00    -0.084 Cl
ENDBRANCH  19  26
ENDBRANCH   9  11
ENDBRANCH   8   9
ENDBRANCH   7   8
ENDBRANCH   6   7
ENDBRANCH   5   6
ENDBRANCH   4   5
ENDBRANCH   3   4
ENDBRANCH   2   3
ENDBRANCH   1   2
BRANCH   1  33
ATOM     33  C   UNL A   1      40.901  29.430  35.180  1.00  0.00     0.188 C 
BRANCH  33  34
ATOM     34  O   UNL A   1      39.736  29.870  35.828  1.00  0.00    -0.376 OA
BRANCH  34  35
ATOM     35  C   UNL A   1      38.814  30.681  35.114  1.00  0.00     0.202 C 
BRANCH  35  36
ATOM     36  C   UNL A   1      39.078  32.137  34.658  1.00  0.00     0.261 C 
BRANCH  36  37
ATOM     37  O   UNL A   1      38.806  32.509  33.295  1.00  0.00    -0.460 OA
BRANCH  37  38
ATOM     38  C   UNL A   1      39.348  33.645  32.805  1.00  0.00     0.338 C 
ATOM     39  O   UNL A   1      39.035  34.784  33.095  1.00  0.00    -0.246 OA
BRANCH  38  40
ATOM     40  C   UNL A   1      40.560  33.255  32.033  1.00  0.00     0.060 A 
ATOM     41  C   UNL A   1      40.488  33.171  30.632  1.00  0.00     0.016 A 
ATOM     42  C   UNL A   1      41.776  33.020  32.678  1.00  0.00     0.016 A 
ATOM     43  C   UNL A   1      41.615  32.807  29.879  1.00  0.00     0.010 A 
ATOM     44  C   UNL A   1      42.905  32.662  31.925  1.00  0.00     0.010 A 
ATOM     45  C   UNL A   1      42.821  32.504  30.524  1.00  0.00    -0.014 A 
BRANCH  45  46
ATOM     46  C   UNL A   1      43.865  31.698  29.825  1.00  0.00     0.031 A 
ATOM     47  C   UNL A   1      45.191  32.391  29.612  1.00  0.00     0.074 A 
ATOM     48  C   UNL A   1      43.702  30.425  29.405  1.00  0.00     0.049 A 
ATOM     49  N   UNL A   1      46.282  31.956  29.044  1.00  0.00    -0.248 NA
ATOM     50  C   UNL A   1      45.288  33.781  30.101  1.00  0.00     0.031 C 
ATOM     51  C   UNL A   1      42.499  29.613  29.568  1.00  0.00     0.029 A 
ATOM     52  N   UNL A   1      44.570  29.589  28.737  1.00  0.00    -0.354 N 
ATOM     53  C   UNL A   1      47.179  33.014  29.112  1.00  0.00     0.074 A 
ATOM     54  C   UNL A   1      46.479  34.144  29.667  1.00  0.00     0.031 C 
ATOM     55  C   UNL A   1      42.690  28.412  28.988  1.00  0.00     0.029 A 
ATOM     56  C   UNL A   1      44.038  28.357  28.423  1.00  0.00     0.049 A 
ATOM     57  H   UNL A   1      45.490  29.849  28.503  1.00  0.00     0.167 HD
ATOM     58  C   UNL A   1      48.492  33.039  28.798  1.00  0.00     0.037 A 
ATOM     59  C   UNL A   1      44.583  27.304  27.774  1.00  0.00     0.037 A 
ATOM     60  C   UNL A   1      49.199  31.918  28.255  1.00  0.00     0.049 A 
ATOM     61  C   UNL A   1      46.034  27.377  27.349  1.00  0.00     0.074 A 
ATOM     62  C   UNL A   1      50.538  31.824  27.928  1.00  0.00     0.029 A 
ATOM     63  N   UNL A   1      48.617  30.698  27.943  1.00  0.00    -0.354 N 
ATOM     64  N   UNL A   1      46.892  28.360  27.494  1.00  0.00    -0.248 NA
ATOM     65  C   UNL A   1      46.603  26.180  26.711  1.00  0.00     0.031 C 
ATOM     66  C   UNL A   1      50.750  30.572  27.343  1.00  0.00     0.029 A 
ATOM     67  C   UNL A   1      49.565  29.855  27.394  1.00  0.00     0.049 A 
ATOM     68  H   UNL A   1      47.672  30.468  28.090  1.00  0.00     0.167 HD
ATOM     69  C   UNL A   1      48.113  27.877  27.028  1.00  0.00     0.074 A 
ATOM     70  C   UNL A   1      47.880  26.516  26.593  1.00  0.00     0.031 C 
ATOM     71  C   UNL A   1      49.321  28.495  26.984  1.00  0.00     0.037 A 
BRANCH  58  72
ATOM     72  C   UNL A   1      49.226  34.330  29.031  1.00  0.00     0.058 A 
ATOM     73  C   UNL A   1      49.367  35.299  28.022  1.00  0.00     0.135 A 
ATOM     74  C   UNL A   1      49.819  34.588  30.275  1.00  0.00     0.135 A 
ATOM     75  F   UNL A   1      48.850  35.087  26.800  1.00  0.00    -0.206 F 
ATOM     76  C   UNL A   1      50.102  36.459  28.227  1.00  0.00     0.059 A 
ATOM     77  C   UNL A   1      50.523  35.762  30.515  1.00  0.00     0.059 A 
ATOM     78  F   UNL A   1      49.729  33.689  31.268  1.00  0.00    -0.206 F 
ATOM     79  C   UNL A   1      50.672  36.684  29.481  1.00  0.00     0.060 A 
BRANCH  79  80
ATOM     80  S   UNL A   1      51.608  38.204  29.737  1.00  0.00     0.124 S 
ATOM     81  O   UNL A   1      51.391  38.444  31.161  1.00  0.00    -0.237 OA
ATOM     82  O   UNL A   1      52.959  37.800  29.361  1.00  0.00    -0.237 OA
ATOM     83  O   UNL A   1      50.966  39.155  28.835  1.00  0.00    -0.744 OA
ENDBRANCH  79  80
ENDBRANCH  58  72
BRANCH  59  84
ATOM     84  C   UNL A   1      43.794  26.058  27.526  1.00  0.00     0.058 A 
ATOM     85  C   UNL A   1      43.173  25.821  26.289  1.00  0.00     0.135 A 
ATOM     86  C   UNL A   1      43.603  25.100  28.534  1.00  0.00     0.135 A 
ATOM     87  F   UNL A   1      43.305  26.711  25.292  1.00  0.00    -0.206 F 
ATOM     88  C   UNL A   1      42.375  24.701  26.066  1.00  0.00     0.059 A 
ATOM     89  C   UNL A   1      42.832  23.955  28.328  1.00  0.00     0.059 A 
ATOM     90  F   UNL A   1      44.174  25.266  29.737  1.00  0.00    -0.206 F 
ATOM     91  C   UNL A   1      42.214  23.770  27.091  1.00  0.00     0.060 A 
BRANCH  91  92
ATOM     92  S   UNL A   1      41.220  22.293  26.771  1.00  0.00     0.124 S 
ATOM     93  O   UNL A   1      39.871  22.844  26.731  1.00  0.00    -0.237 OA
ATOM     94  O   UNL A   1      41.763  21.836  25.496  1.00  0.00    -0.237 OA
ATOM     95  O   UNL A   1      41.517  21.434  27.915  1.00  0.00    -0.744 OA
ENDBRANCH  91  92
ENDBRANCH  59  84
BRANCH  71  96
ATOM     96  C   UNL A   1      50.510  27.690  26.528  1.00  0.00     0.058 A 
ATOM     97  C   UNL A   1      50.821  27.504  25.172  1.00  0.00     0.135 A 
ATOM     98  C   UNL A   1      51.387  27.139  27.480  1.00  0.00     0.135 A 
ATOM     99  F   UNL A   1      50.025  28.012  24.219  1.00  0.00    -0.206 F 
ATOM    100  C   UNL A   1      51.931  26.763  24.777  1.00  0.00     0.059 A 
ATOM    101  C   UNL A   1      52.525  26.433  27.108  1.00  0.00     0.059 A 
ATOM    102  F   UNL A   1      51.151  27.303  28.793  1.00  0.00    -0.206 F 
ATOM    103  C   UNL A   1      52.777  26.232  25.754  1.00  0.00     0.060 A 
BRANCH 103 104
ATOM    104  S   UNL A   1      54.214  25.277  25.228  1.00  0.00     0.124 S 
ATOM    105  O   UNL A   1      53.707  24.619  24.029  1.00  0.00    -0.237 OA
ATOM    106  O   UNL A   1      55.214  26.318  25.005  1.00  0.00    -0.237 OA
ATOM    107  O   UNL A   1      54.475  24.399  26.364  1.00  0.00    -0.744 OA
ENDBRANCH 103 104
ENDBRANCH  71  96
ENDBRANCH  45  46
ENDBRANCH  38  40
ENDBRANCH  37  38
ENDBRANCH  36  37
ENDBRANCH  35  36
ENDBRANCH  34  35
ENDBRANCH  33  34
ENDBRANCH   1  33
TORSDOF 25
ENDMDL
MODEL 3
REMARK VINA RESULT:      -9.6      5.789     14.459
REMARK SMILES O=C(OCCOCCOCCOCCOC(=O)c1ccc(-c2c3nc(c(-c4c(F)cc(S(=O)(=O)[O-])cc4F)c4ccc([nH]4)c(-c4c(F)cc(S(=O)(=O)[O-])cc4F)c4nc(c(-c5c(F)cc(S(=O)(=O)[O-])cc5F)c5ccc2[nH]5)C=C4)C=C3)cc1)C1=Cc2cc(Cl)cc(-c3ccc(Cl)cc3)c2O[C@@H]1C(F)(F)F
REMARK SMILES IDX 10 1 9 2 8 3 7 4 6 5 5 6 4 7 3 8 2 9 1 10 84 11 85 12 101 13
REMARK SMILES IDX 86 14 100 15 87 16 99 17 88 18 91 19 89 20 90 21 102 22
REMARK SMILES IDX 103 23 104 24 105 25 92 26 93 27 98 28 94 29 97 30 95 31
REMARK SMILES IDX 96 32 11 33 12 34 13 35 14 36 15 37 16 38 17 39 18 40 19 41
REMARK SMILES IDX 83 42 20 43 82 44 21 45 22 46 23 47 76 48 24 49 81 50 75 51
REMARK SMILES IDX 77 52 25 53 80 54 74 55 73 56 26 58 60 59 39 60 59 61 40 62
REMARK SMILES IDX 43 63 58 64 78 65 41 66 42 67 57 69 79 70 44 71 27 72 28 73
REMARK SMILES IDX 37 74 29 75 30 76 36 77 38 78 31 79 32 80 33 81 34 82 35 83
REMARK SMILES IDX 61 84 62 85 71 86 63 87 64 88 70 89 72 90 65 91 66 92 67 93
REMARK SMILES IDX 68 94 69 95 45 96 46 97 55 98 47 99 48 100 54 101 56 102
REMARK SMILES IDX 49 103 50 104 51 105 52 106 53 107
REMARK H PARENT 77 57 43 68
REMARK Flexibility Score: inf
ROOT
ATOM      1  C   UNL A   1      39.991  34.274  34.835  1.00  0.00     0.188 C 
ENDROOT
BRANCH   1   2
ATOM      2  O   UNL A   1      39.202  35.278  35.425  1.00  0.00    -0.377 OA
BRANCH   2   3
ATOM      3  C   UNL A   1      40.013  36.123  36.189  1.00  0.00     0.188 C 
BRANCH   3   4
ATOM      4  C   UNL A   1      41.456  35.981  35.741  1.00  0.00     0.188 C 
BRANCH   4   5
ATOM      5  O   UNL A   1      42.151  36.857  34.795  1.00  0.00    -0.376 OA
BRANCH   5   6
ATOM      6  C   UNL A   1      43.325  36.684  33.647  1.00  0.00     0.202 C 
BRANCH   6   7
ATOM      7  C   UNL A   1      44.045  38.192  32.241  1.00  0.00     0.261 C 
BRANCH   7   8
ATOM      8  O   UNL A   1      44.694  39.524  32.600  1.00  0.00    -0.460 OA
BRANCH   8   9
ATOM      9  C   UNL A   1      43.841  40.369  33.189  1.00  0.00     0.338 C 
ATOM     10  O   UNL A   1      42.651  40.251  33.344  1.00  0.00    -0.246 OA
BRANCH   9  11
ATOM     11  C   UNL A   1      44.682  41.549  33.089  1.00  0.00     0.087 C 
ATOM     12  C   UNL A   1      46.074  41.273  32.755  1.00  0.00     0.027 C 
ATOM     13  C   UNL A   1      43.445  42.488  31.960  1.00  0.00     0.316 C 
ATOM     14  C   UNL A   1      46.799  41.556  31.136  1.00  0.00     0.019 A 
ATOM     15  O   UNL A   1      44.157  42.679  30.144  1.00  0.00    -0.475 OA
ATOM     16  C   UNL A   1      48.115  41.205  30.980  1.00  0.00     0.032 A 
ATOM     17  C   UNL A   1      45.874  42.106  29.767  1.00  0.00     0.135 A 
ATOM     18  C   UNL A   1      48.617  41.325  29.683  1.00  0.00     0.042 A 
ATOM     19  C   UNL A   1      46.453  42.082  28.489  1.00  0.00     0.026 A 
ATOM     20  Cl  UNL A   1      50.289  40.940  29.444  1.00  0.00    -0.084 Cl
ATOM     21  C   UNL A   1      47.844  41.717  28.531  1.00  0.00     0.033 A 
BRANCH  13  22
ATOM     22  C   UNL A   1      43.143  43.559  33.265  1.00  0.00     0.430 C 
ATOM     23  F   UNL A   1      44.161  44.110  33.950  1.00  0.00    -0.167 F 
ATOM     24  F   UNL A   1      42.514  44.650  32.719  1.00  0.00    -0.167 F 
ATOM     25  F   UNL A   1      42.257  43.094  34.186  1.00  0.00    -0.167 F 
ENDBRANCH  13  22
BRANCH  19  26
ATOM     26  C   UNL A   1      45.911  42.305  27.148  1.00  0.00    -0.015 A 
ATOM     27  C   UNL A   1      45.040  43.359  26.829  1.00  0.00     0.010 A 
ATOM     28  C   UNL A   1      46.039  41.330  26.177  1.00  0.00     0.010 A 
ATOM     29  C   UNL A   1      44.547  43.536  25.522  1.00  0.00     0.021 A 
ATOM     30  C   UNL A   1      45.739  41.598  24.843  1.00  0.00     0.021 A 
ATOM     31  C   UNL A   1      44.984  42.701  24.507  1.00  0.00     0.041 A 
ATOM     32  Cl  UNL A   1      44.561  42.969  22.867  1.00  0.00    -0.084 Cl
ENDBRANCH  19  26
ENDBRANCH   9  11
ENDBRANCH   8   9
ENDBRANCH   7   8
ENDBRANCH   6   7
ENDBRANCH   5   6
ENDBRANCH   4   5
ENDBRANCH   3   4
ENDBRANCH   2   3
ENDBRANCH   1   2
BRANCH   1  33
ATOM     33  C   UNL A   1      39.265  33.082  34.232  1.00  0.00     0.188 C 
BRANCH  33  34
ATOM     34  O   UNL A   1      37.943  32.923  34.677  1.00  0.00    -0.376 OA
BRANCH  34  35
ATOM     35  C   UNL A   1      37.080  32.040  33.972  1.00  0.00     0.202 C 
BRANCH  35  36
ATOM     36  C   UNL A   1      36.370  32.370  32.636  1.00  0.00     0.261 C 
BRANCH  36  37
ATOM     37  O   UNL A   1      37.120  32.326  31.410  1.00  0.00    -0.460 OA
BRANCH  37  38
ATOM     38  C   UNL A   1      36.809  31.391  30.485  1.00  0.00     0.338 C 
ATOM     39  O   UNL A   1      35.731  31.233  29.945  1.00  0.00    -0.246 OA
BRANCH  38  40
ATOM     40  C   UNL A   1      38.086  30.749  30.065  1.00  0.00     0.060 A 
ATOM     41  C   UNL A   1      39.027  30.382  31.041  1.00  0.00     0.016 A 
ATOM     42  C   UNL A   1      38.336  30.464  28.720  1.00  0.00     0.016 A 
ATOM     43  C   UNL A   1      40.238  29.775  30.673  1.00  0.00     0.010 A 
ATOM     44  C   UNL A   1      39.544  29.851  28.354  1.00  0.00     0.010 A 
ATOM     45  C   UNL A   1      40.526  29.547  29.321  1.00  0.00    -0.014 A 
BRANCH  45  46
ATOM     46  C   UNL A   1      41.936  29.338  28.878  1.00  0.00     0.031 A 
ATOM     47  C   UNL A   1      42.279  27.937  28.429  1.00  0.00     0.074 A 
ATOM     48  C   UNL A   1      42.881  30.302  28.840  1.00  0.00     0.049 A 
ATOM     49  N   UNL A   1      43.408  27.451  27.992  1.00  0.00    -0.248 NA
ATOM     50  C   UNL A   1      41.190  26.943  28.500  1.00  0.00     0.031 C 
ATOM     51  C   UNL A   1      42.696  31.704  29.207  1.00  0.00     0.029 A 
ATOM     52  N   UNL A   1      44.208  30.235  28.477  1.00  0.00    -0.354 N 
ATOM     53  C   UNL A   1      43.156  26.108  27.740  1.00  0.00     0.074 A 
ATOM     54  C   UNL A   1      41.813  25.827  28.178  1.00  0.00     0.031 C 
ATOM     55  C   UNL A   1      43.869  32.355  29.083  1.00  0.00     0.029 A 
ATOM     56  C   UNL A   1      44.892  31.424  28.610  1.00  0.00     0.049 A 
ATOM     57  H   UNL A   1      44.632  29.408  28.149  1.00  0.00     0.167 HD
ATOM     58  C   UNL A   1      43.946  25.191  27.141  1.00  0.00     0.037 A 
ATOM     59  C   UNL A   1      46.186  31.727  28.362  1.00  0.00     0.037 A 
ATOM     60  C   UNL A   1      45.280  25.464  26.694  1.00  0.00     0.049 A 
ATOM     61  C   UNL A   1      47.087  30.663  27.771  1.00  0.00     0.074 A 
ATOM     62  C   UNL A   1      46.158  24.616  26.048  1.00  0.00     0.029 A 
ATOM     63  N   UNL A   1      45.932  26.676  26.862  1.00  0.00    -0.354 N 
ATOM     64  N   UNL A   1      46.807  29.417  27.465  1.00  0.00    -0.248 NA
ATOM     65  C   UNL A   1      48.466  31.059  27.451  1.00  0.00     0.031 C 
ATOM     66  C   UNL A   1      47.373  25.291  25.896  1.00  0.00     0.029 A 
ATOM     67  C   UNL A   1      47.218  26.588  26.362  1.00  0.00     0.049 A 
ATOM     68  H   UNL A   1      45.539  27.477  27.276  1.00  0.00     0.167 HD
ATOM     69  C   UNL A   1      47.952  28.905  26.857  1.00  0.00     0.074 A 
ATOM     70  C   UNL A   1      48.927  29.975  26.844  1.00  0.00     0.031 C 
ATOM     71  C   UNL A   1      48.170  27.669  26.339  1.00  0.00     0.037 A 
BRANCH  58  72
ATOM     72  C   UNL A   1      43.375  23.813  26.957  1.00  0.00     0.058 A 
ATOM     73  C   UNL A   1      43.252  22.908  28.027  1.00  0.00     0.135 A 
ATOM     74  C   UNL A   1      42.969  23.384  25.685  1.00  0.00     0.135 A 
ATOM     75  F   UNL A   1      43.660  23.254  29.259  1.00  0.00    -0.206 F 
ATOM     76  C   UNL A   1      42.784  21.615  27.833  1.00  0.00     0.059 A 
ATOM     77  C   UNL A   1      42.458  22.108  25.477  1.00  0.00     0.059 A 
ATOM     78  F   UNL A   1      43.080  24.201  24.627  1.00  0.00    -0.206 F 
ATOM     79  C   UNL A   1      42.383  21.226  26.554  1.00  0.00     0.060 A 
BRANCH  79  80
ATOM     80  S   UNL A   1      41.760  19.550  26.323  1.00  0.00     0.124 S 
ATOM     81  O   UNL A   1      42.376  19.181  25.053  1.00  0.00    -0.237 OA
ATOM     82  O   UNL A   1      42.278  18.865  27.503  1.00  0.00    -0.237 OA
ATOM     83  O   UNL A   1      40.311  19.728  26.290  1.00  0.00    -0.744 OA
ENDBRANCH  79  80
ENDBRANCH  58  72
BRANCH  59  84
ATOM     84  C   UNL A   1      46.717  33.102  28.607  1.00  0.00     0.058 A 
ATOM     85  C   UNL A   1      46.717  34.076  27.594  1.00  0.00     0.135 A 
ATOM     86  C   UNL A   1      47.280  33.462  29.842  1.00  0.00     0.135 A 
ATOM     87  F   UNL A   1      46.208  33.785  26.386  1.00  0.00    -0.206 F 
ATOM     88  C   UNL A   1      47.273  35.339  27.783  1.00  0.00     0.059 A 
ATOM     89  C   UNL A   1      47.819  34.729  30.066  1.00  0.00     0.059 A 
ATOM     90  F   UNL A   1      47.306  32.579  30.851  1.00  0.00    -0.206 F 
ATOM     91  C   UNL A   1      47.818  35.659  29.026  1.00  0.00     0.060 A 
BRANCH  91  92
ATOM     92  S   UNL A   1      48.488  37.320  29.276  1.00  0.00     0.124 S 
ATOM     93  O   UNL A   1      48.232  37.535  30.695  1.00  0.00    -0.237 OA
ATOM     94  O   UNL A   1      49.887  37.140  28.897  1.00  0.00    -0.237 OA
ATOM     95  O   UNL A   1      47.699  38.141  28.361  1.00  0.00    -0.744 OA
ENDBRANCH  91  92
ENDBRANCH  59  84
BRANCH  71  96
ATOM     96  C   UNL A   1      49.479  27.419  25.635  1.00  0.00     0.058 A 
ATOM     97  C   UNL A   1      50.653  27.079  26.323  1.00  0.00     0.135 A 
ATOM     98  C   UNL A   1      49.536  27.469  24.230  1.00  0.00     0.135 A 
ATOM     99  F   UNL A   1      50.657  27.009  27.663  1.00  0.00    -0.206 F 
ATOM    100  C   UNL A   1      51.847  26.845  25.648  1.00  0.00     0.059 A 
ATOM    101  C   UNL A   1      50.707  27.195  23.533  1.00  0.00     0.059 A 
ATOM    102  F   UNL A   1      48.437  27.769  23.517  1.00  0.00    -0.206 F 
ATOM    103  C   UNL A   1      51.863  26.905  24.252  1.00  0.00     0.060 A 
BRANCH 103 104
ATOM    104  S   UNL A   1      53.417  26.594  23.390  1.00  0.00     0.124 S 
ATOM    105  O   UNL A   1      52.947  26.020  22.135  1.00  0.00    -0.237 OA
ATOM    106  O   UNL A   1      53.994  27.932  23.299  1.00  0.00    -0.237 OA
ATOM    107  O   UNL A   1      54.122  25.673  24.277  1.00  0.00    -0.744 OA
ENDBRANCH 103 104
ENDBRANCH  71  96
ENDBRANCH  45  46
ENDBRANCH  38  40
ENDBRANCH  37  38
ENDBRANCH  36  37
ENDBRANCH  35  36
ENDBRANCH  34  35
ENDBRANCH  33  34
ENDBRANCH   1  33
TORSDOF 25
ENDMDL
