MODEL 1
REMARK VINA RESULT:      -9.0      0.000      0.000
REMARK SMILES CC(C)Cc1ccc([C@@H](C)C(=O)OCCOCCOCCOCCOC(=O)c2ccc(-c3c4nc(c(-c5c(F)cc(S(=O)(=O)[O-])cc5F)c5ccc([nH]5)c(-c5c(F)cc(S(=O)(=O)[O-])cc5F)c5nc(c(-c6c(F)cc(S(=O)(=O)[O-])cc6F)c6ccc3[nH]6)C=C5)C=C4)cc2)cc1
REMARK SMILES IDX 19 1 18 2 17 3 16 4 15 5 14 6 13 7 11 8 12 9 9 10 10 11 8 12
REMARK SMILES IDX 5 13 6 14 95 15 7 16 94 17 4 18 2 19 1 20 3 21 20 22 21 23
REMARK SMILES IDX 22 24 23 25 24 26 25 27 26 28 27 29 28 30 29 31 93 32 30 33
REMARK SMILES IDX 92 34 31 35 32 36 33 37 86 38 34 39 91 40 85 41 87 42 35 43
REMARK SMILES IDX 90 44 84 45 83 46 36 48 70 49 49 50 69 51 50 52 53 53 68 54
REMARK SMILES IDX 88 55 51 56 52 57 67 59 89 60 54 61 37 62 38 63 47 64 39 65
REMARK SMILES IDX 40 66 46 67 48 68 41 69 42 70 43 71 44 72 45 73 71 74 72 75
REMARK SMILES IDX 81 76 73 77 74 78 80 79 82 80 75 81 76 82 77 83 78 84 79 85
REMARK SMILES IDX 55 86 56 87 65 88 57 89 58 90 64 91 66 92 59 93 60 94 61 95
REMARK SMILES IDX 62 96 63 97
REMARK H PARENT 87 47 53 58
REMARK Flexibility Score: inf
ROOT
ATOM      1  O   UNL A   1      32.517  27.694  26.027  1.00  0.00    -0.377 OA
ENDROOT
BRANCH   1   2
ATOM      2  C   UNL A   1      32.484  26.405  26.599  1.00  0.00     0.188 C 
BRANCH   2   3
ATOM      3  C   UNL A   1      33.325  25.346  25.872  1.00  0.00     0.188 C 
BRANCH   3   4
ATOM      4  O   UNL A   1      33.604  24.087  26.468  1.00  0.00    -0.376 OA
BRANCH   4   5
ATOM      5  C   UNL A   1      32.567  23.138  26.675  1.00  0.00     0.202 C 
BRANCH   5   6
ATOM      6  C   UNL A   1      32.414  21.913  25.751  1.00  0.00     0.261 C 
BRANCH   6   7
ATOM      7  O   UNL A   1      33.315  21.821  24.629  1.00  0.00    -0.463 OA
BRANCH   7   8
ATOM      8  C   UNL A   1      32.753  21.864  23.400  1.00  0.00     0.313 C 
ATOM      9  O   UNL A   1      32.133  20.923  22.905  1.00  0.00    -0.252 OA
BRANCH   8  10
ATOM     10  C   UNL A   1      32.945  23.163  22.619  1.00  0.00     0.126 C 
ATOM     11  C   UNL A   1      34.414  23.563  22.682  1.00  0.00     0.025 C 
BRANCH  10  12
ATOM     12  C   UNL A   1      32.038  24.369  22.852  1.00  0.00    -0.034 A 
ATOM     13  C   UNL A   1      30.256  26.533  23.335  1.00  0.00    -0.048 A 
ATOM     14  C   UNL A   1      31.481  26.739  22.686  1.00  0.00     0.004 A 
ATOM     15  C   UNL A   1      29.936  25.241  23.760  1.00  0.00     0.004 A 
ATOM     16  C   UNL A   1      32.362  25.671  22.446  1.00  0.00     0.005 A 
ATOM     17  C   UNL A   1      30.802  24.175  23.504  1.00  0.00     0.005 A 
BRANCH  13  18
ATOM     18  C   UNL A   1      29.266  27.665  23.515  1.00  0.00     0.038 C 
BRANCH  18  19
ATOM     19  C   UNL A   1      29.724  28.976  22.841  1.00  0.00    -0.013 C 
ATOM     20  C   UNL A   1      28.595  29.665  22.069  1.00  0.00     0.008 C 
ATOM     21  C   UNL A   1      30.284  29.949  23.883  1.00  0.00     0.008 C 
ENDBRANCH  18  19
ENDBRANCH  13  18
ENDBRANCH  10  12
ENDBRANCH   8  10
ENDBRANCH   7   8
ENDBRANCH   6   7
ENDBRANCH   5   6
ENDBRANCH   4   5
ENDBRANCH   3   4
ENDBRANCH   2   3
ENDBRANCH   1   2
BRANCH   1  22
ATOM     22  C   UNL A   1      33.799  28.257  25.814  1.00  0.00     0.188 C 
BRANCH  22  23
ATOM     23  C   UNL A   1      34.496  28.872  27.043  1.00  0.00     0.188 C 
BRANCH  23  24
ATOM     24  O   UNL A   1      34.244  30.262  27.211  1.00  0.00    -0.376 OA
BRANCH  24  25
ATOM     25  C   UNL A   1      32.899  30.717  27.241  1.00  0.00     0.202 C 
BRANCH  25  26
ATOM     26  C   UNL A   1      32.621  32.230  27.168  1.00  0.00     0.261 C 
BRANCH  26  27
ATOM     27  O   UNL A   1      33.691  33.120  27.515  1.00  0.00    -0.460 OA
BRANCH  27  28
ATOM     28  C   UNL A   1      33.514  33.977  28.540  1.00  0.00     0.338 C 
ATOM     29  O   UNL A   1      32.529  34.661  28.762  1.00  0.00    -0.246 OA
BRANCH  28  30
ATOM     30  C   UNL A   1      34.652  33.800  29.469  1.00  0.00     0.060 A 
ATOM     31  C   UNL A   1      35.932  34.221  29.075  1.00  0.00     0.016 A 
ATOM     32  C   UNL A   1      34.453  33.230  30.727  1.00  0.00     0.016 A 
ATOM     33  C   UNL A   1      37.025  34.028  29.923  1.00  0.00     0.010 A 
ATOM     34  C   UNL A   1      35.550  33.012  31.562  1.00  0.00     0.010 A 
ATOM     35  C   UNL A   1      36.846  33.373  31.147  1.00  0.00    -0.014 A 
BRANCH  35  36
ATOM     36  C   UNL A   1      38.011  32.826  31.885  1.00  0.00     0.031 A 
ATOM     37  C   UNL A   1      38.683  31.607  31.311  1.00  0.00     0.074 A 
ATOM     38  C   UNL A   1      38.446  33.363  33.038  1.00  0.00     0.049 A 
ATOM     39  N   UNL A   1      39.596  30.835  31.835  1.00  0.00    -0.248 NA
ATOM     40  C   UNL A   1      38.250  31.196  29.962  1.00  0.00     0.031 C 
ATOM     41  C   UNL A   1      37.917  34.575  33.661  1.00  0.00     0.029 A 
ATOM     42  N   UNL A   1      39.421  32.935  33.906  1.00  0.00    -0.354 N 
ATOM     43  C   UNL A   1      39.829  29.837  30.896  1.00  0.00     0.074 A 
ATOM     44  C   UNL A   1      38.950  30.088  29.777  1.00  0.00     0.031 C 
ATOM     45  C   UNL A   1      38.554  34.776  34.830  1.00  0.00     0.029 A 
ATOM     46  C   UNL A   1      39.499  33.683  35.058  1.00  0.00     0.049 A 
ATOM     47  H   UNL A   1      40.007  32.167  33.722  1.00  0.00     0.167 HD
ATOM     48  C   UNL A   1      40.698  28.802  30.963  1.00  0.00     0.037 A 
ATOM     49  C   UNL A   1      40.220  33.479  36.182  1.00  0.00     0.037 A 
ATOM     50  C   UNL A   1      41.571  28.565  32.081  1.00  0.00     0.049 A 
ATOM     51  C   UNL A   1      41.130  32.277  36.266  1.00  0.00     0.074 A 
ATOM     52  C   UNL A   1      42.499  27.553  32.244  1.00  0.00     0.029 A 
ATOM     53  N   UNL A   1      41.620  29.345  33.225  1.00  0.00    -0.354 N 
ATOM     54  N   UNL A   1      41.346  31.340  35.373  1.00  0.00    -0.248 NA
ATOM     55  C   UNL A   1      41.894  32.099  37.511  1.00  0.00     0.031 C 
ATOM     56  C   UNL A   1      43.066  27.684  33.513  1.00  0.00     0.029 A 
ATOM     57  C   UNL A   1      42.548  28.823  34.109  1.00  0.00     0.049 A 
ATOM     58  H   UNL A   1      41.077  30.150  33.386  1.00  0.00     0.167 HD
ATOM     59  C   UNL A   1      42.306  30.496  35.926  1.00  0.00     0.074 A 
ATOM     60  C   UNL A   1      42.622  31.025  37.235  1.00  0.00     0.031 C 
ATOM     61  C   UNL A   1      42.880  29.388  35.394  1.00  0.00     0.037 A 
BRANCH  48  62
ATOM     62  C   UNL A   1      40.725  27.830  29.817  1.00  0.00     0.058 A 
ATOM     63  C   UNL A   1      39.745  26.839  29.659  1.00  0.00     0.135 A 
ATOM     64  C   UNL A   1      41.723  27.928  28.833  1.00  0.00     0.135 A 
ATOM     65  F   UNL A   1      38.783  26.684  30.583  1.00  0.00    -0.206 F 
ATOM     66  C   UNL A   1      39.759  25.969  28.574  1.00  0.00     0.059 A 
ATOM     67  C   UNL A   1      41.739  27.089  27.722  1.00  0.00     0.059 A 
ATOM     68  F   UNL A   1      42.690  28.852  28.939  1.00  0.00    -0.206 F 
ATOM     69  C   UNL A   1      40.758  26.107  27.607  1.00  0.00     0.060 A 
BRANCH  69  70
ATOM     70  S   UNL A   1      40.745  24.989  26.191  1.00  0.00     0.124 S 
ATOM     71  O   UNL A   1      41.204  25.867  25.120  1.00  0.00    -0.237 OA
ATOM     72  O   UNL A   1      41.684  23.952  26.607  1.00  0.00    -0.237 OA
ATOM     73  O   UNL A   1      39.350  24.569  26.101  1.00  0.00    -0.744 OA
ENDBRANCH  69  70
ENDBRANCH  48  62
BRANCH  49  74
ATOM     74  C   UNL A   1      40.095  34.415  37.335  1.00  0.00     0.058 A 
ATOM     75  C   UNL A   1      39.121  34.221  38.326  1.00  0.00     0.135 A 
ATOM     76  C   UNL A   1      40.931  35.537  37.456  1.00  0.00     0.135 A 
ATOM     77  F   UNL A   1      38.287  33.172  38.251  1.00  0.00    -0.206 F 
ATOM     78  C   UNL A   1      38.963  35.116  39.380  1.00  0.00     0.059 A 
ATOM     79  C   UNL A   1      40.813  36.429  38.518  1.00  0.00     0.059 A 
ATOM     80  F   UNL A   1      41.885  35.767  36.541  1.00  0.00    -0.206 F 
ATOM     81  C   UNL A   1      39.815  36.217  39.468  1.00  0.00     0.060 A 
BRANCH  81  82
ATOM     82  S   UNL A   1      39.619  37.356  40.856  1.00  0.00     0.124 S 
ATOM     83  O   UNL A   1      38.851  38.435  40.244  1.00  0.00    -0.237 OA
ATOM     84  O   UNL A   1      38.903  36.533  41.826  1.00  0.00    -0.237 OA
ATOM     85  O   UNL A   1      40.995  37.686  41.217  1.00  0.00    -0.744 OA
ENDBRANCH  81  82
ENDBRANCH  49  74
BRANCH  61  86
ATOM     86  C   UNL A   1      43.976  28.709  36.171  1.00  0.00     0.058 A 
ATOM     87  C   UNL A   1      45.285  29.209  36.211  1.00  0.00     0.135 A 
ATOM     88  C   UNL A   1      43.670  27.602  36.982  1.00  0.00     0.135 A 
ATOM     89  F   UNL A   1      45.632  30.260  35.452  1.00  0.00    -0.206 F 
ATOM     90  C   UNL A   1      46.256  28.634  37.027  1.00  0.00     0.059 A 
ATOM     91  C   UNL A   1      44.615  27.031  37.828  1.00  0.00     0.059 A 
ATOM     92  F   UNL A   1      42.429  27.091  36.989  1.00  0.00    -0.206 F 
ATOM     93  C   UNL A   1      45.907  27.554  37.842  1.00  0.00     0.060 A 
BRANCH  93  94
ATOM     94  S   UNL A   1      47.153  26.870  38.955  1.00  0.00     0.124 S 
ATOM     95  O   UNL A   1      47.196  25.475  38.530  1.00  0.00    -0.237 OA
ATOM     96  O   UNL A   1      48.331  27.668  38.629  1.00  0.00    -0.237 OA
ATOM     97  O   UNL A   1      46.592  27.105  40.282  1.00  0.00    -0.744 OA
ENDBRANCH  93  94
ENDBRANCH  61  86
ENDBRANCH  35  36
ENDBRANCH  28  30
ENDBRANCH  27  28
ENDBRANCH  26  27
ENDBRANCH  25  26
ENDBRANCH  24  25
ENDBRANCH  23  24
ENDBRANCH  22  23
ENDBRANCH   1  22
TORSDOF 26
ENDMDL
MODEL 2
REMARK VINA RESULT:      -8.9      0.842      8.170
REMARK SMILES CC(C)Cc1ccc([C@@H](C)C(=O)OCCOCCOCCOCCOC(=O)c2ccc(-c3c4nc(c(-c5c(F)cc(S(=O)(=O)[O-])cc5F)c5ccc([nH]5)c(-c5c(F)cc(S(=O)(=O)[O-])cc5F)c5nc(c(-c6c(F)cc(S(=O)(=O)[O-])cc6F)c6ccc3[nH]6)C=C5)C=C4)cc2)cc1
REMARK SMILES IDX 19 1 18 2 17 3 16 4 15 5 14 6 13 7 11 8 12 9 9 10 10 11 8 12
REMARK SMILES IDX 5 13 6 14 95 15 7 16 94 17 4 18 2 19 1 20 3 21 20 22 21 23
REMARK SMILES IDX 22 24 23 25 24 26 25 27 26 28 27 29 28 30 29 31 93 32 30 33
REMARK SMILES IDX 92 34 31 35 32 36 33 37 86 38 34 39 91 40 85 41 87 42 35 43
REMARK SMILES IDX 90 44 84 45 83 46 36 48 70 49 49 50 69 51 50 52 53 53 68 54
REMARK SMILES IDX 88 55 51 56 52 57 67 59 89 60 54 61 37 62 38 63 47 64 39 65
REMARK SMILES IDX 40 66 46 67 48 68 41 69 42 70 43 71 44 72 45 73 71 74 72 75
REMARK SMILES IDX 81 76 73 77 74 78 80 79 82 80 75 81 76 82 77 83 78 84 79 85
REMARK SMILES IDX 55 86 56 87 65 88 57 89 58 90 64 91 66 92 59 93 60 94 61 95
REMARK SMILES IDX 62 96 63 97
REMARK H PARENT 87 47 53 58
REMARK Flexibility Score: inf
ROOT
ATOM      1  O   UNL A   1      33.107  28.397  26.420  1.00  0.00    -0.377 OA
ENDROOT
BRANCH   1   2
ATOM      2  C   UNL A   1      33.541  27.061  26.283  1.00  0.00     0.188 C 
BRANCH   2   3
ATOM      3  C   UNL A   1      34.047  26.679  24.884  1.00  0.00     0.188 C 
BRANCH   3   4
ATOM      4  O   UNL A   1      34.419  25.344  24.572  1.00  0.00    -0.376 OA
BRANCH   4   5
ATOM      5  C   UNL A   1      34.568  24.376  25.601  1.00  0.00     0.202 C 
BRANCH   5   6
ATOM      6  C   UNL A   1      33.876  23.002  25.506  1.00  0.00     0.261 C 
BRANCH   6   7
ATOM      7  O   UNL A   1      33.187  22.699  24.276  1.00  0.00    -0.463 OA
BRANCH   7   8
ATOM      8  C   UNL A   1      31.904  23.118  24.185  1.00  0.00     0.313 C 
ATOM      9  O   UNL A   1      31.027  22.798  24.988  1.00  0.00    -0.252 OA
BRANCH   8  10
ATOM     10  C   UNL A   1      31.575  24.016  22.994  1.00  0.00     0.126 C 
ATOM     11  C   UNL A   1      32.731  23.963  22.003  1.00  0.00     0.025 C 
BRANCH  10  12
ATOM     12  C   UNL A   1      31.089  25.450  23.193  1.00  0.00    -0.034 A 
ATOM     13  C   UNL A   1      30.240  28.154  23.447  1.00  0.00    -0.048 A 
ATOM     14  C   UNL A   1      30.021  27.229  24.477  1.00  0.00     0.004 A 
ATOM     15  C   UNL A   1      30.870  27.714  22.280  1.00  0.00     0.004 A 
ATOM     16  C   UNL A   1      30.439  25.893  24.353  1.00  0.00     0.005 A 
ATOM     17  C   UNL A   1      31.306  26.391  22.163  1.00  0.00     0.005 A 
BRANCH  13  18
ATOM     18  C   UNL A   1      29.871  29.613  23.613  1.00  0.00     0.038 C 
BRANCH  18  19
ATOM     19  C   UNL A   1      28.477  29.947  23.039  1.00  0.00    -0.013 C 
ATOM     20  C   UNL A   1      27.888  31.229  23.637  1.00  0.00     0.008 C 
ATOM     21  C   UNL A   1      28.544  30.091  21.515  1.00  0.00     0.008 C 
ENDBRANCH  18  19
ENDBRANCH  13  18
ENDBRANCH  10  12
ENDBRANCH   8  10
ENDBRANCH   7   8
ENDBRANCH   6   7
ENDBRANCH   5   6
ENDBRANCH   4   5
ENDBRANCH   3   4
ENDBRANCH   2   3
ENDBRANCH   1   2
BRANCH   1  22
ATOM     22  C   UNL A   1      34.085  29.402  26.224  1.00  0.00     0.188 C 
BRANCH  22  23
ATOM     23  C   UNL A   1      34.719  30.006  27.491  1.00  0.00     0.188 C 
BRANCH  23  24
ATOM     24  O   UNL A   1      34.333  31.353  27.740  1.00  0.00    -0.376 OA
BRANCH  24  25
ATOM     25  C   UNL A   1      32.960  31.701  27.648  1.00  0.00     0.202 C 
BRANCH  25  26
ATOM     26  C   UNL A   1      32.579  33.149  27.289  1.00  0.00     0.261 C 
BRANCH  26  27
ATOM     27  O   UNL A   1      33.530  34.181  27.591  1.00  0.00    -0.460 OA
BRANCH  27  28
ATOM     28  C   UNL A   1      33.419  34.840  28.762  1.00  0.00     0.338 C 
ATOM     29  O   UNL A   1      32.503  35.563  29.113  1.00  0.00    -0.246 OA
BRANCH  28  30
ATOM     30  C   UNL A   1      34.518  34.376  29.638  1.00  0.00     0.060 A 
ATOM     31  C   UNL A   1      35.837  34.406  29.160  1.00  0.00     0.016 A 
ATOM     32  C   UNL A   1      34.246  33.923  30.930  1.00  0.00     0.016 A 
ATOM     33  C   UNL A   1      36.883  33.937  29.959  1.00  0.00     0.010 A 
ATOM     34  C   UNL A   1      35.288  33.429  31.716  1.00  0.00     0.010 A 
ATOM     35  C   UNL A   1      36.604  33.396  31.219  1.00  0.00    -0.014 A 
BRANCH  35  36
ATOM     36  C   UNL A   1      37.613  32.564  31.920  1.00  0.00     0.031 A 
ATOM     37  C   UNL A   1      38.075  33.032  33.274  1.00  0.00     0.074 A 
ATOM     38  C   UNL A   1      38.130  31.450  31.371  1.00  0.00     0.049 A 
ATOM     39  N   UNL A   1      39.058  32.595  34.014  1.00  0.00    -0.248 NA
ATOM     40  C   UNL A   1      37.330  34.158  33.865  1.00  0.00     0.031 C 
ATOM     41  C   UNL A   1      37.721  30.865  30.095  1.00  0.00     0.029 A 
ATOM     42  N   UNL A   1      39.137  30.627  31.813  1.00  0.00    -0.354 N 
ATOM     43  C   UNL A   1      39.066  33.407  35.143  1.00  0.00     0.074 A 
ATOM     44  C   UNL A   1      38.004  34.373  34.984  1.00  0.00     0.031 C 
ATOM     45  C   UNL A   1      38.494  29.792  29.842  1.00  0.00     0.029 A 
ATOM     46  C   UNL A   1      39.480  29.646  30.912  1.00  0.00     0.049 A 
ATOM     47  H   UNL A   1      39.572  30.730  32.689  1.00  0.00     0.167 HD
ATOM     48  C   UNL A   1      39.890  33.351  36.216  1.00  0.00     0.037 A 
ATOM     49  C   UNL A   1      40.501  28.762  30.933  1.00  0.00     0.037 A 
ATOM     50  C   UNL A   1      40.942  32.382  36.364  1.00  0.00     0.049 A 
ATOM     51  C   UNL A   1      41.454  28.764  32.105  1.00  0.00     0.074 A 
ATOM     52  C   UNL A   1      41.825  32.230  37.418  1.00  0.00     0.029 A 
ATOM     53  N   UNL A   1      41.256  31.406  35.432  1.00  0.00    -0.354 N 
ATOM     54  N   UNL A   1      41.453  29.532  33.170  1.00  0.00    -0.248 NA
ATOM     55  C   UNL A   1      42.550  27.782  32.082  1.00  0.00     0.031 C 
ATOM     56  C   UNL A   1      42.712  31.201  37.095  1.00  0.00     0.029 A 
ATOM     57  C   UNL A   1      42.334  30.661  35.875  1.00  0.00     0.049 A 
ATOM     58  H   UNL A   1      40.782  31.263  34.580  1.00  0.00     0.167 HD
ATOM     59  C   UNL A   1      42.510  29.092  33.962  1.00  0.00     0.074 A 
ATOM     60  C   UNL A   1      43.136  27.997  33.252  1.00  0.00     0.031 C 
ATOM     61  C   UNL A   1      42.919  29.546  35.172  1.00  0.00     0.037 A 
BRANCH  48  62
ATOM     62  C   UNL A   1      39.712  34.382  37.295  1.00  0.00     0.058 A 
ATOM     63  C   UNL A   1      38.947  34.132  38.444  1.00  0.00     0.135 A 
ATOM     64  C   UNL A   1      40.363  35.624  37.198  1.00  0.00     0.135 A 
ATOM     65  F   UNL A   1      38.283  32.973  38.577  1.00  0.00    -0.206 F 
ATOM     66  C   UNL A   1      38.821  35.081  39.453  1.00  0.00     0.059 A 
ATOM     67  C   UNL A   1      40.277  36.575  38.210  1.00  0.00     0.059 A 
ATOM     68  F   UNL A   1      41.101  35.917  36.116  1.00  0.00    -0.206 F 
ATOM     69  C   UNL A   1      39.496  36.298  39.329  1.00  0.00     0.060 A 
BRANCH  69  70
ATOM     70  S   UNL A   1      39.345  37.505  40.661  1.00  0.00     0.124 S 
ATOM     71  O   UNL A   1      40.721  37.976  40.786  1.00  0.00    -0.237 OA
ATOM     72  O   UNL A   1      38.395  38.464  40.104  1.00  0.00    -0.237 OA
ATOM     73  O   UNL A   1      38.850  36.715  41.784  1.00  0.00    -0.744 OA
ENDBRANCH  69  70
ENDBRANCH  48  62
BRANCH  49  74
ATOM     74  C   UNL A   1      40.701  27.816  29.799  1.00  0.00     0.058 A 
ATOM     75  C   UNL A   1      41.744  27.996  28.878  1.00  0.00     0.135 A 
ATOM     76  C   UNL A   1      39.837  26.728  29.598  1.00  0.00     0.135 A 
ATOM     77  F   UNL A   1      42.590  29.028  29.016  1.00  0.00    -0.206 F 
ATOM     78  C   UNL A   1      41.909  27.148  27.787  1.00  0.00     0.059 A 
ATOM     79  C   UNL A   1      40.001  25.848  28.532  1.00  0.00     0.059 A 
ATOM     80  F   UNL A   1      38.826  26.503  30.453  1.00  0.00    -0.206 F 
ATOM     81  C   UNL A   1      41.033  26.075  27.623  1.00  0.00     0.060 A 
BRANCH  81  82
ATOM     82  S   UNL A   1      41.274  24.965  26.219  1.00  0.00     0.124 S 
ATOM     83  O   UNL A   1      40.180  24.018  26.402  1.00  0.00    -0.237 OA
ATOM     84  O   UNL A   1      41.148  25.876  25.086  1.00  0.00    -0.237 OA
ATOM     85  O   UNL A   1      42.615  24.431  26.440  1.00  0.00    -0.744 OA
ENDBRANCH  81  82
ENDBRANCH  49  74
BRANCH  61  86
ATOM     86  C   UNL A   1      44.040  28.820  35.866  1.00  0.00     0.058 A 
ATOM     87  C   UNL A   1      45.379  29.220  35.745  1.00  0.00     0.135 A 
ATOM     88  C   UNL A   1      43.744  27.777  36.760  1.00  0.00     0.135 A 
ATOM     89  F   UNL A   1      45.717  30.207  34.901  1.00  0.00    -0.206 F 
ATOM     90  C   UNL A   1      46.387  28.609  36.486  1.00  0.00     0.059 A 
ATOM     91  C   UNL A   1      44.731  27.173  37.534  1.00  0.00     0.059 A 
ATOM     92  F   UNL A   1      42.477  27.363  36.922  1.00  0.00    -0.206 F 
ATOM     93  C   UNL A   1      46.051  27.595  37.387  1.00  0.00     0.060 A 
BRANCH  93  94
ATOM     94  S   UNL A   1      47.356  26.868  38.400  1.00  0.00     0.124 S 
ATOM     95  O   UNL A   1      48.556  27.335  37.715  1.00  0.00    -0.237 OA
ATOM     96  O   UNL A   1      47.102  27.463  39.708  1.00  0.00    -0.237 OA
ATOM     97  O   UNL A   1      47.100  25.434  38.310  1.00  0.00    -0.744 OA
ENDBRANCH  93  94
ENDBRANCH  61  86
ENDBRANCH  35  36
ENDBRANCH  28  30
ENDBRANCH  27  28
ENDBRANCH  26  27
ENDBRANCH  25  26
ENDBRANCH  24  25
ENDBRANCH  23  24
ENDBRANCH  22  23
ENDBRANCH   1  22
TORSDOF 26
ENDMDL
MODEL 3
REMARK VINA RESULT:      -8.6      3.049      9.452
REMARK SMILES CC(C)Cc1ccc([C@@H](C)C(=O)OCCOCCOCCOCCOC(=O)c2ccc(-c3c4nc(c(-c5c(F)cc(S(=O)(=O)[O-])cc5F)c5ccc([nH]5)c(-c5c(F)cc(S(=O)(=O)[O-])cc5F)c5nc(c(-c6c(F)cc(S(=O)(=O)[O-])cc6F)c6ccc3[nH]6)C=C5)C=C4)cc2)cc1
REMARK SMILES IDX 19 1 18 2 17 3 16 4 15 5 14 6 13 7 11 8 12 9 9 10 10 11 8 12
REMARK SMILES IDX 5 13 6 14 95 15 7 16 94 17 4 18 2 19 1 20 3 21 20 22 21 23
REMARK SMILES IDX 22 24 23 25 24 26 25 27 26 28 27 29 28 30 29 31 93 32 30 33
REMARK SMILES IDX 92 34 31 35 32 36 33 37 86 38 34 39 91 40 85 41 87 42 35 43
REMARK SMILES IDX 90 44 84 45 83 46 36 48 70 49 49 50 69 51 50 52 53 53 68 54
REMARK SMILES IDX 88 55 51 56 52 57 67 59 89 60 54 61 37 62 38 63 47 64 39 65
REMARK SMILES IDX 40 66 46 67 48 68 41 69 42 70 43 71 44 72 45 73 71 74 72 75
REMARK SMILES IDX 81 76 73 77 74 78 80 79 82 80 75 81 76 82 77 83 78 84 79 85
REMARK SMILES IDX 55 86 56 87 65 88 57 89 58 90 64 91 66 92 59 93 60 94 61 95
REMARK SMILES IDX 62 96 63 97
REMARK H PARENT 87 47 53 58
REMARK Flexibility Score: inf
ROOT
ATOM      1  O   UNL A   1      29.617  27.383  24.067  1.00  0.00    -0.377 OA
ENDROOT
BRANCH   1   2
ATOM      2  C   UNL A   1      30.240  27.849  22.890  1.00  0.00     0.188 C 
BRANCH   2   3
ATOM      3  C   UNL A   1      31.477  28.731  23.111  1.00  0.00     0.188 C 
BRANCH   3   4
ATOM      4  O   UNL A   1      32.703  28.466  22.444  1.00  0.00    -0.376 OA
BRANCH   4   5
ATOM      5  C   UNL A   1      33.316  27.187  22.539  1.00  0.00     0.202 C 
BRANCH   5   6
ATOM      6  C   UNL A   1      32.949  26.055  21.560  1.00  0.00     0.261 C 
BRANCH   6   7
ATOM      7  O   UNL A   1      32.658  24.763  22.131  1.00  0.00    -0.463 OA
BRANCH   7   8
ATOM      8  C   UNL A   1      33.620  24.218  22.911  1.00  0.00     0.313 C 
ATOM      9  O   UNL A   1      34.807  24.170  22.588  1.00  0.00    -0.252 OA
BRANCH   8  10
ATOM     10  C   UNL A   1      33.153  23.628  24.240  1.00  0.00     0.126 C 
ATOM     11  C   UNL A   1      34.000  24.213  25.363  1.00  0.00     0.025 C 
BRANCH  10  12
ATOM     12  C   UNL A   1      32.970  22.123  24.418  1.00  0.00    -0.034 A 
ATOM     13  C   UNL A   1      32.682  19.329  24.871  1.00  0.00    -0.048 A 
ATOM     14  C   UNL A   1      32.350  19.896  23.634  1.00  0.00     0.004 A 
ATOM     15  C   UNL A   1      33.141  20.170  25.888  1.00  0.00     0.004 A 
ATOM     16  C   UNL A   1      32.491  21.277  23.408  1.00  0.00     0.005 A 
ATOM     17  C   UNL A   1      33.302  21.539  25.659  1.00  0.00     0.005 A 
BRANCH  13  18
ATOM     18  C   UNL A   1      32.616  17.832  25.089  1.00  0.00     0.038 C 
BRANCH  18  19
ATOM     19  C   UNL A   1      33.803  17.080  24.450  1.00  0.00    -0.013 C 
ATOM     20  C   UNL A   1      35.099  17.898  24.475  1.00  0.00     0.008 C 
ATOM     21  C   UNL A   1      34.040  15.745  25.163  1.00  0.00     0.008 C 
ENDBRANCH  18  19
ENDBRANCH  13  18
ENDBRANCH  10  12
ENDBRANCH   8  10
ENDBRANCH   7   8
ENDBRANCH   6   7
ENDBRANCH   5   6
ENDBRANCH   4   5
ENDBRANCH   3   4
ENDBRANCH   2   3
ENDBRANCH   1   2
BRANCH   1  22
ATOM     22  C   UNL A   1      30.107  26.167  24.602  1.00  0.00     0.188 C 
BRANCH  22  23
ATOM     23  C   UNL A   1      30.742  26.234  26.004  1.00  0.00     0.188 C 
BRANCH  23  24
ATOM     24  O   UNL A   1      31.957  26.972  26.050  1.00  0.00    -0.376 OA
BRANCH  24  25
ATOM     25  C   UNL A   1      32.060  28.070  26.945  1.00  0.00     0.202 C 
BRANCH  25  26
ATOM     26  C   UNL A   1      33.000  29.237  26.591  1.00  0.00     0.261 C 
BRANCH  26  27
ATOM     27  O   UNL A   1      34.242  29.328  27.303  1.00  0.00    -0.460 OA
BRANCH  27  28
ATOM     28  C   UNL A   1      34.755  30.549  27.557  1.00  0.00     0.338 C 
ATOM     29  O   UNL A   1      34.253  31.626  27.284  1.00  0.00    -0.246 OA
BRANCH  28  30
ATOM     30  C   UNL A   1      35.950  30.361  28.408  1.00  0.00     0.060 A 
ATOM     31  C   UNL A   1      37.105  31.114  28.147  1.00  0.00     0.016 A 
ATOM     32  C   UNL A   1      35.927  29.450  29.466  1.00  0.00     0.016 A 
ATOM     33  C   UNL A   1      38.256  30.924  28.915  1.00  0.00     0.010 A 
ATOM     34  C   UNL A   1      37.086  29.241  30.215  1.00  0.00     0.010 A 
ATOM     35  C   UNL A   1      38.267  29.947  29.917  1.00  0.00    -0.014 A 
BRANCH  35  36
ATOM     36  C   UNL A   1      39.550  29.465  30.484  1.00  0.00     0.031 A 
ATOM     37  C   UNL A   1      40.122  30.229  31.648  1.00  0.00     0.074 A 
ATOM     38  C   UNL A   1      40.208  28.409  29.973  1.00  0.00     0.049 A 
ATOM     39  N   UNL A   1      41.295  30.131  32.212  1.00  0.00    -0.248 NA
ATOM     40  C   UNL A   1      39.250  31.257  32.246  1.00  0.00     0.031 C 
ATOM     41  C   UNL A   1      39.728  27.555  28.888  1.00  0.00     0.029 A 
ATOM     42  N   UNL A   1      41.443  27.894  30.288  1.00  0.00    -0.354 N 
ATOM     43  C   UNL A   1      41.313  31.097  33.213  1.00  0.00     0.074 A 
ATOM     44  C   UNL A   1      40.042  31.783  33.167  1.00  0.00     0.031 C 
ATOM     45  C   UNL A   1      40.674  26.640  28.605  1.00  0.00     0.029 A 
ATOM     46  C   UNL A   1      41.841  26.874  29.456  1.00  0.00     0.049 A 
ATOM     47  H   UNL A   1      41.989  28.224  31.036  1.00  0.00     0.167 HD
ATOM     48  C   UNL A   1      42.303  31.385  34.089  1.00  0.00     0.037 A 
ATOM     49  C   UNL A   1      43.028  26.236  29.366  1.00  0.00     0.037 A 
ATOM     50  C   UNL A   1      43.562  30.692  34.126  1.00  0.00     0.049 A 
ATOM     51  C   UNL A   1      44.146  26.623  30.306  1.00  0.00     0.074 A 
ATOM     52  C   UNL A   1      44.629  30.898  34.982  1.00  0.00     0.029 A 
ATOM     53  N   UNL A   1      43.926  29.666  33.269  1.00  0.00    -0.354 N 
ATOM     54  N   UNL A   1      44.153  27.535  31.250  1.00  0.00    -0.248 NA
ATOM     55  C   UNL A   1      45.419  25.899  30.169  1.00  0.00     0.031 C 
ATOM     56  C   UNL A   1      45.661  30.037  34.604  1.00  0.00     0.029 A 
ATOM     57  C   UNL A   1      45.209  29.242  33.562  1.00  0.00     0.049 A 
ATOM     58  H   UNL A   1      43.356  29.293  32.557  1.00  0.00     0.167 HD
ATOM     59  C   UNL A   1      45.407  27.457  31.850  1.00  0.00     0.074 A 
ATOM     60  C   UNL A   1      46.136  26.416  31.157  1.00  0.00     0.031 C 
ATOM     61  C   UNL A   1      45.906  28.174  32.887  1.00  0.00     0.037 A 
BRANCH  48  62
ATOM     62  C   UNL A   1      42.082  32.517  35.053  1.00  0.00     0.058 A 
ATOM     63  C   UNL A   1      42.271  33.857  34.683  1.00  0.00     0.135 A 
ATOM     64  C   UNL A   1      41.623  32.255  36.355  1.00  0.00     0.135 A 
ATOM     65  F   UNL A   1      42.732  34.164  33.460  1.00  0.00    -0.206 F 
ATOM     66  C   UNL A   1      42.027  34.898  35.573  1.00  0.00     0.059 A 
ATOM     67  C   UNL A   1      41.342  33.281  37.251  1.00  0.00     0.059 A 
ATOM     68  F   UNL A   1      41.434  30.991  36.763  1.00  0.00    -0.206 F 
ATOM     69  C   UNL A   1      41.556  34.599  36.854  1.00  0.00     0.060 A 
BRANCH  69  70
ATOM     70  S   UNL A   1      41.217  35.963  37.986  1.00  0.00     0.124 S 
ATOM     71  O   UNL A   1      40.191  36.700  37.255  1.00  0.00    -0.237 OA
ATOM     72  O   UNL A   1      40.763  35.265  39.185  1.00  0.00    -0.237 OA
ATOM     73  O   UNL A   1      42.506  36.636  38.105  1.00  0.00    -0.744 OA
ENDBRANCH  69  70
ENDBRANCH  48  62
BRANCH  49  74
ATOM     74  C   UNL A   1      43.240  25.183  28.333  1.00  0.00     0.058 A 
ATOM     75  C   UNL A   1      43.118  23.821  28.648  1.00  0.00     0.135 A 
ATOM     76  C   UNL A   1      43.592  25.517  27.016  1.00  0.00     0.135 A 
ATOM     77  F   UNL A   1      42.796  23.448  29.897  1.00  0.00    -0.206 F 
ATOM     78  C   UNL A   1      43.363  22.829  27.704  1.00  0.00     0.059 A 
ATOM     79  C   UNL A   1      43.811  24.543  26.046  1.00  0.00     0.059 A 
ATOM     80  F   UNL A   1      43.714  26.804  26.656  1.00  0.00    -0.206 F 
ATOM     81  C   UNL A   1      43.707  23.200  26.404  1.00  0.00     0.060 A 
BRANCH  81  82
ATOM     82  S   UNL A   1      43.994  21.903  25.180  1.00  0.00     0.124 S 
ATOM     83  O   UNL A   1      43.907  22.653  23.932  1.00  0.00    -0.237 OA
ATOM     84  O   UNL A   1      45.324  21.426  25.548  1.00  0.00    -0.237 OA
ATOM     85  O   UNL A   1      42.906  20.961  25.427  1.00  0.00    -0.744 OA
ENDBRANCH  81  82
ENDBRANCH  49  74
BRANCH  61  86
ATOM     86  C   UNL A   1      47.271  27.817  33.411  1.00  0.00     0.058 A 
ATOM     87  C   UNL A   1      48.439  28.434  32.940  1.00  0.00     0.135 A 
ATOM     88  C   UNL A   1      47.390  26.923  34.489  1.00  0.00     0.135 A 
ATOM     89  F   UNL A   1      48.382  29.292  31.910  1.00  0.00    -0.206 F 
ATOM     90  C   UNL A   1      49.679  28.175  33.519  1.00  0.00     0.059 A 
ATOM     91  C   UNL A   1      48.613  26.672  35.102  1.00  0.00     0.059 A 
ATOM     92  F   UNL A   1      46.301  26.313  34.985  1.00  0.00    -0.206 F 
ATOM     93  C   UNL A   1      49.753  27.303  34.608  1.00  0.00     0.060 A 
BRANCH  93  94
ATOM     94  S   UNL A   1      51.354  27.039  35.399  1.00  0.00     0.124 S 
ATOM     95  O   UNL A   1      52.148  28.122  34.828  1.00  0.00    -0.237 OA
ATOM     96  O   UNL A   1      51.026  27.173  36.815  1.00  0.00    -0.237 OA
ATOM     97  O   UNL A   1      51.729  25.695  34.973  1.00  0.00    -0.744 OA
ENDBRANCH  93  94
ENDBRANCH  61  86
ENDBRANCH  35  36
ENDBRANCH  28  30
ENDBRANCH  27  28
ENDBRANCH  26  27
ENDBRANCH  25  26
ENDBRANCH  24  25
ENDBRANCH  23  24
ENDBRANCH  22  23
ENDBRANCH   1  22
TORSDOF 26
ENDMDL
