MODEL 1
REMARK VINA RESULT:      -9.7      0.000      0.000
REMARK SMILES C[C@@H](OCc1ccccc1Cl)c1ccc(C(=O)OCCOCCOCCOCCOC(=O)c2ccc(-c3c4nc(c(-c5c(F)cc(S(=O)(=O)[O-])cc5F)c5ccc([nH]5)c(-c5c(F)cc(S(=O)(=O)[O-])cc5F)c5nc(c(-c6c(F)cc(S(=O)(=O)[O-])cc6F)c6ccc3[nH]6)C=C5)C=C4)cc2)o1
REMARK SMILES IDX 23 1 22 2 21 3 20 4 19 5 18 6 16 7 17 8 15 9 12 10 13 11
REMARK SMILES IDX 99 12 14 13 2 14 1 15 3 16 4 17 5 18 6 19 10 20 7 21 9 22
REMARK SMILES IDX 11 23 8 24 24 25 25 26 26 27 27 28 28 29 29 30 30 31 31 32
REMARK SMILES IDX 32 33 33 34 34 35 98 36 35 37 97 38 36 39 37 40 38 41 91 42
REMARK SMILES IDX 39 43 96 44 90 45 92 46 40 47 95 48 89 49 88 50 41 52 75 53
REMARK SMILES IDX 54 54 74 55 55 56 58 57 73 58 93 59 56 60 57 61 72 63 94 64
REMARK SMILES IDX 59 65 42 66 43 67 52 68 44 69 45 70 51 71 53 72 46 73 47 74
REMARK SMILES IDX 48 75 49 76 50 77 76 78 77 79 86 80 78 81 79 82 85 83 87 84
REMARK SMILES IDX 80 85 81 86 82 87 83 88 84 89 60 90 61 91 70 92 62 93 63 94
REMARK SMILES IDX 69 95 71 96 64 97 65 98 66 99 67 100 68 101
REMARK H PARENT 92 51 58 62
REMARK Flexibility Score: inf
ROOT
ATOM      1  C   UNL A   1      33.305  27.499  24.982  1.00  0.00     0.188 C 
ENDROOT
BRANCH   1   2
ATOM      2  C   UNL A   1      34.181  26.237  25.002  1.00  0.00     0.188 C 
BRANCH   2   3
ATOM      3  O   UNL A   1      34.063  25.450  23.815  1.00  0.00    -0.376 OA
BRANCH   3   4
ATOM      4  C   UNL A   1      32.951  25.742  22.973  1.00  0.00     0.202 C 
BRANCH   4   5
ATOM      5  C   UNL A   1      32.083  24.542  22.565  1.00  0.00     0.261 C 
BRANCH   5   6
ATOM      6  O   UNL A   1      30.788  24.486  23.179  1.00  0.00    -0.457 OA
BRANCH   6   7
ATOM      7  C   UNL A   1      30.657  24.923  24.456  1.00  0.00     0.374 C 
ATOM      8  O   UNL A   1      30.002  25.903  24.797  1.00  0.00    -0.242 OA
BRANCH   7   9
ATOM      9  C   UNL A   1      31.298  23.968  25.331  1.00  0.00     0.211 A 
ATOM     10  C   UNL A   1      32.453  22.144  25.795  1.00  0.00     0.133 A 
ATOM     11  C   UNL A   1      32.384  22.870  26.966  1.00  0.00     0.049 A 
ATOM     12  O   UNL A   1      31.793  22.806  24.799  1.00  0.00    -0.451 OA
ATOM     13  C   UNL A   1      31.626  24.027  26.675  1.00  0.00     0.058 A 
BRANCH  10  14
ATOM     14  C   UNL A   1      33.045  20.803  25.482  1.00  0.00     0.181 C 
ATOM     15  C   UNL A   1      32.709  20.344  24.068  1.00  0.00     0.047 C 
BRANCH  14  16
ATOM     16  O   UNL A   1      34.442  20.891  25.768  1.00  0.00    -0.366 OA
BRANCH  16  17
ATOM     17  C   UNL A   1      35.287  21.514  24.796  1.00  0.00     0.198 C 
BRANCH  17  18
ATOM     18  C   UNL A   1      36.601  22.046  25.343  1.00  0.00    -0.004 A 
ATOM     19  C   UNL A   1      36.661  23.325  25.924  1.00  0.00     0.007 A 
ATOM     20  C   UNL A   1      37.780  21.276  25.374  1.00  0.00     0.046 A 
ATOM     21  C   UNL A   1      37.852  23.855  26.428  1.00  0.00     0.000 A 
ATOM     22  C   UNL A   1      38.972  21.803  25.893  1.00  0.00     0.021 A 
ATOM     23  Cl  UNL A   1      37.838  19.634  24.829  1.00  0.00    -0.084 Cl
ATOM     24  C   UNL A   1      39.013  23.097  26.403  1.00  0.00     0.002 A 
ENDBRANCH  17  18
ENDBRANCH  16  17
ENDBRANCH  14  16
ENDBRANCH  10  14
ENDBRANCH   7   9
ENDBRANCH   6   7
ENDBRANCH   5   6
ENDBRANCH   4   5
ENDBRANCH   3   4
ENDBRANCH   2   3
ENDBRANCH   1   2
BRANCH   1  25
ATOM     25  O   UNL A   1      32.840  27.859  26.271  1.00  0.00    -0.377 OA
BRANCH  25  26
ATOM     26  C   UNL A   1      31.749  28.778  26.338  1.00  0.00     0.188 C 
BRANCH  26  27
ATOM     27  C   UNL A   1      31.921  30.169  26.986  1.00  0.00     0.188 C 
BRANCH  27  28
ATOM     28  O   UNL A   1      33.183  30.784  26.721  1.00  0.00    -0.376 OA
BRANCH  28  29
ATOM     29  C   UNL A   1      33.924  31.228  27.853  1.00  0.00     0.202 C 
BRANCH  29  30
ATOM     30  C   UNL A   1      35.396  30.799  27.836  1.00  0.00     0.261 C 
BRANCH  30  31
ATOM     31  O   UNL A   1      35.685  29.616  28.597  1.00  0.00    -0.460 OA
BRANCH  31  32
ATOM     32  C   UNL A   1      36.369  29.784  29.750  1.00  0.00     0.338 C 
ATOM     33  O   UNL A   1      35.911  29.875  30.873  1.00  0.00    -0.246 OA
BRANCH  32  34
ATOM     34  C   UNL A   1      37.806  29.658  29.443  1.00  0.00     0.060 A 
ATOM     35  C   UNL A   1      38.207  29.632  28.101  1.00  0.00     0.016 A 
ATOM     36  C   UNL A   1      38.745  29.550  30.471  1.00  0.00     0.016 A 
ATOM     37  C   UNL A   1      39.553  29.450  27.785  1.00  0.00     0.010 A 
ATOM     38  C   UNL A   1      40.088  29.352  30.154  1.00  0.00     0.010 A 
ATOM     39  C   UNL A   1      40.491  29.265  28.810  1.00  0.00    -0.014 A 
BRANCH  39  40
ATOM     40  C   UNL A   1      41.854  28.785  28.487  1.00  0.00     0.031 A 
ATOM     41  C   UNL A   1      42.973  29.789  28.466  1.00  0.00     0.074 A 
ATOM     42  C   UNL A   1      42.091  27.493  28.209  1.00  0.00     0.049 A 
ATOM     43  N   UNL A   1      44.236  29.618  28.174  1.00  0.00    -0.248 NA
ATOM     44  C   UNL A   1      42.616  31.174  28.818  1.00  0.00     0.031 C 
ATOM     45  C   UNL A   1      41.090  26.428  28.219  1.00  0.00     0.029 A 
ATOM     46  N   UNL A   1      43.255  26.862  27.851  1.00  0.00    -0.354 N 
ATOM     47  C   UNL A   1      44.825  30.869  28.308  1.00  0.00     0.074 A 
ATOM     48  C   UNL A   1      43.776  31.796  28.676  1.00  0.00     0.031 C 
ATOM     49  C   UNL A   1      41.684  25.271  27.868  1.00  0.00     0.029 A 
ATOM     50  C   UNL A   1      43.097  25.522  27.588  1.00  0.00     0.049 A 
ATOM     51  H   UNL A   1      44.122  27.324  27.788  1.00  0.00     0.167 HD
ATOM     52  C   UNL A   1      46.124  31.215  28.145  1.00  0.00     0.037 A 
ATOM     53  C   UNL A   1      43.990  24.611  27.155  1.00  0.00     0.037 A 
ATOM     54  C   UNL A   1      47.159  30.294  27.764  1.00  0.00     0.049 A 
ATOM     55  C   UNL A   1      45.419  25.030  26.919  1.00  0.00     0.074 A 
ATOM     56  C   UNL A   1      48.510  30.540  27.587  1.00  0.00     0.029 A 
ATOM     57  N   UNL A   1      46.957  28.950  27.484  1.00  0.00    -0.354 N 
ATOM     58  N   UNL A   1      45.971  26.208  27.082  1.00  0.00    -0.248 NA
ATOM     59  C   UNL A   1      46.345  23.993  26.439  1.00  0.00     0.031 C 
ATOM     60  C   UNL A   1      49.117  29.353  27.163  1.00  0.00     0.029 A 
ATOM     61  C   UNL A   1      48.152  28.358  27.116  1.00  0.00     0.049 A 
ATOM     62  H   UNL A   1      46.091  28.486  27.542  1.00  0.00     0.167 HD
ATOM     63  C   UNL A   1      47.313  26.050  26.749  1.00  0.00     0.074 A 
ATOM     64  C   UNL A   1      47.490  24.661  26.381  1.00  0.00     0.031 C 
ATOM     65  C   UNL A   1      48.310  26.971  26.754  1.00  0.00     0.037 A 
BRANCH  52  66
ATOM     66  C   UNL A   1      46.478  32.659  28.355  1.00  0.00     0.058 A 
ATOM     67  C   UNL A   1      46.860  33.146  29.615  1.00  0.00     0.135 A 
ATOM     68  C   UNL A   1      46.425  33.567  27.287  1.00  0.00     0.135 A 
ATOM     69  F   UNL A   1      46.904  32.321  30.674  1.00  0.00    -0.206 F 
ATOM     70  C   UNL A   1      47.144  34.492  29.817  1.00  0.00     0.059 A 
ATOM     71  C   UNL A   1      46.728  34.915  27.461  1.00  0.00     0.059 A 
ATOM     72  F   UNL A   1      46.060  33.153  26.064  1.00  0.00    -0.206 F 
ATOM     73  C   UNL A   1      47.068  35.370  28.734  1.00  0.00     0.060 A 
BRANCH  73  74
ATOM     74  S   UNL A   1      47.416  37.119  29.014  1.00  0.00     0.124 S 
ATOM     75  O   UNL A   1      48.619  37.047  29.836  1.00  0.00    -0.237 OA
ATOM     76  O   UNL A   1      47.605  37.623  27.657  1.00  0.00    -0.237 OA
ATOM     77  O   UNL A   1      46.217  37.599  29.695  1.00  0.00    -0.744 OA
ENDBRANCH  73  74
ENDBRANCH  52  66
BRANCH  53  78
ATOM     78  C   UNL A   1      43.560  23.208  26.919  1.00  0.00     0.058 A 
ATOM     79  C   UNL A   1      43.413  22.707  25.618  1.00  0.00     0.135 A 
ATOM     80  C   UNL A   1      43.300  22.338  27.989  1.00  0.00     0.135 A 
ATOM     81  F   UNL A   1      43.637  23.506  24.564  1.00  0.00    -0.206 F 
ATOM     82  C   UNL A   1      43.020  21.394  25.383  1.00  0.00     0.059 A 
ATOM     83  C   UNL A   1      42.926  21.015  27.780  1.00  0.00     0.059 A 
ATOM     84  F   UNL A   1      43.434  22.769  29.253  1.00  0.00    -0.206 F 
ATOM     85  C   UNL A   1      42.781  20.554  26.473  1.00  0.00     0.060 A 
BRANCH  85  86
ATOM     86  S   UNL A   1      42.336  18.832  26.159  1.00  0.00     0.124 S 
ATOM     87  O   UNL A   1      42.457  18.250  27.491  1.00  0.00    -0.237 OA
ATOM     88  O   UNL A   1      40.979  18.955  25.635  1.00  0.00    -0.237 OA
ATOM     89  O   UNL A   1      43.336  18.399  25.187  1.00  0.00    -0.744 OA
ENDBRANCH  85  86
ENDBRANCH  53  78
BRANCH  65  90
ATOM     90  C   UNL A   1      49.687  26.504  26.375  1.00  0.00     0.058 A 
ATOM     91  C   UNL A   1      50.175  26.637  25.066  1.00  0.00     0.135 A 
ATOM     92  C   UNL A   1      50.551  25.975  27.347  1.00  0.00     0.135 A 
ATOM     93  F   UNL A   1      49.388  27.132  24.098  1.00  0.00    -0.206 F 
ATOM     94  C   UNL A   1      51.467  26.244  24.730  1.00  0.00     0.059 A 
ATOM     95  C   UNL A   1      51.853  25.597  27.039  1.00  0.00     0.059 A 
ATOM     96  F   UNL A   1      50.136  25.837  28.617  1.00  0.00    -0.206 F 
ATOM     97  C   UNL A   1      52.300  25.726  25.724  1.00  0.00     0.060 A 
BRANCH  97  98
ATOM     98  S   UNL A   1      53.987  25.255  25.287  1.00  0.00     0.124 S 
ATOM     99  O   UNL A   1      53.899  23.799  25.297  1.00  0.00    -0.237 OA
ATOM    100  O   UNL A   1      54.155  25.871  23.973  1.00  0.00    -0.237 OA
ATOM    101  O   UNL A   1      54.791  25.845  26.354  1.00  0.00    -0.744 OA
ENDBRANCH  97  98
ENDBRANCH  65  90
ENDBRANCH  39  40
ENDBRANCH  32  34
ENDBRANCH  31  32
ENDBRANCH  30  31
ENDBRANCH  29  30
ENDBRANCH  28  29
ENDBRANCH  27  28
ENDBRANCH  26  27
ENDBRANCH  25  26
ENDBRANCH   1  25
TORSDOF 27
ENDMDL
MODEL 2
REMARK VINA RESULT:      -8.0      5.335      9.898
REMARK SMILES C[C@@H](OCc1ccccc1Cl)c1ccc(C(=O)OCCOCCOCCOCCOC(=O)c2ccc(-c3c4nc(c(-c5c(F)cc(S(=O)(=O)[O-])cc5F)c5ccc([nH]5)c(-c5c(F)cc(S(=O)(=O)[O-])cc5F)c5nc(c(-c6c(F)cc(S(=O)(=O)[O-])cc6F)c6ccc3[nH]6)C=C5)C=C4)cc2)o1
REMARK SMILES IDX 23 1 22 2 21 3 20 4 19 5 18 6 16 7 17 8 15 9 12 10 13 11
REMARK SMILES IDX 99 12 14 13 2 14 1 15 3 16 4 17 5 18 6 19 10 20 7 21 9 22
REMARK SMILES IDX 11 23 8 24 24 25 25 26 26 27 27 28 28 29 29 30 30 31 31 32
REMARK SMILES IDX 32 33 33 34 34 35 98 36 35 37 97 38 36 39 37 40 38 41 91 42
REMARK SMILES IDX 39 43 96 44 90 45 92 46 40 47 95 48 89 49 88 50 41 52 75 53
REMARK SMILES IDX 54 54 74 55 55 56 58 57 73 58 93 59 56 60 57 61 72 63 94 64
REMARK SMILES IDX 59 65 42 66 43 67 52 68 44 69 45 70 51 71 53 72 46 73 47 74
REMARK SMILES IDX 48 75 49 76 50 77 76 78 77 79 86 80 78 81 79 82 85 83 87 84
REMARK SMILES IDX 80 85 81 86 82 87 83 88 84 89 60 90 61 91 70 92 62 93 63 94
REMARK SMILES IDX 69 95 71 96 64 97 65 98 66 99 67 100 68 101
REMARK H PARENT 92 51 58 62
REMARK Flexibility Score: inf
ROOT
ATOM      1  C   UNL A   1      34.979  32.810  31.061  1.00  0.00     0.188 C 
ENDROOT
BRANCH   1   2
ATOM      2  C   UNL A   1      36.305  32.043  31.187  1.00  0.00     0.188 C 
BRANCH   2   3
ATOM      3  O   UNL A   1      36.127  30.646  31.425  1.00  0.00    -0.376 OA
BRANCH   3   4
ATOM      4  C   UNL A   1      37.302  29.842  31.373  1.00  0.00     0.202 C 
BRANCH   4   5
ATOM      5  C   UNL A   1      38.185  30.022  30.129  1.00  0.00     0.261 C 
BRANCH   5   6
ATOM      6  O   UNL A   1      39.590  30.149  30.387  1.00  0.00    -0.457 OA
BRANCH   6   7
ATOM      7  C   UNL A   1      40.340  29.021  30.458  1.00  0.00     0.374 C 
ATOM      8  O   UNL A   1      40.208  28.145  31.306  1.00  0.00    -0.242 OA
BRANCH   7   9
ATOM      9  C   UNL A   1      41.203  28.976  29.299  1.00  0.00     0.211 A 
ATOM     10  C   UNL A   1      41.999  28.106  27.432  1.00  0.00     0.133 A 
ATOM     11  C   UNL A   1      42.503  29.388  27.511  1.00  0.00     0.049 A 
ATOM     12  O   UNL A   1      41.210  27.850  28.518  1.00  0.00    -0.451 OA
ATOM     13  C   UNL A   1      42.012  29.938  28.717  1.00  0.00     0.058 A 
BRANCH  10  14
ATOM     14  C   UNL A   1      42.218  27.005  26.440  1.00  0.00     0.181 C 
ATOM     15  C   UNL A   1      42.765  27.525  25.116  1.00  0.00     0.047 C 
BRANCH  14  16
ATOM     16  O   UNL A   1      43.035  26.025  27.083  1.00  0.00    -0.366 OA
BRANCH  16  17
ATOM     17  C   UNL A   1      42.750  24.645  26.833  1.00  0.00     0.198 C 
BRANCH  17  18
ATOM     18  C   UNL A   1      43.855  23.886  26.120  1.00  0.00    -0.004 A 
ATOM     19  C   UNL A   1      43.758  23.620  24.742  1.00  0.00     0.007 A 
ATOM     20  C   UNL A   1      45.045  23.491  26.761  1.00  0.00     0.046 A 
ATOM     21  C   UNL A   1      44.747  22.916  24.051  1.00  0.00     0.000 A 
ATOM     22  C   UNL A   1      46.045  22.795  26.064  1.00  0.00     0.021 A 
ATOM     23  Cl  UNL A   1      45.382  23.867  28.417  1.00  0.00    -0.084 Cl
ATOM     24  C   UNL A   1      45.888  22.493  24.715  1.00  0.00     0.002 A 
ENDBRANCH  17  18
ENDBRANCH  16  17
ENDBRANCH  14  16
ENDBRANCH  10  14
ENDBRANCH   7   9
ENDBRANCH   6   7
ENDBRANCH   5   6
ENDBRANCH   4   5
ENDBRANCH   3   4
ENDBRANCH   2   3
ENDBRANCH   1   2
BRANCH   1  25
ATOM     25  O   UNL A   1      34.140  32.635  32.190  1.00  0.00    -0.377 OA
BRANCH  25  26
ATOM     26  C   UNL A   1      34.016  33.738  33.088  1.00  0.00     0.188 C 
BRANCH  26  27
ATOM     27  C   UNL A   1      34.927  34.977  32.953  1.00  0.00     0.188 C 
BRANCH  27  28
ATOM     28  O   UNL A   1      35.920  35.086  33.976  1.00  0.00    -0.376 OA
BRANCH  28  29
ATOM     29  C   UNL A   1      35.937  34.055  34.957  1.00  0.00     0.202 C 
BRANCH  29  30
ATOM     30  C   UNL A   1      37.245  33.255  34.990  1.00  0.00     0.261 C 
BRANCH  30  31
ATOM     31  O   UNL A   1      37.210  32.085  35.822  1.00  0.00    -0.460 OA
BRANCH  31  32
ATOM     32  C   UNL A   1      38.255  31.899  36.659  1.00  0.00     0.338 C 
ATOM     33  O   UNL A   1      38.259  32.019  37.870  1.00  0.00    -0.246 OA
BRANCH  32  34
ATOM     34  C   UNL A   1      39.369  31.342  35.871  1.00  0.00     0.060 A 
ATOM     35  C   UNL A   1      40.681  31.671  36.235  1.00  0.00     0.016 A 
ATOM     36  C   UNL A   1      39.119  30.515  34.773  1.00  0.00     0.016 A 
ATOM     37  C   UNL A   1      41.749  31.207  35.468  1.00  0.00     0.010 A 
ATOM     38  C   UNL A   1      40.187  30.065  33.998  1.00  0.00     0.010 A 
ATOM     39  C   UNL A   1      41.502  30.440  34.322  1.00  0.00    -0.014 A 
BRANCH  39  40
ATOM     40  C   UNL A   1      42.591  30.192  33.349  1.00  0.00     0.031 A 
ATOM     41  C   UNL A   1      43.312  28.874  33.412  1.00  0.00     0.074 A 
ATOM     42  C   UNL A   1      42.939  31.118  32.441  1.00  0.00     0.049 A 
ATOM     43  N   UNL A   1      44.318  28.444  32.698  1.00  0.00    -0.248 NA
ATOM     44  C   UNL A   1      42.833  27.914  34.422  1.00  0.00     0.031 C 
ATOM     45  C   UNL A   1      42.299  32.421  32.272  1.00  0.00     0.029 A 
ATOM     46  N   UNL A   1      43.930  31.101  31.493  1.00  0.00    -0.354 N 
ATOM     47  C   UNL A   1      44.594  27.165  33.168  1.00  0.00     0.074 A 
ATOM     48  C   UNL A   1      43.669  26.902  34.250  1.00  0.00     0.031 C 
ATOM     49  C   UNL A   1      42.925  33.087  31.285  1.00  0.00     0.029 A 
ATOM     50  C   UNL A   1      44.021  32.266  30.771  1.00  0.00     0.049 A 
ATOM     51  H   UNL A   1      44.521  30.328  31.344  1.00  0.00     0.167 HD
ATOM     52  C   UNL A   1      45.528  26.287  32.734  1.00  0.00     0.037 A 
ATOM     53  C   UNL A   1      44.901  32.631  29.817  1.00  0.00     0.037 A 
ATOM     54  C   UNL A   1      46.455  26.559  31.670  1.00  0.00     0.049 A 
ATOM     55  C   UNL A   1      45.975  31.662  29.392  1.00  0.00     0.074 A 
ATOM     56  C   UNL A   1      47.431  25.731  31.143  1.00  0.00     0.029 A 
ATOM     57  N   UNL A   1      46.532  27.759  30.977  1.00  0.00    -0.354 N 
ATOM     58  N   UNL A   1      46.203  30.443  29.820  1.00  0.00    -0.248 NA
ATOM     59  C   UNL A   1      46.910  32.119  28.353  1.00  0.00     0.031 C 
ATOM     60  C   UNL A   1      48.123  26.444  30.159  1.00  0.00     0.029 A 
ATOM     61  C   UNL A   1      47.552  27.702  30.044  1.00  0.00     0.049 A 
ATOM     62  H   UNL A   1      45.946  28.536  31.127  1.00  0.00     0.167 HD
ATOM     63  C   UNL A   1      47.291  29.979  29.087  1.00  0.00     0.074 A 
ATOM     64  C   UNL A   1      47.671  31.046  28.184  1.00  0.00     0.031 C 
ATOM     65  C   UNL A   1      47.915  28.775  29.151  1.00  0.00     0.037 A 
BRANCH  52  66
ATOM     66  C   UNL A   1      45.601  24.963  33.439  1.00  0.00     0.058 A 
ATOM     67  C   UNL A   1      46.421  24.774  34.562  1.00  0.00     0.135 A 
ATOM     68  C   UNL A   1      44.851  23.870  32.981  1.00  0.00     0.135 A 
ATOM     69  F   UNL A   1      47.177  25.783  35.027  1.00  0.00    -0.206 F 
ATOM     70  C   UNL A   1      46.522  23.535  35.187  1.00  0.00     0.059 A 
ATOM     71  C   UNL A   1      44.918  22.628  33.605  1.00  0.00     0.059 A 
ATOM     72  F   UNL A   1      44.055  23.997  31.907  1.00  0.00    -0.206 F 
ATOM     73  C   UNL A   1      45.771  22.466  34.695  1.00  0.00     0.060 A 
BRANCH  73  74
ATOM     74  S   UNL A   1      45.928  20.857  35.499  1.00  0.00     0.124 S 
ATOM     75  O   UNL A   1      44.788  20.141  34.937  1.00  0.00    -0.237 OA
ATOM     76  O   UNL A   1      47.242  20.407  35.050  1.00  0.00    -0.237 OA
ATOM     77  O   UNL A   1      45.831  21.178  36.919  1.00  0.00    -0.744 OA
ENDBRANCH  73  74
ENDBRANCH  52  66
BRANCH  53  78
ATOM     78  C   UNL A   1      44.803  33.977  29.196  1.00  0.00     0.058 A 
ATOM     79  C   UNL A   1      44.192  34.154  27.947  1.00  0.00     0.135 A 
ATOM     80  C   UNL A   1      45.306  35.115  29.846  1.00  0.00     0.135 A 
ATOM     81  F   UNL A   1      43.709  33.093  27.283  1.00  0.00    -0.206 F 
ATOM     82  C   UNL A   1      44.085  35.410  27.360  1.00  0.00     0.059 A 
ATOM     83  C   UNL A   1      45.193  36.384  29.289  1.00  0.00     0.059 A 
ATOM     84  F   UNL A   1      45.893  34.998  31.048  1.00  0.00    -0.206 F 
ATOM     85  C   UNL A   1      44.586  36.521  28.042  1.00  0.00     0.060 A 
BRANCH  85  86
ATOM     86  S   UNL A   1      44.384  38.156  27.302  1.00  0.00     0.124 S 
ATOM     87  O   UNL A   1      44.454  39.019  28.475  1.00  0.00    -0.237 OA
ATOM     88  O   UNL A   1      45.521  38.224  26.388  1.00  0.00    -0.237 OA
ATOM     89  O   UNL A   1      43.077  38.072  26.656  1.00  0.00    -0.744 OA
ENDBRANCH  85  86
ENDBRANCH  53  78
BRANCH  65  90
ATOM     90  C   UNL A   1      49.057  28.535  28.204  1.00  0.00     0.058 A 
ATOM     91  C   UNL A   1      50.388  28.773  28.581  1.00  0.00     0.135 A 
ATOM     92  C   UNL A   1      48.821  28.001  26.928  1.00  0.00     0.135 A 
ATOM     93  F   UNL A   1      50.667  29.287  29.789  1.00  0.00    -0.206 F 
ATOM     94  C   UNL A   1      51.445  28.506  27.716  1.00  0.00     0.059 A 
ATOM     95  C   UNL A   1      49.864  27.706  26.055  1.00  0.00     0.059 A 
ATOM     96  F   UNL A   1      47.566  27.745  26.523  1.00  0.00    -0.206 F 
ATOM     97  C   UNL A   1      51.173  27.971  26.455  1.00  0.00     0.060 A 
BRANCH  97  98
ATOM     98  S   UNL A   1      52.554  27.593  25.355  1.00  0.00     0.124 S 
ATOM     99  O   UNL A   1      52.862  26.217  25.733  1.00  0.00    -0.237 OA
ATOM    100  O   UNL A   1      51.961  27.769  24.032  1.00  0.00    -0.237 OA
ATOM    101  O   UNL A   1      53.560  28.586  25.720  1.00  0.00    -0.744 OA
ENDBRANCH  97  98
ENDBRANCH  65  90
ENDBRANCH  39  40
ENDBRANCH  32  34
ENDBRANCH  31  32
ENDBRANCH  30  31
ENDBRANCH  29  30
ENDBRANCH  28  29
ENDBRANCH  27  28
ENDBRANCH  26  27
ENDBRANCH  25  26
ENDBRANCH   1  25
TORSDOF 27
ENDMDL
MODEL 3
REMARK VINA RESULT:      -7.7      6.778     13.011
REMARK SMILES C[C@@H](OCc1ccccc1Cl)c1ccc(C(=O)OCCOCCOCCOCCOC(=O)c2ccc(-c3c4nc(c(-c5c(F)cc(S(=O)(=O)[O-])cc5F)c5ccc([nH]5)c(-c5c(F)cc(S(=O)(=O)[O-])cc5F)c5nc(c(-c6c(F)cc(S(=O)(=O)[O-])cc6F)c6ccc3[nH]6)C=C5)C=C4)cc2)o1
REMARK SMILES IDX 23 1 22 2 21 3 20 4 19 5 18 6 16 7 17 8 15 9 12 10 13 11
REMARK SMILES IDX 99 12 14 13 2 14 1 15 3 16 4 17 5 18 6 19 10 20 7 21 9 22
REMARK SMILES IDX 11 23 8 24 24 25 25 26 26 27 27 28 28 29 29 30 30 31 31 32
REMARK SMILES IDX 32 33 33 34 34 35 98 36 35 37 97 38 36 39 37 40 38 41 91 42
REMARK SMILES IDX 39 43 96 44 90 45 92 46 40 47 95 48 89 49 88 50 41 52 75 53
REMARK SMILES IDX 54 54 74 55 55 56 58 57 73 58 93 59 56 60 57 61 72 63 94 64
REMARK SMILES IDX 59 65 42 66 43 67 52 68 44 69 45 70 51 71 53 72 46 73 47 74
REMARK SMILES IDX 48 75 49 76 50 77 76 78 77 79 86 80 78 81 79 82 85 83 87 84
REMARK SMILES IDX 80 85 81 86 82 87 83 88 84 89 60 90 61 91 70 92 62 93 63 94
REMARK SMILES IDX 69 95 71 96 64 97 65 98 66 99 67 100 68 101
REMARK H PARENT 92 51 58 62
REMARK Flexibility Score: inf
ROOT
ATOM      1  C   UNL A   1      37.535  23.406  25.799  1.00  0.00     0.188 C 
ENDROOT
BRANCH   1   2
ATOM      2  C   UNL A   1      36.956  22.086  25.266  1.00  0.00     0.188 C 
BRANCH   2   3
ATOM      3  O   UNL A   1      35.571  21.913  25.573  1.00  0.00    -0.376 OA
BRANCH   3   4
ATOM      4  C   UNL A   1      34.690  21.783  24.460  1.00  0.00     0.202 C 
BRANCH   4   5
ATOM      5  C   UNL A   1      34.538  23.028  23.573  1.00  0.00     0.261 C 
BRANCH   5   6
ATOM      6  O   UNL A   1      33.395  23.028  22.707  1.00  0.00    -0.457 OA
BRANCH   6   7
ATOM      7  C   UNL A   1      32.290  23.716  23.094  1.00  0.00     0.374 C 
ATOM      8  O   UNL A   1      31.357  23.239  23.731  1.00  0.00    -0.242 OA
BRANCH   7   9
ATOM      9  C   UNL A   1      32.476  25.106  22.747  1.00  0.00     0.211 A 
ATOM     10  C   UNL A   1      31.886  27.230  22.617  1.00  0.00     0.133 A 
ATOM     11  C   UNL A   1      33.230  27.179  22.310  1.00  0.00     0.049 A 
ATOM     12  O   UNL A   1      31.422  25.972  22.882  1.00  0.00    -0.451 OA
ATOM     13  C   UNL A   1      33.603  25.817  22.371  1.00  0.00     0.058 A 
BRANCH  10  14
ATOM     14  C   UNL A   1      30.907  28.364  22.643  1.00  0.00     0.181 C 
ATOM     15  C   UNL A   1      29.491  27.893  22.953  1.00  0.00     0.047 C 
BRANCH  14  16
ATOM     16  O   UNL A   1      31.426  29.339  23.549  1.00  0.00    -0.366 OA
BRANCH  16  17
ATOM     17  C   UNL A   1      31.183  29.151  24.947  1.00  0.00     0.198 C 
BRANCH  17  18
ATOM     18  C   UNL A   1      32.380  29.423  25.843  1.00  0.00    -0.004 A 
ATOM     19  C   UNL A   1      33.469  28.533  25.861  1.00  0.00     0.007 A 
ATOM     20  C   UNL A   1      32.499  30.591  26.620  1.00  0.00     0.046 A 
ATOM     21  C   UNL A   1      34.583  28.742  26.678  1.00  0.00     0.000 A 
ATOM     22  C   UNL A   1      33.623  30.807  27.431  1.00  0.00     0.021 A 
ATOM     23  Cl  UNL A   1      31.312  31.851  26.600  1.00  0.00    -0.084 Cl
ATOM     24  C   UNL A   1      34.656  29.876  27.473  1.00  0.00     0.002 A 
ENDBRANCH  17  18
ENDBRANCH  16  17
ENDBRANCH  14  16
ENDBRANCH  10  14
ENDBRANCH   7   9
ENDBRANCH   6   7
ENDBRANCH   5   6
ENDBRANCH   4   5
ENDBRANCH   3   4
ENDBRANCH   2   3
ENDBRANCH   1   2
BRANCH   1  25
ATOM     25  O   UNL A   1      38.882  23.278  26.220  1.00  0.00    -0.377 OA
BRANCH  25  26
ATOM     26  C   UNL A   1      39.293  24.067  27.337  1.00  0.00     0.188 C 
BRANCH  26  27
ATOM     27  C   UNL A   1      39.148  25.604  27.319  1.00  0.00     0.188 C 
BRANCH  27  28
ATOM     28  O   UNL A   1      40.298  26.305  27.798  1.00  0.00    -0.376 OA
BRANCH  28  29
ATOM     29  C   UNL A   1      40.625  27.519  27.131  1.00  0.00     0.202 C 
BRANCH  29  30
ATOM     30  C   UNL A   1      39.876  28.743  27.672  1.00  0.00     0.261 C 
BRANCH  30  31
ATOM     31  O   UNL A   1      39.866  28.855  29.103  1.00  0.00    -0.460 OA
BRANCH  31  32
ATOM     32  C   UNL A   1      38.995  29.737  29.641  1.00  0.00     0.338 C 
ATOM     33  O   UNL A   1      37.839  29.531  29.961  1.00  0.00    -0.246 OA
BRANCH  32  34
ATOM     34  C   UNL A   1      39.738  30.972  29.951  1.00  0.00     0.060 A 
ATOM     35  C   UNL A   1      41.134  30.909  30.054  1.00  0.00     0.016 A 
ATOM     36  C   UNL A   1      39.061  32.177  30.154  1.00  0.00     0.016 A 
ATOM     37  C   UNL A   1      41.853  32.050  30.408  1.00  0.00     0.010 A 
ATOM     38  C   UNL A   1      39.780  33.313  30.524  1.00  0.00     0.010 A 
ATOM     39  C   UNL A   1      41.174  33.244  30.687  1.00  0.00    -0.014 A 
BRANCH  39  40
ATOM     40  C   UNL A   1      41.888  34.365  31.339  1.00  0.00     0.031 A 
ATOM     41  C   UNL A   1      41.829  34.469  32.838  1.00  0.00     0.074 A 
ATOM     42  C   UNL A   1      42.564  35.275  30.618  1.00  0.00     0.049 A 
ATOM     43  N   UNL A   1      42.336  35.378  33.628  1.00  0.00    -0.248 NA
ATOM     44  C   UNL A   1      41.091  33.404  33.538  1.00  0.00     0.031 C 
ATOM     45  C   UNL A   1      42.708  35.265  29.164  1.00  0.00     0.029 A 
ATOM     46  N   UNL A   1      43.247  36.394  31.020  1.00  0.00    -0.354 N 
ATOM     47  C   UNL A   1      41.983  34.997  34.916  1.00  0.00     0.074 A 
ATOM     48  C   UNL A   1      41.190  33.791  34.800  1.00  0.00     0.031 C 
ATOM     49  C   UNL A   1      43.428  36.340  28.792  1.00  0.00     0.029 A 
ATOM     50  C   UNL A   1      43.772  37.122  29.979  1.00  0.00     0.049 A 
ATOM     51  H   UNL A   1      43.352  36.653  31.964  1.00  0.00     0.167 HD
ATOM     52  C   UNL A   1      42.295  35.592  36.091  1.00  0.00     0.037 A 
ATOM     53  C   UNL A   1      44.438  38.294  29.988  1.00  0.00     0.037 A 
ATOM     54  C   UNL A   1      43.069  36.799  36.200  1.00  0.00     0.049 A 
ATOM     55  C   UNL A   1      44.721  38.974  31.302  1.00  0.00     0.074 A 
ATOM     56  C   UNL A   1      43.454  37.475  37.345  1.00  0.00     0.029 A 
ATOM     57  N   UNL A   1      43.565  37.520  35.123  1.00  0.00    -0.354 N 
ATOM     58  N   UNL A   1      44.412  38.585  32.516  1.00  0.00    -0.248 NA
ATOM     59  C   UNL A   1      45.445  40.253  31.247  1.00  0.00     0.031 C 
ATOM     60  C   UNL A   1      44.149  38.626  36.957  1.00  0.00     0.029 A 
ATOM     61  C   UNL A   1      44.232  38.644  35.573  1.00  0.00     0.049 A 
ATOM     62  H   UNL A   1      43.457  37.266  34.178  1.00  0.00     0.167 HD
ATOM     63  C   UNL A   1      44.924  39.558  33.370  1.00  0.00     0.074 A 
ATOM     64  C   UNL A   1      45.567  40.550  32.534  1.00  0.00     0.031 C 
ATOM     65  C   UNL A   1      44.870  39.621  34.725  1.00  0.00     0.037 A 
BRANCH  52  66
ATOM     66  C   UNL A   1      41.769  34.952  37.343  1.00  0.00     0.058 A 
ATOM     67  C   UNL A   1      40.521  35.306  37.880  1.00  0.00     0.135 A 
ATOM     68  C   UNL A   1      42.524  33.982  38.018  1.00  0.00     0.135 A 
ATOM     69  F   UNL A   1      39.770  36.246  37.284  1.00  0.00    -0.206 F 
ATOM     70  C   UNL A   1      40.055  34.745  39.065  1.00  0.00     0.059 A 
ATOM     71  C   UNL A   1      42.067  33.389  39.192  1.00  0.00     0.059 A 
ATOM     72  F   UNL A   1      43.726  33.612  37.549  1.00  0.00    -0.206 F 
ATOM     73  C   UNL A   1      40.840  33.792  39.717  1.00  0.00     0.060 A 
BRANCH  73  74
ATOM     74  S   UNL A   1      40.235  33.088  41.265  1.00  0.00     0.124 S 
ATOM     75  O   UNL A   1      39.949  31.714  40.866  1.00  0.00    -0.237 OA
ATOM     76  O   UNL A   1      41.377  33.262  42.158  1.00  0.00    -0.237 OA
ATOM     77  O   UNL A   1      39.069  33.908  41.577  1.00  0.00    -0.744 OA
ENDBRANCH  73  74
ENDBRANCH  52  66
BRANCH  53  78
ATOM     78  C   UNL A   1      44.887  38.898  28.706  1.00  0.00     0.058 A 
ATOM     79  C   UNL A   1      44.102  39.852  28.043  1.00  0.00     0.135 A 
ATOM     80  C   UNL A   1      46.115  38.543  28.127  1.00  0.00     0.135 A 
ATOM     81  F   UNL A   1      42.914  40.212  28.552  1.00  0.00    -0.206 F 
ATOM     82  C   UNL A   1      44.515  40.431  26.848  1.00  0.00     0.059 A 
ATOM     83  C   UNL A   1      46.559  39.124  26.944  1.00  0.00     0.059 A 
ATOM     84  F   UNL A   1      46.906  37.640  28.728  1.00  0.00    -0.206 F 
ATOM     85  C   UNL A   1      45.748  40.063  26.308  1.00  0.00     0.060 A 
BRANCH  85  86
ATOM     86  S   UNL A   1      46.306  40.869  24.791  1.00  0.00     0.124 S 
ATOM     87  O   UNL A   1      45.057  41.412  24.271  1.00  0.00    -0.237 OA
ATOM     88  O   UNL A   1      47.267  41.846  25.297  1.00  0.00    -0.237 OA
ATOM     89  O   UNL A   1      46.887  39.772  24.023  1.00  0.00    -0.744 OA
ENDBRANCH  85  86
ENDBRANCH  53  78
BRANCH  65  90
ATOM     90  C   UNL A   1      45.546  40.786  35.392  1.00  0.00     0.058 A 
ATOM     91  C   UNL A   1      46.927  40.791  35.641  1.00  0.00     0.135 A 
ATOM     92  C   UNL A   1      44.814  41.935  35.728  1.00  0.00     0.135 A 
ATOM     93  F   UNL A   1      47.672  39.715  35.343  1.00  0.00    -0.206 F 
ATOM     94  C   UNL A   1      47.556  41.890  36.218  1.00  0.00     0.059 A 
ATOM     95  C   UNL A   1      45.424  43.054  36.285  1.00  0.00     0.059 A 
ATOM     96  F   UNL A   1      43.491  41.985  35.500  1.00  0.00    -0.206 F 
ATOM     97  C   UNL A   1      46.796  43.019  36.535  1.00  0.00     0.060 A 
BRANCH  97  98
ATOM     98  S   UNL A   1      47.627  44.454  37.247  1.00  0.00     0.124 S 
ATOM     99  O   UNL A   1      46.500  45.336  37.533  1.00  0.00    -0.237 OA
ATOM    100  O   UNL A   1      48.298  43.885  38.413  1.00  0.00    -0.237 OA
ATOM    101  O   UNL A   1      48.516  44.897  36.177  1.00  0.00    -0.744 OA
ENDBRANCH  97  98
ENDBRANCH  65  90
ENDBRANCH  39  40
ENDBRANCH  32  34
ENDBRANCH  31  32
ENDBRANCH  30  31
ENDBRANCH  29  30
ENDBRANCH  28  29
ENDBRANCH  27  28
ENDBRANCH  26  27
ENDBRANCH  25  26
ENDBRANCH   1  25
TORSDOF 27
ENDMDL
