MODEL 1
REMARK VINA RESULT:      -8.3      0.000      0.000
REMARK SMILES CCC[C@@H](C(=O)OCCOCCOCCOCCOC(=O)c1ccc(-c2c3nc(c(-c4c(F)cc(S(=O)(=O)[O-])cc4F)c4ccc([nH]4)c(-c4c(F)cc(S(=O)(=O)[O-])cc4F)c4nc(c(-c5c(F)cc(S(=O)(=O)[O-])cc5F)c5ccc2[nH]5)C=C4)C=C3)cc1)n1nc(/C=C/c2ccc(OC)cc2)ccc1=O
REMARK SMILES IDX 12 1 11 2 10 3 9 4 8 5 7 6 5 7 6 8 4 9 3 10 2 11 1 12 88 13
REMARK SMILES IDX 89 14 103 15 90 16 102 17 104 18 101 19 91 20 92 21 93 22
REMARK SMILES IDX 94 23 100 24 95 25 99 26 96 27 97 28 98 29 13 30 14 31 15 32
REMARK SMILES IDX 16 33 17 34 18 35 19 36 20 37 21 38 22 39 23 40 87 41 24 42
REMARK SMILES IDX 86 43 25 44 26 45 27 46 80 47 28 48 85 49 79 50 81 51 29 52
REMARK SMILES IDX 84 53 78 54 77 55 30 57 64 58 43 59 63 60 44 61 47 62 62 63
REMARK SMILES IDX 82 64 45 65 46 66 61 68 83 69 48 70 31 71 32 72 41 73 33 74
REMARK SMILES IDX 34 75 40 76 42 77 35 78 36 79 37 80 38 81 39 82 65 83 66 84
REMARK SMILES IDX 75 85 67 86 68 87 74 88 76 89 69 90 70 91 71 92 72 93 73 94
REMARK SMILES IDX 49 95 50 96 59 97 51 98 52 99 58 100 60 101 53 102 54 103
REMARK SMILES IDX 55 104 56 105 57 106
REMARK H PARENT 81 56 47 67
REMARK Flexibility Score: inf
ROOT
ATOM      1  C   UNL A   1      36.806  23.290  25.758  1.00  0.00     0.188 C 
ENDROOT
BRANCH   1   2
ATOM      2  C   UNL A   1      35.772  22.250  25.275  1.00  0.00     0.188 C 
BRANCH   2   3
ATOM      3  O   UNL A   1      35.192  21.467  26.306  1.00  0.00    -0.376 OA
BRANCH   3   4
ATOM      4  C   UNL A   1      33.779  21.518  26.414  1.00  0.00     0.202 C 
BRANCH   4   5
ATOM      5  C   UNL A   1      33.204  22.693  27.217  1.00  0.00     0.261 C 
BRANCH   5   6
ATOM      6  O   UNL A   1      33.223  23.982  26.574  1.00  0.00    -0.462 OA
BRANCH   6   7
ATOM      7  C   UNL A   1      32.056  24.517  26.150  1.00  0.00     0.331 C 
ATOM      8  O   UNL A   1      31.033  24.492  26.832  1.00  0.00    -0.250 OA
BRANCH   7   9
ATOM      9  C   UNL A   1      32.129  25.119  24.723  1.00  0.00     0.221 C 
BRANCH   9  10
ATOM     10  C   UNL A   1      33.282  24.817  23.736  1.00  0.00     0.039 C 
BRANCH  10  11
ATOM     11  C   UNL A   1      32.979  24.448  22.281  1.00  0.00    -0.001 C 
ATOM     12  C   UNL A   1      32.489  25.601  21.431  1.00  0.00     0.004 C 
ENDBRANCH  10  11
ENDBRANCH   9  10
BRANCH   9  13
ATOM     13  N   UNL A   1      31.897  26.591  24.866  1.00  0.00    -0.215 N 
ATOM     14  N   UNL A   1      32.927  27.293  25.461  1.00  0.00    -0.169 NA
ATOM     15  C   UNL A   1      30.752  27.219  24.390  1.00  0.00     0.267 A 
ATOM     16  C   UNL A   1      32.854  28.588  25.471  1.00  0.00     0.084 A 
ATOM     17  C   UNL A   1      30.763  28.688  24.339  1.00  0.00     0.075 A 
ATOM     18  O   UNL A   1      29.737  26.678  23.971  1.00  0.00    -0.268 OA
ATOM     19  C   UNL A   1      31.782  29.377  24.840  1.00  0.00     0.036 A 
BRANCH  16  20
ATOM     20  C   UNL A   1      33.955  29.340  26.115  1.00  0.00     0.031 C 
ATOM     21  C   UNL A   1      34.526  29.016  27.285  1.00  0.00     0.010 C 
BRANCH  21  22
ATOM     22  C   UNL A   1      35.547  29.849  27.919  1.00  0.00    -0.025 A 
ATOM     23  C   UNL A   1      35.209  31.131  28.361  1.00  0.00     0.012 A 
ATOM     24  C   UNL A   1      36.877  29.425  28.007  1.00  0.00     0.012 A 
ATOM     25  C   UNL A   1      36.189  31.962  28.907  1.00  0.00     0.047 A 
ATOM     26  C   UNL A   1      37.853  30.255  28.557  1.00  0.00     0.047 A 
ATOM     27  C   UNL A   1      37.512  31.528  29.012  1.00  0.00     0.118 A 
BRANCH  27  28
ATOM     28  O   UNL A   1      38.377  32.434  29.560  1.00  0.00    -0.497 OA
ATOM     29  C   UNL A   1      38.208  33.785  29.152  1.00  0.00     0.278 C 
ENDBRANCH  27  28
ENDBRANCH  21  22
ENDBRANCH  16  20
ENDBRANCH   9  13
ENDBRANCH   7   9
ENDBRANCH   6   7
ENDBRANCH   5   6
ENDBRANCH   4   5
ENDBRANCH   3   4
ENDBRANCH   2   3
ENDBRANCH   1   2
BRANCH   1  30
ATOM     30  O   UNL A   1      38.146  22.959  26.079  1.00  0.00    -0.377 OA
BRANCH  30  31
ATOM     31  C   UNL A   1      38.636  21.687  25.721  1.00  0.00     0.188 C 
BRANCH  31  32
ATOM     32  C   UNL A   1      39.990  21.258  26.312  1.00  0.00     0.188 C 
BRANCH  32  33
ATOM     33  O   UNL A   1      40.343  19.900  26.078  1.00  0.00    -0.376 OA
BRANCH  33  34
ATOM     34  C   UNL A   1      41.729  19.585  26.076  1.00  0.00     0.202 C 
BRANCH  34  35
ATOM     35  C   UNL A   1      42.677  20.626  26.689  1.00  0.00     0.261 C 
BRANCH  35  36
ATOM     36  O   UNL A   1      43.647  21.195  25.796  1.00  0.00    -0.460 OA
BRANCH  36  37
ATOM     37  C   UNL A   1      43.443  22.451  25.350  1.00  0.00     0.338 C 
ATOM     38  O   UNL A   1      43.008  22.795  24.266  1.00  0.00    -0.246 OA
BRANCH  37  39
ATOM     39  C   UNL A   1      43.660  23.346  26.504  1.00  0.00     0.060 A 
ATOM     40  C   UNL A   1      44.972  23.680  26.873  1.00  0.00     0.016 A 
ATOM     41  C   UNL A   1      42.568  23.918  27.160  1.00  0.00     0.016 A 
ATOM     42  C   UNL A   1      45.191  24.612  27.886  1.00  0.00     0.010 A 
ATOM     43  C   UNL A   1      42.792  24.816  28.204  1.00  0.00     0.010 A 
ATOM     44  C   UNL A   1      44.102  25.161  28.575  1.00  0.00    -0.014 A 
BRANCH  44  45
ATOM     45  C   UNL A   1      44.321  25.958  29.803  1.00  0.00     0.031 A 
ATOM     46  C   UNL A   1      44.342  27.454  29.671  1.00  0.00     0.074 A 
ATOM     47  C   UNL A   1      44.536  25.368  30.992  1.00  0.00     0.049 A 
ATOM     48  N   UNL A   1      44.631  28.359  30.566  1.00  0.00    -0.248 NA
ATOM     49  C   UNL A   1      43.995  28.003  28.347  1.00  0.00     0.031 C 
ATOM     50  C   UNL A   1      44.507  23.928  31.242  1.00  0.00     0.029 A 
ATOM     51  N   UNL A   1      44.854  25.915  32.211  1.00  0.00    -0.354 N 
ATOM     52  C   UNL A   1      44.522  29.580  29.912  1.00  0.00     0.074 A 
ATOM     53  C   UNL A   1      44.141  29.304  28.546  1.00  0.00     0.031 C 
ATOM     54  C   UNL A   1      44.833  23.702  32.528  1.00  0.00     0.029 A 
ATOM     55  C   UNL A   1      45.131  24.977  33.180  1.00  0.00     0.049 A 
ATOM     56  H   UNL A   1      44.881  26.884  32.378  1.00  0.00     0.167 HD
ATOM     57  C   UNL A   1      44.731  30.819  30.412  1.00  0.00     0.037 A 
ATOM     58  C   UNL A   1      45.614  25.134  34.430  1.00  0.00     0.037 A 
ATOM     59  C   UNL A   1      45.107  31.083  31.772  1.00  0.00     0.049 A 
ATOM     60  C   UNL A   1      45.902  26.526  34.938  1.00  0.00     0.074 A 
ATOM     61  C   UNL A   1      45.284  32.309  32.389  1.00  0.00     0.029 A 
ATOM     62  N   UNL A   1      45.387  30.112  32.720  1.00  0.00    -0.354 N 
ATOM     63  N   UNL A   1      45.729  27.679  34.335  1.00  0.00    -0.248 NA
ATOM     64  C   UNL A   1      46.459  26.642  36.295  1.00  0.00     0.031 C 
ATOM     65  C   UNL A   1      45.732  32.078  33.692  1.00  0.00     0.029 A 
ATOM     66  C   UNL A   1      45.780  30.709  33.905  1.00  0.00     0.049 A 
ATOM     67  H   UNL A   1      45.316  29.140  32.573  1.00  0.00     0.167 HD
ATOM     68  C   UNL A   1      46.138  28.652  35.242  1.00  0.00     0.074 A 
ATOM     69  C   UNL A   1      46.548  27.957  36.443  1.00  0.00     0.031 C 
ATOM     70  C   UNL A   1      46.176  29.999  35.095  1.00  0.00     0.037 A 
BRANCH  57  71
ATOM     71  C   UNL A   1      44.592  31.987  29.479  1.00  0.00     0.058 A 
ATOM     72  C   UNL A   1      43.392  32.702  29.359  1.00  0.00     0.135 A 
ATOM     73  C   UNL A   1      45.707  32.443  28.757  1.00  0.00     0.135 A 
ATOM     74  F   UNL A   1      42.291  32.292  30.009  1.00  0.00    -0.206 F 
ATOM     75  C   UNL A   1      43.301  33.834  28.557  1.00  0.00     0.059 A 
ATOM     76  C   UNL A   1      45.646  33.586  27.968  1.00  0.00     0.059 A 
ATOM     77  F   UNL A   1      46.875  31.784  28.829  1.00  0.00    -0.206 F 
ATOM     78  C   UNL A   1      44.438  34.274  27.873  1.00  0.00     0.060 A 
BRANCH  78  79
ATOM     79  S   UNL A   1      44.319  35.781  26.886  1.00  0.00     0.124 S 
ATOM     80  O   UNL A   1      44.243  36.804  27.925  1.00  0.00    -0.237 OA
ATOM     81  O   UNL A   1      45.559  35.748  26.119  1.00  0.00    -0.237 OA
ATOM     82  O   UNL A   1      43.099  35.585  26.109  1.00  0.00    -0.744 OA
ENDBRANCH  78  79
ENDBRANCH  57  71
BRANCH  58  83
ATOM     83  C   UNL A   1      45.923  23.947  35.275  1.00  0.00     0.058 A 
ATOM     84  C   UNL A   1      47.117  23.226  35.116  1.00  0.00     0.135 A 
ATOM     85  C   UNL A   1      45.004  23.477  36.228  1.00  0.00     0.135 A 
ATOM     86  F   UNL A   1      48.023  23.622  34.208  1.00  0.00    -0.206 F 
ATOM     87  C   UNL A   1      47.375  22.069  35.846  1.00  0.00     0.059 A 
ATOM     88  C   UNL A   1      45.252  22.341  36.991  1.00  0.00     0.059 A 
ATOM     89  F   UNL A   1      43.848  24.131  36.426  1.00  0.00    -0.206 F 
ATOM     90  C   UNL A   1      46.434  21.632  36.780  1.00  0.00     0.060 A 
BRANCH  90  91
ATOM     91  S   UNL A   1      46.781  20.137  37.731  1.00  0.00     0.124 S 
ATOM     92  O   UNL A   1      48.236  20.169  37.807  1.00  0.00    -0.237 OA
ATOM     93  O   UNL A   1      46.070  20.395  38.980  1.00  0.00    -0.237 OA
ATOM     94  O   UNL A   1      46.214  19.076  36.904  1.00  0.00    -0.744 OA
ENDBRANCH  90  91
ENDBRANCH  58  83
BRANCH  70  95
ATOM     95  C   UNL A   1      46.654  30.822  36.260  1.00  0.00     0.058 A 
ATOM     96  C   UNL A   1      47.997  31.215  36.378  1.00  0.00     0.135 A 
ATOM     97  C   UNL A   1      45.744  31.297  37.218  1.00  0.00     0.135 A 
ATOM     98  F   UNL A   1      48.908  30.783  35.492  1.00  0.00    -0.206 F 
ATOM     99  C   UNL A   1      48.421  32.043  37.412  1.00  0.00     0.059 A 
ATOM    100  C   UNL A   1      46.142  32.149  38.244  1.00  0.00     0.059 A 
ATOM    101  F   UNL A   1      44.447  30.960  37.143  1.00  0.00    -0.206 F 
ATOM    102  C   UNL A   1      47.485  32.512  38.336  1.00  0.00     0.060 A 
BRANCH 102 103
ATOM    103  S   UNL A   1      48.039  33.635  39.635  1.00  0.00     0.124 S 
ATOM    104  O   UNL A   1      47.783  32.845  40.836  1.00  0.00    -0.237 OA
ATOM    105  O   UNL A   1      49.444  33.836  39.296  1.00  0.00    -0.237 OA
ATOM    106  O   UNL A   1      47.185  34.807  39.461  1.00  0.00    -0.744 OA
ENDBRANCH 102 103
ENDBRANCH  70  95
ENDBRANCH  44  45
ENDBRANCH  37  39
ENDBRANCH  36  37
ENDBRANCH  35  36
ENDBRANCH  34  35
ENDBRANCH  33  34
ENDBRANCH  32  33
ENDBRANCH  31  32
ENDBRANCH  30  31
ENDBRANCH   1  30
TORSDOF 29
ENDMDL
MODEL 2
REMARK VINA RESULT:      -8.0      5.739      7.856
REMARK SMILES CCC[C@@H](C(=O)OCCOCCOCCOCCOC(=O)c1ccc(-c2c3nc(c(-c4c(F)cc(S(=O)(=O)[O-])cc4F)c4ccc([nH]4)c(-c4c(F)cc(S(=O)(=O)[O-])cc4F)c4nc(c(-c5c(F)cc(S(=O)(=O)[O-])cc5F)c5ccc2[nH]5)C=C4)C=C3)cc1)n1nc(/C=C/c2ccc(OC)cc2)ccc1=O
REMARK SMILES IDX 12 1 11 2 10 3 9 4 8 5 7 6 5 7 6 8 4 9 3 10 2 11 1 12 88 13
REMARK SMILES IDX 89 14 103 15 90 16 102 17 104 18 101 19 91 20 92 21 93 22
REMARK SMILES IDX 94 23 100 24 95 25 99 26 96 27 97 28 98 29 13 30 14 31 15 32
REMARK SMILES IDX 16 33 17 34 18 35 19 36 20 37 21 38 22 39 23 40 87 41 24 42
REMARK SMILES IDX 86 43 25 44 26 45 27 46 80 47 28 48 85 49 79 50 81 51 29 52
REMARK SMILES IDX 84 53 78 54 77 55 30 57 64 58 43 59 63 60 44 61 47 62 62 63
REMARK SMILES IDX 82 64 45 65 46 66 61 68 83 69 48 70 31 71 32 72 41 73 33 74
REMARK SMILES IDX 34 75 40 76 42 77 35 78 36 79 37 80 38 81 39 82 65 83 66 84
REMARK SMILES IDX 75 85 67 86 68 87 74 88 76 89 69 90 70 91 71 92 72 93 73 94
REMARK SMILES IDX 49 95 50 96 59 97 51 98 52 99 58 100 60 101 53 102 54 103
REMARK SMILES IDX 55 104 56 105 57 106
REMARK H PARENT 81 56 47 67
REMARK Flexibility Score: inf
ROOT
ATOM      1  C   UNL A   1      34.592  22.161  26.456  1.00  0.00     0.188 C 
ENDROOT
BRANCH   1   2
ATOM      2  C   UNL A   1      33.799  21.423  25.355  1.00  0.00     0.188 C 
BRANCH   2   3
ATOM      3  O   UNL A   1      32.482  21.047  25.724  1.00  0.00    -0.376 OA
BRANCH   3   4
ATOM      4  C   UNL A   1      31.444  21.932  25.336  1.00  0.00     0.202 C 
BRANCH   4   5
ATOM      5  C   UNL A   1      30.961  22.919  26.408  1.00  0.00     0.261 C 
BRANCH   5   6
ATOM      6  O   UNL A   1      31.289  24.305  26.201  1.00  0.00    -0.462 OA
BRANCH   6   7
ATOM      7  C   UNL A   1      30.301  25.167  25.869  1.00  0.00     0.331 C 
ATOM      8  O   UNL A   1      29.401  25.470  26.650  1.00  0.00    -0.250 OA
BRANCH   7   9
ATOM      9  C   UNL A   1      30.396  25.693  24.414  1.00  0.00     0.221 C 
BRANCH   9  10
ATOM     10  C   UNL A   1      31.424  25.160  23.387  1.00  0.00     0.039 C 
BRANCH  10  11
ATOM     11  C   UNL A   1      32.138  26.122  22.434  1.00  0.00    -0.001 C 
ATOM     12  C   UNL A   1      33.626  25.882  22.300  1.00  0.00     0.004 C 
ENDBRANCH  10  11
ENDBRANCH   9  10
BRANCH   9  13
ATOM     13  N   UNL A   1      30.428  27.188  24.499  1.00  0.00    -0.215 N 
ATOM     14  N   UNL A   1      31.313  27.705  25.425  1.00  0.00    -0.169 NA
ATOM     15  C   UNL A   1      29.663  28.002  23.673  1.00  0.00     0.267 A 
ATOM     16  C   UNL A   1      31.500  28.988  25.437  1.00  0.00     0.084 A 
ATOM     17  C   UNL A   1      29.983  29.437  23.660  1.00  0.00     0.075 A 
ATOM     18  O   UNL A   1      28.764  27.649  22.921  1.00  0.00    -0.268 OA
ATOM     19  C   UNL A   1      30.886  29.938  24.493  1.00  0.00     0.036 A 
BRANCH  16  20
ATOM     20  C   UNL A   1      32.444  29.542  26.435  1.00  0.00     0.031 C 
ATOM     21  C   UNL A   1      33.780  29.498  26.337  1.00  0.00     0.010 C 
BRANCH  21  22
ATOM     22  C   UNL A   1      34.663  29.979  27.398  1.00  0.00    -0.025 A 
ATOM     23  C   UNL A   1      34.398  31.209  28.006  1.00  0.00     0.012 A 
ATOM     24  C   UNL A   1      35.821  29.278  27.753  1.00  0.00     0.012 A 
ATOM     25  C   UNL A   1      35.269  31.713  28.974  1.00  0.00     0.047 A 
ATOM     26  C   UNL A   1      36.687  29.781  28.723  1.00  0.00     0.047 A 
ATOM     27  C   UNL A   1      36.413  31.000  29.339  1.00  0.00     0.118 A 
BRANCH  27  28
ATOM     28  O   UNL A   1      37.187  31.600  30.294  1.00  0.00    -0.497 OA
ATOM     29  C   UNL A   1      37.232  30.953  31.559  1.00  0.00     0.278 C 
ENDBRANCH  27  28
ENDBRANCH  21  22
ENDBRANCH  16  20
ENDBRANCH   9  13
ENDBRANCH   7   9
ENDBRANCH   6   7
ENDBRANCH   5   6
ENDBRANCH   4   5
ENDBRANCH   3   4
ENDBRANCH   2   3
ENDBRANCH   1   2
BRANCH   1  30
ATOM     30  O   UNL A   1      35.830  22.808  26.217  1.00  0.00    -0.377 OA
BRANCH  30  31
ATOM     31  C   UNL A   1      36.936  22.031  25.818  1.00  0.00     0.188 C 
BRANCH  31  32
ATOM     32  C   UNL A   1      38.318  22.708  25.831  1.00  0.00     0.188 C 
BRANCH  32  33
ATOM     33  O   UNL A   1      39.387  21.879  26.272  1.00  0.00    -0.376 OA
BRANCH  33  34
ATOM     34  C   UNL A   1      40.577  22.532  26.693  1.00  0.00     0.202 C 
BRANCH  34  35
ATOM     35  C   UNL A   1      40.440  23.988  27.163  1.00  0.00     0.261 C 
BRANCH  35  36
ATOM     36  O   UNL A   1      41.623  24.796  27.057  1.00  0.00    -0.460 OA
BRANCH  36  37
ATOM     37  C   UNL A   1      41.617  25.823  26.184  1.00  0.00     0.338 C 
ATOM     38  O   UNL A   1      41.153  25.842  25.058  1.00  0.00    -0.246 OA
BRANCH  37  39
ATOM     39  C   UNL A   1      42.108  27.004  26.922  1.00  0.00     0.060 A 
ATOM     40  C   UNL A   1      41.987  28.273  26.338  1.00  0.00     0.016 A 
ATOM     41  C   UNL A   1      42.605  26.860  28.219  1.00  0.00     0.016 A 
ATOM     42  C   UNL A   1      42.341  29.408  27.068  1.00  0.00     0.010 A 
ATOM     43  C   UNL A   1      42.999  27.994  28.929  1.00  0.00     0.010 A 
ATOM     44  C   UNL A   1      42.875  29.270  28.355  1.00  0.00    -0.014 A 
BRANCH  44  45
ATOM     45  C   UNL A   1      43.477  30.435  29.042  1.00  0.00     0.031 A 
ATOM     46  C   UNL A   1      42.601  31.230  29.968  1.00  0.00     0.074 A 
ATOM     47  C   UNL A   1      44.751  30.801  28.816  1.00  0.00     0.049 A 
ATOM     48  N   UNL A   1      42.855  32.350  30.587  1.00  0.00    -0.248 NA
ATOM     49  C   UNL A   1      41.254  30.688  30.225  1.00  0.00     0.031 C 
ATOM     50  C   UNL A   1      45.700  30.087  27.963  1.00  0.00     0.029 A 
ATOM     51  N   UNL A   1      45.457  31.889  29.267  1.00  0.00    -0.354 N 
ATOM     52  C   UNL A   1      41.697  32.659  31.290  1.00  0.00     0.074 A 
ATOM     53  C   UNL A   1      40.738  31.611  31.022  1.00  0.00     0.031 C 
ATOM     54  C   UNL A   1      46.854  30.778  27.922  1.00  0.00     0.029 A 
ATOM     55  C   UNL A   1      46.712  31.999  28.713  1.00  0.00     0.049 A 
ATOM     56  H   UNL A   1      45.101  32.529  29.924  1.00  0.00     0.167 HD
ATOM     57  C   UNL A   1      41.457  33.729  32.082  1.00  0.00     0.037 A 
ATOM     58  C   UNL A   1      47.617  32.996  28.800  1.00  0.00     0.037 A 
ATOM     59  C   UNL A   1      42.418  34.764  32.344  1.00  0.00     0.049 A 
ATOM     60  C   UNL A   1      47.296  34.211  29.637  1.00  0.00     0.074 A 
ATOM     61  C   UNL A   1      42.290  35.860  33.180  1.00  0.00     0.029 A 
ATOM     62  N   UNL A   1      43.672  34.848  31.760  1.00  0.00    -0.354 N 
ATOM     63  N   UNL A   1      46.225  34.461  30.354  1.00  0.00    -0.248 NA
ATOM     64  C   UNL A   1      48.301  35.285  29.673  1.00  0.00     0.031 C 
ATOM     65  C   UNL A   1      43.443  36.639  33.052  1.00  0.00     0.029 A 
ATOM     66  C   UNL A   1      44.312  36.001  32.182  1.00  0.00     0.049 A 
ATOM     67  H   UNL A   1      44.052  34.185  31.138  1.00  0.00     0.167 HD
ATOM     68  C   UNL A   1      46.436  35.707  30.936  1.00  0.00     0.074 A 
ATOM     69  C   UNL A   1      47.743  36.154  30.506  1.00  0.00     0.031 C 
ATOM     70  C   UNL A   1      45.620  36.423  31.749  1.00  0.00     0.037 A 
BRANCH  57  71
ATOM     71  C   UNL A   1      40.095  33.860  32.697  1.00  0.00     0.058 A 
ATOM     72  C   UNL A   1      39.016  34.421  31.998  1.00  0.00     0.135 A 
ATOM     73  C   UNL A   1      39.852  33.340  33.978  1.00  0.00     0.135 A 
ATOM     74  F   UNL A   1      39.202  34.955  30.780  1.00  0.00    -0.206 F 
ATOM     75  C   UNL A   1      37.739  34.458  32.547  1.00  0.00     0.059 A 
ATOM     76  C   UNL A   1      38.579  33.344  34.537  1.00  0.00     0.059 A 
ATOM     77  F   UNL A   1      40.855  32.804  34.692  1.00  0.00    -0.206 F 
ATOM     78  C   UNL A   1      37.529  33.907  33.814  1.00  0.00     0.060 A 
BRANCH  78  79
ATOM     79  S   UNL A   1      35.853  33.908  34.485  1.00  0.00     0.124 S 
ATOM     80  O   UNL A   1      36.107  33.659  35.902  1.00  0.00    -0.237 OA
ATOM     81  O   UNL A   1      35.385  35.249  34.152  1.00  0.00    -0.237 OA
ATOM     82  O   UNL A   1      35.197  32.821  33.766  1.00  0.00    -0.744 OA
ENDBRANCH  78  79
ENDBRANCH  57  71
BRANCH  58  83
ATOM     83  C   UNL A   1      48.890  32.931  28.028  1.00  0.00     0.058 A 
ATOM     84  C   UNL A   1      48.972  33.412  26.711  1.00  0.00     0.135 A 
ATOM     85  C   UNL A   1      50.039  32.339  28.574  1.00  0.00     0.135 A 
ATOM     86  F   UNL A   1      47.898  33.974  26.135  1.00  0.00    -0.206 F 
ATOM     87  C   UNL A   1      50.134  33.281  25.957  1.00  0.00     0.059 A 
ATOM     88  C   UNL A   1      51.222  32.222  27.851  1.00  0.00     0.059 A 
ATOM     89  F   UNL A   1      50.020  31.867  29.832  1.00  0.00    -0.206 F 
ATOM     90  C   UNL A   1      51.254  32.681  26.536  1.00  0.00     0.060 A 
BRANCH  90  91
ATOM     91  S   UNL A   1      52.762  32.526  25.554  1.00  0.00     0.124 S 
ATOM     92  O   UNL A   1      52.946  31.080  25.525  1.00  0.00    -0.237 OA
ATOM     93  O   UNL A   1      52.372  33.146  24.291  1.00  0.00    -0.237 OA
ATOM     94  O   UNL A   1      53.746  33.273  26.332  1.00  0.00    -0.744 OA
ENDBRANCH  90  91
ENDBRANCH  58  83
BRANCH  70  95
ATOM     95  C   UNL A   1      46.115  37.752  32.252  1.00  0.00     0.058 A 
ATOM     96  C   UNL A   1      45.819  38.947  31.578  1.00  0.00     0.135 A 
ATOM     97  C   UNL A   1      46.815  37.839  33.466  1.00  0.00     0.135 A 
ATOM     98  F   UNL A   1      45.158  38.919  30.410  1.00  0.00    -0.206 F 
ATOM     99  C   UNL A   1      46.208  40.182  32.088  1.00  0.00     0.059 A 
ATOM    100  C   UNL A   1      47.189  39.064  34.008  1.00  0.00     0.059 A 
ATOM    101  F   UNL A   1      47.113  36.725  34.155  1.00  0.00    -0.206 F 
ATOM    102  C   UNL A   1      46.885  40.231  33.308  1.00  0.00     0.060 A 
BRANCH 102 103
ATOM    103  S   UNL A   1      47.330  41.843  33.986  1.00  0.00     0.124 S 
ATOM    104  O   UNL A   1      47.279  42.687  32.797  1.00  0.00    -0.237 OA
ATOM    105  O   UNL A   1      46.276  42.070  34.970  1.00  0.00    -0.237 OA
ATOM    106  O   UNL A   1      48.662  41.623  34.543  1.00  0.00    -0.744 OA
ENDBRANCH 102 103
ENDBRANCH  70  95
ENDBRANCH  44  45
ENDBRANCH  37  39
ENDBRANCH  36  37
ENDBRANCH  35  36
ENDBRANCH  34  35
ENDBRANCH  33  34
ENDBRANCH  32  33
ENDBRANCH  31  32
ENDBRANCH  30  31
ENDBRANCH   1  30
TORSDOF 29
ENDMDL
MODEL 3
REMARK VINA RESULT:      -7.4      5.505     10.845
REMARK SMILES CCC[C@@H](C(=O)OCCOCCOCCOCCOC(=O)c1ccc(-c2c3nc(c(-c4c(F)cc(S(=O)(=O)[O-])cc4F)c4ccc([nH]4)c(-c4c(F)cc(S(=O)(=O)[O-])cc4F)c4nc(c(-c5c(F)cc(S(=O)(=O)[O-])cc5F)c5ccc2[nH]5)C=C4)C=C3)cc1)n1nc(/C=C/c2ccc(OC)cc2)ccc1=O
REMARK SMILES IDX 12 1 11 2 10 3 9 4 8 5 7 6 5 7 6 8 4 9 3 10 2 11 1 12 88 13
REMARK SMILES IDX 89 14 103 15 90 16 102 17 104 18 101 19 91 20 92 21 93 22
REMARK SMILES IDX 94 23 100 24 95 25 99 26 96 27 97 28 98 29 13 30 14 31 15 32
REMARK SMILES IDX 16 33 17 34 18 35 19 36 20 37 21 38 22 39 23 40 87 41 24 42
REMARK SMILES IDX 86 43 25 44 26 45 27 46 80 47 28 48 85 49 79 50 81 51 29 52
REMARK SMILES IDX 84 53 78 54 77 55 30 57 64 58 43 59 63 60 44 61 47 62 62 63
REMARK SMILES IDX 82 64 45 65 46 66 61 68 83 69 48 70 31 71 32 72 41 73 33 74
REMARK SMILES IDX 34 75 40 76 42 77 35 78 36 79 37 80 38 81 39 82 65 83 66 84
REMARK SMILES IDX 75 85 67 86 68 87 74 88 76 89 69 90 70 91 71 92 72 93 73 94
REMARK SMILES IDX 49 95 50 96 59 97 51 98 52 99 58 100 60 101 53 102 54 103
REMARK SMILES IDX 55 104 56 105 57 106
REMARK H PARENT 81 56 47 67
REMARK Flexibility Score: inf
ROOT
ATOM      1  C   UNL A   1      51.577  26.157  24.981  1.00  0.00     0.188 C 
ENDROOT
BRANCH   1   2
ATOM      2  C   UNL A   1      52.097  27.312  25.863  1.00  0.00     0.188 C 
BRANCH   2   3
ATOM      3  O   UNL A   1      51.309  27.584  27.010  1.00  0.00    -0.376 OA
BRANCH   3   4
ATOM      4  C   UNL A   1      50.701  28.864  27.066  1.00  0.00     0.202 C 
BRANCH   4   5
ATOM      5  C   UNL A   1      50.723  29.565  28.431  1.00  0.00     0.261 C 
BRANCH   5   6
ATOM      6  O   UNL A   1      51.177  28.780  29.550  1.00  0.00    -0.462 OA
BRANCH   6   7
ATOM      7  C   UNL A   1      50.270  28.079  30.267  1.00  0.00     0.331 C 
ATOM      8  O   UNL A   1      50.533  26.994  30.781  1.00  0.00    -0.250 OA
BRANCH   7   9
ATOM      9  C   UNL A   1      48.878  28.756  30.340  1.00  0.00     0.221 C 
BRANCH   9  10
ATOM     10  C   UNL A   1      48.460  29.714  31.482  1.00  0.00     0.039 C 
BRANCH  10  11
ATOM     11  C   UNL A   1      49.321  29.838  32.742  1.00  0.00    -0.001 C 
ATOM     12  C   UNL A   1      49.351  28.596  33.606  1.00  0.00     0.004 C 
ENDBRANCH  10  11
ENDBRANCH   9  10
BRANCH   9  13
ATOM     13  N   UNL A   1      47.863  27.674  30.131  1.00  0.00    -0.215 N 
ATOM     14  N   UNL A   1      47.570  26.920  31.250  1.00  0.00    -0.169 NA
ATOM     15  C   UNL A   1      47.223  27.472  28.915  1.00  0.00     0.267 A 
ATOM     16  C   UNL A   1      46.591  26.073  31.174  1.00  0.00     0.084 A 
ATOM     17  C   UNL A   1      46.060  26.572  28.908  1.00  0.00     0.075 A 
ATOM     18  O   UNL A   1      47.501  27.992  27.842  1.00  0.00    -0.268 OA
ATOM     19  C   UNL A   1      45.720  25.896  29.999  1.00  0.00     0.036 A 
BRANCH  16  20
ATOM     20  C   UNL A   1      46.281  25.260  32.372  1.00  0.00     0.031 C 
ATOM     21  C   UNL A   1      46.543  25.622  33.636  1.00  0.00     0.010 C 
BRANCH  21  22
ATOM     22  C   UNL A   1      46.301  24.738  34.774  1.00  0.00    -0.025 A 
ATOM     23  C   UNL A   1      47.342  23.941  35.259  1.00  0.00     0.012 A 
ATOM     24  C   UNL A   1      45.023  24.603  35.330  1.00  0.00     0.012 A 
ATOM     25  C   UNL A   1      47.108  23.043  36.302  1.00  0.00     0.047 A 
ATOM     26  C   UNL A   1      44.793  23.709  36.374  1.00  0.00     0.047 A 
ATOM     27  C   UNL A   1      45.835  22.926  36.866  1.00  0.00     0.118 A 
BRANCH  27  28
ATOM     28  O   UNL A   1      45.733  22.010  37.876  1.00  0.00    -0.497 OA
ATOM     29  C   UNL A   1      46.207  20.702  37.585  1.00  0.00     0.278 C 
ENDBRANCH  27  28
ENDBRANCH  21  22
ENDBRANCH  16  20
ENDBRANCH   9  13
ENDBRANCH   7   9
ENDBRANCH   6   7
ENDBRANCH   5   6
ENDBRANCH   4   5
ENDBRANCH   3   4
ENDBRANCH   2   3
ENDBRANCH   1   2
BRANCH   1  30
ATOM     30  O   UNL A   1      50.209  25.990  24.650  1.00  0.00    -0.377 OA
BRANCH  30  31
ATOM     31  C   UNL A   1      49.526  27.052  24.025  1.00  0.00     0.188 C 
BRANCH  31  32
ATOM     32  C   UNL A   1      48.170  27.470  24.619  1.00  0.00     0.188 C 
BRANCH  32  33
ATOM     33  O   UNL A   1      47.064  26.677  24.203  1.00  0.00    -0.376 OA
BRANCH  33  34
ATOM     34  C   UNL A   1      46.465  25.841  25.185  1.00  0.00     0.202 C 
BRANCH  34  35
ATOM     35  C   UNL A   1      44.949  25.624  25.081  1.00  0.00     0.261 C 
BRANCH  35  36
ATOM     36  O   UNL A   1      44.187  25.938  26.257  1.00  0.00    -0.460 OA
BRANCH  36  37
ATOM     37  C   UNL A   1      42.889  26.268  26.106  1.00  0.00     0.338 C 
ATOM     38  O   UNL A   1      42.132  25.929  25.215  1.00  0.00    -0.246 OA
BRANCH  37  39
ATOM     39  C   UNL A   1      42.488  26.966  27.344  1.00  0.00     0.060 A 
ATOM     40  C   UNL A   1      42.977  28.258  27.589  1.00  0.00     0.016 A 
ATOM     41  C   UNL A   1      41.566  26.377  28.211  1.00  0.00     0.016 A 
ATOM     42  C   UNL A   1      42.520  28.975  28.694  1.00  0.00     0.010 A 
ATOM     43  C   UNL A   1      41.144  27.080  29.340  1.00  0.00     0.010 A 
ATOM     44  C   UNL A   1      41.624  28.377  29.590  1.00  0.00    -0.014 A 
BRANCH  44  45
ATOM     45  C   UNL A   1      41.320  29.025  30.885  1.00  0.00     0.031 A 
ATOM     46  C   UNL A   1      40.186  30.011  30.925  1.00  0.00     0.074 A 
ATOM     47  C   UNL A   1      42.055  28.777  31.983  1.00  0.00     0.049 A 
ATOM     48  N   UNL A   1      39.804  30.791  31.898  1.00  0.00    -0.248 NA
ATOM     49  C   UNL A   1      39.380  30.136  29.696  1.00  0.00     0.031 C 
ATOM     50  C   UNL A   1      43.156  27.818  32.067  1.00  0.00     0.029 A 
ATOM     51  N   UNL A   1      42.002  29.339  33.235  1.00  0.00    -0.354 N 
ATOM     52  C   UNL A   1      38.728  31.514  31.396  1.00  0.00     0.074 A 
ATOM     53  C   UNL A   1      38.517  31.082  30.034  1.00  0.00     0.031 C 
ATOM     54  C   UNL A   1      43.700  27.887  33.296  1.00  0.00     0.029 A 
ATOM     55  C   UNL A   1      43.012  28.919  34.070  1.00  0.00     0.049 A 
ATOM     56  H   UNL A   1      41.309  29.981  33.509  1.00  0.00     0.167 HD
ATOM     57  C   UNL A   1      37.990  32.459  32.021  1.00  0.00     0.037 A 
ATOM     58  C   UNL A   1      43.364  29.355  35.297  1.00  0.00     0.037 A 
ATOM     59  C   UNL A   1      38.207  32.881  33.377  1.00  0.00     0.049 A 
ATOM     60  C   UNL A   1      42.563  30.460  35.944  1.00  0.00     0.074 A 
ATOM     61  C   UNL A   1      37.473  33.791  34.118  1.00  0.00     0.029 A 
ATOM     62  N   UNL A   1      39.241  32.442  34.188  1.00  0.00    -0.354 N 
ATOM     63  N   UNL A   1      41.504  31.089  35.488  1.00  0.00    -0.248 NA
ATOM     64  C   UNL A   1      43.006  30.924  37.268  1.00  0.00     0.031 C 
ATOM     65  C   UNL A   1      38.103  33.948  35.356  1.00  0.00     0.029 A 
ATOM     66  C   UNL A   1      39.194  33.095  35.407  1.00  0.00     0.049 A 
ATOM     67  H   UNL A   1      39.910  31.764  33.934  1.00  0.00     0.167 HD
ATOM     68  C   UNL A   1      41.148  32.004  36.474  1.00  0.00     0.074 A 
ATOM     69  C   UNL A   1      42.090  31.837  37.560  1.00  0.00     0.031 C 
ATOM     70  C   UNL A   1      40.136  32.907  36.480  1.00  0.00     0.037 A 
BRANCH  57  71
ATOM     71  C   UNL A   1      36.900  33.133  31.239  1.00  0.00     0.058 A 
ATOM     72  C   UNL A   1      37.179  33.978  30.155  1.00  0.00     0.135 A 
ATOM     73  C   UNL A   1      35.555  32.860  31.534  1.00  0.00     0.135 A 
ATOM     74  F   UNL A   1      38.448  34.290  29.848  1.00  0.00    -0.206 F 
ATOM     75  C   UNL A   1      36.159  34.527  29.385  1.00  0.00     0.059 A 
ATOM     76  C   UNL A   1      34.520  33.379  30.764  1.00  0.00     0.059 A 
ATOM     77  F   UNL A   1      35.237  32.068  32.570  1.00  0.00    -0.206 F 
ATOM     78  C   UNL A   1      34.833  34.213  29.692  1.00  0.00     0.060 A 
BRANCH  78  79
ATOM     79  S   UNL A   1      33.525  34.885  28.645  1.00  0.00     0.124 S 
ATOM     80  O   UNL A   1      32.456  35.099  29.616  1.00  0.00    -0.237 OA
ATOM     81  O   UNL A   1      34.145  36.092  28.109  1.00  0.00    -0.237 OA
ATOM     82  O   UNL A   1      33.285  33.822  27.674  1.00  0.00    -0.744 OA
ENDBRANCH  78  79
ENDBRANCH  57  71
BRANCH  58  83
ATOM     83  C   UNL A   1      44.567  28.802  35.980  1.00  0.00     0.058 A 
ATOM     84  C   UNL A   1      45.856  29.273  35.687  1.00  0.00     0.135 A 
ATOM     85  C   UNL A   1      44.456  27.752  36.906  1.00  0.00     0.135 A 
ATOM     86  F   UNL A   1      46.021  30.265  34.797  1.00  0.00    -0.206 F 
ATOM     87  C   UNL A   1      46.990  28.705  36.261  1.00  0.00     0.059 A 
ATOM     88  C   UNL A   1      45.571  27.187  37.515  1.00  0.00     0.059 A 
ATOM     89  F   UNL A   1      43.246  27.265  37.228  1.00  0.00    -0.206 F 
ATOM     90  C   UNL A   1      46.837  27.659  37.173  1.00  0.00     0.060 A 
BRANCH  90  91
ATOM     91  S   UNL A   1      48.313  26.936  37.922  1.00  0.00     0.124 S 
ATOM     92  O   UNL A   1      49.199  26.819  36.771  1.00  0.00    -0.237 OA
ATOM     93  O   UNL A   1      48.680  27.943  38.912  1.00  0.00    -0.237 OA
ATOM     94  O   UNL A   1      47.823  25.676  38.474  1.00  0.00    -0.744 OA
ENDBRANCH  90  91
ENDBRANCH  58  83
BRANCH  70  95
ATOM     95  C   UNL A   1      39.972  33.772  37.700  1.00  0.00     0.058 A 
ATOM     96  C   UNL A   1      39.231  33.341  38.811  1.00  0.00     0.135 A 
ATOM     97  C   UNL A   1      40.637  35.006  37.793  1.00  0.00     0.135 A 
ATOM     98  F   UNL A   1      38.571  32.172  38.772  1.00  0.00    -0.206 F 
ATOM     99  C   UNL A   1      39.148  34.108  39.969  1.00  0.00     0.059 A 
ATOM    100  C   UNL A   1      40.590  35.775  38.951  1.00  0.00     0.059 A 
ATOM    101  F   UNL A   1      41.368  35.459  36.762  1.00  0.00    -0.206 F 
ATOM    102  C   UNL A   1      39.839  35.320  40.033  1.00  0.00     0.060 A 
BRANCH 102 103
ATOM    103  S   UNL A   1      39.771  36.273  41.564  1.00  0.00     0.124 S 
ATOM    104  O   UNL A   1      39.924  37.638  41.068  1.00  0.00    -0.237 OA
ATOM    105  O   UNL A   1      38.452  35.933  42.086  1.00  0.00    -0.237 OA
ATOM    106  O   UNL A   1      40.897  35.757  42.337  1.00  0.00    -0.744 OA
ENDBRANCH 102 103
ENDBRANCH  70  95
ENDBRANCH  44  45
ENDBRANCH  37  39
ENDBRANCH  36  37
ENDBRANCH  35  36
ENDBRANCH  34  35
ENDBRANCH  33  34
ENDBRANCH  32  33
ENDBRANCH  31  32
ENDBRANCH  30  31
ENDBRANCH   1  30
TORSDOF 29
ENDMDL
