MODEL 1
REMARK VINA RESULT:      -9.6      0.000      0.000
REMARK SMILES O=C(OCCOCCOCCOCCOC(=O)[C@@H]1C[C@@H](O)CN1C(=O)CSc1ccc(F)cc1F)c1ccc(-c2c3nc(c(-c4c(F)cc(S(=O)(=O)[O-])cc4F)c4ccc([nH]4)c(-c4c(F)cc(S(=O)(=O)[O-])cc4F)c4nc(c(-c5c(F)cc(S(=O)(=O)[O-])cc5F)c5ccc2[nH]5)C=C4)C=C3)cc1
REMARK SMILES IDX 10 1 9 2 8 3 7 4 6 5 5 6 4 7 3 8 2 9 1 10 36 11 37 12 101 13
REMARK SMILES IDX 38 14 100 15 39 16 40 17 41 18 94 19 42 20 99 21 93 22 95 23
REMARK SMILES IDX 43 24 98 25 92 26 91 27 44 29 78 30 57 31 77 32 58 33 61 34
REMARK SMILES IDX 76 35 96 36 59 37 60 38 75 40 97 41 62 42 45 43 46 44 55 45
REMARK SMILES IDX 47 46 48 47 54 48 56 49 49 50 50 51 51 52 52 53 53 54 79 55
REMARK SMILES IDX 80 56 89 57 81 58 82 59 88 60 90 61 83 62 84 63 85 64 86 65
REMARK SMILES IDX 87 66 63 67 64 68 73 69 65 70 66 71 72 72 74 73 67 74 68 75
REMARK SMILES IDX 69 76 70 77 71 78 11 79 12 80 13 81 14 82 15 83 16 84 17 85
REMARK SMILES IDX 18 86 19 87 23 88 20 89 22 90 24 91 25 92 26 93 27 94 28 95
REMARK SMILES IDX 29 96 34 97 30 98 33 99 35 100 31 101 32 102 21 103
REMARK H PARENT 95 28 61 39 21 104
REMARK Flexibility Score: inf
ROOT
ATOM      1  C   UNL A   1      34.048  22.020  27.523  1.00  0.00     0.188 C 
ENDROOT
BRANCH   1   2
ATOM      2  O   UNL A   1      34.628  22.250  26.253  1.00  0.00    -0.377 OA
BRANCH   2   3
ATOM      3  C   UNL A   1      36.054  22.356  26.262  1.00  0.00     0.188 C 
BRANCH   3   4
ATOM      4  C   UNL A   1      36.830  21.567  25.191  1.00  0.00     0.188 C 
BRANCH   4   5
ATOM      5  O   UNL A   1      38.257  21.679  25.220  1.00  0.00    -0.376 OA
BRANCH   5   6
ATOM      6  C   UNL A   1      38.865  22.505  26.214  1.00  0.00     0.202 C 
BRANCH   6   7
ATOM      7  C   UNL A   1      40.343  22.277  26.554  1.00  0.00     0.261 C 
BRANCH   7   8
ATOM      8  O   UNL A   1      41.023  23.344  27.235  1.00  0.00    -0.460 OA
BRANCH   8   9
ATOM      9  C   UNL A   1      41.219  24.644  26.909  1.00  0.00     0.338 C 
ATOM     10  O   UNL A   1      41.571  24.898  25.757  1.00  0.00    -0.246 OA
BRANCH   9  11
ATOM     11  C   UNL A   1      41.089  25.783  27.867  1.00  0.00     0.060 A 
ATOM     12  C   UNL A   1      42.012  26.811  27.996  1.00  0.00     0.016 A 
ATOM     13  C   UNL A   1      39.936  25.841  28.677  1.00  0.00     0.016 A 
ATOM     14  C   UNL A   1      41.810  27.876  28.844  1.00  0.00     0.010 A 
ATOM     15  C   UNL A   1      39.746  26.885  29.594  1.00  0.00     0.010 A 
ATOM     16  C   UNL A   1      40.699  27.899  29.675  1.00  0.00    -0.014 A 
BRANCH  16  17
ATOM     17  C   UNL A   1      40.778  28.899  30.748  1.00  0.00     0.031 A 
ATOM     18  C   UNL A   1      39.686  29.929  30.790  1.00  0.00     0.074 A 
ATOM     19  C   UNL A   1      41.572  28.654  31.807  1.00  0.00     0.049 A 
ATOM     20  N   UNL A   1      39.429  30.824  31.701  1.00  0.00    -0.248 NA
ATOM     21  C   UNL A   1      38.715  29.906  29.678  1.00  0.00     0.031 C 
ATOM     22  C   UNL A   1      42.472  27.502  31.928  1.00  0.00     0.029 A 
ATOM     23  N   UNL A   1      41.673  29.286  33.016  1.00  0.00    -0.354 N 
ATOM     24  C   UNL A   1      38.296  31.491  31.257  1.00  0.00     0.074 A 
ATOM     25  C   UNL A   1      37.880  30.876  30.020  1.00  0.00     0.031 C 
ATOM     26  C   UNL A   1      42.983  27.477  33.169  1.00  0.00     0.029 A 
ATOM     27  C   UNL A   1      42.510  28.647  33.903  1.00  0.00     0.049 A 
ATOM     28  H   UNL A   1      41.192  30.118  33.231  1.00  0.00     0.167 HD
ATOM     29  C   UNL A   1      37.686  32.551  31.827  1.00  0.00     0.037 A 
ATOM     30  C   UNL A   1      42.857  28.995  35.157  1.00  0.00     0.037 A 
ATOM     31  C   UNL A   1      38.145  33.140  33.054  1.00  0.00     0.049 A 
ATOM     32  C   UNL A   1      42.256  30.267  35.708  1.00  0.00     0.074 A 
ATOM     33  C   UNL A   1      37.728  34.307  33.661  1.00  0.00     0.029 A 
ATOM     34  N   UNL A   1      39.134  32.591  33.860  1.00  0.00    -0.354 N 
ATOM     35  N   UNL A   1      41.287  31.005  35.212  1.00  0.00    -0.248 NA
ATOM     36  C   UNL A   1      42.821  30.781  36.961  1.00  0.00     0.031 C 
ATOM     37  C   UNL A   1      38.506  34.494  34.808  1.00  0.00     0.029 A 
ATOM     38  C   UNL A   1      39.361  33.410  34.949  1.00  0.00     0.049 A 
ATOM     39  H   UNL A   1      39.602  31.744  33.682  1.00  0.00     0.167 HD
ATOM     40  C   UNL A   1      41.133  32.073  36.088  1.00  0.00     0.074 A 
ATOM     41  C   UNL A   1      42.075  31.857  37.169  1.00  0.00     0.031 C 
ATOM     42  C   UNL A   1      40.312  33.151  36.001  1.00  0.00     0.037 A 
BRANCH  29  43
ATOM     43  C   UNL A   1      36.571  33.203  31.068  1.00  0.00     0.058 A 
ATOM     44  C   UNL A   1      36.872  34.027  29.971  1.00  0.00     0.135 A 
ATOM     45  C   UNL A   1      35.222  33.028  31.407  1.00  0.00     0.135 A 
ATOM     46  F   UNL A   1      38.147  34.200  29.587  1.00  0.00    -0.206 F 
ATOM     47  C   UNL A   1      35.878  34.681  29.253  1.00  0.00     0.059 A 
ATOM     48  C   UNL A   1      34.208  33.657  30.688  1.00  0.00     0.059 A 
ATOM     49  F   UNL A   1      34.876  32.211  32.415  1.00  0.00    -0.206 F 
ATOM     50  C   UNL A   1      34.548  34.490  29.619  1.00  0.00     0.060 A 
BRANCH  50  51
ATOM     51  S   UNL A   1      33.224  35.326  28.721  1.00  0.00     0.124 S 
ATOM     52  O   UNL A   1      33.980  36.220  27.848  1.00  0.00    -0.237 OA
ATOM     53  O   UNL A   1      32.552  34.213  28.059  1.00  0.00    -0.237 OA
ATOM     54  O   UNL A   1      32.458  35.984  29.774  1.00  0.00    -0.744 OA
ENDBRANCH  50  51
ENDBRANCH  29  43
BRANCH  30  55
ATOM     55  C   UNL A   1      43.869  28.218  35.932  1.00  0.00     0.058 A 
ATOM     56  C   UNL A   1      45.246  28.477  35.793  1.00  0.00     0.135 A 
ATOM     57  C   UNL A   1      43.494  27.250  36.878  1.00  0.00     0.135 A 
ATOM     58  F   UNL A   1      45.676  29.392  34.910  1.00  0.00    -0.206 F 
ATOM     59  C   UNL A   1      46.204  27.813  36.550  1.00  0.00     0.059 A 
ATOM     60  C   UNL A   1      44.433  26.600  37.677  1.00  0.00     0.059 A 
ATOM     61  F   UNL A   1      42.196  26.965  37.065  1.00  0.00    -0.206 F 
ATOM     62  C   UNL A   1      45.788  26.893  37.508  1.00  0.00     0.060 A 
BRANCH  62  63
ATOM     63  S   UNL A   1      47.001  26.069  38.565  1.00  0.00     0.124 S 
ATOM     64  O   UNL A   1      47.020  26.949  39.728  1.00  0.00    -0.237 OA
ATOM     65  O   UNL A   1      46.393  24.759  38.764  1.00  0.00    -0.237 OA
ATOM     66  O   UNL A   1      48.214  26.074  37.751  1.00  0.00    -0.744 OA
ENDBRANCH  62  63
ENDBRANCH  30  55
BRANCH  42  67
ATOM     67  C   UNL A   1      40.402  34.170  37.099  1.00  0.00     0.058 A 
ATOM     68  C   UNL A   1      39.578  34.070  38.231  1.00  0.00     0.135 A 
ATOM     69  C   UNL A   1      41.240  35.289  36.988  1.00  0.00     0.135 A 
ATOM     70  F   UNL A   1      38.745  33.027  38.373  1.00  0.00    -0.206 F 
ATOM     71  C   UNL A   1      39.576  35.050  39.216  1.00  0.00     0.059 A 
ATOM     72  C   UNL A   1      41.280  36.263  37.977  1.00  0.00     0.059 A 
ATOM     73  F   UNL A   1      42.045  35.429  35.922  1.00  0.00    -0.206 F 
ATOM     74  C   UNL A   1      40.439  36.137  39.085  1.00  0.00     0.060 A 
BRANCH  74  75
ATOM     75  S   UNL A   1      40.479  37.428  40.343  1.00  0.00     0.124 S 
ATOM     76  O   UNL A   1      40.806  36.661  41.540  1.00  0.00    -0.237 OA
ATOM     77  O   UNL A   1      41.530  38.311  39.848  1.00  0.00    -0.237 OA
ATOM     78  O   UNL A   1      39.129  37.984  40.304  1.00  0.00    -0.744 OA
ENDBRANCH  74  75
ENDBRANCH  42  67
ENDBRANCH  16  17
ENDBRANCH   9  11
ENDBRANCH   8   9
ENDBRANCH   7   8
ENDBRANCH   6   7
ENDBRANCH   5   6
ENDBRANCH   4   5
ENDBRANCH   3   4
ENDBRANCH   2   3
ENDBRANCH   1   2
BRANCH   1  79
ATOM     79  C   UNL A   1      32.662  22.633  27.796  1.00  0.00     0.188 C 
BRANCH  79  80
ATOM     80  O   UNL A   1      31.715  22.510  26.749  1.00  0.00    -0.376 OA
BRANCH  80  81
ATOM     81  C   UNL A   1      30.814  23.599  26.533  1.00  0.00     0.202 C 
BRANCH  81  82
ATOM     82  C   UNL A   1      31.409  25.014  26.618  1.00  0.00     0.261 C 
BRANCH  82  83
ATOM     83  O   UNL A   1      31.934  25.449  25.346  1.00  0.00    -0.462 OA
BRANCH  83  84
ATOM     84  C   UNL A   1      33.274  25.671  25.275  1.00  0.00     0.329 C 
ATOM     85  O   UNL A   1      34.048  25.398  26.190  1.00  0.00    -0.250 OA
BRANCH  84  86
ATOM     86  C   UNL A   1      33.710  26.189  23.869  1.00  0.00     0.197 C 
ATOM     87  C   UNL A   1      32.996  27.496  23.471  1.00  0.00     0.070 C 
ATOM     88  N   UNL A   1      33.528  25.293  22.691  1.00  0.00    -0.325 N 
ATOM     89  C   UNL A   1      32.942  27.477  21.949  1.00  0.00     0.136 C 
ATOM     90  C   UNL A   1      32.944  26.003  21.558  1.00  0.00     0.152 C 
BRANCH  88  91
ATOM     91  C   UNL A   1      34.001  23.993  22.684  1.00  0.00     0.233 C 
ATOM     92  O   UNL A   1      35.166  23.762  23.013  1.00  0.00    -0.274 OA
BRANCH  91  93
ATOM     93  C   UNL A   1      33.158  22.831  22.162  1.00  0.00     0.175 C 
BRANCH  93  94
ATOM     94  S   UNL A   1      31.868  22.191  23.267  1.00  0.00    -0.113 SA
BRANCH  94  95
ATOM     95  C   UNL A   1      32.338  20.480  23.465  1.00  0.00     0.044 A 
ATOM     96  C   UNL A   1      32.620  19.977  24.737  1.00  0.00     0.021 A 
ATOM     97  C   UNL A   1      32.267  19.580  22.389  1.00  0.00     0.139 A 
ATOM     98  C   UNL A   1      32.759  18.603  24.941  1.00  0.00     0.040 A 
ATOM     99  C   UNL A   1      32.441  18.213  22.576  1.00  0.00     0.079 A 
ATOM    100  F   UNL A   1      32.001  20.023  21.150  1.00  0.00    -0.206 F 
ATOM    101  C   UNL A   1      32.666  17.739  23.858  1.00  0.00     0.126 A 
ATOM    102  F   UNL A   1      32.764  16.422  24.058  1.00  0.00    -0.207 F 
ENDBRANCH  94  95
ENDBRANCH  93  94
ENDBRANCH  91  93
ENDBRANCH  88  91
BRANCH  89 103
ATOM    103  O   UNL A   1      34.085  28.145  21.425  1.00  0.00    -0.391 OA
ATOM    104  H   UNL A   1      33.871  29.078  21.270  1.00  0.00     0.211 HD
ENDBRANCH  89 103
ENDBRANCH  84  86
ENDBRANCH  83  84
ENDBRANCH  82  83
ENDBRANCH  81  82
ENDBRANCH  80  81
ENDBRANCH  79  80
ENDBRANCH   1  79
TORSDOF 28
ENDMDL
MODEL 2
REMARK VINA RESULT:      -9.5      2.309      4.201
REMARK SMILES O=C(OCCOCCOCCOCCOC(=O)[C@@H]1C[C@@H](O)CN1C(=O)CSc1ccc(F)cc1F)c1ccc(-c2c3nc(c(-c4c(F)cc(S(=O)(=O)[O-])cc4F)c4ccc([nH]4)c(-c4c(F)cc(S(=O)(=O)[O-])cc4F)c4nc(c(-c5c(F)cc(S(=O)(=O)[O-])cc5F)c5ccc2[nH]5)C=C4)C=C3)cc1
REMARK SMILES IDX 10 1 9 2 8 3 7 4 6 5 5 6 4 7 3 8 2 9 1 10 36 11 37 12 101 13
REMARK SMILES IDX 38 14 100 15 39 16 40 17 41 18 94 19 42 20 99 21 93 22 95 23
REMARK SMILES IDX 43 24 98 25 92 26 91 27 44 29 78 30 57 31 77 32 58 33 61 34
REMARK SMILES IDX 76 35 96 36 59 37 60 38 75 40 97 41 62 42 45 43 46 44 55 45
REMARK SMILES IDX 47 46 48 47 54 48 56 49 49 50 50 51 51 52 52 53 53 54 79 55
REMARK SMILES IDX 80 56 89 57 81 58 82 59 88 60 90 61 83 62 84 63 85 64 86 65
REMARK SMILES IDX 87 66 63 67 64 68 73 69 65 70 66 71 72 72 74 73 67 74 68 75
REMARK SMILES IDX 69 76 70 77 71 78 11 79 12 80 13 81 14 82 15 83 16 84 17 85
REMARK SMILES IDX 18 86 19 87 23 88 20 89 22 90 24 91 25 92 26 93 27 94 28 95
REMARK SMILES IDX 29 96 34 97 30 98 33 99 35 100 31 101 32 102 21 103
REMARK H PARENT 95 28 61 39 21 104
REMARK Flexibility Score: inf
ROOT
ATOM      1  C   UNL A   1      37.766  21.912  25.043  1.00  0.00     0.188 C 
ENDROOT
BRANCH   1   2
ATOM      2  O   UNL A   1      38.319  21.034  26.005  1.00  0.00    -0.377 OA
BRANCH   2   3
ATOM      3  C   UNL A   1      39.119  19.983  25.458  1.00  0.00     0.188 C 
BRANCH   3   4
ATOM      4  C   UNL A   1      40.464  19.683  26.148  1.00  0.00     0.188 C 
BRANCH   4   5
ATOM      5  O   UNL A   1      40.684  20.303  27.419  1.00  0.00    -0.376 OA
BRANCH   5   6
ATOM      6  C   UNL A   1      41.457  21.503  27.479  1.00  0.00     0.202 C 
BRANCH   6   7
ATOM      7  C   UNL A   1      40.734  22.829  27.745  1.00  0.00     0.261 C 
BRANCH   7   8
ATOM      8  O   UNL A   1      40.674  23.763  26.654  1.00  0.00    -0.460 OA
BRANCH   8   9
ATOM      9  C   UNL A   1      41.168  25.016  26.510  1.00  0.00     0.338 C 
ATOM     10  O   UNL A   1      41.806  25.265  25.486  1.00  0.00    -0.246 OA
BRANCH   9  11
ATOM     11  C   UNL A   1      41.038  26.098  27.533  1.00  0.00     0.060 A 
ATOM     12  C   UNL A   1      41.858  27.215  27.603  1.00  0.00     0.016 A 
ATOM     13  C   UNL A   1      39.993  25.999  28.473  1.00  0.00     0.016 A 
ATOM     14  C   UNL A   1      41.651  28.220  28.521  1.00  0.00     0.010 A 
ATOM     15  C   UNL A   1      39.807  26.982  29.457  1.00  0.00     0.010 A 
ATOM     16  C   UNL A   1      40.653  28.090  29.477  1.00  0.00    -0.014 A 
BRANCH  16  17
ATOM     17  C   UNL A   1      40.758  29.053  30.582  1.00  0.00     0.031 A 
ATOM     18  C   UNL A   1      39.680  30.094  30.672  1.00  0.00     0.074 A 
ATOM     19  C   UNL A   1      41.560  28.761  31.622  1.00  0.00     0.049 A 
ATOM     20  N   UNL A   1      39.445  30.961  31.615  1.00  0.00    -0.248 NA
ATOM     21  C   UNL A   1      38.695  30.121  29.571  1.00  0.00     0.031 C 
ATOM     22  C   UNL A   1      42.446  27.594  31.693  1.00  0.00     0.029 A 
ATOM     23  N   UNL A   1      41.684  29.351  32.850  1.00  0.00    -0.354 N 
ATOM     24  C   UNL A   1      38.316  31.656  31.207  1.00  0.00     0.074 A 
ATOM     25  C   UNL A   1      37.877  31.089  29.956  1.00  0.00     0.031 C 
ATOM     26  C   UNL A   1      42.972  27.521  32.927  1.00  0.00     0.029 A 
ATOM     27  C   UNL A   1      42.523  28.672  33.705  1.00  0.00     0.049 A 
ATOM     28  H   UNL A   1      41.216  30.181  33.100  1.00  0.00     0.167 HD
ATOM     29  C   UNL A   1      37.726  32.704  31.820  1.00  0.00     0.037 A 
ATOM     30  C   UNL A   1      42.889  28.973  34.966  1.00  0.00     0.037 A 
ATOM     31  C   UNL A   1      38.207  33.246  33.060  1.00  0.00     0.049 A 
ATOM     32  C   UNL A   1      42.311  30.233  35.567  1.00  0.00     0.074 A 
ATOM     33  C   UNL A   1      37.813  34.397  33.711  1.00  0.00     0.029 A 
ATOM     34  N   UNL A   1      39.198  32.657  33.836  1.00  0.00    -0.354 N 
ATOM     35  N   UNL A   1      41.346  30.999  35.107  1.00  0.00    -0.248 NA
ATOM     36  C   UNL A   1      42.897  30.698  36.829  1.00  0.00     0.031 C 
ATOM     37  C   UNL A   1      38.607  34.535  34.854  1.00  0.00     0.029 A 
ATOM     38  C   UNL A   1      39.449  33.436  34.948  1.00  0.00     0.049 A 
ATOM     39  H   UNL A   1      39.653  31.811  33.624  1.00  0.00     0.167 HD
ATOM     40  C   UNL A   1      41.216  32.040  36.021  1.00  0.00     0.074 A 
ATOM     41  C   UNL A   1      42.168  31.775  37.083  1.00  0.00     0.031 C 
ATOM     42  C   UNL A   1      40.408  33.130  35.980  1.00  0.00     0.037 A 
BRANCH  29  43
ATOM     43  C   UNL A   1      36.610  33.396  31.097  1.00  0.00     0.058 A 
ATOM     44  C   UNL A   1      35.302  33.305  31.599  1.00  0.00     0.135 A 
ATOM     45  C   UNL A   1      36.814  34.137  29.925  1.00  0.00     0.135 A 
ATOM     46  F   UNL A   1      35.060  32.634  32.735  1.00  0.00    -0.206 F 
ATOM     47  C   UNL A   1      34.227  33.900  30.949  1.00  0.00     0.059 A 
ATOM     48  C   UNL A   1      35.755  34.759  29.268  1.00  0.00     0.059 A 
ATOM     49  F   UNL A   1      38.053  34.297  29.431  1.00  0.00    -0.206 F 
ATOM     50  C   UNL A   1      34.463  34.625  29.783  1.00  0.00     0.060 A 
BRANCH  50  51
ATOM     51  S   UNL A   1      33.096  35.407  28.901  1.00  0.00     0.124 S 
ATOM     52  O   UNL A   1      33.794  36.422  28.117  1.00  0.00    -0.237 OA
ATOM     53  O   UNL A   1      32.542  34.290  28.143  1.00  0.00    -0.237 OA
ATOM     54  O   UNL A   1      32.247  35.920  29.971  1.00  0.00    -0.744 OA
ENDBRANCH  50  51
ENDBRANCH  29  43
BRANCH  30  55
ATOM     55  C   UNL A   1      43.900  28.157  35.702  1.00  0.00     0.058 A 
ATOM     56  C   UNL A   1      43.504  27.151  36.603  1.00  0.00     0.135 A 
ATOM     57  C   UNL A   1      45.277  28.307  35.477  1.00  0.00     0.135 A 
ATOM     58  F   UNL A   1      42.203  26.950  36.863  1.00  0.00    -0.206 F 
ATOM     59  C   UNL A   1      44.424  26.334  37.251  1.00  0.00     0.059 A 
ATOM     60  C   UNL A   1      46.217  27.474  36.083  1.00  0.00     0.059 A 
ATOM     61  F   UNL A   1      45.719  29.242  34.620  1.00  0.00    -0.206 F 
ATOM     62  C   UNL A   1      45.778  26.485  36.966  1.00  0.00     0.060 A 
BRANCH  62  63
ATOM     63  S   UNL A   1      46.995  25.389  37.729  1.00  0.00     0.124 S 
ATOM     64  O   UNL A   1      46.833  24.175  36.937  1.00  0.00    -0.237 OA
ATOM     65  O   UNL A   1      48.239  26.123  37.526  1.00  0.00    -0.237 OA
ATOM     66  O   UNL A   1      46.546  25.300  39.116  1.00  0.00    -0.744 OA
ENDBRANCH  62  63
ENDBRANCH  30  55
BRANCH  42  67
ATOM     67  C   UNL A   1      40.524  34.111  37.110  1.00  0.00     0.058 A 
ATOM     68  C   UNL A   1      41.491  35.128  37.072  1.00  0.00     0.135 A 
ATOM     69  C   UNL A   1      39.736  33.990  38.263  1.00  0.00     0.135 A 
ATOM     70  F   UNL A   1      42.282  35.271  35.997  1.00  0.00    -0.206 F 
ATOM     71  C   UNL A   1      41.680  35.990  38.145  1.00  0.00     0.059 A 
ATOM     72  C   UNL A   1      39.884  34.862  39.334  1.00  0.00     0.059 A 
ATOM     73  F   UNL A   1      38.799  33.031  38.346  1.00  0.00    -0.206 F 
ATOM     74  C   UNL A   1      40.863  35.855  39.267  1.00  0.00     0.060 A 
BRANCH  74  75
ATOM     75  S   UNL A   1      41.064  36.958  40.680  1.00  0.00     0.124 S 
ATOM     76  O   UNL A   1      39.860  36.668  41.452  1.00  0.00    -0.237 OA
ATOM     77  O   UNL A   1      42.318  36.489  41.262  1.00  0.00    -0.237 OA
ATOM     78  O   UNL A   1      41.116  38.284  40.073  1.00  0.00    -0.744 OA
ENDBRANCH  74  75
ENDBRANCH  42  67
ENDBRANCH  16  17
ENDBRANCH   9  11
ENDBRANCH   8   9
ENDBRANCH   7   8
ENDBRANCH   6   7
ENDBRANCH   5   6
ENDBRANCH   4   5
ENDBRANCH   3   4
ENDBRANCH   2   3
ENDBRANCH   1   2
BRANCH   1  79
ATOM     79  C   UNL A   1      36.283  21.722  24.673  1.00  0.00     0.188 C 
BRANCH  79  80
ATOM     80  O   UNL A   1      35.362  22.541  25.373  1.00  0.00    -0.376 OA
BRANCH  80  81
ATOM     81  C   UNL A   1      34.892  22.082  26.643  1.00  0.00     0.202 C 
BRANCH  81  82
ATOM     82  C   UNL A   1      33.387  22.238  26.919  1.00  0.00     0.261 C 
BRANCH  82  83
ATOM     83  O   UNL A   1      32.590  21.803  25.797  1.00  0.00    -0.462 OA
BRANCH  83  84
ATOM     84  C   UNL A   1      31.643  22.666  25.342  1.00  0.00     0.329 C 
ATOM     85  O   UNL A   1      30.625  22.937  25.973  1.00  0.00    -0.250 OA
BRANCH  84  86
ATOM     86  C   UNL A   1      32.067  23.349  24.004  1.00  0.00     0.197 C 
ATOM     87  C   UNL A   1      32.760  22.373  23.033  1.00  0.00     0.070 C 
ATOM     88  N   UNL A   1      32.980  24.527  24.061  1.00  0.00    -0.325 N 
ATOM     89  C   UNL A   1      33.694  23.235  22.194  1.00  0.00     0.136 C 
ATOM     90  C   UNL A   1      34.051  24.429  23.075  1.00  0.00     0.152 C 
BRANCH  88  91
ATOM     91  C   UNL A   1      32.717  25.614  24.875  1.00  0.00     0.233 C 
ATOM     92  O   UNL A   1      33.157  25.640  26.026  1.00  0.00    -0.274 OA
BRANCH  91  93
ATOM     93  C   UNL A   1      31.787  26.743  24.435  1.00  0.00     0.175 C 
BRANCH  93  94
ATOM     94  S   UNL A   1      32.571  28.284  23.882  1.00  0.00    -0.113 SA
BRANCH  94  95
ATOM     95  C   UNL A   1      32.947  29.106  25.422  1.00  0.00     0.044 A 
ATOM     96  C   UNL A   1      34.140  28.821  26.091  1.00  0.00     0.021 A 
ATOM     97  C   UNL A   1      32.149  30.159  25.895  1.00  0.00     0.139 A 
ATOM     98  C   UNL A   1      34.558  29.612  27.161  1.00  0.00     0.040 A 
ATOM     99  C   UNL A   1      32.539  30.931  26.984  1.00  0.00     0.079 A 
ATOM    100  F   UNL A   1      30.993  30.464  25.283  1.00  0.00    -0.206 F 
ATOM    101  C   UNL A   1      33.753  30.658  27.593  1.00  0.00     0.126 A 
ATOM    102  F   UNL A   1      34.169  31.438  28.594  1.00  0.00    -0.207 F 
ENDBRANCH  94  95
ENDBRANCH  93  94
ENDBRANCH  91  93
ENDBRANCH  88  91
BRANCH  89 103
ATOM    103  O   UNL A   1      33.018  23.657  21.014  1.00  0.00    -0.391 OA
ATOM    104  H   UNL A   1      33.018  22.936  20.366  1.00  0.00     0.211 HD
ENDBRANCH  89 103
ENDBRANCH  84  86
ENDBRANCH  83  84
ENDBRANCH  82  83
ENDBRANCH  81  82
ENDBRANCH  80  81
ENDBRANCH  79  80
ENDBRANCH   1  79
TORSDOF 28
ENDMDL
MODEL 3
REMARK VINA RESULT:      -9.2      3.132      9.352
REMARK SMILES O=C(OCCOCCOCCOCCOC(=O)[C@@H]1C[C@@H](O)CN1C(=O)CSc1ccc(F)cc1F)c1ccc(-c2c3nc(c(-c4c(F)cc(S(=O)(=O)[O-])cc4F)c4ccc([nH]4)c(-c4c(F)cc(S(=O)(=O)[O-])cc4F)c4nc(c(-c5c(F)cc(S(=O)(=O)[O-])cc5F)c5ccc2[nH]5)C=C4)C=C3)cc1
REMARK SMILES IDX 10 1 9 2 8 3 7 4 6 5 5 6 4 7 3 8 2 9 1 10 36 11 37 12 101 13
REMARK SMILES IDX 38 14 100 15 39 16 40 17 41 18 94 19 42 20 99 21 93 22 95 23
REMARK SMILES IDX 43 24 98 25 92 26 91 27 44 29 78 30 57 31 77 32 58 33 61 34
REMARK SMILES IDX 76 35 96 36 59 37 60 38 75 40 97 41 62 42 45 43 46 44 55 45
REMARK SMILES IDX 47 46 48 47 54 48 56 49 49 50 50 51 51 52 52 53 53 54 79 55
REMARK SMILES IDX 80 56 89 57 81 58 82 59 88 60 90 61 83 62 84 63 85 64 86 65
REMARK SMILES IDX 87 66 63 67 64 68 73 69 65 70 66 71 72 72 74 73 67 74 68 75
REMARK SMILES IDX 69 76 70 77 71 78 11 79 12 80 13 81 14 82 15 83 16 84 17 85
REMARK SMILES IDX 18 86 19 87 23 88 20 89 22 90 24 91 25 92 26 93 27 94 28 95
REMARK SMILES IDX 29 96 34 97 30 98 33 99 35 100 31 101 32 102 21 103
REMARK H PARENT 95 28 61 39 21 104
REMARK Flexibility Score: inf
ROOT
ATOM      1  C   UNL A   1      35.863  31.654  28.175  1.00  0.00     0.188 C 
ENDROOT
BRANCH   1   2
ATOM      2  O   UNL A   1      35.318  32.495  29.173  1.00  0.00    -0.377 OA
BRANCH   2   3
ATOM      3  C   UNL A   1      35.571  33.888  28.977  1.00  0.00     0.188 C 
BRANCH   3   4
ATOM      4  C   UNL A   1      34.674  34.637  27.973  1.00  0.00     0.188 C 
BRANCH   4   5
ATOM      5  O   UNL A   1      34.229  35.942  28.359  1.00  0.00    -0.376 OA
BRANCH   5   6
ATOM      6  C   UNL A   1      33.021  36.066  29.111  1.00  0.00     0.202 C 
BRANCH   6   7
ATOM      7  C   UNL A   1      32.956  37.116  30.227  1.00  0.00     0.261 C 
BRANCH   7   8
ATOM      8  O   UNL A   1      33.290  36.674  31.553  1.00  0.00    -0.460 OA
BRANCH   8   9
ATOM      9  C   UNL A   1      33.236  35.454  32.139  1.00  0.00     0.338 C 
ATOM     10  O   UNL A   1      32.125  35.009  32.431  1.00  0.00    -0.246 OA
BRANCH   9  11
ATOM     11  C   UNL A   1      34.433  34.638  32.503  1.00  0.00     0.060 A 
ATOM     12  C   UNL A   1      34.379  33.375  33.076  1.00  0.00     0.016 A 
ATOM     13  C   UNL A   1      35.709  35.167  32.217  1.00  0.00     0.016 A 
ATOM     14  C   UNL A   1      35.513  32.635  33.327  1.00  0.00     0.010 A 
ATOM     15  C   UNL A   1      36.876  34.453  32.525  1.00  0.00     0.010 A 
ATOM     16  C   UNL A   1      36.765  33.184  33.091  1.00  0.00    -0.014 A 
BRANCH  16  17
ATOM     17  C   UNL A   1      37.869  32.434  33.706  1.00  0.00     0.031 A 
ATOM     18  C   UNL A   1      38.591  31.456  32.825  1.00  0.00     0.074 A 
ATOM     19  C   UNL A   1      38.399  32.887  34.857  1.00  0.00     0.049 A 
ATOM     20  N   UNL A   1      39.679  30.780  33.059  1.00  0.00    -0.248 NA
ATOM     21  C   UNL A   1      38.039  31.257  31.469  1.00  0.00     0.031 C 
ATOM     22  C   UNL A   1      37.880  34.023  35.626  1.00  0.00     0.029 A 
ATOM     23  N   UNL A   1      39.539  32.526  35.521  1.00  0.00    -0.354 N 
ATOM     24  C   UNL A   1      39.920  30.052  31.902  1.00  0.00     0.074 A 
ATOM     25  C   UNL A   1      38.898  30.396  30.945  1.00  0.00     0.031 C 
ATOM     26  C   UNL A   1      38.738  34.304  36.621  1.00  0.00     0.029 A 
ATOM     27  C   UNL A   1      39.821  33.325  36.606  1.00  0.00     0.049 A 
ATOM     28  H   UNL A   1      40.104  31.767  35.249  1.00  0.00     0.167 HD
ATOM     29  C   UNL A   1      40.899  29.149  31.685  1.00  0.00     0.037 A 
ATOM     30  C   UNL A   1      40.836  33.247  37.488  1.00  0.00     0.037 A 
ATOM     31  C   UNL A   1      41.889  28.827  32.675  1.00  0.00     0.049 A 
ATOM     32  C   UNL A   1      41.835  32.132  37.288  1.00  0.00     0.074 A 
ATOM     33  C   UNL A   1      42.836  27.823  32.655  1.00  0.00     0.029 A 
ATOM     34  N   UNL A   1      42.051  29.520  33.868  1.00  0.00    -0.354 N 
ATOM     35  N   UNL A   1      41.974  31.322  36.261  1.00  0.00    -0.248 NA
ATOM     36  C   UNL A   1      42.787  31.887  38.378  1.00  0.00     0.031 C 
ATOM     37  C   UNL A   1      43.535  27.873  33.866  1.00  0.00     0.029 A 
ATOM     38  C   UNL A   1      43.067  28.948  34.608  1.00  0.00     0.049 A 
ATOM     39  H   UNL A   1      41.521  30.301  34.145  1.00  0.00     0.167 HD
ATOM     40  C   UNL A   1      43.021  30.467  36.587  1.00  0.00     0.074 A 
ATOM     41  C   UNL A   1      43.511  30.893  37.883  1.00  0.00     0.031 C 
ATOM     42  C   UNL A   1      43.520  29.410  35.897  1.00  0.00     0.037 A 
BRANCH  29  43
ATOM     43  C   UNL A   1      40.854  28.368  30.406  1.00  0.00     0.058 A 
ATOM     44  C   UNL A   1      39.884  27.366  30.244  1.00  0.00     0.135 A 
ATOM     45  C   UNL A   1      41.748  28.593  29.351  1.00  0.00     0.135 A 
ATOM     46  F   UNL A   1      38.984  27.134  31.213  1.00  0.00    -0.206 F 
ATOM     47  C   UNL A   1      39.818  26.591  29.092  1.00  0.00     0.059 A 
ATOM     48  C   UNL A   1      41.688  27.844  28.179  1.00  0.00     0.059 A 
ATOM     49  F   UNL A   1      42.663  29.574  29.434  1.00  0.00    -0.206 F 
ATOM     50  C   UNL A   1      40.726  26.837  28.064  1.00  0.00     0.060 A 
BRANCH  50  51
ATOM     51  S   UNL A   1      40.684  25.850  26.554  1.00  0.00     0.124 S 
ATOM     52  O   UNL A   1      41.708  24.847  26.829  1.00  0.00    -0.237 OA
ATOM     53  O   UNL A   1      39.308  25.365  26.542  1.00  0.00    -0.237 OA
ATOM     54  O   UNL A   1      41.017  26.811  25.507  1.00  0.00    -0.744 OA
ENDBRANCH  50  51
ENDBRANCH  29  43
BRANCH  30  55
ATOM     55  C   UNL A   1      40.915  34.155  38.671  1.00  0.00     0.058 A 
ATOM     56  C   UNL A   1      41.558  35.404  38.585  1.00  0.00     0.135 A 
ATOM     57  C   UNL A   1      40.296  33.838  39.890  1.00  0.00     0.135 A 
ATOM     58  F   UNL A   1      42.168  35.774  37.448  1.00  0.00    -0.206 F 
ATOM     59  C   UNL A   1      41.588  36.295  39.652  1.00  0.00     0.059 A 
ATOM     60  C   UNL A   1      40.278  34.730  40.960  1.00  0.00     0.059 A 
ATOM     61  F   UNL A   1      39.657  32.665  40.032  1.00  0.00    -0.206 F 
ATOM     62  C   UNL A   1      40.924  35.961  40.829  1.00  0.00     0.060 A 
BRANCH  62  63
ATOM     63  S   UNL A   1      40.875  37.128  42.208  1.00  0.00     0.124 S 
ATOM     64  O   UNL A   1      39.485  37.020  42.634  1.00  0.00    -0.237 OA
ATOM     65  O   UNL A   1      41.868  36.569  43.118  1.00  0.00    -0.237 OA
ATOM     66  O   UNL A   1      41.247  38.397  41.588  1.00  0.00    -0.744 OA
ENDBRANCH  62  63
ENDBRANCH  30  55
BRANCH  42  67
ATOM     67  C   UNL A   1      44.645  28.646  36.533  1.00  0.00     0.058 A 
ATOM     68  C   UNL A   1      44.384  27.486  37.279  1.00  0.00     0.135 A 
ATOM     69  C   UNL A   1      45.966  29.111  36.475  1.00  0.00     0.135 A 
ATOM     70  F   UNL A   1      43.131  27.012  37.379  1.00  0.00    -0.206 F 
ATOM     71  C   UNL A   1      45.395  26.814  37.954  1.00  0.00     0.059 A 
ATOM     72  C   UNL A   1      46.999  28.436  37.114  1.00  0.00     0.059 A 
ATOM     73  F   UNL A   1      46.264  30.218  35.775  1.00  0.00    -0.206 F 
ATOM     74  C   UNL A   1      46.701  27.292  37.855  1.00  0.00     0.060 A 
BRANCH  74  75
ATOM     75  S   UNL A   1      48.049  26.447  38.706  1.00  0.00     0.124 S 
ATOM     76  O   UNL A   1      47.392  25.222  39.151  1.00  0.00    -0.237 OA
ATOM     77  O   UNL A   1      49.035  26.288  37.643  1.00  0.00    -0.237 OA
ATOM     78  O   UNL A   1      48.420  27.379  39.766  1.00  0.00    -0.744 OA
ENDBRANCH  74  75
ENDBRANCH  42  67
ENDBRANCH  16  17
ENDBRANCH   9  11
ENDBRANCH   8   9
ENDBRANCH   7   8
ENDBRANCH   6   7
ENDBRANCH   5   6
ENDBRANCH   4   5
ENDBRANCH   3   4
ENDBRANCH   2   3
ENDBRANCH   1   2
BRANCH   1  79
ATOM     79  C   UNL A   1      35.547  30.149  28.259  1.00  0.00     0.188 C 
BRANCH  79  80
ATOM     80  O   UNL A   1      34.333  29.738  27.654  1.00  0.00    -0.376 OA
BRANCH  80  81
ATOM     81  C   UNL A   1      34.414  28.892  26.504  1.00  0.00     0.202 C 
BRANCH  81  82
ATOM     82  C   UNL A   1      33.463  27.684  26.468  1.00  0.00     0.261 C 
BRANCH  82  83
ATOM     83  O   UNL A   1      34.157  26.469  26.115  1.00  0.00    -0.462 OA
BRANCH  83  84
ATOM     84  C   UNL A   1      33.541  25.642  25.228  1.00  0.00     0.329 C 
ATOM     85  O   UNL A   1      33.905  25.521  24.061  1.00  0.00    -0.250 OA
BRANCH  84  86
ATOM     86  C   UNL A   1      32.417  24.794  25.901  1.00  0.00     0.197 C 
ATOM     87  C   UNL A   1      32.956  23.508  26.558  1.00  0.00     0.070 C 
ATOM     88  N   UNL A   1      31.274  24.330  25.062  1.00  0.00    -0.325 N 
ATOM     89  C   UNL A   1      31.802  22.516  26.509  1.00  0.00     0.136 C 
ATOM     90  C   UNL A   1      30.961  22.926  25.304  1.00  0.00     0.152 C 
BRANCH  88  91
ATOM     91  C   UNL A   1      30.550  25.203  24.271  1.00  0.00     0.233 C 
ATOM     92  O   UNL A   1      29.998  24.793  23.248  1.00  0.00    -0.274 OA
BRANCH  91  93
ATOM     93  C   UNL A   1      30.508  26.704  24.557  1.00  0.00     0.175 C 
BRANCH  93  94
ATOM     94  S   UNL A   1      31.280  27.796  23.330  1.00  0.00    -0.113 SA
BRANCH  94  95
ATOM     95  C   UNL A   1      30.116  29.146  23.223  1.00  0.00     0.044 A 
ATOM     96  C   UNL A   1      29.004  29.042  22.384  1.00  0.00     0.021 A 
ATOM     97  C   UNL A   1      30.200  30.246  24.090  1.00  0.00     0.139 A 
ATOM     98  C   UNL A   1      27.970  29.976  22.459  1.00  0.00     0.040 A 
ATOM     99  C   UNL A   1      29.192  31.203  24.146  1.00  0.00     0.079 A 
ATOM    100  F   UNL A   1      31.253  30.386  24.911  1.00  0.00    -0.206 F 
ATOM    101  C   UNL A   1      28.076  31.043  23.340  1.00  0.00     0.126 A 
ATOM    102  F   UNL A   1      27.071  31.917  23.439  1.00  0.00    -0.207 F 
ENDBRANCH  94  95
ENDBRANCH  93  94
ENDBRANCH  91  93
ENDBRANCH  88  91
BRANCH  89 103
ATOM    103  O   UNL A   1      31.046  22.608  27.712  1.00  0.00    -0.391 OA
ATOM    104  H   UNL A   1      30.215  23.077  27.536  1.00  0.00     0.211 HD
ENDBRANCH  89 103
ENDBRANCH  84  86
ENDBRANCH  83  84
ENDBRANCH  82  83
ENDBRANCH  81  82
ENDBRANCH  80  81
ENDBRANCH  79  80
ENDBRANCH   1  79
TORSDOF 28
ENDMDL
