MODEL 1
REMARK VINA RESULT:      -9.4      0.000      0.000
REMARK SMILES O=C(COc1ccccc1Br)Nc1ccc(C(=O)OCCOCCOCCOCCOC(=O)c2ccc(-c3c4nc(c(-c5c(F)cc(S(=O)(=O)[O-])cc5F)c5ccc([nH]5)c(-c5c(F)cc(S(=O)(=O)[O-])cc5F)c5nc(c(-c6c(F)cc(S(=O)(=O)[O-])cc6F)c6ccc3[nH]6)C=C5)C=C4)cc2)c(O)c1
REMARK SMILES IDX 24 1 23 2 22 3 21 4 20 5 19 6 17 7 18 8 16 9 13 10 14 11
REMARK SMILES IDX 102 12 15 13 100 14 12 15 1 16 2 17 3 19 4 20 5 21 6 22
REMARK SMILES IDX 10 23 7 24 9 25 11 26 8 27 101 28 25 30 26 31 27 32 28 33
REMARK SMILES IDX 29 34 30 35 31 36 32 37 33 38 34 39 35 40 99 41 36 42 98 43
REMARK SMILES IDX 37 44 38 45 39 46 92 47 40 48 97 49 91 50 93 51 41 52 96 53
REMARK SMILES IDX 90 54 89 55 42 57 76 58 55 59 75 60 56 61 59 62 74 63 94 64
REMARK SMILES IDX 57 65 58 66 73 68 95 69 60 70 43 71 44 72 53 73 45 74 46 75
REMARK SMILES IDX 52 76 54 77 47 78 48 79 49 80 50 81 51 82 77 83 78 84 87 85
REMARK SMILES IDX 79 86 80 87 86 88 88 89 81 90 82 91 83 92 84 93 85 94 61 95
REMARK SMILES IDX 62 96 71 97 63 98 64 99 70 100 72 101 65 102 66 103 67 104
REMARK SMILES IDX 68 105 69 106
REMARK H PARENT 12 18 101 29 93 56 59 67
REMARK Flexibility Score: inf
ROOT
ATOM      1  C   UNL A   1      34.746  32.577  29.190  1.00  0.00     0.188 C 
ENDROOT
BRANCH   1   2
ATOM      2  C   UNL A   1      34.407  31.750  27.935  1.00  0.00     0.188 C 
BRANCH   2   3
ATOM      3  O   UNL A   1      33.026  31.472  27.791  1.00  0.00    -0.376 OA
BRANCH   3   4
ATOM      4  C   UNL A   1      32.486  31.019  26.560  1.00  0.00     0.202 C 
BRANCH   4   5
ATOM      5  C   UNL A   1      32.771  29.643  25.927  1.00  0.00     0.261 C 
BRANCH   5   6
ATOM      6  O   UNL A   1      31.739  28.653  25.971  1.00  0.00    -0.460 OA
BRANCH   6   7
ATOM      7  C   UNL A   1      31.098  28.367  24.817  1.00  0.00     0.341 C 
ATOM      8  O   UNL A   1      30.643  29.165  24.020  1.00  0.00    -0.246 OA
BRANCH   7   9
ATOM      9  C   UNL A   1      31.240  26.911  24.575  1.00  0.00     0.101 A 
ATOM     10  C   UNL A   1      31.612  24.148  24.239  1.00  0.00     0.045 A 
ATOM     11  C   UNL A   1      32.592  24.910  24.873  1.00  0.00     0.027 A 
ATOM     12  C   UNL A   1      30.444  24.770  23.782  1.00  0.00     0.073 A 
ATOM     13  C   UNL A   1      32.418  26.292  25.016  1.00  0.00     0.022 A 
ATOM     14  C   UNL A   1      30.235  26.130  24.000  1.00  0.00     0.132 A 
BRANCH  10  15
ATOM     15  N   UNL A   1      31.661  22.752  24.112  1.00  0.00    -0.323 N 
ATOM     16  O   UNL A   1      32.765  22.399  22.078  1.00  0.00    -0.271 OA
ATOM     17  C   UNL A   1      32.314  22.001  23.147  1.00  0.00     0.262 C 
ATOM     18  H   UNL A   1      31.169  22.241  24.794  1.00  0.00     0.170 HD
BRANCH  17  19
ATOM     19  C   UNL A   1      32.445  20.535  23.579  1.00  0.00     0.329 C 
BRANCH  19  20
ATOM     20  O   UNL A   1      32.875  20.458  24.945  1.00  0.00    -0.483 OA
BRANCH  20  21
ATOM     21  C   UNL A   1      34.237  20.422  25.089  1.00  0.00     0.134 A 
ATOM     22  C   UNL A   1      34.860  21.632  25.412  1.00  0.00     0.047 A 
ATOM     23  C   UNL A   1      35.020  19.306  24.769  1.00  0.00     0.060 A 
ATOM     24  C   UNL A   1      36.253  21.723  25.426  1.00  0.00     0.004 A 
ATOM     25  C   UNL A   1      36.414  19.405  24.784  1.00  0.00     0.019 A 
ATOM     26  Br  UNL A   1      34.316  17.626  24.261  1.00  0.00    -0.047 Br
ATOM     27  C   UNL A   1      37.030  20.611  25.106  1.00  0.00     0.001 A 
ENDBRANCH  20  21
ENDBRANCH  19  20
ENDBRANCH  17  19
ENDBRANCH  10  15
BRANCH  14  28
ATOM     28  O   UNL A   1      28.997  26.606  23.670  1.00  0.00    -0.507 OA
ATOM     29  H   UNL A   1      28.278  26.489  24.259  1.00  0.00     0.293 HD
ENDBRANCH  14  28
ENDBRANCH   7   9
ENDBRANCH   6   7
ENDBRANCH   5   6
ENDBRANCH   4   5
ENDBRANCH   3   4
ENDBRANCH   2   3
ENDBRANCH   1   2
BRANCH   1  30
ATOM     30  O   UNL A   1      33.901  33.706  29.354  1.00  0.00    -0.377 OA
BRANCH  30  31
ATOM     31  C   UNL A   1      34.188  34.612  30.423  1.00  0.00     0.188 C 
BRANCH  31  32
ATOM     32  C   UNL A   1      34.248  34.144  31.899  1.00  0.00     0.188 C 
BRANCH  32  33
ATOM     33  O   UNL A   1      35.548  33.778  32.346  1.00  0.00    -0.376 OA
BRANCH  33  34
ATOM     34  C   UNL A   1      36.114  32.569  31.875  1.00  0.00     0.202 C 
BRANCH  34  35
ATOM     35  C   UNL A   1      37.213  31.946  32.746  1.00  0.00     0.261 C 
BRANCH  35  36
ATOM     36  O   UNL A   1      37.203  30.515  32.835  1.00  0.00    -0.460 OA
BRANCH  36  37
ATOM     37  C   UNL A   1      37.180  29.825  31.675  1.00  0.00     0.338 C 
ATOM     38  O   UNL A   1      36.192  29.409  31.091  1.00  0.00    -0.246 OA
BRANCH  37  39
ATOM     39  C   UNL A   1      38.551  29.820  31.128  1.00  0.00     0.060 A 
ATOM     40  C   UNL A   1      38.750  30.149  29.781  1.00  0.00     0.016 A 
ATOM     41  C   UNL A   1      39.638  29.498  31.946  1.00  0.00     0.016 A 
ATOM     42  C   UNL A   1      40.035  30.114  29.237  1.00  0.00     0.010 A 
ATOM     43  C   UNL A   1      40.920  29.448  31.396  1.00  0.00     0.010 A 
ATOM     44  C   UNL A   1      41.121  29.719  30.030  1.00  0.00    -0.014 A 
BRANCH  44  45
ATOM     45  C   UNL A   1      42.421  29.398  29.394  1.00  0.00     0.031 A 
ATOM     46  C   UNL A   1      42.633  28.004  28.868  1.00  0.00     0.074 A 
ATOM     47  C   UNL A   1      43.386  30.326  29.262  1.00  0.00     0.049 A 
ATOM     48  N   UNL A   1      43.691  27.476  28.307  1.00  0.00    -0.248 NA
ATOM     49  C   UNL A   1      41.495  27.079  28.994  1.00  0.00     0.031 C 
ATOM     50  C   UNL A   1      43.284  31.719  29.692  1.00  0.00     0.029 A 
ATOM     51  N   UNL A   1      44.648  30.229  28.729  1.00  0.00    -0.354 N 
ATOM     52  C   UNL A   1      43.348  26.161  28.017  1.00  0.00     0.074 A 
ATOM     53  C   UNL A   1      42.000  25.958  28.502  1.00  0.00     0.031 C 
ATOM     54  C   UNL A   1      44.439  32.347  29.407  1.00  0.00     0.029 A 
ATOM     55  C   UNL A   1      45.373  31.393  28.809  1.00  0.00     0.049 A 
ATOM     56  H   UNL A   1      45.000  29.401  28.327  1.00  0.00     0.167 HD
ATOM     57  C   UNL A   1      44.084  25.210  27.392  1.00  0.00     0.037 A 
ATOM     58  C   UNL A   1      46.648  31.651  28.455  1.00  0.00     0.037 A 
ATOM     59  C   UNL A   1      45.430  25.416  26.924  1.00  0.00     0.049 A 
ATOM     60  C   UNL A   1      47.480  30.553  27.842  1.00  0.00     0.074 A 
ATOM     61  C   UNL A   1      46.262  24.520  26.277  1.00  0.00     0.029 A 
ATOM     62  N   UNL A   1      46.145  26.597  27.062  1.00  0.00    -0.354 N 
ATOM     63  N   UNL A   1      47.141  29.317  27.558  1.00  0.00    -0.248 NA
ATOM     64  C   UNL A   1      48.869  30.887  27.495  1.00  0.00     0.031 C 
ATOM     65  C   UNL A   1      47.500  25.141  26.077  1.00  0.00     0.029 A 
ATOM     66  C   UNL A   1      47.418  26.445  26.537  1.00  0.00     0.049 A 
ATOM     67  H   UNL A   1      45.799  27.422  27.472  1.00  0.00     0.167 HD
ATOM     68  C   UNL A   1      48.262  28.739  26.968  1.00  0.00     0.074 A 
ATOM     69  C   UNL A   1      49.284  29.763  26.928  1.00  0.00     0.031 C 
ATOM     70  C   UNL A   1      48.428  27.476  26.498  1.00  0.00     0.037 A 
BRANCH  57  71
ATOM     71  C   UNL A   1      43.453  23.855  27.212  1.00  0.00     0.058 A 
ATOM     72  C   UNL A   1      43.260  22.976  28.292  1.00  0.00     0.135 A 
ATOM     73  C   UNL A   1      43.029  23.431  25.942  1.00  0.00     0.135 A 
ATOM     74  F   UNL A   1      43.663  23.320  29.525  1.00  0.00    -0.206 F 
ATOM     75  C   UNL A   1      42.705  21.713  28.111  1.00  0.00     0.059 A 
ATOM     76  C   UNL A   1      42.440  22.185  25.744  1.00  0.00     0.059 A 
ATOM     77  F   UNL A   1      43.189  24.227  24.874  1.00  0.00    -0.206 F 
ATOM     78  C   UNL A   1      42.301  21.325  26.833  1.00  0.00     0.060 A 
BRANCH  78  79
ATOM     79  S   UNL A   1      41.595  19.678  26.615  1.00  0.00     0.124 S 
ATOM     80  O   UNL A   1      40.299  19.829  27.269  1.00  0.00    -0.237 OA
ATOM     81  O   UNL A   1      41.560  19.544  25.163  1.00  0.00    -0.237 OA
ATOM     82  O   UNL A   1      42.544  18.807  27.301  1.00  0.00    -0.744 OA
ENDBRANCH  78  79
ENDBRANCH  57  71
BRANCH  58  83
ATOM     83  C   UNL A   1      47.219  33.009  28.668  1.00  0.00     0.058 A 
ATOM     84  C   UNL A   1      47.174  33.979  27.655  1.00  0.00     0.135 A 
ATOM     85  C   UNL A   1      47.824  33.366  29.884  1.00  0.00     0.135 A 
ATOM     86  F   UNL A   1      46.622  33.685  26.469  1.00  0.00    -0.206 F 
ATOM     87  C   UNL A   1      47.714  35.250  27.836  1.00  0.00     0.059 A 
ATOM     88  C   UNL A   1      48.344  34.637  30.100  1.00  0.00     0.059 A 
ATOM     89  F   UNL A   1      47.889  32.477  30.888  1.00  0.00    -0.206 F 
ATOM     90  C   UNL A   1      48.291  35.572  29.066  1.00  0.00     0.060 A 
BRANCH  90  91
ATOM     91  S   UNL A   1      48.933  37.242  29.307  1.00  0.00     0.124 S 
ATOM     92  O   UNL A   1      47.986  38.037  28.535  1.00  0.00    -0.237 OA
ATOM     93  O   UNL A   1      48.860  37.388  30.757  1.00  0.00    -0.237 OA
ATOM     94  O   UNL A   1      50.286  37.164  28.760  1.00  0.00    -0.744 OA
ENDBRANCH  90  91
ENDBRANCH  58  83
BRANCH  70  95
ATOM     95  C   UNL A   1      49.749  27.140  25.856  1.00  0.00     0.058 A 
ATOM     96  C   UNL A   1      49.951  27.240  24.470  1.00  0.00     0.135 A 
ATOM     97  C   UNL A   1      50.843  26.754  26.648  1.00  0.00     0.135 A 
ATOM     98  F   UNL A   1      48.941  27.602  23.664  1.00  0.00    -0.206 F 
ATOM     99  C   UNL A   1      51.180  26.934  23.891  1.00  0.00     0.059 A 
ATOM    100  C   UNL A   1      52.089  26.476  26.094  1.00  0.00     0.059 A 
ATOM    101  F   UNL A   1      50.713  26.655  27.981  1.00  0.00    -0.206 F 
ATOM    102  C   UNL A   1      52.243  26.554  24.711  1.00  0.00     0.060 A 
BRANCH 102 103
ATOM    103  S   UNL A   1      53.835  26.181  23.946  1.00  0.00     0.124 S 
ATOM    104  O   UNL A   1      54.641  27.319  24.375  1.00  0.00    -0.237 OA
ATOM    105  O   UNL A   1      54.179  24.897  24.549  1.00  0.00    -0.237 OA
ATOM    106  O   UNL A   1      53.525  26.134  22.520  1.00  0.00    -0.744 OA
ENDBRANCH 102 103
ENDBRANCH  70  95
ENDBRANCH  44  45
ENDBRANCH  37  39
ENDBRANCH  36  37
ENDBRANCH  35  36
ENDBRANCH  34  35
ENDBRANCH  33  34
ENDBRANCH  32  33
ENDBRANCH  31  32
ENDBRANCH  30  31
ENDBRANCH   1  30
TORSDOF 28
ENDMDL
MODEL 2
REMARK VINA RESULT:      -9.2      1.635      2.669
REMARK SMILES O=C(COc1ccccc1Br)Nc1ccc(C(=O)OCCOCCOCCOCCOC(=O)c2ccc(-c3c4nc(c(-c5c(F)cc(S(=O)(=O)[O-])cc5F)c5ccc([nH]5)c(-c5c(F)cc(S(=O)(=O)[O-])cc5F)c5nc(c(-c6c(F)cc(S(=O)(=O)[O-])cc6F)c6ccc3[nH]6)C=C5)C=C4)cc2)c(O)c1
REMARK SMILES IDX 24 1 23 2 22 3 21 4 20 5 19 6 17 7 18 8 16 9 13 10 14 11
REMARK SMILES IDX 102 12 15 13 100 14 12 15 1 16 2 17 3 19 4 20 5 21 6 22
REMARK SMILES IDX 10 23 7 24 9 25 11 26 8 27 101 28 25 30 26 31 27 32 28 33
REMARK SMILES IDX 29 34 30 35 31 36 32 37 33 38 34 39 35 40 99 41 36 42 98 43
REMARK SMILES IDX 37 44 38 45 39 46 92 47 40 48 97 49 91 50 93 51 41 52 96 53
REMARK SMILES IDX 90 54 89 55 42 57 76 58 55 59 75 60 56 61 59 62 74 63 94 64
REMARK SMILES IDX 57 65 58 66 73 68 95 69 60 70 43 71 44 72 53 73 45 74 46 75
REMARK SMILES IDX 52 76 54 77 47 78 48 79 49 80 50 81 51 82 77 83 78 84 87 85
REMARK SMILES IDX 79 86 80 87 86 88 88 89 81 90 82 91 83 92 84 93 85 94 61 95
REMARK SMILES IDX 62 96 71 97 63 98 64 99 70 100 72 101 65 102 66 103 67 104
REMARK SMILES IDX 68 105 69 106
REMARK H PARENT 12 18 101 29 93 56 59 67
REMARK Flexibility Score: inf
ROOT
ATOM      1  C   UNL A   1      33.808  35.004  29.804  1.00  0.00     0.188 C 
ENDROOT
BRANCH   1   2
ATOM      2  C   UNL A   1      34.641  35.007  28.508  1.00  0.00     0.188 C 
BRANCH   2   3
ATOM      3  O   UNL A   1      34.231  34.036  27.563  1.00  0.00    -0.376 OA
BRANCH   3   4
ATOM      4  C   UNL A   1      33.561  32.851  27.962  1.00  0.00     0.202 C 
BRANCH   4   5
ATOM      5  C   UNL A   1      33.830  31.450  27.379  1.00  0.00     0.261 C 
BRANCH   5   6
ATOM      6  O   UNL A   1      32.794  30.468  27.476  1.00  0.00    -0.460 OA
BRANCH   6   7
ATOM      7  C   UNL A   1      32.035  30.250  26.380  1.00  0.00     0.341 C 
ATOM      8  O   UNL A   1      31.387  31.077  25.767  1.00  0.00    -0.246 OA
BRANCH   7   9
ATOM      9  C   UNL A   1      32.303  28.867  25.918  1.00  0.00     0.101 A 
ATOM     10  C   UNL A   1      32.665  26.205  25.097  1.00  0.00     0.045 A 
ATOM     11  C   UNL A   1      31.749  26.505  26.103  1.00  0.00     0.027 A 
ATOM     12  C   UNL A   1      33.394  27.241  24.498  1.00  0.00     0.073 A 
ATOM     13  C   UNL A   1      31.588  27.828  26.531  1.00  0.00     0.022 A 
ATOM     14  C   UNL A   1      33.172  28.566  24.867  1.00  0.00     0.132 A 
BRANCH  10  15
ATOM     15  N   UNL A   1      32.846  24.926  24.552  1.00  0.00    -0.323 N 
ATOM     16  O   UNL A   1      31.658  24.986  22.537  1.00  0.00    -0.271 OA
ATOM     17  C   UNL A   1      32.454  24.460  23.307  1.00  0.00     0.262 C 
ATOM     18  H   UNL A   1      33.310  24.276  25.128  1.00  0.00     0.170 HD
BRANCH  17  19
ATOM     19  C   UNL A   1      33.171  23.151  22.952  1.00  0.00     0.329 C 
BRANCH  19  20
ATOM     20  O   UNL A   1      33.162  22.262  24.078  1.00  0.00    -0.483 OA
BRANCH  20  21
ATOM     21  C   UNL A   1      34.405  21.795  24.415  1.00  0.00     0.134 A 
ATOM     22  C   UNL A   1      35.480  22.657  24.177  1.00  0.00     0.047 A 
ATOM     23  C   UNL A   1      34.654  20.475  24.813  1.00  0.00     0.060 A 
ATOM     24  C   UNL A   1      36.792  22.209  24.345  1.00  0.00     0.004 A 
ATOM     25  C   UNL A   1      35.970  20.033  24.978  1.00  0.00     0.019 A 
ATOM     26  Br  UNL A   1      33.305  19.185  25.117  1.00  0.00    -0.047 Br
ATOM     27  C   UNL A   1      37.036  20.895  24.739  1.00  0.00     0.001 A 
ENDBRANCH  20  21
ENDBRANCH  19  20
ENDBRANCH  17  19
ENDBRANCH  10  15
BRANCH  14  28
ATOM     28  O   UNL A   1      33.805  29.512  24.109  1.00  0.00    -0.507 OA
ATOM     29  H   UNL A   1      34.317  29.255  23.369  1.00  0.00     0.293 HD
ENDBRANCH  14  28
ENDBRANCH   7   9
ENDBRANCH   6   7
ENDBRANCH   5   6
ENDBRANCH   4   5
ENDBRANCH   3   4
ENDBRANCH   2   3
ENDBRANCH   1   2
BRANCH   1  30
ATOM     30  O   UNL A   1      34.607  35.060  30.976  1.00  0.00    -0.377 OA
BRANCH  30  31
ATOM     31  C   UNL A   1      35.382  33.908  31.318  1.00  0.00     0.188 C 
BRANCH  31  32
ATOM     32  C   UNL A   1      34.985  32.969  32.484  1.00  0.00     0.188 C 
BRANCH  32  33
ATOM     33  O   UNL A   1      35.924  31.936  32.751  1.00  0.00    -0.376 OA
BRANCH  33  34
ATOM     34  C   UNL A   1      35.881  30.757  31.969  1.00  0.00     0.202 C 
BRANCH  34  35
ATOM     35  C   UNL A   1      37.195  29.978  31.834  1.00  0.00     0.261 C 
BRANCH  35  36
ATOM     36  O   UNL A   1      37.251  29.026  30.764  1.00  0.00    -0.460 OA
BRANCH  36  37
ATOM     37  C   UNL A   1      37.410  29.511  29.514  1.00  0.00     0.338 C 
ATOM     38  O   UNL A   1      36.639  30.239  28.909  1.00  0.00    -0.246 OA
BRANCH  37  39
ATOM     39  C   UNL A   1      38.772  29.163  29.066  1.00  0.00     0.060 A 
ATOM     40  C   UNL A   1      39.705  28.710  30.007  1.00  0.00     0.016 A 
ATOM     41  C   UNL A   1      39.124  29.278  27.719  1.00  0.00     0.016 A 
ATOM     42  C   UNL A   1      41.009  28.411  29.608  1.00  0.00     0.010 A 
ATOM     43  C   UNL A   1      40.433  28.994  27.324  1.00  0.00     0.010 A 
ATOM     44  C   UNL A   1      41.392  28.595  28.273  1.00  0.00    -0.014 A 
BRANCH  44  45
ATOM     45  C   UNL A   1      42.829  28.564  27.906  1.00  0.00     0.031 A 
ATOM     46  C   UNL A   1      43.403  27.277  27.379  1.00  0.00     0.074 A 
ATOM     47  C   UNL A   1      43.605  29.658  28.014  1.00  0.00     0.049 A 
ATOM     48  N   UNL A   1      44.631  26.993  27.028  1.00  0.00    -0.248 NA
ATOM     49  C   UNL A   1      42.461  26.155  27.230  1.00  0.00     0.031 C 
ATOM     50  C   UNL A   1      43.156  30.972  28.470  1.00  0.00     0.029 A 
ATOM     51  N   UNL A   1      44.941  29.831  27.749  1.00  0.00    -0.354 N 
ATOM     52  C   UNL A   1      44.610  25.664  26.620  1.00  0.00     0.074 A 
ATOM     53  C   UNL A   1      43.258  25.185  26.808  1.00  0.00     0.031 C 
ATOM     54  C   UNL A   1      44.202  31.818  28.455  1.00  0.00     0.029 A 
ATOM     55  C   UNL A   1      45.399  31.097  28.024  1.00  0.00     0.049 A 
ATOM     56  H   UNL A   1      45.516  29.114  27.395  1.00  0.00     0.167 HD
ATOM     57  C   UNL A   1      45.622  24.914  26.122  1.00  0.00     0.037 A 
ATOM     58  C   UNL A   1      46.645  31.606  27.952  1.00  0.00     0.037 A 
ATOM     59  C   UNL A   1      46.969  25.394  25.950  1.00  0.00     0.049 A 
ATOM     60  C   UNL A   1      47.776  30.727  27.480  1.00  0.00     0.074 A 
ATOM     61  C   UNL A   1      48.067  24.715  25.453  1.00  0.00     0.029 A 
ATOM     62  N   UNL A   1      47.403  26.669  26.281  1.00  0.00    -0.354 N 
ATOM     63  N   UNL A   1      47.742  29.476  27.082  1.00  0.00    -0.248 NA
ATOM     64  C   UNL A   1      49.116  31.332  27.441  1.00  0.00     0.031 C 
ATOM     65  C   UNL A   1      49.178  25.563  25.538  1.00  0.00     0.029 A 
ATOM     66  C   UNL A   1      48.759  26.791  26.025  1.00  0.00     0.049 A 
ATOM     67  H   UNL A   1      46.832  27.384  26.645  1.00  0.00     0.167 HD
ATOM     68  C   UNL A   1      49.046  29.158  26.713  1.00  0.00     0.074 A 
ATOM     69  C   UNL A   1      49.841  30.349  26.926  1.00  0.00     0.031 C 
ATOM     70  C   UNL A   1      49.540  27.986  26.237  1.00  0.00     0.037 A 
BRANCH  57  71
ATOM     71  C   UNL A   1      45.310  23.485  25.760  1.00  0.00     0.058 A 
ATOM     72  C   UNL A   1      45.163  23.073  24.425  1.00  0.00     0.135 A 
ATOM     73  C   UNL A   1      45.164  22.513  26.763  1.00  0.00     0.135 A 
ATOM     74  F   UNL A   1      45.273  23.962  23.426  1.00  0.00    -0.206 F 
ATOM     75  C   UNL A   1      44.844  21.757  24.101  1.00  0.00     0.059 A 
ATOM     76  C   UNL A   1      44.879  21.185  26.460  1.00  0.00     0.059 A 
ATOM     77  F   UNL A   1      45.292  22.850  28.056  1.00  0.00    -0.206 F 
ATOM     78  C   UNL A   1      44.701  20.822  25.126  1.00  0.00     0.060 A 
BRANCH  78  79
ATOM     79  S   UNL A   1      44.274  19.123  24.688  1.00  0.00     0.124 S 
ATOM     80  O   UNL A   1      45.067  18.367  25.653  1.00  0.00    -0.237 OA
ATOM     81  O   UNL A   1      42.831  19.100  24.899  1.00  0.00    -0.237 OA
ATOM     82  O   UNL A   1      44.705  19.011  23.299  1.00  0.00    -0.744 OA
ENDBRANCH  78  79
ENDBRANCH  57  71
BRANCH  58  83
ATOM     83  C   UNL A   1      46.893  33.024  28.333  1.00  0.00     0.058 A 
ATOM     84  C   UNL A   1      47.218  33.371  29.653  1.00  0.00     0.135 A 
ATOM     85  C   UNL A   1      46.809  34.060  27.390  1.00  0.00     0.135 A 
ATOM     86  F   UNL A   1      47.296  32.421  30.597  1.00  0.00    -0.206 F 
ATOM     87  C   UNL A   1      47.442  34.693  30.027  1.00  0.00     0.059 A 
ATOM     88  C   UNL A   1      47.057  35.385  27.731  1.00  0.00     0.059 A 
ATOM     89  F   UNL A   1      46.506  33.782  26.112  1.00  0.00    -0.206 F 
ATOM     90  C   UNL A   1      47.366  35.693  29.056  1.00  0.00     0.060 A 
BRANCH  90  91
ATOM     91  S   UNL A   1      47.717  37.397  29.542  1.00  0.00     0.124 S 
ATOM     92  O   UNL A   1      48.038  38.010  28.258  1.00  0.00    -0.237 OA
ATOM     93  O   UNL A   1      46.454  37.805  30.148  1.00  0.00    -0.237 OA
ATOM     94  O   UNL A   1      48.834  37.257  30.472  1.00  0.00    -0.744 OA
ENDBRANCH  90  91
ENDBRANCH  58  83
BRANCH  70  95
ATOM     95  C   UNL A   1      51.001  27.944  25.868  1.00  0.00     0.058 A 
ATOM     96  C   UNL A   1      52.004  27.710  26.823  1.00  0.00     0.135 A 
ATOM     97  C   UNL A   1      51.397  28.097  24.529  1.00  0.00     0.135 A 
ATOM     98  F   UNL A   1      51.683  27.559  28.117  1.00  0.00    -0.206 F 
ATOM     99  C   UNL A   1      53.349  27.666  26.467  1.00  0.00     0.059 A 
ATOM    100  C   UNL A   1      52.733  28.023  24.146  1.00  0.00     0.059 A 
ATOM    101  F   UNL A   1      50.481  28.309  23.571  1.00  0.00    -0.206 F 
ATOM    102  C   UNL A   1      53.704  27.823  25.126  1.00  0.00     0.060 A 
BRANCH 102 103
ATOM    103  S   UNL A   1      55.451  27.742  24.678  1.00  0.00     0.124 S 
ATOM    104  O   UNL A   1      55.575  28.879  23.772  1.00  0.00    -0.237 OA
ATOM    105  O   UNL A   1      56.112  27.887  25.972  1.00  0.00    -0.237 OA
ATOM    106  O   UNL A   1      55.583  26.427  24.057  1.00  0.00    -0.744 OA
ENDBRANCH 102 103
ENDBRANCH  70  95
ENDBRANCH  44  45
ENDBRANCH  37  39
ENDBRANCH  36  37
ENDBRANCH  35  36
ENDBRANCH  34  35
ENDBRANCH  33  34
ENDBRANCH  32  33
ENDBRANCH  31  32
ENDBRANCH  30  31
ENDBRANCH   1  30
TORSDOF 28
ENDMDL
MODEL 3
REMARK VINA RESULT:      -8.7      2.033      2.720
REMARK SMILES O=C(COc1ccccc1Br)Nc1ccc(C(=O)OCCOCCOCCOCCOC(=O)c2ccc(-c3c4nc(c(-c5c(F)cc(S(=O)(=O)[O-])cc5F)c5ccc([nH]5)c(-c5c(F)cc(S(=O)(=O)[O-])cc5F)c5nc(c(-c6c(F)cc(S(=O)(=O)[O-])cc6F)c6ccc3[nH]6)C=C5)C=C4)cc2)c(O)c1
REMARK SMILES IDX 24 1 23 2 22 3 21 4 20 5 19 6 17 7 18 8 16 9 13 10 14 11
REMARK SMILES IDX 102 12 15 13 100 14 12 15 1 16 2 17 3 19 4 20 5 21 6 22
REMARK SMILES IDX 10 23 7 24 9 25 11 26 8 27 101 28 25 30 26 31 27 32 28 33
REMARK SMILES IDX 29 34 30 35 31 36 32 37 33 38 34 39 35 40 99 41 36 42 98 43
REMARK SMILES IDX 37 44 38 45 39 46 92 47 40 48 97 49 91 50 93 51 41 52 96 53
REMARK SMILES IDX 90 54 89 55 42 57 76 58 55 59 75 60 56 61 59 62 74 63 94 64
REMARK SMILES IDX 57 65 58 66 73 68 95 69 60 70 43 71 44 72 53 73 45 74 46 75
REMARK SMILES IDX 52 76 54 77 47 78 48 79 49 80 50 81 51 82 77 83 78 84 87 85
REMARK SMILES IDX 79 86 80 87 86 88 88 89 81 90 82 91 83 92 84 93 85 94 61 95
REMARK SMILES IDX 62 96 71 97 63 98 64 99 70 100 72 101 65 102 66 103 67 104
REMARK SMILES IDX 68 105 69 106
REMARK H PARENT 12 18 101 29 93 56 59 67
REMARK Flexibility Score: inf
ROOT
ATOM      1  C   UNL A   1      35.409  32.371  30.578  1.00  0.00     0.188 C 
ENDROOT
BRANCH   1   2
ATOM      2  C   UNL A   1      34.477  32.762  29.415  1.00  0.00     0.188 C 
BRANCH   2   3
ATOM      3  O   UNL A   1      34.703  32.022  28.229  1.00  0.00    -0.376 OA
BRANCH   3   4
ATOM      4  C   UNL A   1      33.631  31.448  27.499  1.00  0.00     0.202 C 
BRANCH   4   5
ATOM      5  C   UNL A   1      33.566  29.978  27.041  1.00  0.00     0.261 C 
BRANCH   5   6
ATOM      6  O   UNL A   1      33.264  29.712  25.668  1.00  0.00    -0.460 OA
BRANCH   6   7
ATOM      7  C   UNL A   1      32.100  29.083  25.396  1.00  0.00     0.341 C 
ATOM      8  O   UNL A   1      31.077  29.592  24.979  1.00  0.00    -0.246 OA
BRANCH   7   9
ATOM      9  C   UNL A   1      32.350  27.624  25.481  1.00  0.00     0.101 A 
ATOM     10  C   UNL A   1      32.673  24.842  25.697  1.00  0.00     0.045 A 
ATOM     11  C   UNL A   1      31.703  25.491  26.459  1.00  0.00     0.027 A 
ATOM     12  C   UNL A   1      33.474  25.586  24.821  1.00  0.00     0.073 A 
ATOM     13  C   UNL A   1      31.562  26.881  26.371  1.00  0.00     0.022 A 
ATOM     14  C   UNL A   1      33.274  26.956  24.673  1.00  0.00     0.132 A 
BRANCH  10  15
ATOM     15  N   UNL A   1      32.844  23.450  25.661  1.00  0.00    -0.323 N 
ATOM     16  O   UNL A   1      35.155  23.162  25.433  1.00  0.00    -0.271 OA
ATOM     17  C   UNL A   1      34.029  22.731  25.658  1.00  0.00     0.262 C 
ATOM     18  H   UNL A   1      32.017  22.916  25.635  1.00  0.00     0.170 HD
BRANCH  17  19
ATOM     19  C   UNL A   1      33.785  21.257  26.004  1.00  0.00     0.329 C 
BRANCH  19  20
ATOM     20  O   UNL A   1      32.479  20.856  25.569  1.00  0.00    -0.483 OA
BRANCH  20  21
ATOM     21  C   UNL A   1      32.480  19.710  24.819  1.00  0.00     0.134 A 
ATOM     22  C   UNL A   1      32.777  18.523  25.496  1.00  0.00     0.047 A 
ATOM     23  C   UNL A   1      32.371  19.698  23.422  1.00  0.00     0.060 A 
ATOM     24  C   UNL A   1      32.952  17.334  24.787  1.00  0.00     0.004 A 
ATOM     25  C   UNL A   1      32.549  18.504  22.719  1.00  0.00     0.019 A 
ATOM     26  Br  UNL A   1      32.028  21.233  22.371  1.00  0.00    -0.047 Br
ATOM     27  C   UNL A   1      32.844  17.325  23.398  1.00  0.00     0.001 A 
ENDBRANCH  20  21
ENDBRANCH  19  20
ENDBRANCH  17  19
ENDBRANCH  10  15
BRANCH  14  28
ATOM     28  O   UNL A   1      33.986  27.561  23.675  1.00  0.00    -0.507 OA
ATOM     29  H   UNL A   1      34.849  27.262  23.468  1.00  0.00     0.293 HD
ENDBRANCH  14  28
ENDBRANCH   7   9
ENDBRANCH   6   7
ENDBRANCH   5   6
ENDBRANCH   4   5
ENDBRANCH   3   4
ENDBRANCH   2   3
ENDBRANCH   1   2
BRANCH   1  30
ATOM     30  O   UNL A   1      35.680  33.452  31.458  1.00  0.00    -0.377 OA
BRANCH  30  31
ATOM     31  C   UNL A   1      34.580  34.046  32.153  1.00  0.00     0.188 C 
BRANCH  31  32
ATOM     32  C   UNL A   1      34.706  34.541  33.616  1.00  0.00     0.188 C 
BRANCH  32  33
ATOM     33  O   UNL A   1      35.182  33.560  34.528  1.00  0.00    -0.376 OA
BRANCH  33  34
ATOM     34  C   UNL A   1      36.576  33.451  34.746  1.00  0.00     0.202 C 
BRANCH  34  35
ATOM     35  C   UNL A   1      37.248  32.168  34.241  1.00  0.00     0.261 C 
BRANCH  35  36
ATOM     36  O   UNL A   1      38.675  32.216  34.119  1.00  0.00    -0.460 OA
BRANCH  36  37
ATOM     37  C   UNL A   1      39.383  31.281  34.787  1.00  0.00     0.338 C 
ATOM     38  O   UNL A   1      39.162  30.861  35.912  1.00  0.00    -0.246 OA
BRANCH  37  39
ATOM     39  C   UNL A   1      40.369  30.708  33.849  1.00  0.00     0.060 A 
ATOM     40  C   UNL A   1      41.216  29.684  34.291  1.00  0.00     0.016 A 
ATOM     41  C   UNL A   1      40.448  31.176  32.535  1.00  0.00     0.016 A 
ATOM     42  C   UNL A   1      42.178  29.156  33.429  1.00  0.00     0.010 A 
ATOM     43  C   UNL A   1      41.422  30.657  31.679  1.00  0.00     0.010 A 
ATOM     44  C   UNL A   1      42.317  29.671  32.133  1.00  0.00    -0.014 A 
BRANCH  44  45
ATOM     45  C   UNL A   1      43.511  29.326  31.324  1.00  0.00     0.031 A 
ATOM     46  C   UNL A   1      43.471  28.072  30.491  1.00  0.00     0.074 A 
ATOM     47  C   UNL A   1      44.600  30.115  31.308  1.00  0.00     0.049 A 
ATOM     48  N   UNL A   1      44.398  27.544  29.735  1.00  0.00    -0.248 NA
ATOM     49  C   UNL A   1      42.211  27.311  30.520  1.00  0.00     0.031 C 
ATOM     50  C   UNL A   1      44.743  31.375  32.036  1.00  0.00     0.029 A 
ATOM     51  N   UNL A   1      45.797  29.967  30.651  1.00  0.00    -0.354 N 
ATOM     52  C   UNL A   1      43.836  26.390  29.200  1.00  0.00     0.074 A 
ATOM     53  C   UNL A   1      42.505  26.272  29.752  1.00  0.00     0.031 C 
ATOM     54  C   UNL A   1      45.963  31.884  31.788  1.00  0.00     0.029 A 
ATOM     55  C   UNL A   1      46.698  30.970  30.914  1.00  0.00     0.049 A 
ATOM     56  H   UNL A   1      45.990  29.213  30.049  1.00  0.00     0.167 HD
ATOM     57  C   UNL A   1      44.376  25.514  28.319  1.00  0.00     0.037 A 
ATOM     58  C   UNL A   1      47.975  31.122  30.508  1.00  0.00     0.037 A 
ATOM     59  C   UNL A   1      45.708  25.632  27.783  1.00  0.00     0.049 A 
ATOM     60  C   UNL A   1      48.587  30.087  29.597  1.00  0.00     0.074 A 
ATOM     61  C   UNL A   1      46.349  24.799  26.884  1.00  0.00     0.029 A 
ATOM     62  N   UNL A   1      46.606  26.638  28.107  1.00  0.00    -0.354 N 
ATOM     63  N   UNL A   1      48.043  29.008  29.085  1.00  0.00    -0.248 NA
ATOM     64  C   UNL A   1      49.989  30.295  29.204  1.00  0.00     0.031 C 
ATOM     65  C   UNL A   1      47.656  25.271  26.709  1.00  0.00     0.029 A 
ATOM     66  C   UNL A   1      47.806  26.434  27.446  1.00  0.00     0.049 A 
ATOM     67  H   UNL A   1      46.418  27.388  28.716  1.00  0.00     0.167 HD
ATOM     68  C   UNL A   1      49.023  28.429  28.283  1.00  0.00     0.074 A 
ATOM     69  C   UNL A   1      50.189  29.283  28.370  1.00  0.00     0.031 C 
ATOM     70  C   UNL A   1      48.961  27.296  27.538  1.00  0.00     0.037 A 
BRANCH  57  71
ATOM     71  C   UNL A   1      43.531  24.337  27.909  1.00  0.00     0.058 A 
ATOM     72  C   UNL A   1      43.330  23.236  28.758  1.00  0.00     0.135 A 
ATOM     73  C   UNL A   1      42.908  24.313  26.651  1.00  0.00     0.135 A 
ATOM     74  F   UNL A   1      43.917  23.196  29.965  1.00  0.00    -0.206 F 
ATOM     75  C   UNL A   1      42.573  22.138  28.359  1.00  0.00     0.059 A 
ATOM     76  C   UNL A   1      42.119  23.240  26.244  1.00  0.00     0.059 A 
ATOM     77  F   UNL A   1      43.066  25.336  25.797  1.00  0.00    -0.206 F 
ATOM     78  C   UNL A   1      41.974  22.148  27.099  1.00  0.00     0.060 A 
BRANCH  78  79
ATOM     79  S   UNL A   1      41.008  20.710  26.593  1.00  0.00     0.124 S 
ATOM     80  O   UNL A   1      39.760  21.335  26.166  1.00  0.00    -0.237 OA
ATOM     81  O   UNL A   1      41.828  20.143  25.528  1.00  0.00    -0.237 OA
ATOM     82  O   UNL A   1      40.923  19.910  27.811  1.00  0.00    -0.744 OA
ENDBRANCH  78  79
ENDBRANCH  57  71
BRANCH  58  83
ATOM     83  C   UNL A   1      48.764  32.302  30.955  1.00  0.00     0.058 A 
ATOM     84  C   UNL A   1      49.536  32.254  32.126  1.00  0.00     0.135 A 
ATOM     85  C   UNL A   1      48.762  33.502  30.226  1.00  0.00     0.135 A 
ATOM     86  F   UNL A   1      49.560  31.137  32.868  1.00  0.00    -0.206 F 
ATOM     87  C   UNL A   1      50.270  33.353  32.563  1.00  0.00     0.059 A 
ATOM     88  C   UNL A   1      49.510  34.605  30.625  1.00  0.00     0.059 A 
ATOM     89  F   UNL A   1      48.044  33.600  29.095  1.00  0.00    -0.206 F 
ATOM     90  C   UNL A   1      50.256  34.523  31.801  1.00  0.00     0.060 A 
BRANCH  90  91
ATOM     91  S   UNL A   1      51.260  35.921  32.347  1.00  0.00     0.124 S 
ATOM     92  O   UNL A   1      52.354  35.248  33.036  1.00  0.00    -0.237 OA
ATOM     93  O   UNL A   1      51.599  36.563  31.080  1.00  0.00    -0.237 OA
ATOM     94  O   UNL A   1      50.347  36.678  33.199  1.00  0.00    -0.744 OA
ENDBRANCH  90  91
ENDBRANCH  58  83
BRANCH  70  95
ATOM     95  C   UNL A   1      50.173  26.934  26.718  1.00  0.00     0.058 A 
ATOM     96  C   UNL A   1      50.324  27.353  25.387  1.00  0.00     0.135 A 
ATOM     97  C   UNL A   1      51.219  26.192  27.292  1.00  0.00     0.135 A 
ATOM     98  F   UNL A   1      49.355  28.062  24.786  1.00  0.00    -0.206 F 
ATOM     99  C   UNL A   1      51.453  27.019  24.644  1.00  0.00     0.059 A 
ATOM    100  C   UNL A   1      52.372  25.876  26.578  1.00  0.00     0.059 A 
ATOM    101  F   UNL A   1      51.136  25.777  28.566  1.00  0.00    -0.206 F 
ATOM    102  C   UNL A   1      52.472  26.280  25.248  1.00  0.00     0.060 A 
BRANCH 102 103
ATOM    103  S   UNL A   1      53.938  25.873  24.278  1.00  0.00     0.124 S 
ATOM    104  O   UNL A   1      54.856  26.936  24.671  1.00  0.00    -0.237 OA
ATOM    105  O   UNL A   1      54.271  24.536  24.761  1.00  0.00    -0.237 OA
ATOM    106  O   UNL A   1      53.462  25.934  22.899  1.00  0.00    -0.744 OA
ENDBRANCH 102 103
ENDBRANCH  70  95
ENDBRANCH  44  45
ENDBRANCH  37  39
ENDBRANCH  36  37
ENDBRANCH  35  36
ENDBRANCH  34  35
ENDBRANCH  33  34
ENDBRANCH  32  33
ENDBRANCH  31  32
ENDBRANCH  30  31
ENDBRANCH   1  30
TORSDOF 28
ENDMDL
