MODEL 1
REMARK VINA RESULT:      -7.0      0.000      0.000
REMARK SMILES CCOC(=O)NC(=O)COc1csc(C(=O)OCCOCCOCCOCCOC(=O)c2ccc(-c3c4nc(c(-c5c(F)cc(S(=O)(=O)[O-])cc5F)c5ccc([nH]5)c(-c5c(F)cc(S(=O)(=O)[O-])cc5F)c5nc(c(-c6c(F)cc(S(=O)(=O)[O-])cc6F)c6ccc3[nH]6)C=C5)C=C4)cc2)c1
REMARK SMILES IDX 22 1 21 2 20 3 19 4 18 5 17 6 15 7 16 8 14 9 11 10 12 11
REMARK SMILES IDX 98 12 13 13 10 14 9 15 7 16 4 17 5 18 6 19 8 21 3 22 2 23
REMARK SMILES IDX 1 24 23 25 24 26 25 27 26 28 27 29 28 30 29 31 30 32 31 33
REMARK SMILES IDX 32 34 33 35 97 36 34 37 96 38 35 39 36 40 37 41 90 42 38 43
REMARK SMILES IDX 95 44 89 45 91 46 39 47 94 48 88 49 87 50 40 52 74 53 53 54
REMARK SMILES IDX 73 55 54 56 57 57 72 58 92 59 55 60 56 61 71 63 93 64 58 65
REMARK SMILES IDX 41 66 42 67 51 68 43 69 44 70 50 71 52 72 45 73 46 74 47 75
REMARK SMILES IDX 48 76 49 77 75 78 76 79 85 80 77 81 78 82 84 83 86 84 79 85
REMARK SMILES IDX 80 86 81 87 82 88 83 89 59 90 60 91 69 92 61 93 62 94 68 95
REMARK SMILES IDX 70 96 63 97 64 98 65 99 66 100 67 101
REMARK H PARENT 6 20 91 51 57 62
REMARK Flexibility Score: inf
ROOT
ATOM      1  C   UNL A   1      45.949  39.955  38.626  1.00  0.00     0.188 C 
ENDROOT
BRANCH   1   2
ATOM      2  C   UNL A   1      45.451  39.511  37.239  1.00  0.00     0.188 C 
BRANCH   2   3
ATOM      3  O   UNL A   1      46.463  39.564  36.240  1.00  0.00    -0.376 OA
BRANCH   3   4
ATOM      4  C   UNL A   1      46.044  39.722  34.891  1.00  0.00     0.202 C 
BRANCH   4   5
ATOM      5  C   UNL A   1      45.048  40.851  34.585  1.00  0.00     0.261 C 
BRANCH   5   6
ATOM      6  O   UNL A   1      43.699  40.443  34.315  1.00  0.00    -0.459 OA
BRANCH   6   7
ATOM      7  C   UNL A   1      43.044  41.025  33.278  1.00  0.00     0.348 C 
ATOM      8  O   UNL A   1      42.061  41.748  33.391  1.00  0.00    -0.245 OA
BRANCH   7   9
ATOM      9  C   UNL A   1      43.805  40.776  32.070  1.00  0.00     0.116 A 
ATOM     10  C   UNL A   1      45.007  41.080  30.086  1.00  0.00     0.131 A 
ATOM     11  C   UNL A   1      44.605  39.769  29.964  1.00  0.00     0.112 A 
ATOM     12  C   UNL A   1      44.512  41.667  31.286  1.00  0.00     0.074 A 
ATOM     13  S   UNL A   1      43.792  39.214  31.371  1.00  0.00    -0.133 S 
BRANCH  10  14
ATOM     14  O   UNL A   1      45.785  41.806  29.247  1.00  0.00    -0.483 OA
BRANCH  14  15
ATOM     15  C   UNL A   1      45.180  42.481  28.170  1.00  0.00     0.329 C 
BRANCH  15  16
ATOM     16  C   UNL A   1      45.126  44.010  28.046  1.00  0.00     0.267 C 
ATOM     17  C   UNL A   1      45.547  44.233  25.550  1.00  0.00     0.413 C 
ATOM     18  O   UNL A   1      45.595  45.048  24.636  1.00  0.00    -0.224 OA
ATOM     19  N   UNL A   1      45.275  44.643  26.836  1.00  0.00    -0.258 N 
ATOM     20  H   UNL A   1      45.163  45.619  26.904  1.00  0.00     0.176 HD
ATOM     21  O   UNL A   1      44.962  44.715  29.048  1.00  0.00    -0.271 OA
BRANCH  17  22
ATOM     22  O   UNL A   1      45.758  42.907  25.421  1.00  0.00    -0.450 OA
BRANCH  22  23
ATOM     23  C   UNL A   1      45.973  42.421  24.089  1.00  0.00     0.231 C 
ATOM     24  C   UNL A   1      46.825  41.164  24.089  1.00  0.00     0.049 C 
ENDBRANCH  22  23
ENDBRANCH  17  22
ENDBRANCH  15  16
ENDBRANCH  14  15
ENDBRANCH  10  14
ENDBRANCH   7   9
ENDBRANCH   6   7
ENDBRANCH   5   6
ENDBRANCH   4   5
ENDBRANCH   3   4
ENDBRANCH   2   3
ENDBRANCH   1   2
BRANCH   1  25
ATOM     25  O   UNL A   1      45.560  39.090  39.677  1.00  0.00    -0.377 OA
BRANCH  25  26
ATOM     26  C   UNL A   1      44.247  38.529  39.652  1.00  0.00     0.188 C 
BRANCH  26  27
ATOM     27  C   UNL A   1      42.966  39.387  39.795  1.00  0.00     0.188 C 
BRANCH  27  28
ATOM     28  O   UNL A   1      41.751  38.644  39.842  1.00  0.00    -0.376 OA
BRANCH  28  29
ATOM     29  C   UNL A   1      40.829  38.999  40.864  1.00  0.00     0.202 C 
BRANCH  29  30
ATOM     30  C   UNL A   1      39.410  39.259  40.346  1.00  0.00     0.261 C 
BRANCH  30  31
ATOM     31  O   UNL A   1      38.773  38.125  39.739  1.00  0.00    -0.460 OA
BRANCH  31  32
ATOM     32  C   UNL A   1      38.877  36.943  40.389  1.00  0.00     0.338 C 
ATOM     33  O   UNL A   1      38.573  36.710  41.545  1.00  0.00    -0.246 OA
BRANCH  32  34
ATOM     34  C   UNL A   1      39.263  35.919  39.401  1.00  0.00     0.060 A 
ATOM     35  C   UNL A   1      40.009  36.306  38.280  1.00  0.00     0.016 A 
ATOM     36  C   UNL A   1      38.885  34.588  39.581  1.00  0.00     0.016 A 
ATOM     37  C   UNL A   1      40.343  35.361  37.310  1.00  0.00     0.010 A 
ATOM     38  C   UNL A   1      39.206  33.647  38.602  1.00  0.00     0.010 A 
ATOM     39  C   UNL A   1      39.904  34.037  37.447  1.00  0.00    -0.014 A 
BRANCH  39  40
ATOM     40  C   UNL A   1      39.992  33.104  36.298  1.00  0.00     0.031 A 
ATOM     41  C   UNL A   1      41.069  32.053  36.321  1.00  0.00     0.074 A 
ATOM     42  C   UNL A   1      39.140  33.185  35.261  1.00  0.00     0.049 A 
ATOM     43  N   UNL A   1      41.382  31.166  35.414  1.00  0.00    -0.248 NA
ATOM     44  C   UNL A   1      41.909  32.004  37.529  1.00  0.00     0.031 C 
ATOM     45  C   UNL A   1      38.039  34.138  35.142  1.00  0.00     0.029 A 
ATOM     46  N   UNL A   1      39.080  32.452  34.103  1.00  0.00    -0.354 N 
ATOM     47  C   UNL A   1      42.453  30.452  35.941  1.00  0.00     0.074 A 
ATOM     48  C   UNL A   1      42.758  31.033  37.230  1.00  0.00     0.031 C 
ATOM     49  C   UNL A   1      37.418  33.940  33.965  1.00  0.00     0.029 A 
ATOM     50  C   UNL A   1      38.096  32.867  33.237  1.00  0.00     0.049 A 
ATOM     51  H   UNL A   1      39.684  31.700  33.909  1.00  0.00     0.167 HD
ATOM     52  C   UNL A   1      43.115  29.402  35.403  1.00  0.00     0.037 A 
ATOM     53  C   UNL A   1      37.794  32.441  31.994  1.00  0.00     0.037 A 
ATOM     54  C   UNL A   1      42.816  28.835  34.116  1.00  0.00     0.049 A 
ATOM     55  C   UNL A   1      38.593  31.315  31.385  1.00  0.00     0.074 A 
ATOM     56  C   UNL A   1      43.425  27.767  33.482  1.00  0.00     0.029 A 
ATOM     57  N   UNL A   1      41.825  29.296  33.260  1.00  0.00    -0.354 N 
ATOM     58  N   UNL A   1      39.589  30.634  31.902  1.00  0.00    -0.248 NA
ATOM     59  C   UNL A   1      38.226  30.900  30.023  1.00  0.00     0.031 C 
ATOM     60  C   UNL A   1      42.834  27.610  32.224  1.00  0.00     0.029 A 
ATOM     61  C   UNL A   1      41.820  28.547  32.096  1.00  0.00     0.049 A 
ATOM     62  H   UNL A   1      41.217  30.045  33.453  1.00  0.00     0.167 HD
ATOM     63  C   UNL A   1      39.943  29.689  30.943  1.00  0.00     0.074 A 
ATOM     64  C   UNL A   1      39.053  29.883  29.817  1.00  0.00     0.031 C 
ATOM     65  C   UNL A   1      40.917  28.745  30.990  1.00  0.00     0.037 A 
BRANCH  52  66
ATOM     66  C   UNL A   1      44.245  28.815  36.202  1.00  0.00     0.058 A 
ATOM     67  C   UNL A   1      44.058  27.697  37.032  1.00  0.00     0.135 A 
ATOM     68  C   UNL A   1      45.534  29.365  36.124  1.00  0.00     0.135 A 
ATOM     69  F   UNL A   1      42.841  27.147  37.160  1.00  0.00    -0.206 F 
ATOM     70  C   UNL A   1      45.105  27.162  37.776  1.00  0.00     0.059 A 
ATOM     71  C   UNL A   1      46.601  28.830  36.839  1.00  0.00     0.059 A 
ATOM     72  F   UNL A   1      45.766  30.438  35.350  1.00  0.00    -0.206 F 
ATOM     73  C   UNL A   1      46.372  27.737  37.673  1.00  0.00     0.060 A 
BRANCH  73  74
ATOM     74  S   UNL A   1      47.720  27.031  38.645  1.00  0.00     0.124 S 
ATOM     75  O   UNL A   1      47.253  25.661  38.837  1.00  0.00    -0.237 OA
ATOM     76  O   UNL A   1      48.865  27.191  37.754  1.00  0.00    -0.237 OA
ATOM     77  O   UNL A   1      47.743  27.859  39.846  1.00  0.00    -0.744 OA
ENDBRANCH  73  74
ENDBRANCH  52  66
BRANCH  53  78
ATOM     78  C   UNL A   1      36.690  33.084  31.232  1.00  0.00     0.058 A 
ATOM     79  C   UNL A   1      35.347  32.806  31.529  1.00  0.00     0.135 A 
ATOM     80  C   UNL A   1      36.955  33.978  30.183  1.00  0.00     0.135 A 
ATOM     81  F   UNL A   1      35.042  31.948  32.514  1.00  0.00    -0.206 F 
ATOM     82  C   UNL A   1      34.306  33.378  30.804  1.00  0.00     0.059 A 
ATOM     83  C   UNL A   1      35.931  34.583  29.460  1.00  0.00     0.059 A 
ATOM     84  F   UNL A   1      38.222  34.283  29.863  1.00  0.00    -0.206 F 
ATOM     85  C   UNL A   1      34.609  34.269  29.772  1.00  0.00     0.060 A 
BRANCH  85  86
ATOM     86  S   UNL A   1      33.251  35.042  28.867  1.00  0.00     0.124 S 
ATOM     87  O   UNL A   1      32.786  33.939  28.035  1.00  0.00    -0.237 OA
ATOM     88  O   UNL A   1      32.356  35.450  29.946  1.00  0.00    -0.237 OA
ATOM     89  O   UNL A   1      33.903  36.139  28.157  1.00  0.00    -0.744 OA
ENDBRANCH  85  86
ENDBRANCH  53  78
BRANCH  65  90
ATOM     90  C   UNL A   1      41.046  27.816  29.813  1.00  0.00     0.058 A 
ATOM     91  C   UNL A   1      40.083  26.835  29.534  1.00  0.00     0.135 A 
ATOM     92  C   UNL A   1      42.119  27.955  28.918  1.00  0.00     0.135 A 
ATOM     93  F   UNL A   1      39.040  26.658  30.359  1.00  0.00    -0.206 F 
ATOM     94  C   UNL A   1      40.191  26.009  28.419  1.00  0.00     0.059 A 
ATOM     95  C   UNL A   1      42.233  27.157  27.783  1.00  0.00     0.059 A 
ATOM     96  F   UNL A   1      43.063  28.886  29.131  1.00  0.00    -0.206 F 
ATOM     97  C   UNL A   1      41.269  26.179  27.548  1.00  0.00     0.060 A 
BRANCH  97  98
ATOM     98  S   UNL A   1      41.379  25.124  26.087  1.00  0.00     0.124 S 
ATOM     99  O   UNL A   1      40.137  24.364  26.179  1.00  0.00    -0.237 OA
ATOM    100  O   UNL A   1      41.446  26.099  25.002  1.00  0.00    -0.237 OA
ATOM    101  O   UNL A   1      42.602  24.360  26.310  1.00  0.00    -0.744 OA
ENDBRANCH  97  98
ENDBRANCH  65  90
ENDBRANCH  39  40
ENDBRANCH  32  34
ENDBRANCH  31  32
ENDBRANCH  30  31
ENDBRANCH  29  30
ENDBRANCH  28  29
ENDBRANCH  27  28
ENDBRANCH  26  27
ENDBRANCH  25  26
ENDBRANCH   1  25
TORSDOF 28
ENDMDL
MODEL 2
REMARK VINA RESULT:      -6.9      3.513      5.577
REMARK SMILES CCOC(=O)NC(=O)COc1csc(C(=O)OCCOCCOCCOCCOC(=O)c2ccc(-c3c4nc(c(-c5c(F)cc(S(=O)(=O)[O-])cc5F)c5ccc([nH]5)c(-c5c(F)cc(S(=O)(=O)[O-])cc5F)c5nc(c(-c6c(F)cc(S(=O)(=O)[O-])cc6F)c6ccc3[nH]6)C=C5)C=C4)cc2)c1
REMARK SMILES IDX 22 1 21 2 20 3 19 4 18 5 17 6 15 7 16 8 14 9 11 10 12 11
REMARK SMILES IDX 98 12 13 13 10 14 9 15 7 16 4 17 5 18 6 19 8 21 3 22 2 23
REMARK SMILES IDX 1 24 23 25 24 26 25 27 26 28 27 29 28 30 29 31 30 32 31 33
REMARK SMILES IDX 32 34 33 35 97 36 34 37 96 38 35 39 36 40 37 41 90 42 38 43
REMARK SMILES IDX 95 44 89 45 91 46 39 47 94 48 88 49 87 50 40 52 74 53 53 54
REMARK SMILES IDX 73 55 54 56 57 57 72 58 92 59 55 60 56 61 71 63 93 64 58 65
REMARK SMILES IDX 41 66 42 67 51 68 43 69 44 70 50 71 52 72 45 73 46 74 47 75
REMARK SMILES IDX 48 76 49 77 75 78 76 79 85 80 77 81 78 82 84 83 86 84 79 85
REMARK SMILES IDX 80 86 81 87 82 88 83 89 59 90 60 91 69 92 61 93 62 94 68 95
REMARK SMILES IDX 70 96 63 97 64 98 65 99 66 100 67 101
REMARK H PARENT 6 20 91 51 57 62
REMARK Flexibility Score: inf
ROOT
ATOM      1  C   UNL A   1      45.995  39.879  38.816  1.00  0.00     0.188 C 
ENDROOT
BRANCH   1   2
ATOM      2  C   UNL A   1      45.703  39.109  37.517  1.00  0.00     0.188 C 
BRANCH   2   3
ATOM      3  O   UNL A   1      44.482  39.501  36.899  1.00  0.00    -0.376 OA
BRANCH   3   4
ATOM      4  C   UNL A   1      44.562  40.102  35.615  1.00  0.00     0.202 C 
BRANCH   4   5
ATOM      5  C   UNL A   1      45.840  40.886  35.276  1.00  0.00     0.261 C 
BRANCH   5   6
ATOM      6  O   UNL A   1      45.796  42.299  35.527  1.00  0.00    -0.459 OA
BRANCH   6   7
ATOM      7  C   UNL A   1      46.969  42.977  35.604  1.00  0.00     0.348 C 
ATOM      8  O   UNL A   1      47.798  43.040  34.703  1.00  0.00    -0.245 OA
BRANCH   7   9
ATOM      9  C   UNL A   1      46.976  43.723  36.845  1.00  0.00     0.116 A 
ATOM     10  C   UNL A   1      46.440  44.501  38.985  1.00  0.00     0.131 A 
ATOM     11  C   UNL A   1      47.148  45.566  38.476  1.00  0.00     0.112 A 
ATOM     12  C   UNL A   1      46.312  43.455  38.028  1.00  0.00     0.074 A 
ATOM     13  S   UNL A   1      47.798  45.222  36.925  1.00  0.00    -0.133 S 
BRANCH  10  14
ATOM     14  O   UNL A   1      45.908  44.356  40.223  1.00  0.00    -0.483 OA
BRANCH  14  15
ATOM     15  C   UNL A   1      44.519  44.516  40.391  1.00  0.00     0.329 C 
BRANCH  15  16
ATOM     16  C   UNL A   1      43.879  45.733  41.074  1.00  0.00     0.267 C 
ATOM     17  C   UNL A   1      42.108  44.543  42.453  1.00  0.00     0.413 C 
ATOM     18  O   UNL A   1      41.243  44.727  43.302  1.00  0.00    -0.224 OA
ATOM     19  N   UNL A   1      42.851  45.599  41.975  1.00  0.00    -0.258 N 
ATOM     20  H   UNL A   1      42.580  46.459  42.371  1.00  0.00     0.176 HD
ATOM     21  O   UNL A   1      44.270  46.877  40.813  1.00  0.00    -0.271 OA
BRANCH  17  22
ATOM     22  O   UNL A   1      42.412  43.352  41.899  1.00  0.00    -0.450 OA
BRANCH  22  23
ATOM     23  C   UNL A   1      41.308  42.566  41.427  1.00  0.00     0.231 C 
ATOM     24  C   UNL A   1      40.965  42.903  39.986  1.00  0.00     0.049 C 
ENDBRANCH  22  23
ENDBRANCH  17  22
ENDBRANCH  15  16
ENDBRANCH  14  15
ENDBRANCH  10  14
ENDBRANCH   7   9
ENDBRANCH   6   7
ENDBRANCH   5   6
ENDBRANCH   4   5
ENDBRANCH   3   4
ENDBRANCH   2   3
ENDBRANCH   1   2
BRANCH   1  25
ATOM     25  O   UNL A   1      45.683  39.156  39.994  1.00  0.00    -0.377 OA
BRANCH  25  26
ATOM     26  C   UNL A   1      44.368  38.619  40.139  1.00  0.00     0.188 C 
BRANCH  26  27
ATOM     27  C   UNL A   1      43.115  39.508  40.324  1.00  0.00     0.188 C 
BRANCH  27  28
ATOM     28  O   UNL A   1      41.877  38.870  40.023  1.00  0.00    -0.376 OA
BRANCH  28  29
ATOM     29  C   UNL A   1      40.822  39.057  40.957  1.00  0.00     0.202 C 
BRANCH  29  30
ATOM     30  C   UNL A   1      39.475  39.379  40.302  1.00  0.00     0.261 C 
BRANCH  30  31
ATOM     31  O   UNL A   1      38.823  38.261  39.682  1.00  0.00    -0.460 OA
BRANCH  31  32
ATOM     32  C   UNL A   1      38.899  37.073  40.325  1.00  0.00     0.338 C 
ATOM     33  O   UNL A   1      38.587  36.840  41.479  1.00  0.00    -0.246 OA
BRANCH  32  34
ATOM     34  C   UNL A   1      39.265  36.047  39.332  1.00  0.00     0.060 A 
ATOM     35  C   UNL A   1      39.977  36.432  38.189  1.00  0.00     0.016 A 
ATOM     36  C   UNL A   1      38.902  34.713  39.531  1.00  0.00     0.016 A 
ATOM     37  C   UNL A   1      40.290  35.484  37.216  1.00  0.00     0.010 A 
ATOM     38  C   UNL A   1      39.203  33.769  38.548  1.00  0.00     0.010 A 
ATOM     39  C   UNL A   1      39.866  34.157  37.372  1.00  0.00    -0.014 A 
BRANCH  39  40
ATOM     40  C   UNL A   1      39.929  33.218  36.226  1.00  0.00     0.031 A 
ATOM     41  C   UNL A   1      40.983  32.145  36.249  1.00  0.00     0.074 A 
ATOM     42  C   UNL A   1      39.074  33.314  35.193  1.00  0.00     0.049 A 
ATOM     43  N   UNL A   1      41.273  31.248  35.344  1.00  0.00    -0.248 NA
ATOM     44  C   UNL A   1      41.827  32.082  37.454  1.00  0.00     0.031 C 
ATOM     45  C   UNL A   1      37.994  34.290  35.074  1.00  0.00     0.029 A 
ATOM     46  N   UNL A   1      38.994  32.578  34.037  1.00  0.00    -0.354 N 
ATOM     47  C   UNL A   1      42.330  30.513  35.870  1.00  0.00     0.074 A 
ATOM     48  C   UNL A   1      42.653  31.091  37.156  1.00  0.00     0.031 C 
ATOM     49  C   UNL A   1      37.364  34.101  33.900  1.00  0.00     0.029 A 
ATOM     50  C   UNL A   1      38.015  33.010  33.174  1.00  0.00     0.049 A 
ATOM     51  H   UNL A   1      39.581  31.812  33.844  1.00  0.00     0.167 HD
ATOM     52  C   UNL A   1      42.967  29.446  35.334  1.00  0.00     0.037 A 
ATOM     53  C   UNL A   1      37.700  32.586  31.934  1.00  0.00     0.037 A 
ATOM     54  C   UNL A   1      42.651  28.881  34.050  1.00  0.00     0.049 A 
ATOM     55  C   UNL A   1      38.471  31.441  31.326  1.00  0.00     0.074 A 
ATOM     56  C   UNL A   1      43.234  27.797  33.417  1.00  0.00     0.029 A 
ATOM     57  N   UNL A   1      41.667  29.360  33.196  1.00  0.00    -0.354 N 
ATOM     58  N   UNL A   1      39.454  30.740  31.841  1.00  0.00    -0.248 NA
ATOM     59  C   UNL A   1      38.090  31.029  29.967  1.00  0.00     0.031 C 
ATOM     60  C   UNL A   1      42.634  27.649  32.163  1.00  0.00     0.029 A 
ATOM     61  C   UNL A   1      41.641  28.607  32.035  1.00  0.00     0.049 A 
ATOM     62  H   UNL A   1      41.075  30.123  33.389  1.00  0.00     0.167 HD
ATOM     63  C   UNL A   1      39.784  29.785  30.885  1.00  0.00     0.074 A 
ATOM     64  C   UNL A   1      38.894  29.994  29.762  1.00  0.00     0.031 C 
ATOM     65  C   UNL A   1      40.737  28.820  30.932  1.00  0.00     0.037 A 
BRANCH  52  66
ATOM     66  C   UNL A   1      44.088  28.838  36.130  1.00  0.00     0.058 A 
ATOM     67  C   UNL A   1      45.381  29.385  36.119  1.00  0.00     0.135 A 
ATOM     68  C   UNL A   1      43.862  27.706  36.929  1.00  0.00     0.135 A 
ATOM     69  F   UNL A   1      45.657  30.454  35.354  1.00  0.00    -0.206 F 
ATOM     70  C   UNL A   1      46.418  28.815  36.851  1.00  0.00     0.059 A 
ATOM     71  C   UNL A   1      44.877  27.136  37.690  1.00  0.00     0.059 A 
ATOM     72  F   UNL A   1      42.645  27.140  36.972  1.00  0.00    -0.206 F 
ATOM     73  C   UNL A   1      46.155  27.689  37.633  1.00  0.00     0.060 A 
BRANCH  73  74
ATOM     74  S   UNL A   1      47.510  26.962  38.578  1.00  0.00     0.124 S 
ATOM     75  O   UNL A   1      48.651  27.237  37.710  1.00  0.00    -0.237 OA
ATOM     76  O   UNL A   1      47.465  27.720  39.824  1.00  0.00    -0.237 OA
ATOM     77  O   UNL A   1      47.132  25.557  38.688  1.00  0.00    -0.744 OA
ENDBRANCH  73  74
ENDBRANCH  52  66
BRANCH  53  78
ATOM     78  C   UNL A   1      36.606  33.250  31.174  1.00  0.00     0.058 A 
ATOM     79  C   UNL A   1      36.885  34.080  30.077  1.00  0.00     0.135 A 
ATOM     80  C   UNL A   1      35.261  33.079  31.537  1.00  0.00     0.135 A 
ATOM     81  F   UNL A   1      38.156  34.286  29.699  1.00  0.00    -0.206 F 
ATOM     82  C   UNL A   1      35.873  34.729  29.377  1.00  0.00     0.059 A 
ATOM     83  C   UNL A   1      34.229  33.696  30.837  1.00  0.00     0.059 A 
ATOM     84  F   UNL A   1      34.939  32.291  32.574  1.00  0.00    -0.206 F 
ATOM     85  C   UNL A   1      34.546  34.528  29.764  1.00  0.00     0.060 A 
BRANCH  85  86
ATOM     86  S   UNL A   1      33.236  35.338  28.821  1.00  0.00     0.124 S 
ATOM     87  O   UNL A   1      34.003  36.212  27.942  1.00  0.00    -0.237 OA
ATOM     88  O   UNL A   1      32.576  34.205  28.178  1.00  0.00    -0.237 OA
ATOM     89  O   UNL A   1      32.448  36.009  29.850  1.00  0.00    -0.744 OA
ENDBRANCH  85  86
ENDBRANCH  53  78
BRANCH  65  90
ATOM     90  C   UNL A   1      40.842  27.884  29.758  1.00  0.00     0.058 A 
ATOM     91  C   UNL A   1      39.901  26.867  29.535  1.00  0.00     0.135 A 
ATOM     92  C   UNL A   1      41.865  28.051  28.810  1.00  0.00     0.135 A 
ATOM     93  F   UNL A   1      38.906  26.663  30.412  1.00  0.00    -0.206 F 
ATOM     94  C   UNL A   1      39.983  26.034  28.423  1.00  0.00     0.059 A 
ATOM     95  C   UNL A   1      41.951  27.246  27.678  1.00  0.00     0.059 A 
ATOM     96  F   UNL A   1      42.784  29.016  28.969  1.00  0.00    -0.206 F 
ATOM     97  C   UNL A   1      41.011  26.232  27.499  1.00  0.00     0.060 A 
BRANCH  97  98
ATOM     98  S   UNL A   1      41.087  25.167  26.044  1.00  0.00     0.124 S 
ATOM     99  O   UNL A   1      42.138  24.228  26.421  1.00  0.00    -0.237 OA
ATOM    100  O   UNL A   1      39.735  24.616  25.989  1.00  0.00    -0.237 OA
ATOM    101  O   UNL A   1      41.425  26.089  24.964  1.00  0.00    -0.744 OA
ENDBRANCH  97  98
ENDBRANCH  65  90
ENDBRANCH  39  40
ENDBRANCH  32  34
ENDBRANCH  31  32
ENDBRANCH  30  31
ENDBRANCH  29  30
ENDBRANCH  28  29
ENDBRANCH  27  28
ENDBRANCH  26  27
ENDBRANCH  25  26
ENDBRANCH   1  25
TORSDOF 28
ENDMDL
MODEL 3
REMARK VINA RESULT:      -6.8      5.715     15.135
REMARK SMILES CCOC(=O)NC(=O)COc1csc(C(=O)OCCOCCOCCOCCOC(=O)c2ccc(-c3c4nc(c(-c5c(F)cc(S(=O)(=O)[O-])cc5F)c5ccc([nH]5)c(-c5c(F)cc(S(=O)(=O)[O-])cc5F)c5nc(c(-c6c(F)cc(S(=O)(=O)[O-])cc6F)c6ccc3[nH]6)C=C5)C=C4)cc2)c1
REMARK SMILES IDX 22 1 21 2 20 3 19 4 18 5 17 6 15 7 16 8 14 9 11 10 12 11
REMARK SMILES IDX 98 12 13 13 10 14 9 15 7 16 4 17 5 18 6 19 8 21 3 22 2 23
REMARK SMILES IDX 1 24 23 25 24 26 25 27 26 28 27 29 28 30 29 31 30 32 31 33
REMARK SMILES IDX 32 34 33 35 97 36 34 37 96 38 35 39 36 40 37 41 90 42 38 43
REMARK SMILES IDX 95 44 89 45 91 46 39 47 94 48 88 49 87 50 40 52 74 53 53 54
REMARK SMILES IDX 73 55 54 56 57 57 72 58 92 59 55 60 56 61 71 63 93 64 58 65
REMARK SMILES IDX 41 66 42 67 51 68 43 69 44 70 50 71 52 72 45 73 46 74 47 75
REMARK SMILES IDX 48 76 49 77 75 78 76 79 85 80 77 81 78 82 84 83 86 84 79 85
REMARK SMILES IDX 80 86 81 87 82 88 83 89 59 90 60 91 69 92 61 93 62 94 68 95
REMARK SMILES IDX 70 96 63 97 64 98 65 99 66 100 67 101
REMARK H PARENT 6 20 91 51 57 62
REMARK Flexibility Score: inf
ROOT
ATOM      1  C   UNL A   1      51.495  22.752  41.993  1.00  0.00     0.188 C 
ENDROOT
BRANCH   1   2
ATOM      2  C   UNL A   1      52.564  21.762  42.488  1.00  0.00     0.188 C 
BRANCH   2   3
ATOM      3  O   UNL A   1      52.422  20.462  41.925  1.00  0.00    -0.376 OA
BRANCH   3   4
ATOM      4  C   UNL A   1      51.111  19.922  41.846  1.00  0.00     0.202 C 
BRANCH   4   5
ATOM      5  C   UNL A   1      50.717  19.200  40.548  1.00  0.00     0.261 C 
BRANCH   5   6
ATOM      6  O   UNL A   1      50.903  19.942  39.334  1.00  0.00    -0.459 OA
BRANCH   6   7
ATOM      7  C   UNL A   1      50.152  21.055  39.137  1.00  0.00     0.348 C 
ATOM      8  O   UNL A   1      50.606  22.176  38.941  1.00  0.00    -0.245 OA
BRANCH   7   9
ATOM      9  C   UNL A   1      48.765  20.649  39.038  1.00  0.00     0.116 A 
ATOM     10  C   UNL A   1      46.819  19.454  38.528  1.00  0.00     0.131 A 
ATOM     11  C   UNL A   1      46.314  20.712  38.764  1.00  0.00     0.112 A 
ATOM     12  C   UNL A   1      48.238  19.432  38.651  1.00  0.00     0.074 A 
ATOM     13  S   UNL A   1      47.527  21.801  39.303  1.00  0.00    -0.133 S 
BRANCH  10  14
ATOM     14  O   UNL A   1      46.147  18.317  38.228  1.00  0.00    -0.483 OA
BRANCH  14  15
ATOM     15  C   UNL A   1      45.149  17.862  39.112  1.00  0.00     0.329 C 
BRANCH  15  16
ATOM     16  C   UNL A   1      45.313  16.638  40.023  1.00  0.00     0.267 C 
ATOM     17  C   UNL A   1      44.089  17.493  42.079  1.00  0.00     0.413 C 
ATOM     18  O   UNL A   1      43.696  17.160  43.192  1.00  0.00    -0.224 OA
ATOM     19  N   UNL A   1      44.775  16.600  41.287  1.00  0.00    -0.258 N 
ATOM     20  H   UNL A   1      44.915  15.733  41.731  1.00  0.00     0.176 HD
ATOM     21  O   UNL A   1      45.955  15.653  39.642  1.00  0.00    -0.271 OA
BRANCH  17  22
ATOM     22  O   UNL A   1      43.920  18.712  41.528  1.00  0.00    -0.450 OA
BRANCH  22  23
ATOM     23  C   UNL A   1      44.691  19.781  42.093  1.00  0.00     0.231 C 
ATOM     24  C   UNL A   1      46.140  19.371  42.296  1.00  0.00     0.049 C 
ENDBRANCH  22  23
ENDBRANCH  17  22
ENDBRANCH  15  16
ENDBRANCH  14  15
ENDBRANCH  10  14
ENDBRANCH   7   9
ENDBRANCH   6   7
ENDBRANCH   5   6
ENDBRANCH   4   5
ENDBRANCH   3   4
ENDBRANCH   2   3
ENDBRANCH   1   2
BRANCH   1  25
ATOM     25  O   UNL A   1      51.863  24.112  42.141  1.00  0.00    -0.377 OA
BRANCH  25  26
ATOM     26  C   UNL A   1      52.440  24.790  41.024  1.00  0.00     0.188 C 
BRANCH  26  27
ATOM     27  C   UNL A   1      51.764  26.003  40.339  1.00  0.00     0.188 C 
BRANCH  27  28
ATOM     28  O   UNL A   1      50.521  25.716  39.704  1.00  0.00    -0.376 OA
BRANCH  28  29
ATOM     29  C   UNL A   1      50.561  25.501  38.300  1.00  0.00     0.202 C 
BRANCH  29  30
ATOM     30  C   UNL A   1      50.114  26.717  37.481  1.00  0.00     0.261 C 
BRANCH  30  31
ATOM     31  O   UNL A   1      48.698  26.951  37.472  1.00  0.00    -0.460 OA
BRANCH  31  32
ATOM     32  C   UNL A   1      47.970  26.267  36.560  1.00  0.00     0.338 C 
ATOM     33  O   UNL A   1      48.155  25.126  36.177  1.00  0.00    -0.246 OA
BRANCH  32  34
ATOM     34  C   UNL A   1      46.788  27.082  36.226  1.00  0.00     0.060 A 
ATOM     35  C   UNL A   1      45.515  26.592  36.542  1.00  0.00     0.016 A 
ATOM     36  C   UNL A   1      46.940  28.322  35.601  1.00  0.00     0.016 A 
ATOM     37  C   UNL A   1      44.383  27.327  36.191  1.00  0.00     0.010 A 
ATOM     38  C   UNL A   1      45.806  29.048  35.237  1.00  0.00     0.010 A 
ATOM     39  C   UNL A   1      44.523  28.537  35.498  1.00  0.00    -0.014 A 
BRANCH  39  40
ATOM     40  C   UNL A   1      43.342  29.171  34.865  1.00  0.00     0.031 A 
ATOM     41  C   UNL A   1      42.976  28.749  33.468  1.00  0.00     0.074 A 
ATOM     42  C   UNL A   1      42.612  30.098  35.511  1.00  0.00     0.049 A 
ATOM     43  N   UNL A   1      42.029  29.196  32.687  1.00  0.00    -0.248 NA
ATOM     44  C   UNL A   1      43.796  27.680  32.872  1.00  0.00     0.031 C 
ATOM     45  C   UNL A   1      42.850  30.563  36.875  1.00  0.00     0.029 A 
ATOM     46  N   UNL A   1      41.524  30.819  35.091  1.00  0.00    -0.354 N 
ATOM     47  C   UNL A   1      42.137  28.464  31.509  1.00  0.00     0.074 A 
ATOM     48  C   UNL A   1      43.264  27.571  31.665  1.00  0.00     0.031 C 
ATOM     49  C   UNL A   1      41.939  31.506  37.177  1.00  0.00     0.029 A 
ATOM     50  C   UNL A   1      41.075  31.730  36.018  1.00  0.00     0.049 A 
ATOM     51  H   UNL A   1      41.103  30.698  34.210  1.00  0.00     0.167 HD
ATOM     52  C   UNL A   1      41.361  28.526  30.402  1.00  0.00     0.037 A 
ATOM     53  C   UNL A   1      40.092  32.649  35.930  1.00  0.00     0.037 A 
ATOM     54  C   UNL A   1      40.249  29.425  30.247  1.00  0.00     0.049 A 
ATOM     55  C   UNL A   1      39.286  32.749  34.659  1.00  0.00     0.074 A 
ATOM     56  C   UNL A   1      39.397  29.563  29.166  1.00  0.00     0.029 A 
ATOM     57  N   UNL A   1      39.838  30.345  31.200  1.00  0.00    -0.354 N 
ATOM     58  N   UNL A   1      39.384  32.038  33.560  1.00  0.00    -0.248 NA
ATOM     59  C   UNL A   1      38.236  33.777  34.616  1.00  0.00     0.031 C 
ATOM     60  C   UNL A   1      38.499  30.597  29.447  1.00  0.00     0.029 A 
ATOM     61  C   UNL A   1      38.759  31.069  30.724  1.00  0.00     0.049 A 
ATOM     62  H   UNL A   1      40.254  30.467  32.084  1.00  0.00     0.167 HD
ATOM     63  C   UNL A   1      38.387  32.510  32.710  1.00  0.00     0.074 A 
ATOM     64  C   UNL A   1      37.695  33.563  33.423  1.00  0.00     0.031 C 
ATOM     65  C   UNL A   1      38.071  32.106  31.454  1.00  0.00     0.037 A 
BRANCH  52  66
ATOM     66  C   UNL A   1      41.709  27.609  29.263  1.00  0.00     0.058 A 
ATOM     67  C   UNL A   1      42.833  27.834  28.453  1.00  0.00     0.135 A 
ATOM     68  C   UNL A   1      40.919  26.481  28.990  1.00  0.00     0.135 A 
ATOM     69  F   UNL A   1      43.609  28.910  28.656  1.00  0.00    -0.206 F 
ATOM     70  C   UNL A   1      43.147  26.987  27.394  1.00  0.00     0.059 A 
ATOM     71  C   UNL A   1      41.230  25.606  27.954  1.00  0.00     0.059 A 
ATOM     72  F   UNL A   1      39.829  26.222  29.731  1.00  0.00    -0.206 F 
ATOM     73  C   UNL A   1      42.338  25.876  27.153  1.00  0.00     0.060 A 
BRANCH  73  74
ATOM     74  S   UNL A   1      42.759  24.787  25.777  1.00  0.00     0.124 S 
ATOM     75  O   UNL A   1      42.515  25.657  24.631  1.00  0.00    -0.237 OA
ATOM     76  O   UNL A   1      44.158  24.470  26.045  1.00  0.00    -0.237 OA
ATOM     77  O   UNL A   1      41.827  23.673  25.927  1.00  0.00    -0.744 OA
ENDBRANCH  73  74
ENDBRANCH  52  66
BRANCH  53  78
ATOM     78  C   UNL A   1      39.816  33.559  37.074  1.00  0.00     0.058 A 
ATOM     79  C   UNL A   1      38.980  33.165  38.129  1.00  0.00     0.135 A 
ATOM     80  C   UNL A   1      40.373  34.847  37.130  1.00  0.00     0.135 A 
ATOM     81  F   UNL A   1      38.413  31.948  38.116  1.00  0.00    -0.206 F 
ATOM     82  C   UNL A   1      38.691  34.017  39.190  1.00  0.00     0.059 A 
ATOM     83  C   UNL A   1      40.119  35.709  38.192  1.00  0.00     0.059 A 
ATOM     84  F   UNL A   1      41.185  35.272  36.150  1.00  0.00    -0.206 F 
ATOM     85  C   UNL A   1      39.269  35.288  39.214  1.00  0.00     0.060 A 
BRANCH  85  86
ATOM     86  S   UNL A   1      38.925  36.372  40.617  1.00  0.00     0.124 S 
ATOM     87  O   UNL A   1      40.128  36.202  41.422  1.00  0.00    -0.237 OA
ATOM     88  O   UNL A   1      38.768  37.671  39.969  1.00  0.00    -0.237 OA
ATOM     89  O   UNL A   1      37.701  35.810  41.182  1.00  0.00    -0.744 OA
ENDBRANCH  85  86
ENDBRANCH  53  78
BRANCH  65  90
ATOM     90  C   UNL A   1      36.900  32.769  30.781  1.00  0.00     0.058 A 
ATOM     91  C   UNL A   1      35.585  32.319  30.969  1.00  0.00     0.135 A 
ATOM     92  C   UNL A   1      37.096  33.911  29.986  1.00  0.00     0.135 A 
ATOM     93  F   UNL A   1      35.344  31.230  31.716  1.00  0.00    -0.206 F 
ATOM     94  C   UNL A   1      34.505  32.965  30.375  1.00  0.00     0.059 A 
ATOM     95  C   UNL A   1      36.028  34.588  29.404  1.00  0.00     0.059 A 
ATOM     96  F   UNL A   1      38.333  34.391  29.784  1.00  0.00    -0.206 F 
ATOM     97  C   UNL A   1      34.736  34.100  29.596  1.00  0.00     0.060 A 
BRANCH  97  98
ATOM     98  S   UNL A   1      33.324  34.950  28.859  1.00  0.00     0.124 S 
ATOM     99  O   UNL A   1      33.959  36.125  28.274  1.00  0.00    -0.237 OA
ATOM    100  O   UNL A   1      32.824  33.960  27.909  1.00  0.00    -0.237 OA
ATOM    101  O   UNL A   1      32.450  35.210  30.000  1.00  0.00    -0.744 OA
ENDBRANCH  97  98
ENDBRANCH  65  90
ENDBRANCH  39  40
ENDBRANCH  32  34
ENDBRANCH  31  32
ENDBRANCH  30  31
ENDBRANCH  29  30
ENDBRANCH  28  29
ENDBRANCH  27  28
ENDBRANCH  26  27
ENDBRANCH  25  26
ENDBRANCH   1  25
TORSDOF 28
ENDMDL
