MODEL 1
REMARK VINA RESULT:      -9.5      0.000      0.000
REMARK SMILES CC(=O)c1ccc(NC(=O)C[C@H](C(=O)OCCOCCOCCOCCOC(=O)c2ccc(-c3c4nc(c(-c5c(F)cc(S(=O)(=O)[O-])cc5F)c5ccc([nH]5)c(-c5c(F)cc(S(=O)(=O)[O-])cc5F)c5nc(c(-c6c(F)cc(S(=O)(=O)[O-])cc6F)c6ccc3[nH]6)C=C5)C=C4)cc2)[NH+](C)C)cc1
REMARK SMILES IDX 20 1 19 2 18 3 17 4 16 5 15 6 13 7 14 8 12 9 11 10 9 11 8 12
REMARK SMILES IDX 10 14 7 15 4 16 5 17 100 18 6 19 99 20 2 21 1 22 3 23 96 24
REMARK SMILES IDX 97 25 98 26 21 28 22 29 23 30 24 31 25 32 26 33 27 34 28 35
REMARK SMILES IDX 29 36 30 37 31 38 95 39 32 40 94 41 33 42 34 43 35 44 88 45
REMARK SMILES IDX 36 46 93 47 87 48 89 49 37 50 92 51 86 52 85 53 38 55 72 56
REMARK SMILES IDX 51 57 71 58 52 59 55 60 70 61 90 62 53 63 54 64 69 66 91 67
REMARK SMILES IDX 56 68 39 69 40 70 49 71 41 72 42 73 48 74 50 75 43 76 44 77
REMARK SMILES IDX 45 78 46 79 47 80 73 81 74 82 83 83 75 84 76 85 82 86 84 87
REMARK SMILES IDX 77 88 78 89 79 90 80 91 81 92 57 93 58 94 67 95 59 96 60 97
REMARK SMILES IDX 66 98 68 99 61 100 62 101 63 102 64 103 65 104
REMARK H PARENT 8 13 96 27 89 54 55 65
REMARK Flexibility Score: inf
ROOT
ATOM      1  C   UNL A   1      33.518  31.454  27.627  1.00  0.00     0.188 C 
ENDROOT
BRANCH   1   2
ATOM      2  C   UNL A   1      33.385  29.988  27.208  1.00  0.00     0.188 C 
BRANCH   2   3
ATOM      3  O   UNL A   1      32.065  29.595  26.849  1.00  0.00    -0.376 OA
BRANCH   3   4
ATOM      4  C   UNL A   1      31.541  30.237  25.681  1.00  0.00     0.202 C 
BRANCH   4   5
ATOM      5  C   UNL A   1      31.680  29.428  24.367  1.00  0.00     0.261 C 
BRANCH   5   6
ATOM      6  O   UNL A   1      30.416  28.825  23.967  1.00  0.00    -0.459 OA
BRANCH   6   7
ATOM      7  C   UNL A   1      30.257  27.476  23.983  1.00  0.00     0.365 C 
ATOM      8  O   UNL A   1      29.160  26.936  23.864  1.00  0.00    -0.245 OA
BRANCH   7   9
ATOM      9  C   UNL A   1      31.604  26.652  24.007  1.00  0.00     0.304 C 
BRANCH   9  10
ATOM     10  C   UNL A   1      32.344  26.671  22.633  1.00  0.00     0.177 C 
BRANCH  10  11
ATOM     11  C   UNL A   1      32.080  25.703  21.476  1.00  0.00     0.231 C 
ATOM     12  N   UNL A   1      32.493  24.395  21.428  1.00  0.00    -0.326 N 
ATOM     13  H   UNL A   1      32.469  24.011  20.521  1.00  0.00     0.169 HD
ATOM     14  O   UNL A   1      31.569  26.150  20.438  1.00  0.00    -0.274 OA
BRANCH  12  15
ATOM     15  C   UNL A   1      32.945  23.491  22.404  1.00  0.00     0.041 A 
ATOM     16  C   UNL A   1      33.847  21.577  24.279  1.00  0.00     0.017 A 
ATOM     17  C   UNL A   1      32.649  21.402  23.635  1.00  0.00     0.014 A 
ATOM     18  C   UNL A   1      34.644  22.663  23.928  1.00  0.00     0.014 A 
ATOM     19  C   UNL A   1      32.208  22.390  22.767  1.00  0.00     0.027 A 
ATOM     20  C   UNL A   1      34.208  23.609  22.974  1.00  0.00     0.027 A 
BRANCH  16  21
ATOM     21  C   UNL A   1      34.133  20.616  25.360  1.00  0.00     0.159 C 
ATOM     22  C   UNL A   1      33.255  19.404  25.472  1.00  0.00     0.093 C 
ATOM     23  O   UNL A   1      35.144  20.758  26.040  1.00  0.00    -0.295 OA
ENDBRANCH  16  21
ENDBRANCH  12  15
ENDBRANCH  10  11
ENDBRANCH   9  10
BRANCH   9  24
ATOM     24  N   UNL A   1      32.294  26.677  25.326  1.00  0.00    -0.328 N 
ATOM     25  C   UNL A   1      31.694  25.707  26.250  1.00  0.00     0.333 C 
ATOM     26  C   UNL A   1      33.742  26.523  25.343  1.00  0.00     0.333 C 
ATOM     27  H   UNL A   1      32.141  27.639  25.627  1.00  0.00     0.348 HD
ENDBRANCH   9  24
ENDBRANCH   7   9
ENDBRANCH   6   7
ENDBRANCH   5   6
ENDBRANCH   4   5
ENDBRANCH   3   4
ENDBRANCH   2   3
ENDBRANCH   1   2
BRANCH   1  28
ATOM     28  O   UNL A   1      34.846  31.791  28.013  1.00  0.00    -0.377 OA
BRANCH  28  29
ATOM     29  C   UNL A   1      35.106  33.185  28.135  1.00  0.00     0.188 C 
BRANCH  29  30
ATOM     30  C   UNL A   1      35.124  33.814  29.541  1.00  0.00     0.188 C 
BRANCH  30  31
ATOM     31  O   UNL A   1      34.295  33.294  30.570  1.00  0.00    -0.376 OA
BRANCH  31  32
ATOM     32  C   UNL A   1      34.804  32.313  31.460  1.00  0.00     0.202 C 
BRANCH  32  33
ATOM     33  C   UNL A   1      36.316  32.112  31.540  1.00  0.00     0.261 C 
BRANCH  33  34
ATOM     34  O   UNL A   1      36.713  30.804  31.980  1.00  0.00    -0.460 OA
BRANCH  34  35
ATOM     35  C   UNL A   1      36.904  29.911  30.985  1.00  0.00     0.338 C 
ATOM     36  O   UNL A   1      36.070  29.164  30.484  1.00  0.00    -0.246 OA
BRANCH  35  37
ATOM     37  C   UNL A   1      38.289  29.980  30.504  1.00  0.00     0.060 A 
ATOM     38  C   UNL A   1      38.515  30.029  29.125  1.00  0.00     0.016 A 
ATOM     39  C   UNL A   1      39.359  29.884  31.400  1.00  0.00     0.016 A 
ATOM     40  C   UNL A   1      39.820  29.975  28.635  1.00  0.00     0.010 A 
ATOM     41  C   UNL A   1      40.668  29.834  30.905  1.00  0.00     0.010 A 
ATOM     42  C   UNL A   1      40.904  29.864  29.518  1.00  0.00    -0.014 A 
BRANCH  42  43
ATOM     43  C   UNL A   1      42.253  29.551  28.986  1.00  0.00     0.031 A 
ATOM     44  C   UNL A   1      42.500  28.142  28.534  1.00  0.00     0.074 A 
ATOM     45  C   UNL A   1      43.223  30.479  28.881  1.00  0.00     0.049 A 
ATOM     46  N   UNL A   1      43.587  27.606  28.050  1.00  0.00    -0.248 NA
ATOM     47  C   UNL A   1      41.363  27.212  28.644  1.00  0.00     0.031 C 
ATOM     48  C   UNL A   1      43.095  31.885  29.244  1.00  0.00     0.029 A 
ATOM     49  N   UNL A   1      44.520  30.372  28.441  1.00  0.00    -0.354 N 
ATOM     50  C   UNL A   1      43.264  26.281  27.791  1.00  0.00     0.074 A 
ATOM     51  C   UNL A   1      41.895  26.083  28.207  1.00  0.00     0.031 C 
ATOM     52  C   UNL A   1      44.263  32.513  29.024  1.00  0.00     0.029 A 
ATOM     53  C   UNL A   1      45.237  31.544  28.532  1.00  0.00     0.049 A 
ATOM     54  H   UNL A   1      44.901  29.534  28.091  1.00  0.00     0.167 HD
ATOM     55  C   UNL A   1      44.039  25.317  27.244  1.00  0.00     0.037 A 
ATOM     56  C   UNL A   1      46.534  31.799  28.266  1.00  0.00     0.037 A 
ATOM     57  C   UNL A   1      45.408  25.511  26.856  1.00  0.00     0.049 A 
ATOM     58  C   UNL A   1      47.404  30.683  27.744  1.00  0.00     0.074 A 
ATOM     59  C   UNL A   1      46.281  24.596  26.299  1.00  0.00     0.029 A 
ATOM     60  N   UNL A   1      46.109  26.701  26.998  1.00  0.00    -0.354 N 
ATOM     61  N   UNL A   1      47.078  29.440  27.476  1.00  0.00    -0.248 NA
ATOM     62  C   UNL A   1      48.815  31.002  27.482  1.00  0.00     0.031 C 
ATOM     63  C   UNL A   1      47.526  25.216  26.153  1.00  0.00     0.029 A 
ATOM     64  C   UNL A   1      47.412  26.534  26.564  1.00  0.00     0.049 A 
ATOM     65  H   UNL A   1      45.734  27.539  27.356  1.00  0.00     0.167 HD
ATOM     66  C   UNL A   1      48.232  28.841  26.983  1.00  0.00     0.074 A 
ATOM     67  C   UNL A   1      49.263  29.858  26.985  1.00  0.00     0.031 C 
ATOM     68  C   UNL A   1      48.422  27.565  26.561  1.00  0.00     0.037 A 
BRANCH  55  69
ATOM     69  C   UNL A   1      43.420  23.961  27.075  1.00  0.00     0.058 A 
ATOM     70  C   UNL A   1      43.253  23.087  28.162  1.00  0.00     0.135 A 
ATOM     71  C   UNL A   1      42.995  23.528  25.811  1.00  0.00     0.135 A 
ATOM     72  F   UNL A   1      43.672  23.442  29.387  1.00  0.00    -0.206 F 
ATOM     73  C   UNL A   1      42.710  21.818  27.994  1.00  0.00     0.059 A 
ATOM     74  C   UNL A   1      42.424  22.274  25.624  1.00  0.00     0.059 A 
ATOM     75  F   UNL A   1      43.147  24.320  24.738  1.00  0.00    -0.206 F 
ATOM     76  C   UNL A   1      42.299  21.421  26.720  1.00  0.00     0.060 A 
BRANCH  76  77
ATOM     77  S   UNL A   1      41.600  19.770  26.518  1.00  0.00     0.124 S 
ATOM     78  O   UNL A   1      42.234  19.335  25.277  1.00  0.00    -0.237 OA
ATOM     79  O   UNL A   1      42.049  19.092  27.730  1.00  0.00    -0.237 OA
ATOM     80  O   UNL A   1      40.164  20.017  26.435  1.00  0.00    -0.744 OA
ENDBRANCH  76  77
ENDBRANCH  55  69
BRANCH  56  81
ATOM     81  C   UNL A   1      47.101  33.157  28.498  1.00  0.00     0.058 A 
ATOM     82  C   UNL A   1      47.136  34.118  27.476  1.00  0.00     0.135 A 
ATOM     83  C   UNL A   1      47.644  33.516  29.743  1.00  0.00     0.135 A 
ATOM     84  F   UNL A   1      46.646  33.821  26.263  1.00  0.00    -0.206 F 
ATOM     85  C   UNL A   1      47.708  35.372  27.669  1.00  0.00     0.059 A 
ATOM     86  C   UNL A   1      48.198  34.772  29.970  1.00  0.00     0.059 A 
ATOM     87  F   UNL A   1      47.632  32.638  30.759  1.00  0.00    -0.206 F 
ATOM     88  C   UNL A   1      48.237  35.691  28.921  1.00  0.00     0.060 A 
BRANCH  88  89
ATOM     89  S   UNL A   1      48.956  37.329  29.168  1.00  0.00     0.124 S 
ATOM     90  O   UNL A   1      49.237  37.315  30.600  1.00  0.00    -0.237 OA
ATOM     91  O   UNL A   1      50.121  37.291  28.290  1.00  0.00    -0.237 OA
ATOM     92  O   UNL A   1      47.889  38.232  28.745  1.00  0.00    -0.744 OA
ENDBRANCH  88  89
ENDBRANCH  56  81
BRANCH  68  93
ATOM     93  C   UNL A   1      49.779  27.201  26.023  1.00  0.00     0.058 A 
ATOM     94  C   UNL A   1      50.806  26.734  26.858  1.00  0.00     0.135 A 
ATOM     95  C   UNL A   1      50.027  27.252  24.642  1.00  0.00     0.135 A 
ATOM     96  F   UNL A   1      50.621  26.670  28.187  1.00  0.00    -0.206 F 
ATOM     97  C   UNL A   1      52.039  26.350  26.343  1.00  0.00     0.059 A 
ATOM     98  C   UNL A   1      51.243  26.844  24.102  1.00  0.00     0.059 A 
ATOM     99  F   UNL A   1      49.073  27.678  23.798  1.00  0.00    -0.206 F 
ATOM    100  C   UNL A   1      52.247  26.404  24.963  1.00  0.00     0.060 A 
BRANCH 100 101
ATOM    101  S   UNL A   1      53.837  25.859  24.304  1.00  0.00     0.124 S 
ATOM    102  O   UNL A   1      53.649  26.066  22.874  1.00  0.00    -0.237 OA
ATOM    103  O   UNL A   1      54.774  26.766  24.960  1.00  0.00    -0.237 OA
ATOM    104  O   UNL A   1      53.921  24.465  24.732  1.00  0.00    -0.744 OA
ENDBRANCH 100 101
ENDBRANCH  68  93
ENDBRANCH  42  43
ENDBRANCH  35  37
ENDBRANCH  34  35
ENDBRANCH  33  34
ENDBRANCH  32  33
ENDBRANCH  31  32
ENDBRANCH  30  31
ENDBRANCH  29  30
ENDBRANCH  28  29
ENDBRANCH   1  28
TORSDOF 28
ENDMDL
MODEL 2
REMARK VINA RESULT:      -8.7      5.292      9.711
REMARK SMILES CC(=O)c1ccc(NC(=O)C[C@H](C(=O)OCCOCCOCCOCCOC(=O)c2ccc(-c3c4nc(c(-c5c(F)cc(S(=O)(=O)[O-])cc5F)c5ccc([nH]5)c(-c5c(F)cc(S(=O)(=O)[O-])cc5F)c5nc(c(-c6c(F)cc(S(=O)(=O)[O-])cc6F)c6ccc3[nH]6)C=C5)C=C4)cc2)[NH+](C)C)cc1
REMARK SMILES IDX 20 1 19 2 18 3 17 4 16 5 15 6 13 7 14 8 12 9 11 10 9 11 8 12
REMARK SMILES IDX 10 14 7 15 4 16 5 17 100 18 6 19 99 20 2 21 1 22 3 23 96 24
REMARK SMILES IDX 97 25 98 26 21 28 22 29 23 30 24 31 25 32 26 33 27 34 28 35
REMARK SMILES IDX 29 36 30 37 31 38 95 39 32 40 94 41 33 42 34 43 35 44 88 45
REMARK SMILES IDX 36 46 93 47 87 48 89 49 37 50 92 51 86 52 85 53 38 55 72 56
REMARK SMILES IDX 51 57 71 58 52 59 55 60 70 61 90 62 53 63 54 64 69 66 91 67
REMARK SMILES IDX 56 68 39 69 40 70 49 71 41 72 42 73 48 74 50 75 43 76 44 77
REMARK SMILES IDX 45 78 46 79 47 80 73 81 74 82 83 83 75 84 76 85 82 86 84 87
REMARK SMILES IDX 77 88 78 89 79 90 80 91 81 92 57 93 58 94 67 95 59 96 60 97
REMARK SMILES IDX 66 98 68 99 61 100 62 101 63 102 64 103 65 104
REMARK H PARENT 8 13 96 27 89 54 55 65
REMARK Flexibility Score: inf
ROOT
ATOM      1  C   UNL A   1      31.689  26.955  25.466  1.00  0.00     0.188 C 
ENDROOT
BRANCH   1   2
ATOM      2  C   UNL A   1      30.662  25.854  25.736  1.00  0.00     0.188 C 
BRANCH   2   3
ATOM      3  O   UNL A   1      30.946  25.049  26.874  1.00  0.00    -0.376 OA
BRANCH   3   4
ATOM      4  C   UNL A   1      31.108  23.652  26.602  1.00  0.00     0.202 C 
BRANCH   4   5
ATOM      5  C   UNL A   1      32.484  23.060  26.992  1.00  0.00     0.261 C 
BRANCH   5   6
ATOM      6  O   UNL A   1      33.559  24.027  26.818  1.00  0.00    -0.459 OA
BRANCH   6   7
ATOM      7  C   UNL A   1      34.330  24.012  25.700  1.00  0.00     0.365 C 
ATOM      8  O   UNL A   1      34.547  25.020  25.032  1.00  0.00    -0.245 OA
BRANCH   7   9
ATOM      9  C   UNL A   1      35.053  22.638  25.414  1.00  0.00     0.304 C 
BRANCH   9  10
ATOM     10  C   UNL A   1      34.615  21.998  24.061  1.00  0.00     0.177 C 
BRANCH  10  11
ATOM     11  C   UNL A   1      33.171  21.890  23.562  1.00  0.00     0.231 C 
ATOM     12  N   UNL A   1      32.487  20.716  23.367  1.00  0.00    -0.326 N 
ATOM     13  H   UNL A   1      31.685  20.820  22.806  1.00  0.00     0.169 HD
ATOM     14  O   UNL A   1      32.601  22.922  23.178  1.00  0.00    -0.274 OA
BRANCH  12  15
ATOM     15  C   UNL A   1      32.695  19.396  23.801  1.00  0.00     0.041 A 
ATOM     16  C   UNL A   1      33.000  16.744  24.732  1.00  0.00     0.017 A 
ATOM     17  C   UNL A   1      32.789  17.768  25.619  1.00  0.00     0.014 A 
ATOM     18  C   UNL A   1      32.974  17.023  23.369  1.00  0.00     0.014 A 
ATOM     19  C   UNL A   1      32.705  19.064  25.133  1.00  0.00     0.027 A 
ATOM     20  C   UNL A   1      32.797  18.343  22.898  1.00  0.00     0.027 A 
BRANCH  16  21
ATOM     21  C   UNL A   1      33.321  15.437  25.336  1.00  0.00     0.159 C 
ATOM     22  C   UNL A   1      32.188  14.624  25.892  1.00  0.00     0.093 C 
ATOM     23  O   UNL A   1      34.462  14.996  25.245  1.00  0.00    -0.295 OA
ENDBRANCH  16  21
ENDBRANCH  12  15
ENDBRANCH  10  11
ENDBRANCH   9  10
BRANCH   9  24
ATOM     24  N   UNL A   1      36.436  22.569  25.962  1.00  0.00    -0.328 N 
ATOM     25  C   UNL A   1      37.186  21.462  25.356  1.00  0.00     0.333 C 
ATOM     26  C   UNL A   1      37.248  23.777  25.920  1.00  0.00     0.333 C 
ATOM     27  H   UNL A   1      36.264  22.418  26.955  1.00  0.00     0.348 HD
ENDBRANCH   9  24
ENDBRANCH   7   9
ENDBRANCH   6   7
ENDBRANCH   5   6
ENDBRANCH   4   5
ENDBRANCH   3   4
ENDBRANCH   2   3
ENDBRANCH   1   2
BRANCH   1  28
ATOM     28  O   UNL A   1      32.691  27.024  26.474  1.00  0.00    -0.377 OA
BRANCH  28  29
ATOM     29  C   UNL A   1      32.758  28.259  27.179  1.00  0.00     0.188 C 
BRANCH  29  30
ATOM     30  C   UNL A   1      31.667  29.316  26.925  1.00  0.00     0.188 C 
BRANCH  30  31
ATOM     31  O   UNL A   1      32.005  30.692  26.848  1.00  0.00    -0.376 OA
BRANCH  31  32
ATOM     32  C   UNL A   1      33.347  31.103  27.061  1.00  0.00     0.202 C 
BRANCH  32  33
ATOM     33  C   UNL A   1      33.602  32.399  27.827  1.00  0.00     0.261 C 
BRANCH  33  34
ATOM     34  O   UNL A   1      34.245  32.216  29.098  1.00  0.00    -0.460 OA
BRANCH  34  35
ATOM     35  C   UNL A   1      34.524  33.362  29.756  1.00  0.00     0.338 C 
ATOM     36  O   UNL A   1      33.725  34.182  30.197  1.00  0.00    -0.246 OA
BRANCH  35  37
ATOM     37  C   UNL A   1      35.973  33.495  29.946  1.00  0.00     0.060 A 
ATOM     38  C   UNL A   1      36.825  32.843  29.050  1.00  0.00     0.016 A 
ATOM     39  C   UNL A   1      36.487  34.163  31.062  1.00  0.00     0.016 A 
ATOM     40  C   UNL A   1      38.203  32.852  29.273  1.00  0.00     0.010 A 
ATOM     41  C   UNL A   1      37.870  34.173  31.282  1.00  0.00     0.010 A 
ATOM     42  C   UNL A   1      38.734  33.504  30.395  1.00  0.00    -0.014 A 
BRANCH  42  43
ATOM     43  C   UNL A   1      40.156  33.293  30.760  1.00  0.00     0.031 A 
ATOM     44  C   UNL A   1      41.162  34.237  30.171  1.00  0.00     0.074 A 
ATOM     45  C   UNL A   1      40.550  32.316  31.600  1.00  0.00     0.049 A 
ATOM     46  N   UNL A   1      42.459  34.261  30.313  1.00  0.00    -0.248 NA
ATOM     47  C   UNL A   1      40.628  35.300  29.303  1.00  0.00     0.031 C 
ATOM     48  C   UNL A   1      39.670  31.366  32.269  1.00  0.00     0.029 A 
ATOM     49  N   UNL A   1      41.805  31.959  32.031  1.00  0.00    -0.354 N 
ATOM     50  C   UNL A   1      42.896  35.342  29.561  1.00  0.00     0.074 A 
ATOM     51  C   UNL A   1      41.733  35.926  28.932  1.00  0.00     0.031 C 
ATOM     52  C   UNL A   1      40.405  30.525  33.017  1.00  0.00     0.029 A 
ATOM     53  C   UNL A   1      41.816  30.858  32.857  1.00  0.00     0.049 A 
ATOM     54  H   UNL A   1      42.620  32.446  31.772  1.00  0.00     0.167 HD
ATOM     55  C   UNL A   1      44.154  35.813  29.416  1.00  0.00     0.037 A 
ATOM     56  C   UNL A   1      42.849  30.186  33.405  1.00  0.00     0.037 A 
ATOM     57  C   UNL A   1      45.311  35.214  30.022  1.00  0.00     0.049 A 
ATOM     58  C   UNL A   1      44.253  30.676  33.154  1.00  0.00     0.074 A 
ATOM     59  C   UNL A   1      46.632  35.611  29.931  1.00  0.00     0.029 A 
ATOM     60  N   UNL A   1      45.287  34.080  30.822  1.00  0.00    -0.354 N 
ATOM     61  N   UNL A   1      44.651  31.719  32.462  1.00  0.00    -0.248 NA
ATOM     62  C   UNL A   1      45.349  29.905  33.758  1.00  0.00     0.031 C 
ATOM     63  C   UNL A   1      47.413  34.687  30.631  1.00  0.00     0.029 A 
ATOM     64  C   UNL A   1      46.573  33.748  31.208  1.00  0.00     0.049 A 
ATOM     65  H   UNL A   1      44.474  33.584  31.075  1.00  0.00     0.167 HD
ATOM     66  C   UNL A   1      46.036  31.747  32.578  1.00  0.00     0.074 A 
ATOM     67  C   UNL A   1      46.408  30.622  33.409  1.00  0.00     0.031 C 
ATOM     68  C   UNL A   1      46.922  32.629  32.049  1.00  0.00     0.037 A 
BRANCH  55  69
ATOM     69  C   UNL A   1      44.335  37.014  28.535  1.00  0.00     0.058 A 
ATOM     70  C   UNL A   1      44.818  36.898  27.221  1.00  0.00     0.135 A 
ATOM     71  C   UNL A   1      44.028  38.297  29.012  1.00  0.00     0.135 A 
ATOM     72  F   UNL A   1      45.155  35.696  26.727  1.00  0.00    -0.206 F 
ATOM     73  C   UNL A   1      45.015  38.017  26.420  1.00  0.00     0.059 A 
ATOM     74  C   UNL A   1      44.191  39.427  28.219  1.00  0.00     0.059 A 
ATOM     75  F   UNL A   1      43.578  38.462  30.266  1.00  0.00    -0.206 F 
ATOM     76  C   UNL A   1      44.699  39.278  26.930  1.00  0.00     0.060 A 
BRANCH  76  77
ATOM     77  S   UNL A   1      44.964  40.721  25.879  1.00  0.00     0.124 S 
ATOM     78  O   UNL A   1      45.996  40.233  24.970  1.00  0.00    -0.237 OA
ATOM     79  O   UNL A   1      43.644  40.923  25.290  1.00  0.00    -0.237 OA
ATOM     80  O   UNL A   1      45.393  41.751  26.820  1.00  0.00    -0.744 OA
ENDBRANCH  76  77
ENDBRANCH  55  69
BRANCH  56  81
ATOM     81  C   UNL A   1      42.607  28.972  34.235  1.00  0.00     0.058 A 
ATOM     82  C   UNL A   1      42.488  27.701  33.651  1.00  0.00     0.135 A 
ATOM     83  C   UNL A   1      42.466  29.061  35.629  1.00  0.00     0.135 A 
ATOM     84  F   UNL A   1      42.600  27.563  32.322  1.00  0.00    -0.206 F 
ATOM     85  C   UNL A   1      42.214  26.569  34.413  1.00  0.00     0.059 A 
ATOM     86  C   UNL A   1      42.217  27.940  36.416  1.00  0.00     0.059 A 
ATOM     87  F   UNL A   1      42.576  30.251  36.241  1.00  0.00    -0.206 F 
ATOM     88  C   UNL A   1      42.079  26.698  35.797  1.00  0.00     0.060 A 
BRANCH  88  89
ATOM     89  S   UNL A   1      41.747  25.219  36.779  1.00  0.00     0.124 S 
ATOM     90  O   UNL A   1      40.522  25.598  37.475  1.00  0.00    -0.237 OA
ATOM     91  O   UNL A   1      41.605  24.192  35.752  1.00  0.00    -0.237 OA
ATOM     92  O   UNL A   1      42.936  25.097  37.618  1.00  0.00    -0.744 OA
ENDBRANCH  88  89
ENDBRANCH  56  81
BRANCH  68  93
ATOM     93  C   UNL A   1      48.377  32.445  32.384  1.00  0.00     0.058 A 
ATOM     94  C   UNL A   1      49.240  31.709  31.559  1.00  0.00     0.135 A 
ATOM     95  C   UNL A   1      48.926  33.077  33.511  1.00  0.00     0.135 A 
ATOM     96  F   UNL A   1      48.764  31.081  30.471  1.00  0.00    -0.206 F 
ATOM     97  C   UNL A   1      50.595  31.589  31.851  1.00  0.00     0.059 A 
ATOM     98  C   UNL A   1      50.284  32.996  33.806  1.00  0.00     0.059 A 
ATOM     99  F   UNL A   1      48.146  33.805  34.327  1.00  0.00    -0.206 F 
ATOM    100  C   UNL A   1      51.109  32.240  32.975  1.00  0.00     0.060 A 
BRANCH 100 101
ATOM    101  S   UNL A   1      52.877  32.114  33.316  1.00  0.00     0.124 S 
ATOM    102  O   UNL A   1      52.877  31.663  34.702  1.00  0.00    -0.237 OA
ATOM    103  O   UNL A   1      53.316  31.134  32.328  1.00  0.00    -0.237 OA
ATOM    104  O   UNL A   1      53.362  33.475  33.098  1.00  0.00    -0.744 OA
ENDBRANCH 100 101
ENDBRANCH  68  93
ENDBRANCH  42  43
ENDBRANCH  35  37
ENDBRANCH  34  35
ENDBRANCH  33  34
ENDBRANCH  32  33
ENDBRANCH  31  32
ENDBRANCH  30  31
ENDBRANCH  29  30
ENDBRANCH  28  29
ENDBRANCH   1  28
TORSDOF 28
ENDMDL
MODEL 3
REMARK VINA RESULT:      -8.5      1.903      8.615
REMARK SMILES CC(=O)c1ccc(NC(=O)C[C@H](C(=O)OCCOCCOCCOCCOC(=O)c2ccc(-c3c4nc(c(-c5c(F)cc(S(=O)(=O)[O-])cc5F)c5ccc([nH]5)c(-c5c(F)cc(S(=O)(=O)[O-])cc5F)c5nc(c(-c6c(F)cc(S(=O)(=O)[O-])cc6F)c6ccc3[nH]6)C=C5)C=C4)cc2)[NH+](C)C)cc1
REMARK SMILES IDX 20 1 19 2 18 3 17 4 16 5 15 6 13 7 14 8 12 9 11 10 9 11 8 12
REMARK SMILES IDX 10 14 7 15 4 16 5 17 100 18 6 19 99 20 2 21 1 22 3 23 96 24
REMARK SMILES IDX 97 25 98 26 21 28 22 29 23 30 24 31 25 32 26 33 27 34 28 35
REMARK SMILES IDX 29 36 30 37 31 38 95 39 32 40 94 41 33 42 34 43 35 44 88 45
REMARK SMILES IDX 36 46 93 47 87 48 89 49 37 50 92 51 86 52 85 53 38 55 72 56
REMARK SMILES IDX 51 57 71 58 52 59 55 60 70 61 90 62 53 63 54 64 69 66 91 67
REMARK SMILES IDX 56 68 39 69 40 70 49 71 41 72 42 73 48 74 50 75 43 76 44 77
REMARK SMILES IDX 45 78 46 79 47 80 73 81 74 82 83 83 75 84 76 85 82 86 84 87
REMARK SMILES IDX 77 88 78 89 79 90 80 91 81 92 57 93 58 94 67 95 59 96 60 97
REMARK SMILES IDX 66 98 68 99 61 100 62 101 63 102 64 103 65 104
REMARK H PARENT 8 13 96 27 89 54 55 65
REMARK Flexibility Score: inf
ROOT
ATOM      1  C   UNL A   1      35.332  29.657  28.332  1.00  0.00     0.188 C 
ENDROOT
BRANCH   1   2
ATOM      2  C   UNL A   1      34.619  29.406  27.002  1.00  0.00     0.188 C 
BRANCH   2   3
ATOM      3  O   UNL A   1      33.870  28.197  26.953  1.00  0.00    -0.376 OA
BRANCH   3   4
ATOM      4  C   UNL A   1      32.473  28.362  26.686  1.00  0.00     0.202 C 
BRANCH   4   5
ATOM      5  C   UNL A   1      31.818  27.217  25.874  1.00  0.00     0.261 C 
BRANCH   5   6
ATOM      6  O   UNL A   1      32.221  25.906  26.365  1.00  0.00    -0.459 OA
BRANCH   6   7
ATOM      7  C   UNL A   1      32.611  24.933  25.501  1.00  0.00     0.365 C 
ATOM      8  O   UNL A   1      33.754  24.481  25.484  1.00  0.00    -0.245 OA
BRANCH   7   9
ATOM      9  C   UNL A   1      31.447  24.315  24.633  1.00  0.00     0.304 C 
BRANCH   9  10
ATOM     10  C   UNL A   1      31.681  24.492  23.100  1.00  0.00     0.177 C 
BRANCH  10  11
ATOM     11  C   UNL A   1      32.622  25.519  22.464  1.00  0.00     0.231 C 
ATOM     12  N   UNL A   1      32.261  26.781  22.063  1.00  0.00    -0.326 N 
ATOM     13  H   UNL A   1      32.910  27.195  21.449  1.00  0.00     0.169 HD
ATOM     14  O   UNL A   1      33.769  25.159  22.162  1.00  0.00    -0.274 OA
BRANCH  12  15
ATOM     15  C   UNL A   1      31.157  27.603  22.345  1.00  0.00     0.041 A 
ATOM     16  C   UNL A   1      28.940  29.216  23.034  1.00  0.00     0.017 A 
ATOM     17  C   UNL A   1      28.902  27.862  23.247  1.00  0.00     0.014 A 
ATOM     18  C   UNL A   1      30.116  29.787  22.556  1.00  0.00     0.014 A 
ATOM     19  C   UNL A   1      29.982  27.093  22.841  1.00  0.00     0.027 A 
ATOM     20  C   UNL A   1      31.235  28.987  22.234  1.00  0.00     0.027 A 
BRANCH  16  21
ATOM     21  C   UNL A   1      27.670  29.931  23.263  1.00  0.00     0.159 C 
ATOM     22  C   UNL A   1      27.700  31.432  23.260  1.00  0.00     0.093 C 
ATOM     23  O   UNL A   1      26.622  29.296  23.311  1.00  0.00    -0.295 OA
ENDBRANCH  16  21
ENDBRANCH  12  15
ENDBRANCH  10  11
ENDBRANCH   9  10
BRANCH   9  24
ATOM     24  N   UNL A   1      30.819  23.113  25.248  1.00  0.00    -0.328 N 
ATOM     25  C   UNL A   1      31.665  21.928  25.067  1.00  0.00     0.333 C 
ATOM     26  C   UNL A   1      30.404  23.197  26.641  1.00  0.00     0.333 C 
ATOM     27  H   UNL A   1      29.944  23.042  24.731  1.00  0.00     0.348 HD
ENDBRANCH   9  24
ENDBRANCH   7   9
ENDBRANCH   6   7
ENDBRANCH   5   6
ENDBRANCH   4   5
ENDBRANCH   3   4
ENDBRANCH   2   3
ENDBRANCH   1   2
BRANCH   1  28
ATOM     28  O   UNL A   1      36.640  30.191  28.156  1.00  0.00    -0.377 OA
BRANCH  28  29
ATOM     29  C   UNL A   1      37.471  30.153  29.311  1.00  0.00     0.188 C 
BRANCH  29  30
ATOM     30  C   UNL A   1      37.101  29.194  30.457  1.00  0.00     0.188 C 
BRANCH  30  31
ATOM     31  O   UNL A   1      36.282  29.638  31.529  1.00  0.00    -0.376 OA
BRANCH  31  32
ATOM     32  C   UNL A   1      36.867  30.311  32.633  1.00  0.00     0.202 C 
BRANCH  32  33
ATOM     33  C   UNL A   1      36.892  31.838  32.629  1.00  0.00     0.261 C 
BRANCH  33  34
ATOM     34  O   UNL A   1      37.953  32.411  33.409  1.00  0.00    -0.460 OA
BRANCH  34  35
ATOM     35  C   UNL A   1      38.851  33.125  32.695  1.00  0.00     0.338 C 
ATOM     36  O   UNL A   1      38.942  34.346  32.621  1.00  0.00    -0.246 OA
BRANCH  35  37
ATOM     37  C   UNL A   1      39.796  32.223  32.027  1.00  0.00     0.060 A 
ATOM     38  C   UNL A   1      40.533  31.330  32.810  1.00  0.00     0.016 A 
ATOM     39  C   UNL A   1      40.035  32.333  30.653  1.00  0.00     0.016 A 
ATOM     40  C   UNL A   1      41.524  30.545  32.218  1.00  0.00     0.010 A 
ATOM     41  C   UNL A   1      41.026  31.541  30.061  1.00  0.00     0.010 A 
ATOM     42  C   UNL A   1      41.786  30.653  30.845  1.00  0.00    -0.014 A 
BRANCH  42  43
ATOM     43  C   UNL A   1      42.998  30.012  30.279  1.00  0.00     0.031 A 
ATOM     44  C   UNL A   1      44.263  30.819  30.279  1.00  0.00     0.074 A 
ATOM     45  C   UNL A   1      42.995  28.753  29.800  1.00  0.00     0.049 A 
ATOM     46  N   UNL A   1      45.447  30.504  29.830  1.00  0.00    -0.248 NA
ATOM     47  C   UNL A   1      44.177  32.167  30.867  1.00  0.00     0.031 C 
ATOM     48  C   UNL A   1      41.847  27.854  29.784  1.00  0.00     0.029 A 
ATOM     49  N   UNL A   1      43.999  28.011  29.227  1.00  0.00    -0.354 N 
ATOM     50  C   UNL A   1      46.248  31.608  30.088  1.00  0.00     0.074 A 
ATOM     51  C   UNL A   1      45.409  32.616  30.694  1.00  0.00     0.031 C 
ATOM     52  C   UNL A   1      42.201  26.686  29.220  1.00  0.00     0.029 A 
ATOM     53  C   UNL A   1      43.597  26.763  28.806  1.00  0.00     0.049 A 
ATOM     54  H   UNL A   1      44.921  28.342  29.126  1.00  0.00     0.167 HD
ATOM     55  C   UNL A   1      47.569  31.763  29.849  1.00  0.00     0.037 A 
ATOM     56  C   UNL A   1      44.275  25.802  28.146  1.00  0.00     0.037 A 
ATOM     57  C   UNL A   1      48.394  30.769  29.222  1.00  0.00     0.049 A 
ATOM     58  C   UNL A   1      45.727  26.035  27.807  1.00  0.00     0.074 A 
ATOM     59  C   UNL A   1      49.744  30.832  28.929  1.00  0.00     0.029 A 
ATOM     60  N   UNL A   1      47.944  29.533  28.777  1.00  0.00    -0.354 N 
ATOM     61  N   UNL A   1      46.480  27.075  28.082  1.00  0.00    -0.248 NA
ATOM     62  C   UNL A   1      46.422  24.968  27.074  1.00  0.00     0.031 C 
ATOM     63  C   UNL A   1      50.099  29.657  28.259  1.00  0.00     0.029 A 
ATOM     64  C   UNL A   1      48.984  28.837  28.188  1.00  0.00     0.049 A 
ATOM     65  H   UNL A   1      47.021  29.203  28.867  1.00  0.00     0.167 HD
ATOM     66  C   UNL A   1      47.744  26.771  27.587  1.00  0.00     0.074 A 
ATOM     67  C   UNL A   1      47.655  25.450  27.001  1.00  0.00     0.031 C 
ATOM     68  C   UNL A   1      48.879  27.515  27.620  1.00  0.00     0.037 A 
BRANCH  55  69
ATOM     69  C   UNL A   1      48.182  33.076  30.238  1.00  0.00     0.058 A 
ATOM     70  C   UNL A   1      48.226  34.161  29.348  1.00  0.00     0.135 A 
ATOM     71  C   UNL A   1      48.738  33.249  31.515  1.00  0.00     0.135 A 
ATOM     72  F   UNL A   1      47.736  34.037  28.104  1.00  0.00    -0.206 F 
ATOM     73  C   UNL A   1      48.825  35.365  29.702  1.00  0.00     0.059 A 
ATOM     74  C   UNL A   1      49.317  34.453  31.900  1.00  0.00     0.059 A 
ATOM     75  F   UNL A   1      48.734  32.237  32.397  1.00  0.00    -0.206 F 
ATOM     76  C   UNL A   1      49.368  35.500  30.981  1.00  0.00     0.060 A 
BRANCH  76  77
ATOM     77  S   UNL A   1      50.145  37.068  31.424  1.00  0.00     0.124 S 
ATOM     78  O   UNL A   1      50.867  37.391  30.197  1.00  0.00    -0.237 OA
ATOM     79  O   UNL A   1      48.993  37.912  31.723  1.00  0.00    -0.237 OA
ATOM     80  O   UNL A   1      50.980  36.720  32.570  1.00  0.00    -0.744 OA
ENDBRANCH  76  77
ENDBRANCH  55  69
BRANCH  56  81
ATOM     81  C   UNL A   1      43.598  24.537  27.746  1.00  0.00     0.058 A 
ATOM     82  C   UNL A   1      43.080  24.363  26.453  1.00  0.00     0.135 A 
ATOM     83  C   UNL A   1      43.431  23.482  28.658  1.00  0.00     0.135 A 
ATOM     84  F   UNL A   1      43.199  25.346  25.547  1.00  0.00    -0.206 F 
ATOM     85  C   UNL A   1      42.403  23.204  26.086  1.00  0.00     0.059 A 
ATOM     86  C   UNL A   1      42.781  22.302  28.308  1.00  0.00     0.059 A 
ATOM     87  F   UNL A   1      43.911  23.592  29.907  1.00  0.00    -0.206 F 
ATOM     88  C   UNL A   1      42.258  22.177  27.021  1.00  0.00     0.060 A 
BRANCH  88  89
ATOM     89  S   UNL A   1      41.397  20.668  26.527  1.00  0.00     0.124 S 
ATOM     90  O   UNL A   1      41.392  19.911  27.774  1.00  0.00    -0.237 OA
ATOM     91  O   UNL A   1      40.105  21.180  26.085  1.00  0.00    -0.237 OA
ATOM     92  O   UNL A   1      42.246  20.128  25.467  1.00  0.00    -0.744 OA
ENDBRANCH  88  89
ENDBRANCH  56  81
BRANCH  68  93
ATOM     93  C   UNL A   1      50.130  26.907  27.047  1.00  0.00     0.058 A 
ATOM     94  C   UNL A   1      51.028  26.176  27.838  1.00  0.00     0.135 A 
ATOM     95  C   UNL A   1      50.392  27.000  25.670  1.00  0.00     0.135 A 
ATOM     96  F   UNL A   1      50.826  26.062  29.161  1.00  0.00    -0.206 F 
ATOM     97  C   UNL A   1      52.155  25.574  27.288  1.00  0.00     0.059 A 
ATOM     98  C   UNL A   1      51.496  26.380  25.093  1.00  0.00     0.059 A 
ATOM     99  F   UNL A   1      49.556  27.677  24.866  1.00  0.00    -0.206 F 
ATOM    100  C   UNL A   1      52.378  25.678  25.912  1.00  0.00     0.060 A 
BRANCH 100 101
ATOM    101  S   UNL A   1      53.819  24.853  25.204  1.00  0.00     0.124 S 
ATOM    102  O   UNL A   1      54.020  25.615  23.977  1.00  0.00    -0.237 OA
ATOM    103  O   UNL A   1      54.828  25.041  26.242  1.00  0.00    -0.237 OA
ATOM    104  O   UNL A   1      53.365  23.476  25.022  1.00  0.00    -0.744 OA
ENDBRANCH 100 101
ENDBRANCH  68  93
ENDBRANCH  42  43
ENDBRANCH  35  37
ENDBRANCH  34  35
ENDBRANCH  33  34
ENDBRANCH  32  33
ENDBRANCH  31  32
ENDBRANCH  30  31
ENDBRANCH  29  30
ENDBRANCH  28  29
ENDBRANCH   1  28
TORSDOF 28
ENDMDL
